MODEL 1
REMARK VINA RESULT:     -11.0      0.000      0.000
REMARK SMILES O=C(OCCOC(=O)c1cccnc1C[N@@H+]1CCC[C@H]1c1ccccn1)c1ccc(-c2c3nc(c(-c4ccc(S(=O)(=O)[O-])cc4)c4ccc([nH]4)c(-c4ccc(S(=O)(=O)[O-])cc4)c4nc(c(-c5ccc(S(=O)(=O)[O-])cc5)c5ccc2[nH]5)C=C4)C=C3)cc1
REMARK SMILES IDX 4 1 3 2 2 3 1 4 27 5 28 6 86 7 29 8 85 9 30 10 31 11 32 12
REMARK SMILES IDX 79 13 33 14 84 15 78 16 80 17 34 18 83 19 77 20 76 21 35 23
REMARK SMILES IDX 65 24 46 25 64 26 47 27 50 28 63 29 81 30 48 31 49 32 62 34
REMARK SMILES IDX 82 35 51 36 36 37 37 38 45 39 38 40 44 41 39 42 40 43 41 44
REMARK SMILES IDX 42 45 43 46 66 47 67 48 75 49 68 50 74 51 69 52 70 53 71 54
REMARK SMILES IDX 72 55 73 56 52 57 53 58 61 59 54 60 60 61 55 62 56 63 57 64
REMARK SMILES IDX 58 65 59 66 5 67 6 68 7 69 8 70 9 71 10 72 14 73 11 74 13 75
REMARK SMILES IDX 12 76 15 77 16 78 17 79 20 80 18 82 19 83 21 84 22 85 26 86
REMARK SMILES IDX 23 87 25 88 24 89
REMARK H PARENT 80 22 50 33 16 81
REMARK Flexibility Score: inf
ROOT
ATOM      1  C   UNL A   1      33.031  29.459  26.715  1.00  0.00     0.275 C 
ENDROOT
BRANCH   1   2
ATOM      2  O   UNL A   1      33.486  30.818  26.828  1.00  0.00    -0.458 OA
BRANCH   2   3
ATOM      3  C   UNL A   1      34.220  31.395  27.805  1.00  0.00     0.338 C 
ATOM      4  O   UNL A   1      33.881  32.492  28.242  1.00  0.00    -0.246 OA
BRANCH   3   5
ATOM      5  C   UNL A   1      35.485  30.797  28.317  1.00  0.00     0.060 A 
ATOM      6  C   UNL A   1      35.579  29.786  29.274  1.00  0.00     0.016 A 
ATOM      7  C   UNL A   1      36.671  31.374  27.849  1.00  0.00     0.016 A 
ATOM      8  C   UNL A   1      36.833  29.333  29.711  1.00  0.00     0.010 A 
ATOM      9  C   UNL A   1      37.925  30.903  28.256  1.00  0.00     0.010 A 
ATOM     10  C   UNL A   1      38.018  29.899  29.220  1.00  0.00    -0.014 A 
BRANCH  10  11
ATOM     11  C   UNL A   1      39.327  29.547  29.831  1.00  0.00     0.031 A 
ATOM     12  C   UNL A   1      39.804  30.305  31.045  1.00  0.00     0.074 A 
ATOM     13  C   UNL A   1      40.068  28.531  29.347  1.00  0.00     0.049 A 
ATOM     14  N   UNL A   1      40.795  30.023  31.853  1.00  0.00    -0.248 NA
ATOM     15  C   UNL A   1      39.072  31.531  31.403  1.00  0.00     0.031 C 
ATOM     16  C   UNL A   1      39.749  27.746  28.155  1.00  0.00     0.029 A 
ATOM     17  N   UNL A   1      41.241  27.978  29.800  1.00  0.00    -0.354 N 
ATOM     18  C   UNL A   1      40.762  30.999  32.843  1.00  0.00     0.074 A 
ATOM     19  C   UNL A   1      39.727  31.938  32.480  1.00  0.00     0.031 C 
ATOM     20  C   UNL A   1      40.705  26.821  27.963  1.00  0.00     0.029 A 
ATOM     21  C   UNL A   1      41.690  26.927  29.037  1.00  0.00     0.049 A 
ATOM     22  H   UNL A   1      41.715  28.305  30.598  1.00  0.00     0.167 HD
ATOM     23  C   UNL A   1      41.487  31.077  33.984  1.00  0.00     0.031 A 
ATOM     24  C   UNL A   1      42.755  26.116  29.202  1.00  0.00     0.031 A 
ATOM     25  C   UNL A   1      42.543  30.168  34.329  1.00  0.00     0.049 A 
ATOM     26  C   UNL A   1      43.588  26.250  30.450  1.00  0.00     0.074 A 
ATOM     27  C   UNL A   1      43.328  30.144  35.467  1.00  0.00     0.029 A 
ATOM     28  N   UNL A   1      42.970  29.124  33.523  1.00  0.00    -0.354 N 
ATOM     29  N   UNL A   1      43.457  27.103  31.439  1.00  0.00    -0.248 NA
ATOM     30  C   UNL A   1      44.678  25.282  30.630  1.00  0.00     0.031 C 
ATOM     31  C   UNL A   1      44.254  29.102  35.333  1.00  0.00     0.029 A 
ATOM     32  C   UNL A   1      44.015  28.454  34.132  1.00  0.00     0.049 A 
ATOM     33  H   UNL A   1      42.584  28.892  32.646  1.00  0.00     0.167 HD
ATOM     34  C   UNL A   1      44.418  26.744  32.378  1.00  0.00     0.074 A 
ATOM     35  C   UNL A   1      45.119  25.596  31.840  1.00  0.00     0.031 C 
ATOM     36  C   UNL A   1      44.692  27.307  33.581  1.00  0.00     0.031 A 
BRANCH  23  37
ATOM     37  C   UNL A   1      41.114  32.170  34.950  1.00  0.00    -0.014 A 
ATOM     38  C   UNL A   1      41.758  33.421  34.880  1.00  0.00     0.010 A 
ATOM     39  C   UNL A   1      40.128  31.962  35.928  1.00  0.00     0.010 A 
ATOM     40  C   UNL A   1      41.460  34.426  35.803  1.00  0.00     0.020 A 
ATOM     41  C   UNL A   1      39.809  32.974  36.840  1.00  0.00     0.020 A 
ATOM     42  C   UNL A   1      40.492  34.193  36.784  1.00  0.00     0.054 A 
BRANCH  42  43
ATOM     43  S   UNL A   1      40.124  35.515  37.969  1.00  0.00     0.124 S 
ATOM     44  O   UNL A   1      39.802  36.632  37.084  1.00  0.00    -0.237 OA
ATOM     45  O   UNL A   1      38.998  34.967  38.723  1.00  0.00    -0.237 OA
ATOM     46  O   UNL A   1      41.365  35.658  38.726  1.00  0.00    -0.744 OA
ENDBRANCH  42  43
ENDBRANCH  23  37
BRANCH  24  47
ATOM     47  C   UNL A   1      43.066  25.069  28.189  1.00  0.00    -0.014 A 
ATOM     48  C   UNL A   1      42.526  23.775  28.293  1.00  0.00     0.010 A 
ATOM     49  C   UNL A   1      43.929  25.364  27.117  1.00  0.00     0.010 A 
ATOM     50  C   UNL A   1      42.868  22.786  27.365  1.00  0.00     0.020 A 
ATOM     51  C   UNL A   1      44.255  24.385  26.173  1.00  0.00     0.020 A 
ATOM     52  C   UNL A   1      43.734  23.096  26.312  1.00  0.00     0.054 A 
BRANCH  52  53
ATOM     53  S   UNL A   1      44.143  21.806  25.102  1.00  0.00     0.124 S 
ATOM     54  O   UNL A   1      45.512  21.464  25.475  1.00  0.00    -0.237 OA
ATOM     55  O   UNL A   1      43.136  20.785  25.378  1.00  0.00    -0.237 OA
ATOM     56  O   UNL A   1      43.993  22.486  23.818  1.00  0.00    -0.744 OA
ENDBRANCH  52  53
ENDBRANCH  24  47
BRANCH  36  57
ATOM     57  C   UNL A   1      45.766  26.666  34.415  1.00  0.00    -0.014 A 
ATOM     58  C   UNL A   1      45.483  25.569  35.249  1.00  0.00     0.010 A 
ATOM     59  C   UNL A   1      47.088  27.136  34.322  1.00  0.00     0.010 A 
ATOM     60  C   UNL A   1      46.499  24.976  36.001  1.00  0.00     0.020 A 
ATOM     61  C   UNL A   1      48.112  26.529  35.053  1.00  0.00     0.020 A 
ATOM     62  C   UNL A   1      47.807  25.462  35.900  1.00  0.00     0.054 A 
BRANCH  62  63
ATOM     63  S   UNL A   1      49.118  24.649  36.853  1.00  0.00     0.124 S 
ATOM     64  O   UNL A   1      49.041  23.275  36.365  1.00  0.00    -0.237 OA
ATOM     65  O   UNL A   1      50.313  25.390  36.456  1.00  0.00    -0.237 OA
ATOM     66  O   UNL A   1      48.706  24.842  38.242  1.00  0.00    -0.744 OA
ENDBRANCH  62  63
ENDBRANCH  36  57
ENDBRANCH  10  11
ENDBRANCH   3   5
ENDBRANCH   2   3
ENDBRANCH   1   2
BRANCH   1  67
ATOM     67  C   UNL A   1      33.826  28.614  25.730  1.00  0.00     0.275 C 
BRANCH  67  68
ATOM     68  O   UNL A   1      34.014  27.259  26.173  1.00  0.00    -0.458 OA
BRANCH  68  69
ATOM     69  C   UNL A   1      33.810  26.274  25.266  1.00  0.00     0.340 C 
ATOM     70  O   UNL A   1      34.083  26.321  24.069  1.00  0.00    -0.246 OA
BRANCH  69  71
ATOM     71  C   UNL A   1      33.125  25.136  25.917  1.00  0.00     0.087 A 
ATOM     72  C   UNL A   1      33.935  24.055  26.338  1.00  0.00     0.019 A 
ATOM     73  C   UNL A   1      31.754  25.117  26.226  1.00  0.00     0.109 A 
ATOM     74  C   UNL A   1      33.387  22.998  27.049  1.00  0.00     0.021 A 
ATOM     75  N   UNL A   1      31.252  24.081  26.950  1.00  0.00    -0.254 NA
ATOM     76  C   UNL A   1      32.044  23.055  27.327  1.00  0.00     0.111 A 
BRANCH  73  77
ATOM     77  C   UNL A   1      30.796  26.284  25.913  1.00  0.00     0.321 C 
BRANCH  77  78
ATOM     78  N   UNL A   1      30.147  26.444  24.572  1.00  0.00    -0.322 N 
ATOM     79  C   UNL A   1      30.106  25.259  23.714  1.00  0.00     0.263 C 
ATOM     80  C   UNL A   1      30.645  27.561  23.738  1.00  0.00     0.234 C 
ATOM     81  H   UNL A   1      29.202  26.651  24.894  1.00  0.00     0.349 HD
ATOM     82  C   UNL A   1      31.164  25.472  22.641  1.00  0.00     0.068 C 
ATOM     83  C   UNL A   1      31.161  26.965  22.420  1.00  0.00     0.078 C 
BRANCH  80  84
ATOM     84  C   UNL A   1      29.624  28.646  23.385  1.00  0.00     0.098 A 
ATOM     85  C   UNL A   1      29.907  30.001  23.567  1.00  0.00     0.030 A 
ATOM     86  N   UNL A   1      28.368  28.214  23.097  1.00  0.00    -0.255 NA
ATOM     87  C   UNL A   1      28.872  30.932  23.487  1.00  0.00     0.004 A 
ATOM     88  C   UNL A   1      27.385  29.140  23.013  1.00  0.00     0.111 A 
ATOM     89  C   UNL A   1      27.583  30.495  23.214  1.00  0.00     0.020 A 
ENDBRANCH  80  84
ENDBRANCH  77  78
ENDBRANCH  73  77
ENDBRANCH  69  71
ENDBRANCH  68  69
ENDBRANCH  67  68
ENDBRANCH   1  67
TORSDOF 17
ENDMDL
MODEL 2
REMARK VINA RESULT:     -10.8      4.167      9.932
REMARK SMILES O=C(OCCOC(=O)c1cccnc1C[N@@H+]1CCC[C@H]1c1ccccn1)c1ccc(-c2c3nc(c(-c4ccc(S(=O)(=O)[O-])cc4)c4ccc([nH]4)c(-c4ccc(S(=O)(=O)[O-])cc4)c4nc(c(-c5ccc(S(=O)(=O)[O-])cc5)c5ccc2[nH]5)C=C4)C=C3)cc1
REMARK SMILES IDX 4 1 3 2 2 3 1 4 27 5 28 6 86 7 29 8 85 9 30 10 31 11 32 12
REMARK SMILES IDX 79 13 33 14 84 15 78 16 80 17 34 18 83 19 77 20 76 21 35 23
REMARK SMILES IDX 65 24 46 25 64 26 47 27 50 28 63 29 81 30 48 31 49 32 62 34
REMARK SMILES IDX 82 35 51 36 36 37 37 38 45 39 38 40 44 41 39 42 40 43 41 44
REMARK SMILES IDX 42 45 43 46 66 47 67 48 75 49 68 50 74 51 69 52 70 53 71 54
REMARK SMILES IDX 72 55 73 56 52 57 53 58 61 59 54 60 60 61 55 62 56 63 57 64
REMARK SMILES IDX 58 65 59 66 5 67 6 68 7 69 8 70 9 71 10 72 14 73 11 74 13 75
REMARK SMILES IDX 12 76 15 77 16 78 17 79 20 80 18 82 19 83 21 84 22 85 26 86
REMARK SMILES IDX 23 87 25 88 24 89
REMARK H PARENT 80 22 50 33 16 81
REMARK Flexibility Score: inf
ROOT
ATOM      1  C   UNL A   1      37.353  23.296  24.870  1.00  0.00     0.275 C 
ENDROOT
BRANCH   1   2
ATOM      2  O   UNL A   1      38.297  22.403  25.486  1.00  0.00    -0.458 OA
BRANCH   2   3
ATOM      3  C   UNL A   1      39.271  22.674  26.383  1.00  0.00     0.338 C 
ATOM      4  O   UNL A   1      39.914  21.748  26.868  1.00  0.00    -0.246 OA
BRANCH   3   5
ATOM      5  C   UNL A   1      39.539  24.053  26.882  1.00  0.00     0.060 A 
ATOM      6  C   UNL A   1      40.255  25.039  26.204  1.00  0.00     0.016 A 
ATOM      7  C   UNL A   1      39.101  24.331  28.182  1.00  0.00     0.016 A 
ATOM      8  C   UNL A   1      40.481  26.290  26.799  1.00  0.00     0.010 A 
ATOM      9  C   UNL A   1      39.294  25.589  28.766  1.00  0.00     0.010 A 
ATOM     10  C   UNL A   1      40.018  26.571  28.092  1.00  0.00    -0.014 A 
BRANCH  10  11
ATOM     11  C   UNL A   1      40.431  27.824  28.781  1.00  0.00     0.031 A 
ATOM     12  C   UNL A   1      41.832  27.940  29.326  1.00  0.00     0.074 A 
ATOM     13  C   UNL A   1      39.588  28.870  28.881  1.00  0.00     0.049 A 
ATOM     14  N   UNL A   1      42.458  29.004  29.762  1.00  0.00    -0.248 NA
ATOM     15  C   UNL A   1      42.638  26.708  29.382  1.00  0.00     0.031 C 
ATOM     16  C   UNL A   1      38.194  28.877  28.439  1.00  0.00     0.029 A 
ATOM     17  N   UNL A   1      39.780  30.134  29.382  1.00  0.00    -0.354 N 
ATOM     18  C   UNL A   1      43.743  28.580  30.082  1.00  0.00     0.074 A 
ATOM     19  C   UNL A   1      43.777  27.148  29.894  1.00  0.00     0.031 C 
ATOM     20  C   UNL A   1      37.652  30.080  28.697  1.00  0.00     0.029 A 
ATOM     21  C   UNL A   1      38.670  30.941  29.294  1.00  0.00     0.049 A 
ATOM     22  H   UNL A   1      40.635  30.435  29.767  1.00  0.00     0.167 HD
ATOM     23  C   UNL A   1      44.818  29.319  30.444  1.00  0.00     0.031 A 
ATOM     24  C   UNL A   1      38.500  32.237  29.624  1.00  0.00     0.031 A 
ATOM     25  C   UNL A   1      44.777  30.737  30.671  1.00  0.00     0.049 A 
ATOM     26  C   UNL A   1      39.694  33.036  30.080  1.00  0.00     0.074 A 
ATOM     27  C   UNL A   1      45.810  31.587  31.022  1.00  0.00     0.029 A 
ATOM     28  N   UNL A   1      43.631  31.511  30.580  1.00  0.00    -0.354 N 
ATOM     29  N   UNL A   1      40.933  32.639  30.253  1.00  0.00    -0.248 NA
ATOM     30  C   UNL A   1      39.478  34.467  30.336  1.00  0.00     0.031 C 
ATOM     31  C   UNL A   1      45.279  32.873  31.175  1.00  0.00     0.029 A 
ATOM     32  C   UNL A   1      43.926  32.828  30.878  1.00  0.00     0.049 A 
ATOM     33  H   UNL A   1      42.738  31.172  30.337  1.00  0.00     0.167 HD
ATOM     34  C   UNL A   1      41.651  33.780  30.592  1.00  0.00     0.074 A 
ATOM     35  C   UNL A   1      40.710  34.882  30.596  1.00  0.00     0.031 C 
ATOM     36  C   UNL A   1      42.973  33.909  30.867  1.00  0.00     0.031 A 
BRANCH  23  37
ATOM     37  C   UNL A   1      46.129  28.592  30.571  1.00  0.00    -0.014 A 
ATOM     38  C   UNL A   1      46.389  27.800  31.707  1.00  0.00     0.010 A 
ATOM     39  C   UNL A   1      47.109  28.692  29.569  1.00  0.00     0.010 A 
ATOM     40  C   UNL A   1      47.621  27.162  31.862  1.00  0.00     0.020 A 
ATOM     41  C   UNL A   1      48.336  28.035  29.709  1.00  0.00     0.020 A 
ATOM     42  C   UNL A   1      48.592  27.291  30.865  1.00  0.00     0.054 A 
BRANCH  42  43
ATOM     43  S   UNL A   1      50.184  26.452  31.092  1.00  0.00     0.124 S 
ATOM     44  O   UNL A   1      51.002  27.072  30.053  1.00  0.00    -0.237 OA
ATOM     45  O   UNL A   1      50.540  26.806  32.465  1.00  0.00    -0.237 OA
ATOM     46  O   UNL A   1      49.867  25.043  30.879  1.00  0.00    -0.744 OA
ENDBRANCH  42  43
ENDBRANCH  23  37
BRANCH  24  47
ATOM     47  C   UNL A   1      37.163  32.878  29.487  1.00  0.00    -0.014 A 
ATOM     48  C   UNL A   1      36.662  33.248  28.225  1.00  0.00     0.010 A 
ATOM     49  C   UNL A   1      36.389  33.140  30.631  1.00  0.00     0.010 A 
ATOM     50  C   UNL A   1      35.428  33.898  28.115  1.00  0.00     0.020 A 
ATOM     51  C   UNL A   1      35.144  33.768  30.523  1.00  0.00     0.020 A 
ATOM     52  C   UNL A   1      34.678  34.157  29.265  1.00  0.00     0.054 A 
BRANCH  52  53
ATOM     53  S   UNL A   1      33.067  34.976  29.097  1.00  0.00     0.124 S 
ATOM     54  O   UNL A   1      32.549  34.911  30.460  1.00  0.00    -0.237 OA
ATOM     55  O   UNL A   1      33.437  36.306  28.621  1.00  0.00    -0.237 OA
ATOM     56  O   UNL A   1      32.366  34.147  28.119  1.00  0.00    -0.744 OA
ENDBRANCH  52  53
ENDBRANCH  24  47
BRANCH  36  57
ATOM     57  C   UNL A   1      43.487  35.293  31.154  1.00  0.00    -0.014 A 
ATOM     58  C   UNL A   1      43.547  35.790  32.468  1.00  0.00     0.010 A 
ATOM     59  C   UNL A   1      43.965  36.087  30.096  1.00  0.00     0.010 A 
ATOM     60  C   UNL A   1      44.046  37.071  32.714  1.00  0.00     0.020 A 
ATOM     61  C   UNL A   1      44.488  37.358  30.341  1.00  0.00     0.020 A 
ATOM     62  C   UNL A   1      44.511  37.848  31.648  1.00  0.00     0.054 A 
BRANCH  62  63
ATOM     63  S   UNL A   1      45.193  39.492  31.996  1.00  0.00     0.124 S 
ATOM     64  O   UNL A   1      45.859  39.815  30.738  1.00  0.00    -0.237 OA
ATOM     65  O   UNL A   1      44.000  40.280  32.296  1.00  0.00    -0.237 OA
ATOM     66  O   UNL A   1      46.083  39.263  33.133  1.00  0.00    -0.744 OA
ENDBRANCH  62  63
ENDBRANCH  36  57
ENDBRANCH  10  11
ENDBRANCH   3   5
ENDBRANCH   2   3
ENDBRANCH   1   2
BRANCH   1  67
ATOM     67  C   UNL A   1      36.123  23.588  25.719  1.00  0.00     0.275 C 
BRANCH  67  68
ATOM     68  O   UNL A   1      35.552  24.881  25.458  1.00  0.00    -0.458 OA
BRANCH  68  69
ATOM     69  C   UNL A   1      34.202  24.962  25.388  1.00  0.00     0.340 C 
ATOM     70  O   UNL A   1      33.406  24.558  26.232  1.00  0.00    -0.246 OA
BRANCH  69  71
ATOM     71  C   UNL A   1      33.809  25.550  24.090  1.00  0.00     0.087 A 
ATOM     72  C   UNL A   1      33.673  26.957  24.036  1.00  0.00     0.019 A 
ATOM     73  C   UNL A   1      33.664  24.809  22.904  1.00  0.00     0.109 A 
ATOM     74  C   UNL A   1      33.409  27.595  22.833  1.00  0.00     0.021 A 
ATOM     75  N   UNL A   1      33.436  25.466  21.735  1.00  0.00    -0.254 NA
ATOM     76  C   UNL A   1      33.296  26.809  21.715  1.00  0.00     0.111 A 
BRANCH  73  77
ATOM     77  C   UNL A   1      33.893  23.286  22.820  1.00  0.00     0.321 C 
BRANCH  77  78
ATOM     78  N   UNL A   1      32.803  22.300  23.112  1.00  0.00    -0.322 N 
ATOM     79  C   UNL A   1      31.436  22.820  23.150  1.00  0.00     0.263 C 
ATOM     80  C   UNL A   1      32.984  21.472  24.326  1.00  0.00     0.234 C 
ATOM     81  H   UNL A   1      32.912  21.718  22.281  1.00  0.00     0.349 HD
ATOM     82  C   UNL A   1      31.047  22.887  24.620  1.00  0.00     0.068 C 
ATOM     83  C   UNL A   1      31.777  21.721  25.242  1.00  0.00     0.078 C 
BRANCH  80  84
ATOM     84  C   UNL A   1      33.090  19.962  24.102  1.00  0.00     0.098 A 
ATOM     85  C   UNL A   1      34.132  19.214  24.655  1.00  0.00     0.030 A 
ATOM     86  N   UNL A   1      32.252  19.434  23.171  1.00  0.00    -0.255 NA
ATOM     87  C   UNL A   1      34.342  17.907  24.216  1.00  0.00     0.004 A 
ATOM     88  C   UNL A   1      32.472  18.160  22.773  1.00  0.00     0.111 A 
ATOM     89  C   UNL A   1      33.503  17.370  23.250  1.00  0.00     0.020 A 
ENDBRANCH  80  84
ENDBRANCH  77  78
ENDBRANCH  73  77
ENDBRANCH  69  71
ENDBRANCH  68  69
ENDBRANCH  67  68
ENDBRANCH   1  67
TORSDOF 17
ENDMDL
MODEL 3
REMARK VINA RESULT:     -10.8      5.681      8.468
REMARK SMILES O=C(OCCOC(=O)c1cccnc1C[N@@H+]1CCC[C@H]1c1ccccn1)c1ccc(-c2c3nc(c(-c4ccc(S(=O)(=O)[O-])cc4)c4ccc([nH]4)c(-c4ccc(S(=O)(=O)[O-])cc4)c4nc(c(-c5ccc(S(=O)(=O)[O-])cc5)c5ccc2[nH]5)C=C4)C=C3)cc1
REMARK SMILES IDX 4 1 3 2 2 3 1 4 27 5 28 6 86 7 29 8 85 9 30 10 31 11 32 12
REMARK SMILES IDX 79 13 33 14 84 15 78 16 80 17 34 18 83 19 77 20 76 21 35 23
REMARK SMILES IDX 65 24 46 25 64 26 47 27 50 28 63 29 81 30 48 31 49 32 62 34
REMARK SMILES IDX 82 35 51 36 36 37 37 38 45 39 38 40 44 41 39 42 40 43 41 44
REMARK SMILES IDX 42 45 43 46 66 47 67 48 75 49 68 50 74 51 69 52 70 53 71 54
REMARK SMILES IDX 72 55 73 56 52 57 53 58 61 59 54 60 60 61 55 62 56 63 57 64
REMARK SMILES IDX 58 65 59 66 5 67 6 68 7 69 8 70 9 71 10 72 14 73 11 74 13 75
REMARK SMILES IDX 12 76 15 77 16 78 17 79 20 80 18 82 19 83 21 84 22 85 26 86
REMARK SMILES IDX 23 87 25 88 24 89
REMARK H PARENT 80 22 50 33 16 81
REMARK Flexibility Score: inf
ROOT
ATOM      1  C   UNL A   1      37.110  31.817  34.268  1.00  0.00     0.275 C 
ENDROOT
BRANCH   1   2
ATOM      2  O   UNL A   1      37.258  31.785  32.838  1.00  0.00    -0.458 OA
BRANCH   2   3
ATOM      3  C   UNL A   1      37.387  30.721  32.015  1.00  0.00     0.338 C 
ATOM      4  O   UNL A   1      36.516  29.855  32.013  1.00  0.00    -0.246 OA
BRANCH   3   5
ATOM      5  C   UNL A   1      38.595  30.503  31.170  1.00  0.00     0.060 A 
ATOM      6  C   UNL A   1      38.620  30.479  29.776  1.00  0.00     0.016 A 
ATOM      7  C   UNL A   1      39.780  30.211  31.857  1.00  0.00     0.016 A 
ATOM      8  C   UNL A   1      39.816  30.219  29.090  1.00  0.00     0.010 A 
ATOM      9  C   UNL A   1      40.983  29.985  31.177  1.00  0.00     0.010 A 
ATOM     10  C   UNL A   1      41.005  29.952  29.783  1.00  0.00    -0.014 A 
BRANCH  10  11
ATOM     11  C   UNL A   1      42.213  29.488  29.049  1.00  0.00     0.031 A 
ATOM     12  C   UNL A   1      43.342  30.456  28.798  1.00  0.00     0.074 A 
ATOM     13  C   UNL A   1      42.333  28.207  28.650  1.00  0.00     0.049 A 
ATOM     14  N   UNL A   1      44.557  30.209  28.377  1.00  0.00    -0.248 NA
ATOM     15  C   UNL A   1      43.079  31.881  29.060  1.00  0.00     0.031 C 
ATOM     16  C   UNL A   1      41.301  27.180  28.788  1.00  0.00     0.029 A 
ATOM     17  N   UNL A   1      43.377  27.545  28.052  1.00  0.00    -0.354 N 
ATOM     18  C   UNL A   1      45.214  31.435  28.384  1.00  0.00     0.074 A 
ATOM     19  C   UNL A   1      44.239  32.437  28.747  1.00  0.00     0.031 C 
ATOM     20  C   UNL A   1      41.757  26.021  28.280  1.00  0.00     0.029 A 
ATOM     21  C   UNL A   1      43.126  26.216  27.809  1.00  0.00     0.049 A 
ATOM     22  H   UNL A   1      44.228  27.984  27.820  1.00  0.00     0.167 HD
ATOM     23  C   UNL A   1      46.524  31.699  28.168  1.00  0.00     0.031 A 
ATOM     24  C   UNL A   1      43.919  25.253  27.297  1.00  0.00     0.031 A 
ATOM     25  C   UNL A   1      47.487  30.712  27.769  1.00  0.00     0.049 A 
ATOM     26  C   UNL A   1      45.362  25.575  27.007  1.00  0.00     0.074 A 
ATOM     27  C   UNL A   1      48.843  30.867  27.541  1.00  0.00     0.029 A 
ATOM     28  N   UNL A   1      47.187  29.380  27.525  1.00  0.00    -0.354 N 
ATOM     29  N   UNL A   1      45.995  26.717  27.145  1.00  0.00    -0.248 NA
ATOM     30  C   UNL A   1      46.210  24.469  26.541  1.00  0.00     0.031 C 
ATOM     31  C   UNL A   1      49.356  29.632  27.126  1.00  0.00     0.029 A 
ATOM     32  C   UNL A   1      48.328  28.702  27.138  1.00  0.00     0.049 A 
ATOM     33  H   UNL A   1      46.293  28.977  27.616  1.00  0.00     0.167 HD
ATOM     34  C   UNL A   1      47.323  26.454  26.827  1.00  0.00     0.074 A 
ATOM     35  C   UNL A   1      47.403  25.046  26.495  1.00  0.00     0.031 C 
ATOM     36  C   UNL A   1      48.385  27.298  26.820  1.00  0.00     0.031 A 
BRANCH  23  37
ATOM     37  C   UNL A   1      46.978  33.114  28.406  1.00  0.00    -0.014 A 
ATOM     38  C   UNL A   1      46.966  34.045  27.348  1.00  0.00     0.010 A 
ATOM     39  C   UNL A   1      47.419  33.526  29.674  1.00  0.00     0.010 A 
ATOM     40  C   UNL A   1      47.434  35.347  27.542  1.00  0.00     0.020 A 
ATOM     41  C   UNL A   1      47.866  34.836  29.878  1.00  0.00     0.020 A 
ATOM     42  C   UNL A   1      47.890  35.732  28.805  1.00  0.00     0.054 A 
BRANCH  42  43
ATOM     43  S   UNL A   1      48.492  37.428  29.028  1.00  0.00     0.124 S 
ATOM     44  O   UNL A   1      47.802  38.137  27.953  1.00  0.00    -0.237 OA
ATOM     45  O   UNL A   1      48.045  37.753  30.381  1.00  0.00    -0.237 OA
ATOM     46  O   UNL A   1      49.939  37.307  28.866  1.00  0.00    -0.744 OA
ENDBRANCH  42  43
ENDBRANCH  23  37
BRANCH  24  47
ATOM     47  C   UNL A   1      43.387  23.880  27.075  1.00  0.00    -0.014 A 
ATOM     48  C   UNL A   1      43.163  23.006  28.153  1.00  0.00     0.010 A 
ATOM     49  C   UNL A   1      43.119  23.434  25.768  1.00  0.00     0.010 A 
ATOM     50  C   UNL A   1      42.713  21.700  27.927  1.00  0.00     0.020 A 
ATOM     51  C   UNL A   1      42.646  22.138  25.539  1.00  0.00     0.020 A 
ATOM     52  C   UNL A   1      42.460  21.273  26.620  1.00  0.00     0.054 A 
BRANCH  52  53
ATOM     53  S   UNL A   1      41.850  19.585  26.350  1.00  0.00     0.124 S 
ATOM     54  O   UNL A   1      40.409  19.795  26.254  1.00  0.00    -0.237 OA
ATOM     55  O   UNL A   1      42.520  19.203  25.110  1.00  0.00    -0.237 OA
ATOM     56  O   UNL A   1      42.303  18.867  27.540  1.00  0.00    -0.744 OA
ENDBRANCH  52  53
ENDBRANCH  24  47
BRANCH  36  57
ATOM     57  C   UNL A   1      49.729  26.715  26.482  1.00  0.00    -0.014 A 
ATOM     58  C   UNL A   1      50.541  26.135  27.472  1.00  0.00     0.010 A 
ATOM     59  C   UNL A   1      50.160  26.702  25.143  1.00  0.00     0.010 A 
ATOM     60  C   UNL A   1      51.777  25.581  27.132  1.00  0.00     0.020 A 
ATOM     61  C   UNL A   1      51.384  26.127  24.796  1.00  0.00     0.020 A 
ATOM     62  C   UNL A   1      52.192  25.583  25.796  1.00  0.00     0.054 A 
BRANCH  62  63
ATOM     63  S   UNL A   1      53.782  24.821  25.373  1.00  0.00     0.124 S 
ATOM     64  O   UNL A   1      54.219  25.639  24.245  1.00  0.00    -0.237 OA
ATOM     65  O   UNL A   1      54.555  24.981  26.602  1.00  0.00    -0.237 OA
ATOM     66  O   UNL A   1      53.427  23.442  25.042  1.00  0.00    -0.744 OA
ENDBRANCH  62  63
ENDBRANCH  36  57
ENDBRANCH  10  11
ENDBRANCH   3   5
ENDBRANCH   2   3
ENDBRANCH   1   2
BRANCH   1  67
ATOM     67  C   UNL A   1      37.081  33.218  34.862  1.00  0.00     0.275 C 
BRANCH  67  68
ATOM     68  O   UNL A   1      35.956  33.996  34.418  1.00  0.00    -0.458 OA
BRANCH  68  69
ATOM     69  C   UNL A   1      36.140  34.794  33.339  1.00  0.00     0.340 C 
ATOM     70  O   UNL A   1      37.217  35.197  32.909  1.00  0.00    -0.246 OA
BRANCH  69  71
ATOM     71  C   UNL A   1      34.826  35.184  32.784  1.00  0.00     0.087 A 
ATOM     72  C   UNL A   1      34.333  36.462  33.136  1.00  0.00     0.019 A 
ATOM     73  C   UNL A   1      34.101  34.409  31.861  1.00  0.00     0.109 A 
ATOM     74  C   UNL A   1      33.160  36.945  32.576  1.00  0.00     0.021 A 
ATOM     75  N   UNL A   1      32.971  34.922  31.307  1.00  0.00    -0.254 NA
ATOM     76  C   UNL A   1      32.515  36.139  31.671  1.00  0.00     0.111 A 
BRANCH  73  77
ATOM     77  C   UNL A   1      34.592  33.049  31.324  1.00  0.00     0.321 C 
BRANCH  77  78
ATOM     78  N   UNL A   1      35.073  32.876  29.915  1.00  0.00    -0.322 N 
ATOM     79  C   UNL A   1      35.897  33.952  29.363  1.00  0.00     0.263 C 
ATOM     80  C   UNL A   1      34.034  32.569  28.906  1.00  0.00     0.234 C 
ATOM     81  H   UNL A   1      35.659  32.055  30.065  1.00  0.00     0.349 HD
ATOM     82  C   UNL A   1      35.003  34.725  28.405  1.00  0.00     0.068 C 
ATOM     83  C   UNL A   1      34.082  33.671  27.838  1.00  0.00     0.078 C 
BRANCH  80  84
ATOM     84  C   UNL A   1      34.168  31.224  28.189  1.00  0.00     0.098 A 
ATOM     85  C   UNL A   1      35.347  30.478  28.249  1.00  0.00     0.030 A 
ATOM     86  N   UNL A   1      33.169  30.905  27.323  1.00  0.00    -0.255 NA
ATOM     87  C   UNL A   1      35.521  29.404  27.378  1.00  0.00     0.004 A 
ATOM     88  C   UNL A   1      33.359  29.851  26.498  1.00  0.00     0.111 A 
ATOM     89  C   UNL A   1      34.513  29.087  26.478  1.00  0.00     0.020 A 
ENDBRANCH  80  84
ENDBRANCH  77  78
ENDBRANCH  73  77
ENDBRANCH  69  71
ENDBRANCH  68  69
ENDBRANCH  67  68
ENDBRANCH   1  67
TORSDOF 17
ENDMDL
