MODEL 1
REMARK VINA RESULT:     -10.7      0.000      0.000
REMARK SMILES Cc1csc(C[C@@H](Cc2ccc(Br)cc2)C(=O)OCCOC(=O)c2ccc(-c3c4nc(c(-c5ccc(S(=O)(=O)[O-])cc5)c5ccc([nH]5)c(-c5ccc(S(=O)(=O)[O-])cc5)c5nc(c(-c6ccc(S(=O)(=O)[O-])cc6)c6ccc3[nH]6)C=C5)C=C4)cc2)n1
REMARK SMILES IDX 20 1 19 2 18 3 16 4 17 5 7 6 6 7 5 8 1 9 2 10 3 11 84 12
REMARK SMILES IDX 4 13 8 14 9 15 10 16 15 17 11 18 14 19 12 20 13 21 21 22
REMARK SMILES IDX 22 23 23 24 24 25 25 26 83 27 26 28 82 29 27 30 28 31 29 32
REMARK SMILES IDX 76 33 30 34 81 35 75 36 77 37 31 38 80 39 74 40 73 41 32 43
REMARK SMILES IDX 62 44 43 45 61 46 44 47 47 48 60 49 78 50 45 51 46 52 59 54
REMARK SMILES IDX 79 55 48 56 33 57 34 58 42 59 35 60 41 61 36 62 37 63 38 64
REMARK SMILES IDX 39 65 40 66 63 67 64 68 72 69 65 70 71 71 66 72 67 73 68 74
REMARK SMILES IDX 69 75 70 76 49 77 50 78 58 79 51 80 57 81 52 82 53 83 54 84
REMARK SMILES IDX 55 85 56 86
REMARK H PARENT 77 42 47 53
REMARK Flexibility Score: inf
ROOT
ATOM      1  C   UNL A   1      32.141  29.169  27.154  1.00  0.00     0.275 C 
ENDROOT
BRANCH   1   2
ATOM      2  C   UNL A   1      31.495  27.783  27.149  1.00  0.00     0.274 C 
BRANCH   2   3
ATOM      3  O   UNL A   1      31.482  27.206  25.830  1.00  0.00    -0.462 OA
BRANCH   3   4
ATOM      4  C   UNL A   1      30.589  26.204  25.618  1.00  0.00     0.309 C 
ATOM      5  O   UNL A   1      30.157  25.460  26.492  1.00  0.00    -0.252 OA
BRANCH   4   6
ATOM      6  C   UNL A   1      30.232  26.025  24.153  1.00  0.00     0.110 C 
BRANCH   6   7
ATOM      7  C   UNL A   1      30.593  24.621  23.637  1.00  0.00     0.083 C 
BRANCH   7   8
ATOM      8  C   UNL A   1      32.060  24.327  23.751  1.00  0.00     0.094 A 
ATOM      9  C   UNL A   1      34.661  22.126  24.895  1.00  0.00     0.067 C 
ATOM     10  C   UNL A   1      33.934  23.266  24.284  1.00  0.00     0.048 A 
ATOM     11  C   UNL A   1      34.474  24.325  23.582  1.00  0.00     0.090 A 
ATOM     12  N   UNL A   1      32.557  23.297  24.401  1.00  0.00    -0.247 NA
ATOM     13  S   UNL A   1      33.227  25.360  23.025  1.00  0.00    -0.127 S 
ENDBRANCH   7   8
ENDBRANCH   6   7
BRANCH   6  14
ATOM     14  C   UNL A   1      28.778  26.495  23.948  1.00  0.00     0.051 C 
BRANCH  14  15
ATOM     15  C   UNL A   1      28.661  27.844  23.279  1.00  0.00    -0.047 A 
ATOM     16  C   UNL A   1      27.457  28.557  23.321  1.00  0.00     0.005 A 
ATOM     17  C   UNL A   1      29.786  28.432  22.683  1.00  0.00     0.005 A 
ATOM     18  C   UNL A   1      27.393  29.861  22.833  1.00  0.00     0.016 A 
ATOM     19  C   UNL A   1      29.723  29.735  22.193  1.00  0.00     0.016 A 
ATOM     20  C   UNL A   1      28.531  30.449  22.285  1.00  0.00     0.017 A 
ATOM     21  Br  UNL A   1      28.462  32.237  21.677  1.00  0.00    -0.051 Br
ENDBRANCH  14  15
ENDBRANCH   6  14
ENDBRANCH   4   6
ENDBRANCH   3   4
ENDBRANCH   2   3
ENDBRANCH   1   2
BRANCH   1  22
ATOM     22  O   UNL A   1      33.557  29.086  27.377  1.00  0.00    -0.458 OA
BRANCH  22  23
ATOM     23  C   UNL A   1      34.152  30.254  27.717  1.00  0.00     0.338 C 
ATOM     24  O   UNL A   1      33.633  31.352  27.815  1.00  0.00    -0.246 OA
BRANCH  23  25
ATOM     25  C   UNL A   1      35.541  29.980  28.102  1.00  0.00     0.060 A 
ATOM     26  C   UNL A   1      36.532  30.063  27.121  1.00  0.00     0.016 A 
ATOM     27  C   UNL A   1      35.854  29.597  29.406  1.00  0.00     0.016 A 
ATOM     28  C   UNL A   1      37.854  29.779  27.440  1.00  0.00     0.010 A 
ATOM     29  C   UNL A   1      37.182  29.312  29.726  1.00  0.00     0.010 A 
ATOM     30  C   UNL A   1      38.186  29.402  28.746  1.00  0.00    -0.014 A 
BRANCH  30  31
ATOM     31  C   UNL A   1      39.585  29.069  29.088  1.00  0.00     0.031 A 
ATOM     32  C   UNL A   1      40.456  30.106  29.732  1.00  0.00     0.074 A 
ATOM     33  C   UNL A   1      40.066  27.844  28.810  1.00  0.00     0.049 A 
ATOM     34  N   UNL A   1      41.738  30.070  29.978  1.00  0.00    -0.248 NA
ATOM     35  C   UNL A   1      39.791  31.349  30.157  1.00  0.00     0.031 C 
ATOM     36  C   UNL A   1      39.287  26.734  28.258  1.00  0.00     0.029 A 
ATOM     37  N   UNL A   1      41.330  27.331  28.950  1.00  0.00    -0.354 N 
ATOM     38  C   UNL A   1      42.043  31.290  30.565  1.00  0.00     0.074 A 
ATOM     39  C   UNL A   1      40.813  32.051  30.628  1.00  0.00     0.031 C 
ATOM     40  C   UNL A   1      40.091  25.670  28.106  1.00  0.00     0.029 A 
ATOM     41  C   UNL A   1      41.449  26.042  28.488  1.00  0.00     0.049 A 
ATOM     42  H   UNL A   1      42.078  27.835  29.342  1.00  0.00     0.167 HD
ATOM     43  C   UNL A   1      43.244  31.735  31.007  1.00  0.00     0.031 A 
ATOM     44  C   UNL A   1      42.540  25.265  28.352  1.00  0.00     0.031 A 
ATOM     45  C   UNL A   1      44.462  30.973  30.919  1.00  0.00     0.049 A 
ATOM     46  C   UNL A   1      43.883  25.825  28.734  1.00  0.00     0.074 A 
ATOM     47  C   UNL A   1      45.735  31.332  31.324  1.00  0.00     0.029 A 
ATOM     48  N   UNL A   1      44.556  29.698  30.380  1.00  0.00    -0.354 N 
ATOM     49  N   UNL A   1      44.167  26.992  29.264  1.00  0.00    -0.248 NA
ATOM     50  C   UNL A   1      45.053  24.973  28.484  1.00  0.00     0.031 C 
ATOM     51  C   UNL A   1      46.608  30.292  30.983  1.00  0.00     0.029 A 
ATOM     52  C   UNL A   1      45.870  29.266  30.412  1.00  0.00     0.049 A 
ATOM     53  H   UNL A   1      43.800  29.178  30.025  1.00  0.00     0.167 HD
ATOM     54  C   UNL A   1      45.547  27.008  29.424  1.00  0.00     0.074 A 
ATOM     55  C   UNL A   1      46.039  25.731  28.947  1.00  0.00     0.031 C 
ATOM     56  C   UNL A   1      46.337  27.991  29.923  1.00  0.00     0.031 A 
BRANCH  43  57
ATOM     57  C   UNL A   1      43.295  33.129  31.571  1.00  0.00    -0.014 A 
ATOM     58  C   UNL A   1      43.425  34.252  30.734  1.00  0.00     0.010 A 
ATOM     59  C   UNL A   1      43.216  33.318  32.963  1.00  0.00     0.010 A 
ATOM     60  C   UNL A   1      43.531  35.533  31.282  1.00  0.00     0.020 A 
ATOM     61  C   UNL A   1      43.297  34.601  33.514  1.00  0.00     0.020 A 
ATOM     62  C   UNL A   1      43.478  35.698  32.669  1.00  0.00     0.054 A 
BRANCH  62  63
ATOM     63  S   UNL A   1      43.636  37.369  33.357  1.00  0.00     0.124 S 
ATOM     64  O   UNL A   1      43.718  38.184  32.147  1.00  0.00    -0.237 OA
ATOM     65  O   UNL A   1      42.407  37.518  34.132  1.00  0.00    -0.237 OA
ATOM     66  O   UNL A   1      44.863  37.304  34.148  1.00  0.00    -0.744 OA
ENDBRANCH  62  63
ENDBRANCH  43  57
BRANCH  44  67
ATOM     67  C   UNL A   1      42.409  23.893  27.792  1.00  0.00    -0.014 A 
ATOM     68  C   UNL A   1      42.526  23.676  26.409  1.00  0.00     0.010 A 
ATOM     69  C   UNL A   1      42.198  22.791  28.643  1.00  0.00     0.010 A 
ATOM     70  C   UNL A   1      42.434  22.383  25.886  1.00  0.00     0.020 A 
ATOM     71  C   UNL A   1      42.130  21.495  28.127  1.00  0.00     0.020 A 
ATOM     72  C   UNL A   1      42.241  21.299  26.749  1.00  0.00     0.054 A 
BRANCH  72  73
ATOM     73  S   UNL A   1      42.194  19.624  26.054  1.00  0.00     0.124 S 
ATOM     74  O   UNL A   1      40.786  19.483  25.696  1.00  0.00    -0.237 OA
ATOM     75  O   UNL A   1      43.124  19.720  24.931  1.00  0.00    -0.237 OA
ATOM     76  O   UNL A   1      42.648  18.782  27.159  1.00  0.00    -0.744 OA
ENDBRANCH  72  73
ENDBRANCH  44  67
BRANCH  56  77
ATOM     77  C   UNL A   1      47.813  27.719  29.996  1.00  0.00    -0.014 A 
ATOM     78  C   UNL A   1      48.375  27.073  31.112  1.00  0.00     0.010 A 
ATOM     79  C   UNL A   1      48.636  28.048  28.904  1.00  0.00     0.010 A 
ATOM     80  C   UNL A   1      49.739  26.773  31.139  1.00  0.00     0.020 A 
ATOM     81  C   UNL A   1      49.995  27.728  28.917  1.00  0.00     0.020 A 
ATOM     82  C   UNL A   1      50.540  27.099  30.039  1.00  0.00     0.054 A 
BRANCH  82  83
ATOM     83  S   UNL A   1      52.294  26.634  30.068  1.00  0.00     0.124 S 
ATOM     84  O   UNL A   1      52.310  25.575  31.074  1.00  0.00    -0.237 OA
ATOM     85  O   UNL A   1      52.534  26.201  28.694  1.00  0.00    -0.237 OA
ATOM     86  O   UNL A   1      52.973  27.870  30.452  1.00  0.00    -0.744 OA
ENDBRANCH  82  83
ENDBRANCH  56  77
ENDBRANCH  30  31
ENDBRANCH  23  25
ENDBRANCH  22  23
ENDBRANCH   1  22
TORSDOF 18
ENDMDL
MODEL 2
REMARK VINA RESULT:     -10.3      4.734     10.314
REMARK SMILES Cc1csc(C[C@@H](Cc2ccc(Br)cc2)C(=O)OCCOC(=O)c2ccc(-c3c4nc(c(-c5ccc(S(=O)(=O)[O-])cc5)c5ccc([nH]5)c(-c5ccc(S(=O)(=O)[O-])cc5)c5nc(c(-c6ccc(S(=O)(=O)[O-])cc6)c6ccc3[nH]6)C=C5)C=C4)cc2)n1
REMARK SMILES IDX 20 1 19 2 18 3 16 4 17 5 7 6 6 7 5 8 1 9 2 10 3 11 84 12
REMARK SMILES IDX 4 13 8 14 9 15 10 16 15 17 11 18 14 19 12 20 13 21 21 22
REMARK SMILES IDX 22 23 23 24 24 25 25 26 83 27 26 28 82 29 27 30 28 31 29 32
REMARK SMILES IDX 76 33 30 34 81 35 75 36 77 37 31 38 80 39 74 40 73 41 32 43
REMARK SMILES IDX 62 44 43 45 61 46 44 47 47 48 60 49 78 50 45 51 46 52 59 54
REMARK SMILES IDX 79 55 48 56 33 57 34 58 42 59 35 60 41 61 36 62 37 63 38 64
REMARK SMILES IDX 39 65 40 66 63 67 64 68 72 69 65 70 71 71 66 72 67 73 68 74
REMARK SMILES IDX 69 75 70 76 49 77 50 78 58 79 51 80 57 81 52 82 53 83 54 84
REMARK SMILES IDX 55 85 56 86
REMARK H PARENT 77 42 47 53
REMARK Flexibility Score: inf
ROOT
ATOM      1  C   UNL A   1      39.021  22.696  26.262  1.00  0.00     0.275 C 
ENDROOT
BRANCH   1   2
ATOM      2  C   UNL A   1      37.716  22.421  25.516  1.00  0.00     0.274 C 
BRANCH   2   3
ATOM      3  O   UNL A   1      37.006  23.639  25.218  1.00  0.00    -0.462 OA
BRANCH   3   4
ATOM      4  C   UNL A   1      35.779  23.775  25.786  1.00  0.00     0.309 C 
ATOM      5  O   UNL A   1      35.465  23.326  26.883  1.00  0.00    -0.252 OA
BRANCH   4   6
ATOM      6  C   UNL A   1      34.780  24.475  24.882  1.00  0.00     0.110 C 
BRANCH   6   7
ATOM      7  C   UNL A   1      34.667  23.792  23.507  1.00  0.00     0.083 C 
BRANCH   7   8
ATOM      8  C   UNL A   1      33.864  22.525  23.559  1.00  0.00     0.094 A 
ATOM      9  C   UNL A   1      33.425  19.234  24.933  1.00  0.00     0.067 C 
ATOM     10  C   UNL A   1      33.242  20.479  24.148  1.00  0.00     0.048 A 
ATOM     11  C   UNL A   1      32.196  20.791  23.303  1.00  0.00     0.090 A 
ATOM     12  N   UNL A   1      34.204  21.465  24.259  1.00  0.00    -0.247 NA
ATOM     13  S   UNL A   1      32.404  22.369  22.666  1.00  0.00    -0.127 S 
ENDBRANCH   7   8
ENDBRANCH   6   7
BRANCH   6  14
ATOM     14  C   UNL A   1      33.472  24.681  25.671  1.00  0.00     0.051 C 
BRANCH  14  15
ATOM     15  C   UNL A   1      33.072  26.130  25.821  1.00  0.00    -0.047 A 
ATOM     16  C   UNL A   1      31.906  26.478  26.515  1.00  0.00     0.005 A 
ATOM     17  C   UNL A   1      33.912  27.144  25.340  1.00  0.00     0.005 A 
ATOM     18  C   UNL A   1      31.616  27.815  26.780  1.00  0.00     0.016 A 
ATOM     19  C   UNL A   1      33.622  28.482  25.602  1.00  0.00     0.016 A 
ATOM     20  C   UNL A   1      32.484  28.810  26.334  1.00  0.00     0.017 A 
ATOM     21  Br  UNL A   1      32.123  30.619  26.744  1.00  0.00    -0.051 Br
ENDBRANCH  14  15
ENDBRANCH   6  14
ENDBRANCH   4   6
ENDBRANCH   3   4
ENDBRANCH   2   3
ENDBRANCH   1   2
BRANCH   1  22
ATOM     22  O   UNL A   1      39.198  24.100  26.509  1.00  0.00    -0.458 OA
BRANCH  22  23
ATOM     23  C   UNL A   1      40.459  24.470  26.834  1.00  0.00     0.338 C 
ATOM     24  O   UNL A   1      41.501  24.071  26.344  1.00  0.00    -0.246 OA
BRANCH  23  25
ATOM     25  C   UNL A   1      40.392  25.566  27.807  1.00  0.00     0.060 A 
ATOM     26  C   UNL A   1      41.405  26.526  27.797  1.00  0.00     0.016 A 
ATOM     27  C   UNL A   1      39.366  25.616  28.750  1.00  0.00     0.016 A 
ATOM     28  C   UNL A   1      41.394  27.561  28.725  1.00  0.00     0.010 A 
ATOM     29  C   UNL A   1      39.354  26.656  29.681  1.00  0.00     0.010 A 
ATOM     30  C   UNL A   1      40.367  27.632  29.672  1.00  0.00    -0.014 A 
BRANCH  30  31
ATOM     31  C   UNL A   1      40.361  28.712  30.681  1.00  0.00     0.031 A 
ATOM     32  C   UNL A   1      41.322  28.656  31.830  1.00  0.00     0.074 A 
ATOM     33  C   UNL A   1      39.487  29.728  30.564  1.00  0.00     0.049 A 
ATOM     34  N   UNL A   1      41.383  29.414  32.893  1.00  0.00    -0.248 NA
ATOM     35  C   UNL A   1      42.351  27.605  31.774  1.00  0.00     0.031 C 
ATOM     36  C   UNL A   1      38.562  29.925  29.446  1.00  0.00     0.029 A 
ATOM     37  N   UNL A   1      39.232  30.784  31.401  1.00  0.00    -0.354 N 
ATOM     38  C   UNL A   1      42.441  28.922  33.645  1.00  0.00     0.074 A 
ATOM     39  C   UNL A   1      42.987  27.792  32.923  1.00  0.00     0.031 C 
ATOM     40  C   UNL A   1      37.841  31.035  29.667  1.00  0.00     0.029 A 
ATOM     41  C   UNL A   1      38.207  31.589  30.967  1.00  0.00     0.049 A 
ATOM     42  H   UNL A   1      39.734  30.949  32.231  1.00  0.00     0.167 HD
ATOM     43  C   UNL A   1      42.911  29.373  34.832  1.00  0.00     0.031 A 
ATOM     44  C   UNL A   1      37.604  32.631  31.571  1.00  0.00     0.031 A 
ATOM     45  C   UNL A   1      42.344  30.487  35.546  1.00  0.00     0.049 A 
ATOM     46  C   UNL A   1      38.061  33.037  32.946  1.00  0.00     0.074 A 
ATOM     47  C   UNL A   1      42.733  31.020  36.762  1.00  0.00     0.029 A 
ATOM     48  N   UNL A   1      41.260  31.234  35.109  1.00  0.00    -0.354 N 
ATOM     49  N   UNL A   1      39.046  32.548  33.663  1.00  0.00    -0.248 NA
ATOM     50  C   UNL A   1      37.315  34.120  33.600  1.00  0.00     0.031 C 
ATOM     51  C   UNL A   1      41.851  32.058  37.083  1.00  0.00     0.029 A 
ATOM     52  C   UNL A   1      40.944  32.204  36.043  1.00  0.00     0.049 A 
ATOM     53  H   UNL A   1      40.784  31.093  34.259  1.00  0.00     0.167 HD
ATOM     54  C   UNL A   1      39.047  33.275  34.847  1.00  0.00     0.074 A 
ATOM     55  C   UNL A   1      37.974  34.244  34.745  1.00  0.00     0.031 C 
ATOM     56  C   UNL A   1      39.864  33.153  35.922  1.00  0.00     0.031 A 
BRANCH  43  57
ATOM     57  C   UNL A   1      44.058  28.619  35.449  1.00  0.00    -0.014 A 
ATOM     58  C   UNL A   1      43.837  27.530  36.311  1.00  0.00     0.010 A 
ATOM     59  C   UNL A   1      45.378  29.010  35.165  1.00  0.00     0.010 A 
ATOM     60  C   UNL A   1      44.915  26.881  36.920  1.00  0.00     0.020 A 
ATOM     61  C   UNL A   1      46.461  28.349  35.753  1.00  0.00     0.020 A 
ATOM     62  C   UNL A   1      46.219  27.303  36.646  1.00  0.00     0.054 A 
BRANCH  62  63
ATOM     63  S   UNL A   1      47.601  26.457  37.463  1.00  0.00     0.124 S 
ATOM     64  O   UNL A   1      48.588  26.388  36.388  1.00  0.00    -0.237 OA
ATOM     65  O   UNL A   1      47.931  27.363  38.561  1.00  0.00    -0.237 OA
ATOM     66  O   UNL A   1      47.030  25.174  37.868  1.00  0.00    -0.744 OA
ENDBRANCH  62  63
ENDBRANCH  43  57
BRANCH  44  67
ATOM     67  C   UNL A   1      36.480  33.331  30.895  1.00  0.00    -0.014 A 
ATOM     68  C   UNL A   1      35.211  33.381  31.495  1.00  0.00     0.010 A 
ATOM     69  C   UNL A   1      36.681  33.980  29.661  1.00  0.00     0.010 A 
ATOM     70  C   UNL A   1      34.162  34.067  30.873  1.00  0.00     0.020 A 
ATOM     71  C   UNL A   1      35.642  34.687  29.050  1.00  0.00     0.020 A 
ATOM     72  C   UNL A   1      34.386  34.719  29.657  1.00  0.00     0.054 A 
BRANCH  72  73
ATOM     73  S   UNL A   1      33.029  35.660  28.905  1.00  0.00     0.124 S 
ATOM     74  O   UNL A   1      32.291  36.117  30.078  1.00  0.00    -0.237 OA
ATOM     75  O   UNL A   1      33.737  36.698  28.160  1.00  0.00    -0.237 OA
ATOM     76  O   UNL A   1      32.342  34.669  28.079  1.00  0.00    -0.744 OA
ENDBRANCH  72  73
ENDBRANCH  44  67
BRANCH  56  77
ATOM     77  C   UNL A   1      39.643  34.101  37.068  1.00  0.00    -0.014 A 
ATOM     78  C   UNL A   1      38.891  33.715  38.191  1.00  0.00     0.010 A 
ATOM     79  C   UNL A   1      40.256  35.367  37.051  1.00  0.00     0.010 A 
ATOM     80  C   UNL A   1      38.744  34.585  39.274  1.00  0.00     0.020 A 
ATOM     81  C   UNL A   1      40.132  36.230  38.142  1.00  0.00     0.020 A 
ATOM     82  C   UNL A   1      39.369  35.836  39.244  1.00  0.00     0.054 A 
BRANCH  82  83
ATOM     83  S   UNL A   1      39.224  36.920  40.692  1.00  0.00     0.124 S 
ATOM     84  O   UNL A   1      40.619  37.262  40.957  1.00  0.00    -0.237 OA
ATOM     85  O   UNL A   1      38.392  38.012  40.194  1.00  0.00    -0.237 OA
ATOM     86  O   UNL A   1      38.588  36.070  41.697  1.00  0.00    -0.744 OA
ENDBRANCH  82  83
ENDBRANCH  56  77
ENDBRANCH  30  31
ENDBRANCH  23  25
ENDBRANCH  22  23
ENDBRANCH   1  22
TORSDOF 18
ENDMDL
MODEL 3
REMARK VINA RESULT:     -10.2      1.929      3.432
REMARK SMILES Cc1csc(C[C@@H](Cc2ccc(Br)cc2)C(=O)OCCOC(=O)c2ccc(-c3c4nc(c(-c5ccc(S(=O)(=O)[O-])cc5)c5ccc([nH]5)c(-c5ccc(S(=O)(=O)[O-])cc5)c5nc(c(-c6ccc(S(=O)(=O)[O-])cc6)c6ccc3[nH]6)C=C5)C=C4)cc2)n1
REMARK SMILES IDX 20 1 19 2 18 3 16 4 17 5 7 6 6 7 5 8 1 9 2 10 3 11 84 12
REMARK SMILES IDX 4 13 8 14 9 15 10 16 15 17 11 18 14 19 12 20 13 21 21 22
REMARK SMILES IDX 22 23 23 24 24 25 25 26 83 27 26 28 82 29 27 30 28 31 29 32
REMARK SMILES IDX 76 33 30 34 81 35 75 36 77 37 31 38 80 39 74 40 73 41 32 43
REMARK SMILES IDX 62 44 43 45 61 46 44 47 47 48 60 49 78 50 45 51 46 52 59 54
REMARK SMILES IDX 79 55 48 56 33 57 34 58 42 59 35 60 41 61 36 62 37 63 38 64
REMARK SMILES IDX 39 65 40 66 63 67 64 68 72 69 65 70 71 71 66 72 67 73 68 74
REMARK SMILES IDX 69 75 70 76 49 77 50 78 58 79 51 80 57 81 52 82 53 83 54 84
REMARK SMILES IDX 55 85 56 86
REMARK H PARENT 77 42 47 53
REMARK Flexibility Score: inf
ROOT
ATOM      1  C   UNL A   1      32.466  29.530  27.239  1.00  0.00     0.275 C 
ENDROOT
BRANCH   1   2
ATOM      2  C   UNL A   1      31.934  29.548  25.806  1.00  0.00     0.274 C 
BRANCH   2   3
ATOM      3  O   UNL A   1      31.844  28.220  25.254  1.00  0.00    -0.462 OA
BRANCH   3   4
ATOM      4  C   UNL A   1      32.579  27.981  24.136  1.00  0.00     0.309 C 
ATOM      5  O   UNL A   1      33.801  28.059  24.075  1.00  0.00    -0.252 OA
BRANCH   4   6
ATOM      6  C   UNL A   1      31.725  27.685  22.915  1.00  0.00     0.110 C 
BRANCH   6   7
ATOM      7  C   UNL A   1      31.255  28.972  22.213  1.00  0.00     0.083 C 
BRANCH   7   8
ATOM      8  C   UNL A   1      29.796  29.247  22.433  1.00  0.00     0.094 A 
ATOM      9  C   UNL A   1      26.606  28.087  23.613  1.00  0.00     0.067 C 
ATOM     10  C   UNL A   1      27.685  28.924  23.035  1.00  0.00     0.048 A 
ATOM     11  C   UNL A   1      27.596  30.237  22.619  1.00  0.00     0.090 A 
ATOM     12  N   UNL A   1      28.939  28.360  22.892  1.00  0.00    -0.247 NA
ATOM     13  S   UNL A   1      29.125  30.788  22.074  1.00  0.00    -0.127 S 
ENDBRANCH   7   8
ENDBRANCH   6   7
BRANCH   6  14
ATOM     14  C   UNL A   1      32.459  26.643  22.050  1.00  0.00     0.051 C 
BRANCH  14  15
ATOM     15  C   UNL A   1      32.385  25.236  22.595  1.00  0.00    -0.047 A 
ATOM     16  C   UNL A   1      33.554  24.494  22.808  1.00  0.00     0.005 A 
ATOM     17  C   UNL A   1      31.150  24.694  22.975  1.00  0.00     0.005 A 
ATOM     18  C   UNL A   1      33.496  23.257  23.448  1.00  0.00     0.016 A 
ATOM     19  C   UNL A   1      31.090  23.456  23.613  1.00  0.00     0.016 A 
ATOM     20  C   UNL A   1      32.265  22.751  23.860  1.00  0.00     0.017 A 
ATOM     21  Br  UNL A   1      32.191  21.102  24.780  1.00  0.00    -0.051 Br
ENDBRANCH  14  15
ENDBRANCH   6  14
ENDBRANCH   4   6
ENDBRANCH   3   4
ENDBRANCH   2   3
ENDBRANCH   1   2
BRANCH   1  22
ATOM     22  O   UNL A   1      33.894  29.379  27.265  1.00  0.00    -0.458 OA
BRANCH  22  23
ATOM     23  C   UNL A   1      34.568  30.415  27.818  1.00  0.00     0.338 C 
ATOM     24  O   UNL A   1      34.129  31.510  28.124  1.00  0.00    -0.246 OA
BRANCH  23  25
ATOM     25  C   UNL A   1      35.929  29.973  28.139  1.00  0.00     0.060 A 
ATOM     26  C   UNL A   1      36.186  29.489  29.424  1.00  0.00     0.016 A 
ATOM     27  C   UNL A   1      36.951  30.081  27.197  1.00  0.00     0.016 A 
ATOM     28  C   UNL A   1      37.470  29.092  29.776  1.00  0.00     0.010 A 
ATOM     29  C   UNL A   1      38.241  29.681  27.551  1.00  0.00     0.010 A 
ATOM     30  C   UNL A   1      38.505  29.185  28.840  1.00  0.00    -0.014 A 
BRANCH  30  31
ATOM     31  C   UNL A   1      39.881  28.792  29.213  1.00  0.00     0.031 A 
ATOM     32  C   UNL A   1      40.765  29.775  29.920  1.00  0.00     0.074 A 
ATOM     33  C   UNL A   1      40.329  27.562  28.906  1.00  0.00     0.049 A 
ATOM     34  N   UNL A   1      42.037  29.686  30.203  1.00  0.00    -0.248 NA
ATOM     35  C   UNL A   1      40.129  31.025  30.368  1.00  0.00     0.031 C 
ATOM     36  C   UNL A   1      39.530  26.499  28.291  1.00  0.00     0.029 A 
ATOM     37  N   UNL A   1      41.569  27.000  29.065  1.00  0.00    -0.354 N 
ATOM     38  C   UNL A   1      42.364  30.874  30.843  1.00  0.00     0.074 A 
ATOM     39  C   UNL A   1      41.158  31.674  30.896  1.00  0.00     0.031 C 
ATOM     40  C   UNL A   1      40.302  25.414  28.125  1.00  0.00     0.029 A 
ATOM     41  C   UNL A   1      41.660  25.725  28.562  1.00  0.00     0.049 A 
ATOM     42  H   UNL A   1      42.321  27.465  29.498  1.00  0.00     0.167 HD
ATOM     43  C   UNL A   1      43.564  31.261  31.337  1.00  0.00     0.031 A 
ATOM     44  C   UNL A   1      42.728  24.916  28.431  1.00  0.00     0.031 A 
ATOM     45  C   UNL A   1      44.758  30.461  31.259  1.00  0.00     0.049 A 
ATOM     46  C   UNL A   1      44.076  25.415  28.874  1.00  0.00     0.074 A 
ATOM     47  C   UNL A   1      46.029  30.760  31.715  1.00  0.00     0.029 A 
ATOM     48  N   UNL A   1      44.827  29.203  30.677  1.00  0.00    -0.354 N 
ATOM     49  N   UNL A   1      44.382  26.553  29.453  1.00  0.00    -0.248 NA
ATOM     50  C   UNL A   1      45.224  24.532  28.629  1.00  0.00     0.031 C 
ATOM     51  C   UNL A   1      46.877  29.704  31.364  1.00  0.00     0.029 A 
ATOM     52  C   UNL A   1      46.123  28.724  30.734  1.00  0.00     0.049 A 
ATOM     53  H   UNL A   1      44.064  28.722  30.281  1.00  0.00     0.167 HD
ATOM     54  C   UNL A   1      45.756  26.515  29.656  1.00  0.00     0.074 A 
ATOM     55  C   UNL A   1      46.220  25.239  29.149  1.00  0.00     0.031 C 
ATOM     56  C   UNL A   1      46.562  27.452  30.214  1.00  0.00     0.031 A 
BRANCH  43  57
ATOM     57  C   UNL A   1      43.644  32.632  31.952  1.00  0.00    -0.014 A 
ATOM     58  C   UNL A   1      43.930  33.767  31.173  1.00  0.00     0.010 A 
ATOM     59  C   UNL A   1      43.434  32.786  33.334  1.00  0.00     0.010 A 
ATOM     60  C   UNL A   1      44.059  35.022  31.773  1.00  0.00     0.020 A 
ATOM     61  C   UNL A   1      43.538  34.044  33.936  1.00  0.00     0.020 A 
ATOM     62  C   UNL A   1      43.874  35.150  33.153  1.00  0.00     0.054 A 
BRANCH  62  63
ATOM     63  S   UNL A   1      44.064  36.787  33.912  1.00  0.00     0.124 S 
ATOM     64  O   UNL A   1      43.723  37.674  32.801  1.00  0.00    -0.237 OA
ATOM     65  O   UNL A   1      43.097  36.751  35.006  1.00  0.00    -0.237 OA
ATOM     66  O   UNL A   1      45.466  36.817  34.324  1.00  0.00    -0.744 OA
ENDBRANCH  62  63
ENDBRANCH  43  57
BRANCH  44  67
ATOM     67  C   UNL A   1      42.569  23.570  27.818  1.00  0.00    -0.014 A 
ATOM     68  C   UNL A   1      42.929  23.352  26.478  1.00  0.00     0.010 A 
ATOM     69  C   UNL A   1      42.085  22.490  28.582  1.00  0.00     0.010 A 
ATOM     70  C   UNL A   1      42.809  22.079  25.911  1.00  0.00     0.020 A 
ATOM     71  C   UNL A   1      41.986  21.212  28.026  1.00  0.00     0.020 A 
ATOM     72  C   UNL A   1      42.342  21.016  26.691  1.00  0.00     0.054 A 
BRANCH  72  73
ATOM     73  S   UNL A   1      42.260  19.360  25.954  1.00  0.00     0.124 S 
ATOM     74  O   UNL A   1      40.828  19.200  25.726  1.00  0.00    -0.237 OA
ATOM     75  O   UNL A   1      43.078  19.508  24.752  1.00  0.00    -0.237 OA
ATOM     76  O   UNL A   1      42.833  18.498  26.985  1.00  0.00    -0.744 OA
ENDBRANCH  72  73
ENDBRANCH  44  67
BRANCH  56  77
ATOM     77  C   UNL A   1      48.026  27.127  30.322  1.00  0.00    -0.014 A 
ATOM     78  C   UNL A   1      48.915  27.440  29.280  1.00  0.00     0.010 A 
ATOM     79  C   UNL A   1      48.528  26.568  31.512  1.00  0.00     0.010 A 
ATOM     80  C   UNL A   1      50.282  27.186  29.420  1.00  0.00     0.020 A 
ATOM     81  C   UNL A   1      49.896  26.335  31.664  1.00  0.00     0.020 A 
ATOM     82  C   UNL A   1      50.764  26.638  30.613  1.00  0.00     0.054 A 
BRANCH  82  83
ATOM     83  S   UNL A   1      52.551  26.385  30.798  1.00  0.00     0.124 S 
ATOM     84  O   UNL A   1      52.957  27.592  31.513  1.00  0.00    -0.237 OA
ATOM     85  O   UNL A   1      52.622  25.145  31.566  1.00  0.00    -0.237 OA
ATOM     86  O   UNL A   1      53.031  26.285  29.421  1.00  0.00    -0.744 OA
ENDBRANCH  82  83
ENDBRANCH  56  77
ENDBRANCH  30  31
ENDBRANCH  23  25
ENDBRANCH  22  23
ENDBRANCH   1  22
TORSDOF 18
ENDMDL
