MODEL 1
REMARK VINA RESULT:     -12.4      0.000      0.000
REMARK SMILES Cc1ccc(NC(=O)C[C@H]2SC[C@H](C(=O)OCCOC(=O)c3ccc(-c4c5nc(c(-c6ccc(S(=O)(=O)[O-])cc6)c6ccc([nH]6)c(-c6ccc(S(=O)(=O)[O-])cc6)c6nc(c(-c7ccc(S(=O)(=O)[O-])cc7)c7ccc4[nH]7)C=C6)C=C5)cc3)NC2=O)cc1
REMARK SMILES IDX 17 1 16 2 14 3 15 4 13 5 10 6 11 7 83 8 12 9 82 10 84 11
REMARK SMILES IDX 9 13 7 14 6 15 8 17 5 18 1 19 2 20 3 21 86 22 4 23 85 24
REMARK SMILES IDX 18 25 19 26 20 27 21 28 22 29 23 30 81 31 24 32 80 33 25 34
REMARK SMILES IDX 26 35 27 36 74 37 28 38 79 39 73 40 75 41 29 42 78 43 72 44
REMARK SMILES IDX 71 45 30 47 60 48 41 49 59 50 42 51 45 52 58 53 76 54 43 55
REMARK SMILES IDX 44 56 57 58 77 59 46 60 31 61 32 62 40 63 33 64 39 65 34 66
REMARK SMILES IDX 35 67 36 68 37 69 38 70 61 71 62 72 70 73 63 74 69 75 64 76
REMARK SMILES IDX 65 77 66 78 67 79 68 80 47 81 48 82 56 83 49 84 55 85 50 86
REMARK SMILES IDX 51 87 52 88 53 89 54 90
REMARK H PARENT 82 12 6 16 75 46 45 57
REMARK Flexibility Score: inf
ROOT
ATOM      1  C   UNL A   1      38.046  20.956  25.621  1.00  0.00     0.274 C 
ENDROOT
BRANCH   1   2
ATOM      2  O   UNL A   1      37.533  21.579  24.438  1.00  0.00    -0.461 OA
BRANCH   2   3
ATOM      3  C   UNL A   1      36.699  22.637  24.621  1.00  0.00     0.329 C 
ATOM      4  O   UNL A   1      37.044  23.799  24.590  1.00  0.00    -0.250 OA
BRANCH   3   5
ATOM      5  C   UNL A   1      35.284  22.119  24.914  1.00  0.00     0.202 C 
ATOM      6  C   UNL A   1      32.380  22.837  25.284  1.00  0.00     0.145 C 
ATOM      7  S   UNL A   1      33.205  22.069  26.739  1.00  0.00    -0.145 SA
ATOM      8  C   UNL A   1      32.984  22.318  23.979  1.00  0.00     0.234 C 
ATOM      9  C   UNL A   1      34.905  22.561  26.318  1.00  0.00     0.107 C 
ATOM     10  N   UNL A   1      34.344  22.476  23.851  1.00  0.00    -0.341 N 
ATOM     11  O   UNL A   1      32.344  21.913  23.015  1.00  0.00    -0.274 OA
ATOM     12  H   UNL A   1      34.699  22.844  23.010  1.00  0.00     0.164 HD
BRANCH   6  13
ATOM     13  C   UNL A   1      30.863  22.790  25.456  1.00  0.00     0.124 C 
BRANCH  13  14
ATOM     14  C   UNL A   1      30.198  23.566  26.576  1.00  0.00     0.226 C 
ATOM     15  N   UNL A   1      29.825  24.869  26.491  1.00  0.00    -0.326 N 
ATOM     16  H   UNL A   1      29.291  25.169  27.263  1.00  0.00     0.169 HD
ATOM     17  O   UNL A   1      30.012  23.000  27.662  1.00  0.00    -0.275 OA
BRANCH  15  18
ATOM     18  C   UNL A   1      30.035  25.877  25.544  1.00  0.00     0.041 A 
ATOM     19  C   UNL A   1      30.860  29.118  22.825  1.00  0.00     0.044 C 
ATOM     20  C   UNL A   1      30.589  27.986  23.768  1.00  0.00    -0.051 A 
ATOM     21  C   UNL A   1      29.486  27.151  23.562  1.00  0.00     0.005 A 
ATOM     22  C   UNL A   1      31.422  27.752  24.862  1.00  0.00     0.005 A 
ATOM     23  C   UNL A   1      29.224  26.088  24.432  1.00  0.00     0.026 A 
ATOM     24  C   UNL A   1      31.154  26.696  25.735  1.00  0.00     0.026 A 
ENDBRANCH  15  18
ENDBRANCH  13  14
ENDBRANCH   6  13
ENDBRANCH   3   5
ENDBRANCH   2   3
ENDBRANCH   1   2
BRANCH   1  25
ATOM     25  C   UNL A   1      39.439  21.551  25.901  1.00  0.00     0.275 C 
BRANCH  25  26
ATOM     26  O   UNL A   1      39.508  22.611  26.887  1.00  0.00    -0.458 OA
BRANCH  26  27
ATOM     27  C   UNL A   1      40.535  23.502  26.794  1.00  0.00     0.338 C 
ATOM     28  O   UNL A   1      41.570  23.294  26.170  1.00  0.00    -0.246 OA
BRANCH  27  29
ATOM     29  C   UNL A   1      40.034  24.832  27.244  1.00  0.00     0.060 A 
ATOM     30  C   UNL A   1      39.297  24.954  28.433  1.00  0.00     0.016 A 
ATOM     31  C   UNL A   1      40.605  25.963  26.662  1.00  0.00     0.016 A 
ATOM     32  C   UNL A   1      39.286  26.169  29.129  1.00  0.00     0.010 A 
ATOM     33  C   UNL A   1      40.689  27.118  27.396  1.00  0.00     0.010 A 
ATOM     34  C   UNL A   1      40.054  27.226  28.643  1.00  0.00    -0.014 A 
BRANCH  34  35
ATOM     35  C   UNL A   1      40.150  28.562  29.221  1.00  0.00     0.031 A 
ATOM     36  C   UNL A   1      39.150  29.635  29.037  1.00  0.00     0.074 A 
ATOM     37  C   UNL A   1      41.129  28.661  30.146  1.00  0.00     0.049 A 
ATOM     38  N   UNL A   1      39.327  30.851  29.429  1.00  0.00    -0.248 NA
ATOM     39  C   UNL A   1      37.866  29.452  28.374  1.00  0.00     0.031 C 
ATOM     40  C   UNL A   1      41.317  29.630  31.210  1.00  0.00     0.029 A 
ATOM     41  N   UNL A   1      42.309  27.908  30.159  1.00  0.00    -0.354 N 
ATOM     42  C   UNL A   1      38.125  31.523  29.324  1.00  0.00     0.074 A 
ATOM     43  C   UNL A   1      37.269  30.634  28.577  1.00  0.00     0.031 C 
ATOM     44  C   UNL A   1      42.619  29.622  31.551  1.00  0.00     0.029 A 
ATOM     45  C   UNL A   1      43.305  28.793  30.564  1.00  0.00     0.049 A 
ATOM     46  H   UNL A   1      42.411  26.955  29.931  1.00  0.00     0.167 HD
ATOM     47  C   UNL A   1      37.963  32.702  29.992  1.00  0.00     0.031 A 
ATOM     48  C   UNL A   1      44.262  29.224  29.686  1.00  0.00     0.031 A 
ATOM     49  C   UNL A   1      39.210  33.095  30.642  1.00  0.00     0.049 A 
ATOM     50  C   UNL A   1      44.248  30.732  29.539  1.00  0.00     0.074 A 
ATOM     51  C   UNL A   1      39.681  32.982  31.939  1.00  0.00     0.029 A 
ATOM     52  N   UNL A   1      40.304  33.401  29.850  1.00  0.00    -0.354 N 
ATOM     53  N   UNL A   1      43.220  31.487  29.814  1.00  0.00    -0.248 NA
ATOM     54  C   UNL A   1      45.380  31.497  29.030  1.00  0.00     0.031 C 
ATOM     55  C   UNL A   1      41.087  33.192  31.910  1.00  0.00     0.029 A 
ATOM     56  C   UNL A   1      41.456  33.464  30.605  1.00  0.00     0.049 A 
ATOM     57  H   UNL A   1      40.264  33.552  28.878  1.00  0.00     0.167 HD
ATOM     58  C   UNL A   1      43.552  32.800  29.626  1.00  0.00     0.074 A 
ATOM     59  C   UNL A   1      44.892  32.750  29.068  1.00  0.00     0.031 C 
ATOM     60  C   UNL A   1      42.708  33.821  29.958  1.00  0.00     0.031 A 
BRANCH  47  61
ATOM     61  C   UNL A   1      36.655  33.421  30.263  1.00  0.00    -0.014 A 
ATOM     62  C   UNL A   1      35.836  33.796  29.172  1.00  0.00     0.010 A 
ATOM     63  C   UNL A   1      36.184  33.794  31.535  1.00  0.00     0.010 A 
ATOM     64  C   UNL A   1      34.669  34.559  29.332  1.00  0.00     0.020 A 
ATOM     65  C   UNL A   1      35.015  34.559  31.712  1.00  0.00     0.020 A 
ATOM     66  C   UNL A   1      34.276  34.959  30.604  1.00  0.00     0.054 A 
BRANCH  66  67
ATOM     67  S   UNL A   1      32.805  36.004  30.788  1.00  0.00     0.124 S 
ATOM     68  O   UNL A   1      32.320  36.100  29.413  1.00  0.00    -0.237 OA
ATOM     69  O   UNL A   1      31.969  35.227  31.698  1.00  0.00    -0.237 OA
ATOM     70  O   UNL A   1      33.333  37.248  31.345  1.00  0.00    -0.744 OA
ENDBRANCH  66  67
ENDBRANCH  47  61
BRANCH  48  71
ATOM     71  C   UNL A   1      44.559  28.271  28.564  1.00  0.00    -0.014 A 
ATOM     72  C   UNL A   1      44.163  28.629  27.253  1.00  0.00     0.010 A 
ATOM     73  C   UNL A   1      45.528  27.260  28.712  1.00  0.00     0.010 A 
ATOM     74  C   UNL A   1      44.809  28.093  26.132  1.00  0.00     0.020 A 
ATOM     75  C   UNL A   1      46.162  26.704  27.587  1.00  0.00     0.020 A 
ATOM     76  C   UNL A   1      45.831  27.160  26.307  1.00  0.00     0.054 A 
BRANCH  76  77
ATOM     77  S   UNL A   1      46.834  26.705  24.857  1.00  0.00     0.124 S 
ATOM     78  O   UNL A   1      48.194  26.798  25.380  1.00  0.00    -0.237 OA
ATOM     79  O   UNL A   1      46.361  25.352  24.569  1.00  0.00    -0.237 OA
ATOM     80  O   UNL A   1      46.468  27.706  23.859  1.00  0.00    -0.744 OA
ENDBRANCH  76  77
ENDBRANCH  48  71
BRANCH  60  81
ATOM     81  C   UNL A   1      42.970  35.283  29.711  1.00  0.00    -0.014 A 
ATOM     82  C   UNL A   1      43.606  36.130  30.627  1.00  0.00     0.010 A 
ATOM     83  C   UNL A   1      42.474  35.873  28.522  1.00  0.00     0.010 A 
ATOM     84  C   UNL A   1      43.823  37.482  30.325  1.00  0.00     0.020 A 
ATOM     85  C   UNL A   1      42.660  37.221  28.223  1.00  0.00     0.020 A 
ATOM     86  C   UNL A   1      43.362  38.013  29.118  1.00  0.00     0.054 A 
BRANCH  86  87
ATOM     87  S   UNL A   1      43.664  39.756  28.749  1.00  0.00     0.124 S 
ATOM     88  O   UNL A   1      42.850  39.971  27.555  1.00  0.00    -0.237 OA
ATOM     89  O   UNL A   1      43.179  40.410  29.963  1.00  0.00    -0.237 OA
ATOM     90  O   UNL A   1      45.107  39.827  28.538  1.00  0.00    -0.744 OA
ENDBRANCH  86  87
ENDBRANCH  60  81
ENDBRANCH  34  35
ENDBRANCH  27  29
ENDBRANCH  26  27
ENDBRANCH  25  26
ENDBRANCH   1  25
TORSDOF 17
ENDMDL
MODEL 2
REMARK VINA RESULT:     -12.4      4.579     11.093
REMARK SMILES Cc1ccc(NC(=O)C[C@H]2SC[C@H](C(=O)OCCOC(=O)c3ccc(-c4c5nc(c(-c6ccc(S(=O)(=O)[O-])cc6)c6ccc([nH]6)c(-c6ccc(S(=O)(=O)[O-])cc6)c6nc(c(-c7ccc(S(=O)(=O)[O-])cc7)c7ccc4[nH]7)C=C6)C=C5)cc3)NC2=O)cc1
REMARK SMILES IDX 17 1 16 2 14 3 15 4 13 5 10 6 11 7 83 8 12 9 82 10 84 11
REMARK SMILES IDX 9 13 7 14 6 15 8 17 5 18 1 19 2 20 3 21 86 22 4 23 85 24
REMARK SMILES IDX 18 25 19 26 20 27 21 28 22 29 23 30 81 31 24 32 80 33 25 34
REMARK SMILES IDX 26 35 27 36 74 37 28 38 79 39 73 40 75 41 29 42 78 43 72 44
REMARK SMILES IDX 71 45 30 47 60 48 41 49 59 50 42 51 45 52 58 53 76 54 43 55
REMARK SMILES IDX 44 56 57 58 77 59 46 60 31 61 32 62 40 63 33 64 39 65 34 66
REMARK SMILES IDX 35 67 36 68 37 69 38 70 61 71 62 72 70 73 63 74 69 75 64 76
REMARK SMILES IDX 65 77 66 78 67 79 68 80 47 81 48 82 56 83 49 84 55 85 50 86
REMARK SMILES IDX 51 87 52 88 53 89 54 90
REMARK H PARENT 82 12 6 16 75 46 45 57
REMARK Flexibility Score: inf
ROOT
ATOM      1  C   UNL A   1      33.930  29.230  26.616  1.00  0.00     0.274 C 
ENDROOT
BRANCH   1   2
ATOM      2  O   UNL A   1      32.567  28.792  26.671  1.00  0.00    -0.461 OA
BRANCH   2   3
ATOM      3  C   UNL A   1      31.785  29.108  25.604  1.00  0.00     0.329 C 
ATOM      4  O   UNL A   1      31.621  30.231  25.179  1.00  0.00    -0.250 OA
BRANCH   3   5
ATOM      5  C   UNL A   1      31.121  27.831  25.070  1.00  0.00     0.202 C 
ATOM      6  C   UNL A   1      31.224  24.821  24.939  1.00  0.00     0.145 C 
ATOM      7  S   UNL A   1      31.354  25.696  23.325  1.00  0.00    -0.145 SA
ATOM      8  C   UNL A   1      30.363  25.616  25.921  1.00  0.00     0.234 C 
ATOM      9  C   UNL A   1      32.008  27.265  23.974  1.00  0.00     0.107 C 
ATOM     10  N   UNL A   1      30.767  26.909  26.151  1.00  0.00    -0.341 N 
ATOM     11  O   UNL A   1      29.453  25.152  26.600  1.00  0.00    -0.274 OA
ATOM     12  H   UNL A   1      30.821  27.229  27.081  1.00  0.00     0.164 HD
BRANCH   6  13
ATOM     13  C   UNL A   1      30.899  23.346  24.711  1.00  0.00     0.124 C 
BRANCH  13  14
ATOM     14  C   UNL A   1      30.954  22.365  25.865  1.00  0.00     0.226 C 
ATOM     15  N   UNL A   1      32.100  21.867  26.396  1.00  0.00    -0.326 N 
ATOM     16  H   UNL A   1      31.951  21.349  27.220  1.00  0.00     0.169 HD
ATOM     17  O   UNL A   1      29.889  21.947  26.341  1.00  0.00    -0.275 OA
BRANCH  15  18
ATOM     18  C   UNL A   1      33.447  21.932  26.025  1.00  0.00     0.041 A 
ATOM     19  C   UNL A   1      37.611  22.398  25.014  1.00  0.00     0.044 C 
ATOM     20  C   UNL A   1      36.168  22.234  25.381  1.00  0.00    -0.051 A 
ATOM     21  C   UNL A   1      35.376  21.297  24.710  1.00  0.00     0.005 A 
ATOM     22  C   UNL A   1      35.594  23.011  26.387  1.00  0.00     0.005 A 
ATOM     23  C   UNL A   1      34.029  21.130  25.047  1.00  0.00     0.026 A 
ATOM     24  C   UNL A   1      34.246  22.851  26.715  1.00  0.00     0.026 A 
ENDBRANCH  15  18
ENDBRANCH  13  14
ENDBRANCH   6  13
ENDBRANCH   3   5
ENDBRANCH   2   3
ENDBRANCH   1   2
BRANCH   1  25
ATOM     25  C   UNL A   1      34.067  30.459  27.534  1.00  0.00     0.275 C 
BRANCH  25  26
ATOM     26  O   UNL A   1      35.362  31.110  27.561  1.00  0.00    -0.458 OA
BRANCH  26  27
ATOM     27  C   UNL A   1      36.101  31.009  28.701  1.00  0.00     0.338 C 
ATOM     28  O   UNL A   1      35.781  31.507  29.775  1.00  0.00    -0.246 OA
BRANCH  27  29
ATOM     29  C   UNL A   1      37.110  29.929  28.502  1.00  0.00     0.060 A 
ATOM     30  C   UNL A   1      38.079  30.033  27.491  1.00  0.00     0.016 A 
ATOM     31  C   UNL A   1      37.285  29.016  29.541  1.00  0.00     0.016 A 
ATOM     32  C   UNL A   1      39.299  29.357  27.618  1.00  0.00     0.010 A 
ATOM     33  C   UNL A   1      38.518  28.444  29.722  1.00  0.00     0.010 A 
ATOM     34  C   UNL A   1      39.542  28.627  28.781  1.00  0.00    -0.014 A 
BRANCH  34  35
ATOM     35  C   UNL A   1      40.740  27.849  29.078  1.00  0.00     0.031 A 
ATOM     36  C   UNL A   1      40.996  26.476  28.594  1.00  0.00     0.074 A 
ATOM     37  C   UNL A   1      41.715  28.589  29.648  1.00  0.00     0.049 A 
ATOM     38  N   UNL A   1      41.987  25.751  28.990  1.00  0.00    -0.248 NA
ATOM     39  C   UNL A   1      40.151  25.775  27.636  1.00  0.00     0.031 C 
ATOM     40  C   UNL A   1      43.143  28.345  29.741  1.00  0.00     0.029 A 
ATOM     41  N   UNL A   1      41.509  29.717  30.451  1.00  0.00    -0.354 N 
ATOM     42  C   UNL A   1      42.069  24.640  28.175  1.00  0.00     0.074 A 
ATOM     43  C   UNL A   1      40.850  24.655  27.406  1.00  0.00     0.031 C 
ATOM     44  C   UNL A   1      43.620  29.072  30.769  1.00  0.00     0.029 A 
ATOM     45  C   UNL A   1      42.461  29.626  31.463  1.00  0.00     0.049 A 
ATOM     46  H   UNL A   1      40.835  30.424  30.325  1.00  0.00     0.167 HD
ATOM     47  C   UNL A   1      43.222  23.909  28.165  1.00  0.00     0.031 A 
ATOM     48  C   UNL A   1      42.093  29.345  32.751  1.00  0.00     0.031 A 
ATOM     49  C   UNL A   1      44.160  24.421  29.159  1.00  0.00     0.049 A 
ATOM     50  C   UNL A   1      42.755  28.081  33.259  1.00  0.00     0.074 A 
ATOM     51  C   UNL A   1      45.260  25.258  29.084  1.00  0.00     0.029 A 
ATOM     52  N   UNL A   1      43.819  24.337  30.498  1.00  0.00    -0.354 N 
ATOM     53  N   UNL A   1      43.226  27.139  32.491  1.00  0.00    -0.248 NA
ATOM     54  C   UNL A   1      42.898  27.766  34.676  1.00  0.00     0.031 C 
ATOM     55  C   UNL A   1      45.557  25.706  30.400  1.00  0.00     0.029 A 
ATOM     56  C   UNL A   1      44.659  25.112  31.270  1.00  0.00     0.049 A 
ATOM     57  H   UNL A   1      43.076  23.796  30.852  1.00  0.00     0.167 HD
ATOM     58  C   UNL A   1      43.805  26.166  33.258  1.00  0.00     0.074 A 
ATOM     59  C   UNL A   1      43.511  26.571  34.622  1.00  0.00     0.031 C 
ATOM     60  C   UNL A   1      44.490  25.117  32.714  1.00  0.00     0.031 A 
BRANCH  47  61
ATOM     61  C   UNL A   1      43.629  22.869  27.137  1.00  0.00    -0.014 A 
ATOM     62  C   UNL A   1      42.782  21.759  26.909  1.00  0.00     0.010 A 
ATOM     63  C   UNL A   1      44.824  22.886  26.397  1.00  0.00     0.010 A 
ATOM     64  C   UNL A   1      43.139  20.700  26.060  1.00  0.00     0.020 A 
ATOM     65  C   UNL A   1      45.197  21.832  25.541  1.00  0.00     0.020 A 
ATOM     66  C   UNL A   1      44.360  20.731  25.396  1.00  0.00     0.054 A 
BRANCH  66  67
ATOM     67  S   UNL A   1      44.838  19.323  24.357  1.00  0.00     0.124 S 
ATOM     68  O   UNL A   1      44.086  18.225  24.959  1.00  0.00    -0.237 OA
ATOM     69  O   UNL A   1      44.395  19.736  23.029  1.00  0.00    -0.237 OA
ATOM     70  O   UNL A   1      46.288  19.244  24.528  1.00  0.00    -0.744 OA
ENDBRANCH  66  67
ENDBRANCH  47  61
BRANCH  48  71
ATOM     71  C   UNL A   1      40.698  29.769  33.111  1.00  0.00    -0.014 A 
ATOM     72  C   UNL A   1      40.315  29.737  34.473  1.00  0.00     0.010 A 
ATOM     73  C   UNL A   1      39.924  30.538  32.221  1.00  0.00     0.010 A 
ATOM     74  C   UNL A   1      39.280  30.550  34.952  1.00  0.00     0.020 A 
ATOM     75  C   UNL A   1      38.870  31.340  32.696  1.00  0.00     0.020 A 
ATOM     76  C   UNL A   1      38.587  31.375  34.065  1.00  0.00     0.054 A 
BRANCH  76  77
ATOM     77  S   UNL A   1      37.454  32.620  34.759  1.00  0.00     0.124 S 
ATOM     78  O   UNL A   1      37.438  32.268  36.176  1.00  0.00    -0.237 OA
ATOM     79  O   UNL A   1      38.134  33.872  34.429  1.00  0.00    -0.237 OA
ATOM     80  O   UNL A   1      36.207  32.392  34.034  1.00  0.00    -0.744 OA
ENDBRANCH  76  77
ENDBRANCH  48  71
BRANCH  60  81
ATOM     81  C   UNL A   1      45.086  23.971  33.487  1.00  0.00    -0.014 A 
ATOM     82  C   UNL A   1      44.371  22.829  33.870  1.00  0.00     0.010 A 
ATOM     83  C   UNL A   1      46.426  24.075  33.934  1.00  0.00     0.010 A 
ATOM     84  C   UNL A   1      44.996  21.796  34.583  1.00  0.00     0.020 A 
ATOM     85  C   UNL A   1      47.050  23.067  34.667  1.00  0.00     0.020 A 
ATOM     86  C   UNL A   1      46.336  21.917  34.962  1.00  0.00     0.054 A 
BRANCH  86  87
ATOM     87  S   UNL A   1      47.119  20.566  35.872  1.00  0.00     0.124 S 
ATOM     88  O   UNL A   1      46.819  20.906  37.261  1.00  0.00    -0.237 OA
ATOM     89  O   UNL A   1      46.415  19.399  35.346  1.00  0.00    -0.237 OA
ATOM     90  O   UNL A   1      48.528  20.662  35.501  1.00  0.00    -0.744 OA
ENDBRANCH  86  87
ENDBRANCH  60  81
ENDBRANCH  34  35
ENDBRANCH  27  29
ENDBRANCH  26  27
ENDBRANCH  25  26
ENDBRANCH   1  25
TORSDOF 17
ENDMDL
MODEL 3
REMARK VINA RESULT:     -12.1      1.871      2.904
REMARK SMILES Cc1ccc(NC(=O)C[C@H]2SC[C@H](C(=O)OCCOC(=O)c3ccc(-c4c5nc(c(-c6ccc(S(=O)(=O)[O-])cc6)c6ccc([nH]6)c(-c6ccc(S(=O)(=O)[O-])cc6)c6nc(c(-c7ccc(S(=O)(=O)[O-])cc7)c7ccc4[nH]7)C=C6)C=C5)cc3)NC2=O)cc1
REMARK SMILES IDX 17 1 16 2 14 3 15 4 13 5 10 6 11 7 83 8 12 9 82 10 84 11
REMARK SMILES IDX 9 13 7 14 6 15 8 17 5 18 1 19 2 20 3 21 86 22 4 23 85 24
REMARK SMILES IDX 18 25 19 26 20 27 21 28 22 29 23 30 81 31 24 32 80 33 25 34
REMARK SMILES IDX 26 35 27 36 74 37 28 38 79 39 73 40 75 41 29 42 78 43 72 44
REMARK SMILES IDX 71 45 30 47 60 48 41 49 59 50 42 51 45 52 58 53 76 54 43 55
REMARK SMILES IDX 44 56 57 58 77 59 46 60 31 61 32 62 40 63 33 64 39 65 34 66
REMARK SMILES IDX 35 67 36 68 37 69 38 70 61 71 62 72 70 73 63 74 69 75 64 76
REMARK SMILES IDX 65 77 66 78 67 79 68 80 47 81 48 82 56 83 49 84 55 85 50 86
REMARK SMILES IDX 51 87 52 88 53 89 54 90
REMARK H PARENT 82 12 6 16 75 46 45 57
REMARK Flexibility Score: inf
ROOT
ATOM      1  C   UNL A   1      35.655  23.840  24.445  1.00  0.00     0.274 C 
ENDROOT
BRANCH   1   2
ATOM      2  O   UNL A   1      34.661  22.851  24.738  1.00  0.00    -0.461 OA
BRANCH   2   3
ATOM      3  C   UNL A   1      33.542  22.867  23.965  1.00  0.00     0.329 C 
ATOM      4  O   UNL A   1      33.042  21.886  23.457  1.00  0.00    -0.250 OA
BRANCH   3   5
ATOM      5  C   UNL A   1      33.057  24.315  23.812  1.00  0.00     0.202 C 
ATOM      6  C   UNL A   1      30.683  26.133  23.435  1.00  0.00     0.145 C 
ATOM      7  S   UNL A   1      31.944  26.178  22.095  1.00  0.00    -0.145 SA
ATOM      8  C   UNL A   1      31.333  25.826  24.784  1.00  0.00     0.234 C 
ATOM      9  C   UNL A   1      32.620  24.512  22.369  1.00  0.00     0.107 C 
ATOM     10  N   UNL A   1      32.073  24.669  24.836  1.00  0.00    -0.341 N 
ATOM     11  O   UNL A   1      31.131  26.444  25.824  1.00  0.00    -0.274 OA
ATOM     12  H   UNL A   1      31.936  24.055  25.592  1.00  0.00     0.164 HD
BRANCH   6  13
ATOM     13  C   UNL A   1      29.761  27.347  23.328  1.00  0.00     0.124 C 
BRANCH  13  14
ATOM     14  C   UNL A   1      30.253  28.622  22.672  1.00  0.00     0.226 C 
ATOM     15  N   UNL A   1      31.234  29.415  23.174  1.00  0.00    -0.326 N 
ATOM     16  H   UNL A   1      31.512  30.127  22.552  1.00  0.00     0.169 HD
ATOM     17  O   UNL A   1      29.704  29.003  21.628  1.00  0.00    -0.275 OA
BRANCH  15  18
ATOM     18  C   UNL A   1      31.935  29.440  24.384  1.00  0.00     0.041 A 
ATOM     19  C   UNL A   1      34.277  29.307  28.001  1.00  0.00     0.044 C 
ATOM     20  C   UNL A   1      33.475  29.360  26.736  1.00  0.00    -0.051 A 
ATOM     21  C   UNL A   1      32.194  29.922  26.740  1.00  0.00     0.005 A 
ATOM     22  C   UNL A   1      33.988  28.851  25.543  1.00  0.00     0.005 A 
ATOM     23  C   UNL A   1      31.438  29.982  25.566  1.00  0.00     0.026 A 
ATOM     24  C   UNL A   1      33.228  28.903  24.373  1.00  0.00     0.026 A 
ENDBRANCH  15  18
ENDBRANCH  13  14
ENDBRANCH   6  13
ENDBRANCH   3   5
ENDBRANCH   2   3
ENDBRANCH   1   2
BRANCH   1  25
ATOM     25  C   UNL A   1      37.018  23.291  24.905  1.00  0.00     0.275 C 
BRANCH  25  26
ATOM     26  O   UNL A   1      37.616  23.921  26.065  1.00  0.00    -0.458 OA
BRANCH  26  27
ATOM     27  C   UNL A   1      38.816  23.446  26.500  1.00  0.00     0.338 C 
ATOM     28  O   UNL A   1      39.321  22.397  26.114  1.00  0.00    -0.246 OA
BRANCH  27  29
ATOM     29  C   UNL A   1      39.526  24.556  27.197  1.00  0.00     0.060 A 
ATOM     30  C   UNL A   1      40.237  25.521  26.465  1.00  0.00     0.016 A 
ATOM     31  C   UNL A   1      39.179  24.808  28.524  1.00  0.00     0.016 A 
ATOM     32  C   UNL A   1      40.437  26.800  27.001  1.00  0.00     0.010 A 
ATOM     33  C   UNL A   1      39.275  26.088  29.005  1.00  0.00     0.010 A 
ATOM     34  C   UNL A   1      39.880  27.100  28.243  1.00  0.00    -0.014 A 
BRANCH  34  35
ATOM     35  C   UNL A   1      39.999  28.364  28.962  1.00  0.00     0.031 A 
ATOM     36  C   UNL A   1      39.071  29.506  28.820  1.00  0.00     0.074 A 
ATOM     37  C   UNL A   1      40.910  28.313  29.957  1.00  0.00     0.049 A 
ATOM     38  N   UNL A   1      39.279  30.665  29.348  1.00  0.00    -0.248 NA
ATOM     39  C   UNL A   1      37.833  29.464  28.054  1.00  0.00     0.031 C 
ATOM     40  C   UNL A   1      41.066  29.160  31.126  1.00  0.00     0.029 A 
ATOM     41  N   UNL A   1      42.046  27.496  29.974  1.00  0.00    -0.354 N 
ATOM     42  C   UNL A   1      38.124  31.412  29.229  1.00  0.00     0.074 A 
ATOM     43  C   UNL A   1      37.283  30.653  28.337  1.00  0.00     0.031 C 
ATOM     44  C   UNL A   1      42.338  29.043  31.554  1.00  0.00     0.029 A 
ATOM     45  C   UNL A   1      43.053  28.278  30.536  1.00  0.00     0.049 A 
ATOM     46  H   UNL A   1      42.117  26.567  29.656  1.00  0.00     0.167 HD
ATOM     47  C   UNL A   1      37.972  32.526  30.003  1.00  0.00     0.031 A 
ATOM     48  C   UNL A   1      44.093  28.738  29.776  1.00  0.00     0.031 A 
ATOM     49  C   UNL A   1      39.185  32.779  30.775  1.00  0.00     0.049 A 
ATOM     50  C   UNL A   1      44.166  30.251  29.785  1.00  0.00     0.074 A 
ATOM     51  C   UNL A   1      39.551  32.512  32.082  1.00  0.00     0.029 A 
ATOM     52  N   UNL A   1      40.349  33.099  30.096  1.00  0.00    -0.354 N 
ATOM     53  N   UNL A   1      43.160  31.033  30.065  1.00  0.00    -0.248 NA
ATOM     54  C   UNL A   1      45.370  30.997  29.438  1.00  0.00     0.031 C 
ATOM     55  C   UNL A   1      40.964  32.641  32.173  1.00  0.00     0.029 A 
ATOM     56  C   UNL A   1      41.443  33.020  30.932  1.00  0.00     0.049 A 
ATOM     57  H   UNL A   1      40.390  33.348  29.145  1.00  0.00     0.167 HD
ATOM     58  C   UNL A   1      43.571  32.338  30.037  1.00  0.00     0.074 A 
ATOM     59  C   UNL A   1      44.945  32.266  29.571  1.00  0.00     0.031 C 
ATOM     60  C   UNL A   1      42.756  33.367  30.413  1.00  0.00     0.031 A 
BRANCH  47  61
ATOM     61  C   UNL A   1      36.685  33.289  30.256  1.00  0.00    -0.014 A 
ATOM     62  C   UNL A   1      35.915  33.724  29.153  1.00  0.00     0.010 A 
ATOM     63  C   UNL A   1      36.192  33.646  31.523  1.00  0.00     0.010 A 
ATOM     64  C   UNL A   1      34.774  34.528  29.299  1.00  0.00     0.020 A 
ATOM     65  C   UNL A   1      35.048  34.452  31.687  1.00  0.00     0.020 A 
ATOM     66  C   UNL A   1      34.359  34.910  30.569  1.00  0.00     0.054 A 
BRANCH  66  67
ATOM     67  S   UNL A   1      32.924  36.007  30.740  1.00  0.00     0.124 S 
ATOM     68  O   UNL A   1      32.418  36.068  29.371  1.00  0.00    -0.237 OA
ATOM     69  O   UNL A   1      32.081  35.290  31.692  1.00  0.00    -0.237 OA
ATOM     70  O   UNL A   1      33.500  37.254  31.241  1.00  0.00    -0.744 OA
ENDBRANCH  66  67
ENDBRANCH  47  61
BRANCH  48  71
ATOM     71  C   UNL A   1      44.425  27.886  28.584  1.00  0.00    -0.014 A 
ATOM     72  C   UNL A   1      45.030  26.626  28.806  1.00  0.00     0.010 A 
ATOM     73  C   UNL A   1      43.817  28.121  27.336  1.00  0.00     0.010 A 
ATOM     74  C   UNL A   1      44.914  25.594  27.866  1.00  0.00     0.020 A 
ATOM     75  C   UNL A   1      43.719  27.092  26.382  1.00  0.00     0.020 A 
ATOM     76  C   UNL A   1      44.226  25.823  26.674  1.00  0.00     0.054 A 
BRANCH  76  77
ATOM     77  S   UNL A   1      43.849  24.392  25.613  1.00  0.00     0.124 S 
ATOM     78  O   UNL A   1      42.924  24.963  24.640  1.00  0.00    -0.237 OA
ATOM     79  O   UNL A   1      45.170  24.038  25.095  1.00  0.00    -0.237 OA
ATOM     80  O   UNL A   1      43.276  23.419  26.539  1.00  0.00    -0.744 OA
ENDBRANCH  76  77
ENDBRANCH  48  71
BRANCH  60  81
ATOM     81  C   UNL A   1      43.109  34.829  30.338  1.00  0.00    -0.014 A 
ATOM     82  C   UNL A   1      43.514  35.595  31.439  1.00  0.00     0.010 A 
ATOM     83  C   UNL A   1      42.946  35.507  29.104  1.00  0.00     0.010 A 
ATOM     84  C   UNL A   1      43.835  36.951  31.291  1.00  0.00     0.020 A 
ATOM     85  C   UNL A   1      43.236  36.861  28.952  1.00  0.00     0.020 A 
ATOM     86  C   UNL A   1      43.708  37.570  30.045  1.00  0.00     0.054 A 
BRANCH  86  87
ATOM     87  S   UNL A   1      44.138  39.318  29.880  1.00  0.00     0.124 S 
ATOM     88  O   UNL A   1      45.558  39.262  29.540  1.00  0.00    -0.237 OA
ATOM     89  O   UNL A   1      43.251  39.746  28.801  1.00  0.00    -0.237 OA
ATOM     90  O   UNL A   1      43.836  39.880  31.193  1.00  0.00    -0.744 OA
ENDBRANCH  86  87
ENDBRANCH  60  81
ENDBRANCH  34  35
ENDBRANCH  27  29
ENDBRANCH  26  27
ENDBRANCH  25  26
ENDBRANCH   1  25
TORSDOF 17
ENDMDL
