MODEL 1
REMARK VINA RESULT:      -9.7      0.000      0.000
REMARK SMILES CC[C@@H](NC(=O)NC1(CC(=O)OCCOC(=O)c2ccc(-c3c4nc(c(-c5ccc(S(=O)(=O)[O-])cc5)c5ccc([nH]5)c(-c5ccc(S(=O)(=O)[O-])cc5)c5nc(c(-c6ccc(S(=O)(=O)[O-])cc6)c6ccc3[nH]6)C=C5)C=C4)cc2)CCC1)C(C)C
REMARK SMILES IDX 13 1 12 2 10 3 11 4 9 5 8 6 78 7 80 8 79 9 7 10 4 11 5 12
REMARK SMILES IDX 6 14 3 16 2 17 1 18 81 19 82 20 83 21 14 22 15 23 16 24
REMARK SMILES IDX 17 25 18 26 19 27 77 28 20 29 76 30 21 31 22 32 23 33 70 34
REMARK SMILES IDX 24 35 75 36 69 37 71 38 25 39 74 40 68 41 67 42 26 44 56 45
REMARK SMILES IDX 37 46 55 47 38 48 41 49 54 50 72 51 39 52 40 53 53 55 73 56
REMARK SMILES IDX 42 57 27 58 28 59 36 60 29 61 35 62 30 63 31 64 32 65 33 66
REMARK SMILES IDX 34 67 57 68 58 69 66 70 59 71 65 72 60 73 61 74 62 75 63 76
REMARK SMILES IDX 64 77 43 78 44 79 52 80 45 81 51 82 46 83 47 84 48 85 49 86
REMARK SMILES IDX 50 87
REMARK H PARENT 4 13 7 15 71 43 41 54
REMARK Flexibility Score: inf
ROOT
ATOM      1  C   UNL A   1      38.809  21.572  26.077  1.00  0.00     0.274 C 
ENDROOT
BRANCH   1   2
ATOM      2  O   UNL A   1      37.785  21.918  25.134  1.00  0.00    -0.462 OA
BRANCH   2   3
ATOM      3  C   UNL A   1      37.179  23.124  25.215  1.00  0.00     0.308 C 
ATOM      4  O   UNL A   1      37.361  23.933  26.107  1.00  0.00    -0.252 OA
BRANCH   3   5
ATOM      5  C   UNL A   1      36.177  23.335  24.103  1.00  0.00     0.151 C 
BRANCH   5   6
ATOM      6  C   UNL A   1      34.708  23.584  24.486  1.00  0.00     0.052 C 
ATOM      7  C   UNL A   1      33.744  23.703  23.234  1.00  0.00     0.029 C 
ATOM      8  C   UNL A   1      34.193  25.093  24.720  1.00  0.00     0.029 C 
ATOM      9  C   UNL A   1      34.028  25.207  23.203  1.00  0.00     0.005 C 
BRANCH   6  10
ATOM     10  N   UNL A   1      34.269  22.728  25.644  1.00  0.00    -0.332 N 
ATOM     11  N   UNL A   1      34.825  20.437  25.254  1.00  0.00    -0.335 N 
ATOM     12  C   UNL A   1      34.340  21.431  26.043  1.00  0.00     0.315 C 
ATOM     13  H   UNL A   1      35.791  20.253  25.236  1.00  0.00     0.165 HD
ATOM     14  O   UNL A   1      34.029  21.142  27.200  1.00  0.00    -0.249 OA
ATOM     15  H   UNL A   1      33.786  23.268  26.311  1.00  0.00     0.165 HD
BRANCH  11  16
ATOM     16  C   UNL A   1      33.901  19.629  24.421  1.00  0.00     0.086 C 
BRANCH  16  17
ATOM     17  C   UNL A   1      32.527  20.312  24.235  1.00  0.00     0.022 C 
ATOM     18  C   UNL A   1      32.152  20.443  22.760  1.00  0.00     0.006 C 
ENDBRANCH  16  17
BRANCH  16  19
ATOM     19  C   UNL A   1      33.857  18.204  24.999  1.00  0.00     0.005 C 
ATOM     20  C   UNL A   1      32.531  17.547  25.363  1.00  0.00     0.009 C 
ATOM     21  C   UNL A   1      34.778  17.274  24.208  1.00  0.00     0.009 C 
ENDBRANCH  16  19
ENDBRANCH  11  16
ENDBRANCH   6  10
ENDBRANCH   5   6
ENDBRANCH   3   5
ENDBRANCH   2   3
ENDBRANCH   1   2
BRANCH   1  22
ATOM     22  C   UNL A   1      39.325  20.170  25.767  1.00  0.00     0.275 C 
BRANCH  22  23
ATOM     23  O   UNL A   1      40.409  19.842  26.653  1.00  0.00    -0.458 OA
BRANCH  23  24
ATOM     24  C   UNL A   1      41.638  19.904  26.092  1.00  0.00     0.338 C 
ATOM     25  O   UNL A   1      42.158  19.052  25.377  1.00  0.00    -0.246 OA
BRANCH  24  26
ATOM     26  C   UNL A   1      42.229  21.214  26.399  1.00  0.00     0.060 A 
ATOM     27  C   UNL A   1      42.568  21.526  27.719  1.00  0.00     0.016 A 
ATOM     28  C   UNL A   1      42.424  22.147  25.383  1.00  0.00     0.016 A 
ATOM     29  C   UNL A   1      43.077  22.787  28.031  1.00  0.00     0.010 A 
ATOM     30  C   UNL A   1      42.973  23.396  25.693  1.00  0.00     0.010 A 
ATOM     31  C   UNL A   1      43.295  23.733  27.020  1.00  0.00    -0.014 A 
BRANCH  31  32
ATOM     32  C   UNL A   1      43.883  25.064  27.333  1.00  0.00     0.031 A 
ATOM     33  C   UNL A   1      43.022  26.176  27.871  1.00  0.00     0.074 A 
ATOM     34  C   UNL A   1      45.190  25.289  27.093  1.00  0.00     0.049 A 
ATOM     35  N   UNL A   1      43.336  27.427  28.094  1.00  0.00    -0.248 NA
ATOM     36  C   UNL A   1      41.627  25.838  28.192  1.00  0.00     0.031 C 
ATOM     37  C   UNL A   1      46.141  24.297  26.589  1.00  0.00     0.029 A 
ATOM     38  N   UNL A   1      45.941  26.431  27.227  1.00  0.00    -0.354 N 
ATOM     39  C   UNL A   1      42.174  28.036  28.553  1.00  0.00     0.074 A 
ATOM     40  C   UNL A   1      41.144  27.018  28.559  1.00  0.00     0.031 C 
ATOM     41  C   UNL A   1      47.348  24.870  26.462  1.00  0.00     0.029 A 
ATOM     42  C   UNL A   1      47.246  26.282  26.817  1.00  0.00     0.049 A 
ATOM     43  H   UNL A   1      45.581  27.276  27.583  1.00  0.00     0.167 HD
ATOM     44  C   UNL A   1      41.982  29.324  28.934  1.00  0.00     0.031 A 
ATOM     45  C   UNL A   1      48.243  27.182  26.704  1.00  0.00     0.031 A 
ATOM     46  C   UNL A   1      43.008  30.337  28.925  1.00  0.00     0.049 A 
ATOM     47  C   UNL A   1      47.991  28.615  27.080  1.00  0.00     0.074 A 
ATOM     48  C   UNL A   1      42.915  31.658  29.328  1.00  0.00     0.029 A 
ATOM     49  N   UNL A   1      44.309  30.148  28.483  1.00  0.00    -0.354 N 
ATOM     50  N   UNL A   1      46.893  29.167  27.536  1.00  0.00    -0.248 NA
ATOM     51  C   UNL A   1      49.118  29.547  26.930  1.00  0.00     0.031 C 
ATOM     52  C   UNL A   1      44.140  32.283  29.073  1.00  0.00     0.029 A 
ATOM     53  C   UNL A   1      45.018  31.336  28.574  1.00  0.00     0.049 A 
ATOM     54  H   UNL A   1      44.675  29.296  28.153  1.00  0.00     0.167 HD
ATOM     55  C   UNL A   1      47.202  30.506  27.748  1.00  0.00     0.074 A 
ATOM     56  C   UNL A   1      48.595  30.676  27.387  1.00  0.00     0.031 C 
ATOM     57  C   UNL A   1      46.402  31.503  28.201  1.00  0.00     0.031 A 
BRANCH  44  58
ATOM     58  C   UNL A   1      40.592  29.726  29.361  1.00  0.00    -0.014 A 
ATOM     59  C   UNL A   1      40.256  29.880  30.718  1.00  0.00     0.010 A 
ATOM     60  C   UNL A   1      39.617  29.999  28.383  1.00  0.00     0.010 A 
ATOM     61  C   UNL A   1      38.960  30.255  31.089  1.00  0.00     0.020 A 
ATOM     62  C   UNL A   1      38.329  30.402  28.748  1.00  0.00     0.020 A 
ATOM     63  C   UNL A   1      38.003  30.509  30.101  1.00  0.00     0.054 A 
BRANCH  63  64
ATOM     64  S   UNL A   1      36.334  31.005  30.612  1.00  0.00     0.124 S 
ATOM     65  O   UNL A   1      35.930  29.882  31.453  1.00  0.00    -0.237 OA
ATOM     66  O   UNL A   1      36.575  32.262  31.316  1.00  0.00    -0.237 OA
ATOM     67  O   UNL A   1      35.608  31.131  29.350  1.00  0.00    -0.744 OA
ENDBRANCH  63  64
ENDBRANCH  44  58
BRANCH  45  68
ATOM     68  C   UNL A   1      49.569  26.747  26.189  1.00  0.00    -0.014 A 
ATOM     69  C   UNL A   1      49.924  26.971  24.848  1.00  0.00     0.010 A 
ATOM     70  C   UNL A   1      50.498  26.132  27.050  1.00  0.00     0.010 A 
ATOM     71  C   UNL A   1      51.181  26.583  24.374  1.00  0.00     0.020 A 
ATOM     72  C   UNL A   1      51.767  25.771  26.588  1.00  0.00     0.020 A 
ATOM     73  C   UNL A   1      52.097  25.992  25.249  1.00  0.00     0.054 A 
BRANCH  73  74
ATOM     74  S   UNL A   1      53.747  25.563  24.628  1.00  0.00     0.124 S 
ATOM     75  O   UNL A   1      53.806  24.128  24.886  1.00  0.00    -0.237 OA
ATOM     76  O   UNL A   1      53.664  25.951  23.223  1.00  0.00    -0.237 OA
ATOM     77  O   UNL A   1      54.643  26.384  25.441  1.00  0.00    -0.744 OA
ENDBRANCH  73  74
ENDBRANCH  45  68
BRANCH  57  78
ATOM     78  C   UNL A   1      47.021  32.869  28.364  1.00  0.00    -0.014 A 
ATOM     79  C   UNL A   1      47.641  33.252  29.567  1.00  0.00     0.010 A 
ATOM     80  C   UNL A   1      47.013  33.769  27.283  1.00  0.00     0.010 A 
ATOM     81  C   UNL A   1      48.208  34.523  29.698  1.00  0.00     0.020 A 
ATOM     82  C   UNL A   1      47.606  35.030  27.400  1.00  0.00     0.020 A 
ATOM     83  C   UNL A   1      48.186  35.405  28.612  1.00  0.00     0.054 A 
BRANCH  83  84
ATOM     84  S   UNL A   1      48.957  37.038  28.796  1.00  0.00     0.124 S 
ATOM     85  O   UNL A   1      48.247  37.825  27.792  1.00  0.00    -0.237 OA
ATOM     86  O   UNL A   1      48.664  37.377  30.186  1.00  0.00    -0.237 OA
ATOM     87  O   UNL A   1      50.368  36.788  28.507  1.00  0.00    -0.744 OA
ENDBRANCH  83  84
ENDBRANCH  57  78
ENDBRANCH  31  32
ENDBRANCH  24  26
ENDBRANCH  23  24
ENDBRANCH  22  23
ENDBRANCH   1  22
TORSDOF 19
ENDMDL
MODEL 2
REMARK VINA RESULT:      -9.6      2.624      7.707
REMARK SMILES CC[C@@H](NC(=O)NC1(CC(=O)OCCOC(=O)c2ccc(-c3c4nc(c(-c5ccc(S(=O)(=O)[O-])cc5)c5ccc([nH]5)c(-c5ccc(S(=O)(=O)[O-])cc5)c5nc(c(-c6ccc(S(=O)(=O)[O-])cc6)c6ccc3[nH]6)C=C5)C=C4)cc2)CCC1)C(C)C
REMARK SMILES IDX 13 1 12 2 10 3 11 4 9 5 8 6 78 7 80 8 79 9 7 10 4 11 5 12
REMARK SMILES IDX 6 14 3 16 2 17 1 18 81 19 82 20 83 21 14 22 15 23 16 24
REMARK SMILES IDX 17 25 18 26 19 27 77 28 20 29 76 30 21 31 22 32 23 33 70 34
REMARK SMILES IDX 24 35 75 36 69 37 71 38 25 39 74 40 68 41 67 42 26 44 56 45
REMARK SMILES IDX 37 46 55 47 38 48 41 49 54 50 72 51 39 52 40 53 53 55 73 56
REMARK SMILES IDX 42 57 27 58 28 59 36 60 29 61 35 62 30 63 31 64 32 65 33 66
REMARK SMILES IDX 34 67 57 68 58 69 66 70 59 71 65 72 60 73 61 74 62 75 63 76
REMARK SMILES IDX 64 77 43 78 44 79 52 80 45 81 51 82 46 83 47 84 48 85 49 86
REMARK SMILES IDX 50 87
REMARK H PARENT 4 13 7 15 71 43 41 54
REMARK Flexibility Score: inf
ROOT
ATOM      1  C   UNL A   1      34.424  28.596  26.435  1.00  0.00     0.274 C 
ENDROOT
BRANCH   1   2
ATOM      2  O   UNL A   1      33.116  29.083  26.102  1.00  0.00    -0.462 OA
BRANCH   2   3
ATOM      3  C   UNL A   1      32.026  28.361  26.445  1.00  0.00     0.308 C 
ATOM      4  O   UNL A   1      31.808  27.920  27.560  1.00  0.00    -0.252 OA
BRANCH   3   5
ATOM      5  C   UNL A   1      31.126  28.090  25.261  1.00  0.00     0.151 C 
BRANCH   5   6
ATOM      6  C   UNL A   1      31.130  26.676  24.654  1.00  0.00     0.052 C 
ATOM      7  C   UNL A   1      32.206  26.489  23.505  1.00  0.00     0.029 C 
ATOM      8  C   UNL A   1      30.130  26.330  23.440  1.00  0.00     0.029 C 
ATOM      9  C   UNL A   1      31.156  26.959  22.494  1.00  0.00     0.005 C 
BRANCH   6  10
ATOM     10  N   UNL A   1      31.018  25.604  25.706  1.00  0.00    -0.332 N 
ATOM     11  N   UNL A   1      32.918  24.156  25.634  1.00  0.00    -0.335 N 
ATOM     12  C   UNL A   1      31.752  24.570  26.195  1.00  0.00     0.315 C 
ATOM     13  H   UNL A   1      33.765  24.588  25.890  1.00  0.00     0.165 HD
ATOM     14  O   UNL A   1      31.396  24.027  27.242  1.00  0.00    -0.249 OA
ATOM     15  H   UNL A   1      30.158  25.673  26.179  1.00  0.00     0.165 HD
BRANCH  11  16
ATOM     16  C   UNL A   1      32.917  23.056  24.640  1.00  0.00     0.086 C 
BRANCH  16  17
ATOM     17  C   UNL A   1      33.123  21.672  25.294  1.00  0.00     0.022 C 
ATOM     18  C   UNL A   1      32.196  20.616  24.695  1.00  0.00     0.006 C 
ENDBRANCH  16  17
BRANCH  16  19
ATOM     19  C   UNL A   1      33.916  23.417  23.527  1.00  0.00     0.005 C 
ATOM     20  C   UNL A   1      35.362  22.937  23.586  1.00  0.00     0.009 C 
ATOM     21  C   UNL A   1      33.285  23.212  22.150  1.00  0.00     0.009 C 
ENDBRANCH  16  19
ENDBRANCH  11  16
ENDBRANCH   6  10
ENDBRANCH   5   6
ENDBRANCH   3   5
ENDBRANCH   2   3
ENDBRANCH   1   2
BRANCH   1  22
ATOM     22  C   UNL A   1      34.970  29.387  27.620  1.00  0.00     0.275 C 
BRANCH  22  23
ATOM     23  O   UNL A   1      36.406  29.415  27.568  1.00  0.00    -0.458 OA
BRANCH  23  24
ATOM     24  C   UNL A   1      37.018  29.325  28.770  1.00  0.00     0.338 C 
ATOM     25  O   UNL A   1      36.469  29.292  29.868  1.00  0.00    -0.246 OA
BRANCH  24  26
ATOM     26  C   UNL A   1      38.463  29.175  28.552  1.00  0.00     0.060 A 
ATOM     27  C   UNL A   1      38.987  29.334  27.266  1.00  0.00     0.016 A 
ATOM     28  C   UNL A   1      39.299  28.849  29.617  1.00  0.00     0.016 A 
ATOM     29  C   UNL A   1      40.349  29.137  27.036  1.00  0.00     0.010 A 
ATOM     30  C   UNL A   1      40.671  28.694  29.392  1.00  0.00     0.010 A 
ATOM     31  C   UNL A   1      41.209  28.825  28.099  1.00  0.00    -0.014 A 
BRANCH  31  32
ATOM     32  C   UNL A   1      42.671  28.662  27.875  1.00  0.00     0.031 A 
ATOM     33  C   UNL A   1      43.614  29.815  28.097  1.00  0.00     0.074 A 
ATOM     34  C   UNL A   1      43.151  27.486  27.426  1.00  0.00     0.049 A 
ATOM     35  N   UNL A   1      44.897  29.891  27.847  1.00  0.00    -0.248 NA
ATOM     36  C   UNL A   1      43.039  31.042  28.669  1.00  0.00     0.031 C 
ATOM     37  C   UNL A   1      42.351  26.283  27.184  1.00  0.00     0.029 A 
ATOM     38  N   UNL A   1      44.427  27.111  27.080  1.00  0.00    -0.354 N 
ATOM     39  C   UNL A   1      45.279  31.179  28.201  1.00  0.00     0.074 A 
ATOM     40  C   UNL A   1      44.086  31.855  28.667  1.00  0.00     0.031 C 
ATOM     41  C   UNL A   1      43.154  25.306  26.735  1.00  0.00     0.029 A 
ATOM     42  C   UNL A   1      44.511  25.825  26.600  1.00  0.00     0.049 A 
ATOM     43  H   UNL A   1      45.206  27.707  27.167  1.00  0.00     0.167 HD
ATOM     44  C   UNL A   1      46.510  31.747  28.143  1.00  0.00     0.031 A 
ATOM     45  C   UNL A   1      45.551  25.146  26.078  1.00  0.00     0.031 A 
ATOM     46  C   UNL A   1      47.696  31.074  27.675  1.00  0.00     0.049 A 
ATOM     47  C   UNL A   1      46.893  25.815  25.972  1.00  0.00     0.074 A 
ATOM     48  C   UNL A   1      48.992  31.557  27.615  1.00  0.00     0.029 A 
ATOM     49  N   UNL A   1      47.734  29.778  27.179  1.00  0.00    -0.354 N 
ATOM     50  N   UNL A   1      47.241  27.026  26.335  1.00  0.00    -0.248 NA
ATOM     51  C   UNL A   1      47.985  25.021  25.390  1.00  0.00     0.031 C 
ATOM     52  C   UNL A   1      49.801  30.578  27.027  1.00  0.00     0.029 A 
ATOM     53  C   UNL A   1      49.023  29.459  26.782  1.00  0.00     0.049 A 
ATOM     54  H   UNL A   1      46.958  29.176  27.118  1.00  0.00     0.167 HD
ATOM     55  C   UNL A   1      48.597  27.132  26.045  1.00  0.00     0.074 A 
ATOM     56  C   UNL A   1      49.008  25.857  25.493  1.00  0.00     0.031 C 
ATOM     57  C   UNL A   1      49.425  28.192  26.221  1.00  0.00     0.031 A 
BRANCH  44  58
ATOM     58  C   UNL A   1      46.633  33.191  28.562  1.00  0.00    -0.014 A 
ATOM     59  C   UNL A   1      46.937  33.548  29.888  1.00  0.00     0.010 A 
ATOM     60  C   UNL A   1      46.487  34.209  27.600  1.00  0.00     0.010 A 
ATOM     61  C   UNL A   1      47.047  34.894  30.253  1.00  0.00     0.020 A 
ATOM     62  C   UNL A   1      46.625  35.554  27.954  1.00  0.00     0.020 A 
ATOM     63  C   UNL A   1      46.885  35.889  29.284  1.00  0.00     0.054 A 
BRANCH  63  64
ATOM     64  S   UNL A   1      47.046  37.626  29.783  1.00  0.00     0.124 S 
ATOM     65  O   UNL A   1      47.332  37.504  31.210  1.00  0.00    -0.237 OA
ATOM     66  O   UNL A   1      48.156  38.095  28.958  1.00  0.00    -0.237 OA
ATOM     67  O   UNL A   1      45.744  38.203  29.457  1.00  0.00    -0.744 OA
ENDBRANCH  63  64
ENDBRANCH  44  58
BRANCH  45  68
ATOM     68  C   UNL A   1      45.350  23.753  25.594  1.00  0.00    -0.014 A 
ATOM     69  C   UNL A   1      45.534  22.662  26.461  1.00  0.00     0.010 A 
ATOM     70  C   UNL A   1      44.941  23.513  24.269  1.00  0.00     0.010 A 
ATOM     71  C   UNL A   1      45.320  21.357  26.010  1.00  0.00     0.020 A 
ATOM     72  C   UNL A   1      44.696  22.212  23.823  1.00  0.00     0.020 A 
ATOM     73  C   UNL A   1      44.895  21.140  24.695  1.00  0.00     0.054 A 
BRANCH  73  74
ATOM     74  S   UNL A   1      44.555  19.442  24.155  1.00  0.00     0.124 S 
ATOM     75  O   UNL A   1      45.670  18.706  24.744  1.00  0.00    -0.237 OA
ATOM     76  O   UNL A   1      43.244  19.181  24.743  1.00  0.00    -0.237 OA
ATOM     77  O   UNL A   1      44.567  19.538  22.697  1.00  0.00    -0.744 OA
ENDBRANCH  73  74
ENDBRANCH  45  68
BRANCH  57  78
ATOM     78  C   UNL A   1      50.873  28.011  25.841  1.00  0.00    -0.014 A 
ATOM     79  C   UNL A   1      51.816  27.520  26.762  1.00  0.00     0.010 A 
ATOM     80  C   UNL A   1      51.290  28.305  24.530  1.00  0.00     0.010 A 
ATOM     81  C   UNL A   1      53.153  27.361  26.390  1.00  0.00     0.020 A 
ATOM     82  C   UNL A   1      52.621  28.119  24.145  1.00  0.00     0.020 A 
ATOM     83  C   UNL A   1      53.548  27.663  25.083  1.00  0.00     0.054 A 
BRANCH  83  84
ATOM     84  S   UNL A   1      55.284  27.417  24.614  1.00  0.00     0.124 S 
ATOM     85  O   UNL A   1      55.172  26.444  23.531  1.00  0.00    -0.237 OA
ATOM     86  O   UNL A   1      55.701  28.759  24.215  1.00  0.00    -0.237 OA
ATOM     87  O   UNL A   1      55.906  26.917  25.838  1.00  0.00    -0.744 OA
ENDBRANCH  83  84
ENDBRANCH  57  78
ENDBRANCH  31  32
ENDBRANCH  24  26
ENDBRANCH  23  24
ENDBRANCH  22  23
ENDBRANCH   1  22
TORSDOF 19
ENDMDL
MODEL 3
REMARK VINA RESULT:      -9.5      6.495     11.077
REMARK SMILES CC[C@@H](NC(=O)NC1(CC(=O)OCCOC(=O)c2ccc(-c3c4nc(c(-c5ccc(S(=O)(=O)[O-])cc5)c5ccc([nH]5)c(-c5ccc(S(=O)(=O)[O-])cc5)c5nc(c(-c6ccc(S(=O)(=O)[O-])cc6)c6ccc3[nH]6)C=C5)C=C4)cc2)CCC1)C(C)C
REMARK SMILES IDX 13 1 12 2 10 3 11 4 9 5 8 6 78 7 80 8 79 9 7 10 4 11 5 12
REMARK SMILES IDX 6 14 3 16 2 17 1 18 81 19 82 20 83 21 14 22 15 23 16 24
REMARK SMILES IDX 17 25 18 26 19 27 77 28 20 29 76 30 21 31 22 32 23 33 70 34
REMARK SMILES IDX 24 35 75 36 69 37 71 38 25 39 74 40 68 41 67 42 26 44 56 45
REMARK SMILES IDX 37 46 55 47 38 48 41 49 54 50 72 51 39 52 40 53 53 55 73 56
REMARK SMILES IDX 42 57 27 58 28 59 36 60 29 61 35 62 30 63 31 64 32 65 33 66
REMARK SMILES IDX 34 67 57 68 58 69 66 70 59 71 65 72 60 73 61 74 62 75 63 76
REMARK SMILES IDX 64 77 43 78 44 79 52 80 45 81 51 82 46 83 47 84 48 85 49 86
REMARK SMILES IDX 50 87
REMARK H PARENT 4 13 7 15 71 43 41 54
REMARK Flexibility Score: inf
ROOT
ATOM      1  C   UNL A   1      38.314  22.100  25.371  1.00  0.00     0.274 C 
ENDROOT
BRANCH   1   2
ATOM      2  O   UNL A   1      37.468  23.184  24.961  1.00  0.00    -0.462 OA
BRANCH   2   3
ATOM      3  C   UNL A   1      36.353  22.928  24.242  1.00  0.00     0.308 C 
ATOM      4  O   UNL A   1      36.316  22.840  23.027  1.00  0.00    -0.252 OA
BRANCH   3   5
ATOM      5  C   UNL A   1      35.120  22.837  25.112  1.00  0.00     0.151 C 
BRANCH   5   6
ATOM      6  C   UNL A   1      33.771  22.542  24.434  1.00  0.00     0.052 C 
ATOM      7  C   UNL A   1      32.588  22.312  25.462  1.00  0.00     0.029 C 
ATOM      8  C   UNL A   1      33.396  21.027  24.035  1.00  0.00     0.029 C 
ATOM      9  C   UNL A   1      32.943  20.822  25.483  1.00  0.00     0.005 C 
BRANCH   6  10
ATOM     10  N   UNL A   1      33.522  23.439  23.250  1.00  0.00    -0.332 N 
ATOM     11  N   UNL A   1      33.983  25.716  23.809  1.00  0.00    -0.335 N 
ATOM     12  C   UNL A   1      33.645  24.750  22.916  1.00  0.00     0.315 C 
ATOM     13  H   UNL A   1      34.931  25.903  23.994  1.00  0.00     0.165 HD
ATOM     14  O   UNL A   1      33.527  25.080  21.734  1.00  0.00    -0.249 OA
ATOM     15  H   UNL A   1      33.161  22.922  22.494  1.00  0.00     0.165 HD
BRANCH  11  16
ATOM     16  C   UNL A   1      32.926  26.489  24.505  1.00  0.00     0.086 C 
BRANCH  16  17
ATOM     17  C   UNL A   1      33.114  26.493  26.039  1.00  0.00     0.022 C 
ATOM     18  C   UNL A   1      33.606  27.847  26.548  1.00  0.00     0.006 C 
ENDBRANCH  16  17
BRANCH  16  19
ATOM     19  C   UNL A   1      31.560  25.986  24.009  1.00  0.00     0.005 C 
ATOM     20  C   UNL A   1      30.587  25.295  24.957  1.00  0.00     0.009 C 
ATOM     21  C   UNL A   1      30.881  27.044  23.139  1.00  0.00     0.009 C 
ENDBRANCH  16  19
ENDBRANCH  11  16
ENDBRANCH   6  10
ENDBRANCH   5   6
ENDBRANCH   3   5
ENDBRANCH   2   3
ENDBRANCH   1   2
BRANCH   1  22
ATOM     22  C   UNL A   1      39.201  22.562  26.524  1.00  0.00     0.275 C 
BRANCH  22  23
ATOM     23  O   UNL A   1      39.348  23.992  26.482  1.00  0.00    -0.458 OA
BRANCH  23  24
ATOM     24  C   UNL A   1      40.612  24.436  26.666  1.00  0.00     0.338 C 
ATOM     25  O   UNL A   1      41.607  24.089  26.036  1.00  0.00    -0.246 OA
BRANCH  24  26
ATOM     26  C   UNL A   1      40.596  25.488  27.692  1.00  0.00     0.060 A 
ATOM     27  C   UNL A   1      39.483  25.618  28.529  1.00  0.00     0.016 A 
ATOM     28  C   UNL A   1      41.672  26.365  27.809  1.00  0.00     0.016 A 
ATOM     29  C   UNL A   1      39.432  26.649  29.468  1.00  0.00     0.010 A 
ATOM     30  C   UNL A   1      41.635  27.371  28.780  1.00  0.00     0.010 A 
ATOM     31  C   UNL A   1      40.512  27.532  29.611  1.00  0.00    -0.014 A 
BRANCH  31  32
ATOM     32  C   UNL A   1      40.490  28.604  30.643  1.00  0.00     0.031 A 
ATOM     33  C   UNL A   1      41.407  28.540  31.835  1.00  0.00     0.074 A 
ATOM     34  C   UNL A   1      39.611  29.619  30.532  1.00  0.00     0.049 A 
ATOM     35  N   UNL A   1      41.449  29.320  32.886  1.00  0.00    -0.248 NA
ATOM     36  C   UNL A   1      42.401  27.455  31.851  1.00  0.00     0.031 C 
ATOM     37  C   UNL A   1      38.677  29.811  29.421  1.00  0.00     0.029 A 
ATOM     38  N   UNL A   1      39.349  30.673  31.373  1.00  0.00    -0.354 N 
ATOM     39  C   UNL A   1      42.450  28.806  33.703  1.00  0.00     0.074 A 
ATOM     40  C   UNL A   1      42.977  27.636  33.031  1.00  0.00     0.031 C 
ATOM     41  C   UNL A   1      37.950  30.917  29.646  1.00  0.00     0.029 A 
ATOM     42  C   UNL A   1      38.321  31.479  30.941  1.00  0.00     0.049 A 
ATOM     43  H   UNL A   1      39.849  30.836  32.206  1.00  0.00     0.167 HD
ATOM     44  C   UNL A   1      42.889  29.267  34.901  1.00  0.00     0.031 A 
ATOM     45  C   UNL A   1      37.718  32.530  31.530  1.00  0.00     0.031 A 
ATOM     46  C   UNL A   1      42.361  30.430  35.569  1.00  0.00     0.049 A 
ATOM     47  C   UNL A   1      38.185  32.988  32.883  1.00  0.00     0.074 A 
ATOM     48  C   UNL A   1      42.768  30.992  36.768  1.00  0.00     0.029 A 
ATOM     49  N   UNL A   1      41.307  31.205  35.107  1.00  0.00    -0.354 N 
ATOM     50  N   UNL A   1      39.150  32.506  33.628  1.00  0.00    -0.248 NA
ATOM     51  C   UNL A   1      37.484  34.138  33.471  1.00  0.00     0.031 C 
ATOM     52  C   UNL A   1      41.922  32.068  37.059  1.00  0.00     0.029 A 
ATOM     53  C   UNL A   1      41.030  32.219  36.011  1.00  0.00     0.049 A 
ATOM     54  H   UNL A   1      40.826  31.055  34.261  1.00  0.00     0.167 HD
ATOM     55  C   UNL A   1      39.185  33.306  34.766  1.00  0.00     0.074 A 
ATOM     56  C   UNL A   1      38.157  34.314  34.600  1.00  0.00     0.031 C 
ATOM     57  C   UNL A   1      39.997  33.213  35.847  1.00  0.00     0.031 A 
BRANCH  44  58
ATOM     58  C   UNL A   1      43.978  28.484  35.593  1.00  0.00    -0.014 A 
ATOM     59  C   UNL A   1      43.677  27.465  36.515  1.00  0.00     0.010 A 
ATOM     60  C   UNL A   1      45.325  28.743  35.280  1.00  0.00     0.010 A 
ATOM     61  C   UNL A   1      44.703  26.752  37.143  1.00  0.00     0.020 A 
ATOM     62  C   UNL A   1      46.354  28.013  35.884  1.00  0.00     0.020 A 
ATOM     63  C   UNL A   1      46.036  27.035  36.827  1.00  0.00     0.054 A 
BRANCH  63  64
ATOM     64  S   UNL A   1      47.347  26.086  37.649  1.00  0.00     0.124 S 
ATOM     65  O   UNL A   1      48.171  27.146  38.222  1.00  0.00    -0.237 OA
ATOM     66  O   UNL A   1      46.602  25.278  38.611  1.00  0.00    -0.237 OA
ATOM     67  O   UNL A   1      47.968  25.335  36.559  1.00  0.00    -0.744 OA
ENDBRANCH  63  64
ENDBRANCH  44  58
BRANCH  45  68
ATOM     68  C   UNL A   1      36.586  33.208  30.840  1.00  0.00    -0.014 A 
ATOM     69  C   UNL A   1      35.279  33.109  31.347  1.00  0.00     0.010 A 
ATOM     70  C   UNL A   1      36.818  33.983  29.689  1.00  0.00     0.010 A 
ATOM     71  C   UNL A   1      34.223  33.767  30.711  1.00  0.00     0.020 A 
ATOM     72  C   UNL A   1      35.769  34.667  29.067  1.00  0.00     0.020 A 
ATOM     73  C   UNL A   1      34.476  34.548  29.579  1.00  0.00     0.054 A 
BRANCH  73  74
ATOM     74  S   UNL A   1      33.099  35.450  28.814  1.00  0.00     0.124 S 
ATOM     75  O   UNL A   1      33.798  36.457  28.021  1.00  0.00    -0.237 OA
ATOM     76  O   UNL A   1      32.422  34.403  28.053  1.00  0.00    -0.237 OA
ATOM     77  O   UNL A   1      32.348  35.962  29.958  1.00  0.00    -0.744 OA
ENDBRANCH  73  74
ENDBRANCH  45  68
BRANCH  57  78
ATOM     78  C   UNL A   1      39.831  34.248  36.931  1.00  0.00    -0.014 A 
ATOM     79  C   UNL A   1      39.086  33.978  38.093  1.00  0.00     0.010 A 
ATOM     80  C   UNL A   1      40.459  35.500  36.799  1.00  0.00     0.010 A 
ATOM     81  C   UNL A   1      38.943  34.952  39.085  1.00  0.00     0.020 A 
ATOM     82  C   UNL A   1      40.344  36.466  37.802  1.00  0.00     0.020 A 
ATOM     83  C   UNL A   1      39.573  36.192  38.933  1.00  0.00     0.054 A 
BRANCH  83  84
ATOM     84  S   UNL A   1      39.399  37.428  40.249  1.00  0.00     0.124 S 
ATOM     85  O   UNL A   1      38.792  36.647  41.323  1.00  0.00    -0.237 OA
ATOM     86  O   UNL A   1      40.779  37.848  40.479  1.00  0.00    -0.237 OA
ATOM     87  O   UNL A   1      38.536  38.447  39.656  1.00  0.00    -0.744 OA
ENDBRANCH  83  84
ENDBRANCH  57  78
ENDBRANCH  31  32
ENDBRANCH  24  26
ENDBRANCH  23  24
ENDBRANCH  22  23
ENDBRANCH   1  22
TORSDOF 19
ENDMDL
