MODEL 1
REMARK VINA RESULT:      -9.5      0.000      0.000
REMARK SMILES Nc1cc(F)c([C@H]([NH3+])C(=O)OCCOC(=O)c2ccc(-c3c4nc(c(-c5ccc(S(=O)(=O)[O-])cc5)c5ccc([nH]5)c(-c5ccc(S(=O)(=O)[O-])cc5)c5nc(c(-c6ccc(S(=O)(=O)[O-])cc6)c6ccc3[nH]6)C=C5)C=C4)cc2)cc1F
REMARK SMILES IDX 13 1 12 2 11 3 9 4 10 5 7 6 6 7 2 8 3 9 78 10 4 11 77 12
REMARK SMILES IDX 79 13 5 14 1 15 8 18 14 22 15 23 16 24 17 25 18 26 76 27
REMARK SMILES IDX 19 28 75 29 20 30 21 31 22 32 69 33 23 34 74 35 68 36 70 37
REMARK SMILES IDX 24 38 73 39 67 40 66 41 25 43 55 44 36 45 54 46 37 47 40 48
REMARK SMILES IDX 53 49 71 50 38 51 39 52 52 54 72 55 41 56 26 57 27 58 35 59
REMARK SMILES IDX 28 60 34 61 29 62 30 63 31 64 32 65 33 66 56 67 57 68 65 69
REMARK SMILES IDX 58 70 64 71 59 72 60 73 61 74 62 75 63 76 42 77 43 78 51 79
REMARK SMILES IDX 44 80 50 81 45 82 46 83 47 84 48 85 49 86
REMARK H PARENT 1 16 1 17 8 19 8 20 8 21 70 42 40 53
REMARK Flexibility Score: inf
ROOT
ATOM      1  C   UNL A   1      40.101  20.807  26.127  1.00  0.00     0.275 C 
ENDROOT
BRANCH   1   2
ATOM      2  C   UNL A   1      41.634  20.793  26.136  1.00  0.00     0.274 C 
BRANCH   2   3
ATOM      3  O   UNL A   1      42.163  21.933  25.435  1.00  0.00    -0.457 OA
BRANCH   3   4
ATOM      4  C   UNL A   1      43.003  22.743  26.152  1.00  0.00     0.369 C 
ATOM      5  O   UNL A   1      42.820  23.077  27.316  1.00  0.00    -0.245 OA
BRANCH   4   6
ATOM      6  C   UNL A   1      44.217  23.180  25.305  1.00  0.00     0.326 C 
BRANCH   6   7
ATOM      7  C   UNL A   1      44.424  24.670  25.392  1.00  0.00     0.060 A 
ATOM      8  C   UNL A   1      44.914  27.446  25.638  1.00  0.00     0.071 A 
ATOM      9  C   UNL A   1      45.900  26.524  25.982  1.00  0.00     0.068 A 
ATOM     10  C   UNL A   1      43.667  26.958  25.220  1.00  0.00     0.146 A 
ATOM     11  C   UNL A   1      45.653  25.158  25.850  1.00  0.00     0.135 A 
ATOM     12  C   UNL A   1      43.417  25.594  25.089  1.00  0.00     0.055 A 
ATOM     13  F   UNL A   1      42.682  27.823  24.929  1.00  0.00    -0.205 F 
ATOM     14  F   UNL A   1      46.628  24.298  26.177  1.00  0.00    -0.206 F 
BRANCH   8  15
ATOM     15  N   UNL A   1      45.124  28.807  25.832  1.00  0.00    -0.396 N 
ATOM     16  H   UNL A   1      45.937  29.119  26.292  1.00  0.00     0.156 HD
ATOM     17  H   UNL A   1      44.461  29.458  25.508  1.00  0.00     0.156 HD
ENDBRANCH   8  15
ENDBRANCH   6   7
BRANCH   6  18
ATOM     18  N   UNL A   1      44.122  22.687  23.907  1.00  0.00    -0.342 N 
ATOM     19  H   UNL A   1      43.287  23.072  23.466  1.00  0.00     0.345 HD
ATOM     20  H   UNL A   1      44.066  21.669  23.909  1.00  0.00     0.345 HD
ATOM     21  H   UNL A   1      44.948  22.982  23.385  1.00  0.00     0.345 HD
ENDBRANCH   6  18
ENDBRANCH   4   6
ENDBRANCH   3   4
ENDBRANCH   2   3
ENDBRANCH   1   2
BRANCH   1  22
ATOM     22  O   UNL A   1      39.566  21.822  26.995  1.00  0.00    -0.458 OA
BRANCH  22  23
ATOM     23  C   UNL A   1      38.917  22.841  26.380  1.00  0.00     0.338 C 
ATOM     24  O   UNL A   1      38.018  22.758  25.566  1.00  0.00    -0.246 OA
BRANCH  23  25
ATOM     25  C   UNL A   1      39.339  24.112  26.992  1.00  0.00     0.060 A 
ATOM     26  C   UNL A   1      39.137  24.363  28.348  1.00  0.00     0.016 A 
ATOM     27  C   UNL A   1      39.973  25.055  26.179  1.00  0.00     0.016 A 
ATOM     28  C   UNL A   1      39.549  25.586  28.879  1.00  0.00     0.010 A 
ATOM     29  C   UNL A   1      40.389  26.271  26.709  1.00  0.00     0.010 A 
ATOM     30  C   UNL A   1      40.171  26.549  28.062  1.00  0.00    -0.014 A 
BRANCH  30  31
ATOM     31  C   UNL A   1      40.645  27.827  28.633  1.00  0.00     0.031 A 
ATOM     32  C   UNL A   1      42.091  28.027  28.973  1.00  0.00     0.074 A 
ATOM     33  C   UNL A   1      39.748  28.806  28.855  1.00  0.00     0.049 A 
ATOM     34  N   UNL A   1      42.693  29.117  29.375  1.00  0.00    -0.248 NA
ATOM     35  C   UNL A   1      42.974  26.857  28.859  1.00  0.00     0.031 C 
ATOM     36  C   UNL A   1      38.311  28.690  28.606  1.00  0.00     0.029 A 
ATOM     37  N   UNL A   1      39.909  30.085  29.318  1.00  0.00    -0.354 N 
ATOM     38  C   UNL A   1      44.029  28.775  29.527  1.00  0.00     0.074 A 
ATOM     39  C   UNL A   1      44.137  27.359  29.252  1.00  0.00     0.031 C 
ATOM     40  C   UNL A   1      37.728  29.867  28.867  1.00  0.00     0.029 A 
ATOM     41  C   UNL A   1      38.743  30.812  29.332  1.00  0.00     0.049 A 
ATOM     42  H   UNL A   1      40.776  30.449  29.613  1.00  0.00     0.167 HD
ATOM     43  C   UNL A   1      45.074  29.581  29.834  1.00  0.00     0.031 A 
ATOM     44  C   UNL A   1      38.515  32.100  29.657  1.00  0.00     0.031 A 
ATOM     45  C   UNL A   1      44.937  30.982  30.143  1.00  0.00     0.049 A 
ATOM     46  C   UNL A   1      39.678  32.971  30.036  1.00  0.00     0.074 A 
ATOM     47  C   UNL A   1      45.930  31.893  30.453  1.00  0.00     0.029 A 
ATOM     48  N   UNL A   1      43.733  31.673  30.189  1.00  0.00    -0.354 N 
ATOM     49  N   UNL A   1      40.949  32.655  30.103  1.00  0.00    -0.248 NA
ATOM     50  C   UNL A   1      39.385  34.371  30.364  1.00  0.00     0.031 C 
ATOM     51  C   UNL A   1      45.323  33.114  30.755  1.00  0.00     0.029 A 
ATOM     52  C   UNL A   1      43.956  32.991  30.551  1.00  0.00     0.049 A 
ATOM     53  H   UNL A   1      42.851  31.284  29.992  1.00  0.00     0.167 HD
ATOM     54  C   UNL A   1      41.613  33.819  30.470  1.00  0.00     0.074 A 
ATOM     55  C   UNL A   1      40.603  34.852  30.590  1.00  0.00     0.031 C 
ATOM     56  C   UNL A   1      42.938  34.010  30.686  1.00  0.00     0.031 A 
BRANCH  43  57
ATOM     57  C   UNL A   1      46.456  28.975  29.829  1.00  0.00    -0.014 A 
ATOM     58  C   UNL A   1      47.210  28.923  28.642  1.00  0.00     0.010 A 
ATOM     59  C   UNL A   1      46.982  28.381  30.993  1.00  0.00     0.010 A 
ATOM     60  C   UNL A   1      48.452  28.282  28.615  1.00  0.00     0.020 A 
ATOM     61  C   UNL A   1      48.238  27.768  30.979  1.00  0.00     0.020 A 
ATOM     62  C   UNL A   1      48.958  27.706  29.785  1.00  0.00     0.054 A 
BRANCH  62  63
ATOM     63  S   UNL A   1      50.577  26.889  29.735  1.00  0.00     0.124 S 
ATOM     64  O   UNL A   1      51.076  27.270  28.418  1.00  0.00    -0.237 OA
ATOM     65  O   UNL A   1      51.272  27.488  30.873  1.00  0.00    -0.237 OA
ATOM     66  O   UNL A   1      50.250  25.473  29.895  1.00  0.00    -0.744 OA
ENDBRANCH  62  63
ENDBRANCH  43  57
BRANCH  44  67
ATOM     67  C   UNL A   1      37.126  32.621  29.533  1.00  0.00    -0.014 A 
ATOM     68  C   UNL A   1      36.645  33.069  28.288  1.00  0.00     0.010 A 
ATOM     69  C   UNL A   1      36.350  32.836  30.684  1.00  0.00     0.010 A 
ATOM     70  C   UNL A   1      35.458  33.803  28.210  1.00  0.00     0.020 A 
ATOM     71  C   UNL A   1      35.148  33.545  30.606  1.00  0.00     0.020 A 
ATOM     72  C   UNL A   1      34.732  34.061  29.377  1.00  0.00     0.054 A 
BRANCH  72  73
ATOM     73  S   UNL A   1      33.274  35.135  29.272  1.00  0.00     0.124 S 
ATOM     74  O   UNL A   1      33.858  36.386  28.795  1.00  0.00    -0.237 OA
ATOM     75  O   UNL A   1      32.427  34.430  28.312  1.00  0.00    -0.237 OA
ATOM     76  O   UNL A   1      32.769  35.164  30.642  1.00  0.00    -0.744 OA
ENDBRANCH  72  73
ENDBRANCH  44  67
BRANCH  56  77
ATOM     77  C   UNL A   1      43.401  35.384  31.102  1.00  0.00    -0.014 A 
ATOM     78  C   UNL A   1      43.412  35.735  32.465  1.00  0.00     0.010 A 
ATOM     79  C   UNL A   1      43.675  36.372  30.139  1.00  0.00     0.010 A 
ATOM     80  C   UNL A   1      43.638  37.058  32.856  1.00  0.00     0.020 A 
ATOM     81  C   UNL A   1      43.935  37.690  30.529  1.00  0.00     0.020 A 
ATOM     82  C   UNL A   1      43.883  38.029  31.884  1.00  0.00     0.054 A 
BRANCH  82  83
ATOM     83  S   UNL A   1      44.113  39.750  32.408  1.00  0.00     0.124 S 
ATOM     84  O   UNL A   1      45.058  40.251  31.414  1.00  0.00    -0.237 OA
ATOM     85  O   UNL A   1      42.761  40.295  32.324  1.00  0.00    -0.237 OA
ATOM     86  O   UNL A   1      44.644  39.628  33.765  1.00  0.00    -0.744 OA
ENDBRANCH  82  83
ENDBRANCH  56  77
ENDBRANCH  30  31
ENDBRANCH  23  25
ENDBRANCH  22  23
ENDBRANCH   1  22
TORSDOF 17
ENDMDL
MODEL 2
REMARK VINA RESULT:      -9.4      3.840     11.315
REMARK SMILES Nc1cc(F)c([C@H]([NH3+])C(=O)OCCOC(=O)c2ccc(-c3c4nc(c(-c5ccc(S(=O)(=O)[O-])cc5)c5ccc([nH]5)c(-c5ccc(S(=O)(=O)[O-])cc5)c5nc(c(-c6ccc(S(=O)(=O)[O-])cc6)c6ccc3[nH]6)C=C5)C=C4)cc2)cc1F
REMARK SMILES IDX 13 1 12 2 11 3 9 4 10 5 7 6 6 7 2 8 3 9 78 10 4 11 77 12
REMARK SMILES IDX 79 13 5 14 1 15 8 18 14 22 15 23 16 24 17 25 18 26 76 27
REMARK SMILES IDX 19 28 75 29 20 30 21 31 22 32 69 33 23 34 74 35 68 36 70 37
REMARK SMILES IDX 24 38 73 39 67 40 66 41 25 43 55 44 36 45 54 46 37 47 40 48
REMARK SMILES IDX 53 49 71 50 38 51 39 52 52 54 72 55 41 56 26 57 27 58 35 59
REMARK SMILES IDX 28 60 34 61 29 62 30 63 31 64 32 65 33 66 56 67 57 68 65 69
REMARK SMILES IDX 58 70 64 71 59 72 60 73 61 74 62 75 63 76 42 77 43 78 51 79
REMARK SMILES IDX 44 80 50 81 45 82 46 83 47 84 48 85 49 86
REMARK H PARENT 1 16 1 17 8 19 8 20 8 21 70 42 40 53
REMARK Flexibility Score: inf
ROOT
ATOM      1  C   UNL A   1      33.480  32.846  27.999  1.00  0.00     0.275 C 
ENDROOT
BRANCH   1   2
ATOM      2  C   UNL A   1      34.107  33.744  29.071  1.00  0.00     0.274 C 
BRANCH   2   3
ATOM      3  O   UNL A   1      34.351  33.006  30.282  1.00  0.00    -0.457 OA
BRANCH   3   4
ATOM      4  C   UNL A   1      35.549  33.244  30.900  1.00  0.00     0.369 C 
ATOM      5  O   UNL A   1      36.612  33.407  30.314  1.00  0.00    -0.245 OA
BRANCH   4   6
ATOM      6  C   UNL A   1      35.391  33.283  32.434  1.00  0.00     0.326 C 
BRANCH   6   7
ATOM      7  C   UNL A   1      36.385  32.369  33.101  1.00  0.00     0.060 A 
ATOM      8  C   UNL A   1      38.318  30.761  34.398  1.00  0.00     0.071 A 
ATOM      9  C   UNL A   1      38.159  32.097  34.757  1.00  0.00     0.068 A 
ATOM     10  C   UNL A   1      37.534  30.258  33.349  1.00  0.00     0.146 A 
ATOM     11  C   UNL A   1      37.199  32.880  34.120  1.00  0.00     0.135 A 
ATOM     12  C   UNL A   1      36.575  31.039  32.709  1.00  0.00     0.055 A 
ATOM     13  F   UNL A   1      37.700  28.988  32.948  1.00  0.00    -0.205 F 
ATOM     14  F   UNL A   1      37.063  34.159  34.498  1.00  0.00    -0.206 F 
BRANCH   8  15
ATOM     15  N   UNL A   1      39.320  29.990  34.978  1.00  0.00    -0.396 N 
ATOM     16  H   UNL A   1      40.198  29.913  34.541  1.00  0.00     0.156 HD
ATOM     17  H   UNL A   1      39.150  29.521  35.827  1.00  0.00     0.156 HD
ENDBRANCH   8  15
ENDBRANCH   6   7
BRANCH   6  18
ATOM     18  N   UNL A   1      33.989  33.021  32.852  1.00  0.00    -0.342 N 
ATOM     19  H   UNL A   1      33.415  32.850  32.027  1.00  0.00     0.345 HD
ATOM     20  H   UNL A   1      33.627  33.831  33.356  1.00  0.00     0.345 HD
ATOM     21  H   UNL A   1      33.963  32.202  33.460  1.00  0.00     0.345 HD
ENDBRANCH   6  18
ENDBRANCH   4   6
ENDBRANCH   3   4
ENDBRANCH   2   3
ENDBRANCH   1   2
BRANCH   1  22
ATOM     22  O   UNL A   1      34.457  32.005  27.361  1.00  0.00    -0.458 OA
BRANCH  22  23
ATOM     23  C   UNL A   1      34.400  30.688  27.681  1.00  0.00     0.338 C 
ATOM     24  O   UNL A   1      33.456  29.935  27.541  1.00  0.00    -0.246 OA
BRANCH  23  25
ATOM     25  C   UNL A   1      35.746  30.234  28.066  1.00  0.00     0.060 A 
ATOM     26  C   UNL A   1      36.834  30.389  27.209  1.00  0.00     0.016 A 
ATOM     27  C   UNL A   1      35.911  29.661  29.331  1.00  0.00     0.016 A 
ATOM     28  C   UNL A   1      38.089  29.937  27.618  1.00  0.00     0.010 A 
ATOM     29  C   UNL A   1      37.162  29.215  29.740  1.00  0.00     0.010 A 
ATOM     30  C   UNL A   1      38.259  29.341  28.882  1.00  0.00    -0.014 A 
BRANCH  30  31
ATOM     31  C   UNL A   1      39.596  28.898  29.332  1.00  0.00     0.031 A 
ATOM     32  C   UNL A   1      40.409  29.741  30.268  1.00  0.00     0.074 A 
ATOM     33  C   UNL A   1      40.076  27.729  28.872  1.00  0.00     0.049 A 
ATOM     34  N   UNL A   1      41.546  29.453  30.848  1.00  0.00    -0.248 NA
ATOM     35  C   UNL A   1      39.888  31.078  30.591  1.00  0.00     0.031 C 
ATOM     36  C   UNL A   1      39.383  26.862  27.918  1.00  0.00     0.029 A 
ATOM     37  N   UNL A   1      41.238  27.060  29.155  1.00  0.00    -0.354 N 
ATOM     38  C   UNL A   1      41.860  30.556  31.629  1.00  0.00     0.074 A 
ATOM     39  C   UNL A   1      40.835  31.550  31.389  1.00  0.00     0.031 C 
ATOM     40  C   UNL A   1      40.109  25.751  27.735  1.00  0.00     0.029 A 
ATOM     41  C   UNL A   1      41.330  25.838  28.532  1.00  0.00     0.049 A 
ATOM     42  H   UNL A   1      41.939  27.420  29.746  1.00  0.00     0.167 HD
ATOM     43  C   UNL A   1      42.891  30.709  32.494  1.00  0.00     0.031 A 
ATOM     44  C   UNL A   1      42.277  24.883  28.610  1.00  0.00     0.031 A 
ATOM     45  C   UNL A   1      43.922  29.721  32.687  1.00  0.00     0.049 A 
ATOM     46  C   UNL A   1      43.438  25.083  29.543  1.00  0.00     0.074 A 
ATOM     47  C   UNL A   1      45.004  29.766  33.548  1.00  0.00     0.029 A 
ATOM     48  N   UNL A   1      44.005  28.513  32.006  1.00  0.00    -0.354 N 
ATOM     49  N   UNL A   1      43.685  26.100  30.335  1.00  0.00    -0.248 NA
ATOM     50  C   UNL A   1      44.434  24.008  29.610  1.00  0.00     0.031 C 
ATOM     51  C   UNL A   1      45.778  28.623  33.338  1.00  0.00     0.029 A 
ATOM     52  C   UNL A   1      45.136  27.819  32.406  1.00  0.00     0.049 A 
ATOM     53  H   UNL A   1      43.356  28.195  31.338  1.00  0.00     0.167 HD
ATOM     54  C   UNL A   1      44.860  25.784  31.005  1.00  0.00     0.074 A 
ATOM     55  C   UNL A   1      45.263  24.471  30.540  1.00  0.00     0.031 C 
ATOM     56  C   UNL A   1      45.539  26.518  31.922  1.00  0.00     0.031 A 
BRANCH  43  57
ATOM     57  C   UNL A   1      42.944  31.976  33.311  1.00  0.00    -0.014 A 
ATOM     58  C   UNL A   1      42.285  32.055  34.552  1.00  0.00     0.010 A 
ATOM     59  C   UNL A   1      43.586  33.125  32.811  1.00  0.00     0.010 A 
ATOM     60  C   UNL A   1      42.256  33.256  35.268  1.00  0.00     0.020 A 
ATOM     61  C   UNL A   1      43.590  34.318  33.538  1.00  0.00     0.020 A 
ATOM     62  C   UNL A   1      42.908  34.381  34.755  1.00  0.00     0.054 A 
BRANCH  62  63
ATOM     63  S   UNL A   1      42.873  35.928  35.703  1.00  0.00     0.124 S 
ATOM     64  O   UNL A   1      44.211  36.463  35.473  1.00  0.00    -0.237 OA
ATOM     65  O   UNL A   1      41.780  36.665  35.073  1.00  0.00    -0.237 OA
ATOM     66  O   UNL A   1      42.604  35.484  37.070  1.00  0.00    -0.744 OA
ENDBRANCH  62  63
ENDBRANCH  43  57
BRANCH  44  67
ATOM     67  C   UNL A   1      42.076  23.629  27.835  1.00  0.00    -0.014 A 
ATOM     68  C   UNL A   1      41.244  22.609  28.336  1.00  0.00     0.010 A 
ATOM     69  C   UNL A   1      42.851  23.377  26.690  1.00  0.00     0.010 A 
ATOM     70  C   UNL A   1      41.261  21.335  27.763  1.00  0.00     0.020 A 
ATOM     71  C   UNL A   1      42.848  22.112  26.095  1.00  0.00     0.020 A 
ATOM     72  C   UNL A   1      42.086  21.088  26.662  1.00  0.00     0.054 A 
BRANCH  72  73
ATOM     73  S   UNL A   1      42.197  19.393  26.024  1.00  0.00     0.124 S 
ATOM     74  O   UNL A   1      42.722  18.673  27.181  1.00  0.00    -0.237 OA
ATOM     75  O   UNL A   1      40.812  19.094  25.671  1.00  0.00    -0.237 OA
ATOM     76  O   UNL A   1      43.115  19.511  24.894  1.00  0.00    -0.744 OA
ENDBRANCH  72  73
ENDBRANCH  44  67
BRANCH  56  77
ATOM     77  C   UNL A   1      46.816  25.946  32.486  1.00  0.00    -0.014 A 
ATOM     78  C   UNL A   1      48.028  26.125  31.793  1.00  0.00     0.010 A 
ATOM     79  C   UNL A   1      46.790  25.106  33.614  1.00  0.00     0.010 A 
ATOM     80  C   UNL A   1      49.179  25.436  32.186  1.00  0.00     0.020 A 
ATOM     81  C   UNL A   1      47.948  24.441  34.029  1.00  0.00     0.020 A 
ATOM     82  C   UNL A   1      49.127  24.587  33.293  1.00  0.00     0.054 A 
BRANCH  82  83
ATOM     83  S   UNL A   1      50.615  23.656  33.748  1.00  0.00     0.124 S 
ATOM     84  O   UNL A   1      51.550  24.722  34.096  1.00  0.00    -0.237 OA
ATOM     85  O   UNL A   1      50.152  22.835  34.864  1.00  0.00    -0.237 OA
ATOM     86  O   UNL A   1      50.943  22.914  32.532  1.00  0.00    -0.744 OA
ENDBRANCH  82  83
ENDBRANCH  56  77
ENDBRANCH  30  31
ENDBRANCH  23  25
ENDBRANCH  22  23
ENDBRANCH   1  22
TORSDOF 17
ENDMDL
MODEL 3
REMARK VINA RESULT:      -9.1      3.921      5.715
REMARK SMILES Nc1cc(F)c([C@H]([NH3+])C(=O)OCCOC(=O)c2ccc(-c3c4nc(c(-c5ccc(S(=O)(=O)[O-])cc5)c5ccc([nH]5)c(-c5ccc(S(=O)(=O)[O-])cc5)c5nc(c(-c6ccc(S(=O)(=O)[O-])cc6)c6ccc3[nH]6)C=C5)C=C4)cc2)cc1F
REMARK SMILES IDX 13 1 12 2 11 3 9 4 10 5 7 6 6 7 2 8 3 9 78 10 4 11 77 12
REMARK SMILES IDX 79 13 5 14 1 15 8 18 14 22 15 23 16 24 17 25 18 26 76 27
REMARK SMILES IDX 19 28 75 29 20 30 21 31 22 32 69 33 23 34 74 35 68 36 70 37
REMARK SMILES IDX 24 38 73 39 67 40 66 41 25 43 55 44 36 45 54 46 37 47 40 48
REMARK SMILES IDX 53 49 71 50 38 51 39 52 52 54 72 55 41 56 26 57 27 58 35 59
REMARK SMILES IDX 28 60 34 61 29 62 30 63 31 64 32 65 33 66 56 67 57 68 65 69
REMARK SMILES IDX 58 70 64 71 59 72 60 73 61 74 62 75 63 76 42 77 43 78 51 79
REMARK SMILES IDX 44 80 50 81 45 82 46 83 47 84 48 85 49 86
REMARK H PARENT 1 16 1 17 8 19 8 20 8 21 70 42 40 53
REMARK Flexibility Score: inf
ROOT
ATOM      1  C   UNL A   1      37.012  23.449  24.776  1.00  0.00     0.275 C 
ENDROOT
BRANCH   1   2
ATOM      2  C   UNL A   1      35.490  23.603  24.683  1.00  0.00     0.274 C 
BRANCH   2   3
ATOM      3  O   UNL A   1      34.910  22.530  23.919  1.00  0.00    -0.457 OA
BRANCH   3   4
ATOM      4  C   UNL A   1      33.876  22.873  23.090  1.00  0.00     0.369 C 
ATOM      5  O   UNL A   1      34.006  23.468  22.028  1.00  0.00    -0.245 OA
BRANCH   4   6
ATOM      6  C   UNL A   1      32.520  22.411  23.665  1.00  0.00     0.326 C 
BRANCH   6   7
ATOM      7  C   UNL A   1      32.477  20.911  23.801  1.00  0.00     0.060 A 
ATOM      8  C   UNL A   1      32.468  18.106  24.171  1.00  0.00     0.071 A 
ATOM      9  C   UNL A   1      32.736  18.956  25.241  1.00  0.00     0.068 A 
ATOM     10  C   UNL A   1      32.256  18.677  22.907  1.00  0.00     0.146 A 
ATOM     11  C   UNL A   1      32.731  20.337  25.053  1.00  0.00     0.135 A 
ATOM     12  C   UNL A   1      32.252  20.057  22.715  1.00  0.00     0.055 A 
ATOM     13  F   UNL A   1      32.044  17.880  21.848  1.00  0.00    -0.205 F 
ATOM     14  F   UNL A   1      32.979  21.127  26.106  1.00  0.00    -0.206 F 
BRANCH   8  15
ATOM     15  N   UNL A   1      32.539  16.727  24.332  1.00  0.00    -0.396 N 
ATOM     16  H   UNL A   1      31.835  16.150  23.956  1.00  0.00     0.156 HD
ATOM     17  H   UNL A   1      33.294  16.327  24.822  1.00  0.00     0.156 HD
ENDBRANCH   8  15
ENDBRANCH   6   7
BRANCH   6  18
ATOM     18  N   UNL A   1      31.376  22.956  22.889  1.00  0.00    -0.342 N 
ATOM     19  H   UNL A   1      30.589  23.125  23.516  1.00  0.00     0.345 HD
ATOM     20  H   UNL A   1      31.101  22.285  22.171  1.00  0.00     0.345 HD
ATOM     21  H   UNL A   1      31.652  23.833  22.446  1.00  0.00     0.345 HD
ENDBRANCH   6  18
ENDBRANCH   4   6
ENDBRANCH   3   4
ENDBRANCH   2   3
ENDBRANCH   1   2
BRANCH   1  22
ATOM     22  O   UNL A   1      37.432  23.032  26.087  1.00  0.00    -0.458 OA
BRANCH  22  23
ATOM     23  C   UNL A   1      38.772  22.924  26.271  1.00  0.00     0.338 C 
ATOM     24  O   UNL A   1      39.497  22.024  25.894  1.00  0.00    -0.246 OA
BRANCH  23  25
ATOM     25  C   UNL A   1      39.275  24.180  26.849  1.00  0.00     0.060 A 
ATOM     26  C   UNL A   1      39.987  25.097  26.078  1.00  0.00     0.016 A 
ATOM     27  C   UNL A   1      38.998  24.444  28.194  1.00  0.00     0.016 A 
ATOM     28  C   UNL A   1      40.449  26.271  26.674  1.00  0.00     0.010 A 
ATOM     29  C   UNL A   1      39.454  25.615  28.787  1.00  0.00     0.010 A 
ATOM     30  C   UNL A   1      40.191  26.533  28.033  1.00  0.00    -0.014 A 
BRANCH  30  31
ATOM     31  C   UNL A   1      40.645  27.796  28.655  1.00  0.00     0.031 A 
ATOM     32  C   UNL A   1      42.078  27.983  29.054  1.00  0.00     0.074 A 
ATOM     33  C   UNL A   1      39.742  28.771  28.867  1.00  0.00     0.049 A 
ATOM     34  N   UNL A   1      42.665  29.061  29.506  1.00  0.00    -0.248 NA
ATOM     35  C   UNL A   1      42.963  26.814  28.944  1.00  0.00     0.031 C 
ATOM     36  C   UNL A   1      38.316  28.665  28.560  1.00  0.00     0.029 A 
ATOM     37  N   UNL A   1      39.888  30.037  29.367  1.00  0.00    -0.354 N 
ATOM     38  C   UNL A   1      43.994  28.712  29.700  1.00  0.00     0.074 A 
ATOM     39  C   UNL A   1      44.111  27.302  29.394  1.00  0.00     0.031 C 
ATOM     40  C   UNL A   1      37.725  29.837  28.829  1.00  0.00     0.029 A 
ATOM     41  C   UNL A   1      38.723  30.767  29.355  1.00  0.00     0.049 A 
ATOM     42  H   UNL A   1      40.743  30.391  29.704  1.00  0.00     0.167 HD
ATOM     43  C   UNL A   1      45.028  29.507  30.067  1.00  0.00     0.031 A 
ATOM     44  C   UNL A   1      38.484  32.046  29.704  1.00  0.00     0.031 A 
ATOM     45  C   UNL A   1      44.882  30.900  30.406  1.00  0.00     0.049 A 
ATOM     46  C   UNL A   1      39.634  32.905  30.149  1.00  0.00     0.074 A 
ATOM     47  C   UNL A   1      45.864  31.801  30.777  1.00  0.00     0.029 A 
ATOM     48  N   UNL A   1      43.678  31.593  30.423  1.00  0.00    -0.354 N 
ATOM     49  N   UNL A   1      40.901  32.584  30.257  1.00  0.00    -0.248 NA
ATOM     50  C   UNL A   1      39.331  34.297  30.500  1.00  0.00     0.031 C 
ATOM     51  C   UNL A   1      45.247  33.015  31.086  1.00  0.00     0.029 A 
ATOM     52  C   UNL A   1      43.889  32.901  30.827  1.00  0.00     0.049 A 
ATOM     53  H   UNL A   1      42.803  31.211  30.183  1.00  0.00     0.167 HD
ATOM     54  C   UNL A   1      41.552  33.737  30.677  1.00  0.00     0.074 A 
ATOM     55  C   UNL A   1      40.540  34.769  30.785  1.00  0.00     0.031 C 
ATOM     56  C   UNL A   1      42.869  33.919  30.949  1.00  0.00     0.031 A 
BRANCH  43  57
ATOM     57  C   UNL A   1      46.408  28.897  30.100  1.00  0.00    -0.014 A 
ATOM     58  C   UNL A   1      47.212  28.884  28.945  1.00  0.00     0.010 A 
ATOM     59  C   UNL A   1      46.884  28.262  31.264  1.00  0.00     0.010 A 
ATOM     60  C   UNL A   1      48.453  28.241  28.949  1.00  0.00     0.020 A 
ATOM     61  C   UNL A   1      48.138  27.647  31.282  1.00  0.00     0.020 A 
ATOM     62  C   UNL A   1      48.908  27.624  30.118  1.00  0.00     0.054 A 
BRANCH  62  63
ATOM     63  S   UNL A   1      50.527  26.805  30.109  1.00  0.00     0.124 S 
ATOM     64  O   UNL A   1      51.165  27.393  28.936  1.00  0.00    -0.237 OA
ATOM     65  O   UNL A   1      51.090  27.196  31.399  1.00  0.00    -0.237 OA
ATOM     66  O   UNL A   1      50.191  25.387  29.993  1.00  0.00    -0.744 OA
ENDBRANCH  62  63
ENDBRANCH  43  57
BRANCH  44  67
ATOM     67  C   UNL A   1      37.103  32.574  29.540  1.00  0.00    -0.014 A 
ATOM     68  C   UNL A   1      36.695  33.129  28.311  1.00  0.00     0.010 A 
ATOM     69  C   UNL A   1      36.256  32.687  30.656  1.00  0.00     0.010 A 
ATOM     70  C   UNL A   1      35.511  33.865  28.225  1.00  0.00     0.020 A 
ATOM     71  C   UNL A   1      35.056  33.398  30.565  1.00  0.00     0.020 A 
ATOM     72  C   UNL A   1      34.713  34.018  29.362  1.00  0.00     0.054 A 
BRANCH  72  73
ATOM     73  S   UNL A   1      33.256  35.095  29.261  1.00  0.00     0.124 S 
ATOM     74  O   UNL A   1      33.837  36.337  28.757  1.00  0.00    -0.237 OA
ATOM     75  O   UNL A   1      32.395  34.378  28.324  1.00  0.00    -0.237 OA
ATOM     76  O   UNL A   1      32.770  35.147  30.637  1.00  0.00    -0.744 OA
ENDBRANCH  72  73
ENDBRANCH  44  67
BRANCH  56  77
ATOM     77  C   UNL A   1      43.317  35.281  31.416  1.00  0.00    -0.014 A 
ATOM     78  C   UNL A   1      43.180  35.635  32.772  1.00  0.00     0.010 A 
ATOM     79  C   UNL A   1      43.728  36.259  30.493  1.00  0.00     0.010 A 
ATOM     80  C   UNL A   1      43.395  36.951  33.188  1.00  0.00     0.020 A 
ATOM     81  C   UNL A   1      43.976  37.570  30.911  1.00  0.00     0.020 A 
ATOM     82  C   UNL A   1      43.778  37.914  32.251  1.00  0.00     0.054 A 
BRANCH  82  83
ATOM     83  S   UNL A   1      43.993  39.629  32.800  1.00  0.00     0.124 S 
ATOM     84  O   UNL A   1      43.820  40.374  31.557  1.00  0.00    -0.237 OA
ATOM     85  O   UNL A   1      42.925  39.787  33.784  1.00  0.00    -0.237 OA
ATOM     86  O   UNL A   1      45.346  39.646  33.353  1.00  0.00    -0.744 OA
ENDBRANCH  82  83
ENDBRANCH  56  77
ENDBRANCH  30  31
ENDBRANCH  23  25
ENDBRANCH  22  23
ENDBRANCH   1  22
TORSDOF 17
ENDMDL
