MODEL 1
REMARK VINA RESULT:      -9.3      0.000      0.000
REMARK SMILES Cc1cnccc1N[C@@H]1C=C[C@@H](C(=O)OCCOC(=O)c2ccc(-c3c4nc(c(-c5ccc(S(=O)(=O)[O-])cc5)c5ccc([nH]5)c(-c5ccc(S(=O)(=O)[O-])cc5)c5nc(c(-c6ccc(S(=O)(=O)[O-])cc6)c6ccc3[nH]6)C=C5)C=C4)cc2)C1
REMARK SMILES IDX 17 1 16 2 15 3 13 4 14 5 12 6 9 7 10 8 81 9 11 10 8 11 7 13
REMARK SMILES IDX 1 14 2 15 3 16 4 17 6 18 5 19 18 20 19 21 20 22 21 23 22 24
REMARK SMILES IDX 80 25 23 26 79 27 24 28 25 29 26 30 73 31 27 32 78 33 72 34
REMARK SMILES IDX 74 35 28 36 77 37 71 38 70 39 29 41 59 42 40 43 58 44 41 45
REMARK SMILES IDX 44 46 57 47 75 48 42 49 43 50 56 52 76 53 45 54 30 55 31 56
REMARK SMILES IDX 39 57 32 58 38 59 33 60 34 61 35 62 36 63 37 64 60 65 61 66
REMARK SMILES IDX 69 67 62 68 68 69 63 70 64 71 65 72 66 73 67 74 46 75 47 76
REMARK SMILES IDX 55 77 48 78 54 79 49 80 50 81 51 82 52 83 53 84
REMARK H PARENT 8 12 74 40 44 51
REMARK Flexibility Score: inf
ROOT
ATOM      1  C   UNL A   1      33.687  32.886  27.852  1.00  0.00     0.275 C 
ENDROOT
BRANCH   1   2
ATOM      2  C   UNL A   1      33.647  34.232  28.577  1.00  0.00     0.274 C 
BRANCH   2   3
ATOM      3  O   UNL A   1      33.393  34.015  29.976  1.00  0.00    -0.462 OA
BRANCH   3   4
ATOM      4  C   UNL A   1      34.011  34.852  30.847  1.00  0.00     0.312 C 
ATOM      5  O   UNL A   1      33.704  36.029  31.011  1.00  0.00    -0.252 OA
BRANCH   4   6
ATOM      6  C   UNL A   1      35.047  34.138  31.706  1.00  0.00     0.124 C 
ATOM      7  C   UNL A   1      35.896  31.903  32.246  1.00  0.00     0.103 C 
ATOM      8  C   UNL A   1      36.778  32.606  31.274  1.00  0.00    -0.006 C 
ATOM      9  C   UNL A   1      34.658  32.801  32.354  1.00  0.00     0.048 C 
ATOM     10  C   UNL A   1      36.295  33.808  30.938  1.00  0.00    -0.014 C 
BRANCH   7  11
ATOM     11  N   UNL A   1      36.578  31.592  33.492  1.00  0.00    -0.379 N 
ATOM     12  H   UNL A   1      35.983  31.548  34.275  1.00  0.00     0.161 HD
BRANCH  11  13
ATOM     13  C   UNL A   1      37.908  31.347  33.779  1.00  0.00     0.040 A 
ATOM     14  C   UNL A   1      38.283  33.782  34.530  1.00  0.00     0.048 C 
ATOM     15  C   UNL A   1      38.752  32.390  34.217  1.00  0.00    -0.010 A 
ATOM     16  C   UNL A   1      40.105  32.110  34.439  1.00  0.00     0.116 A 
ATOM     17  N   UNL A   1      40.678  30.907  34.260  1.00  0.00    -0.264 NA
ATOM     18  C   UNL A   1      38.505  30.097  33.612  1.00  0.00     0.046 A 
ATOM     19  C   UNL A   1      39.860  29.923  33.859  1.00  0.00     0.113 A 
ENDBRANCH  11  13
ENDBRANCH   7  11
ENDBRANCH   4   6
ENDBRANCH   3   4
ENDBRANCH   2   3
ENDBRANCH   1   2
BRANCH   1  20
ATOM     20  O   UNL A   1      34.293  31.867  28.673  1.00  0.00    -0.458 OA
BRANCH  20  21
ATOM     21  C   UNL A   1      34.383  30.647  28.090  1.00  0.00     0.338 C 
ATOM     22  O   UNL A   1      33.530  30.075  27.434  1.00  0.00    -0.246 OA
BRANCH  21  23
ATOM     23  C   UNL A   1      35.737  30.103  28.280  1.00  0.00     0.060 A 
ATOM     24  C   UNL A   1      36.076  29.597  29.534  1.00  0.00     0.016 A 
ATOM     25  C   UNL A   1      36.698  30.203  27.274  1.00  0.00     0.016 A 
ATOM     26  C   UNL A   1      37.385  29.214  29.804  1.00  0.00     0.010 A 
ATOM     27  C   UNL A   1      38.011  29.796  27.540  1.00  0.00     0.010 A 
ATOM     28  C   UNL A   1      38.370  29.315  28.812  1.00  0.00    -0.014 A 
BRANCH  28  29
ATOM     29  C   UNL A   1      39.774  28.960  29.137  1.00  0.00     0.031 A 
ATOM     30  C   UNL A   1      40.653  29.940  29.867  1.00  0.00     0.074 A 
ATOM     31  C   UNL A   1      40.253  27.744  28.812  1.00  0.00     0.049 A 
ATOM     32  N   UNL A   1      41.927  29.851  30.152  1.00  0.00    -0.248 NA
ATOM     33  C   UNL A   1      40.017  31.184  30.328  1.00  0.00     0.031 C 
ATOM     34  C   UNL A   1      39.489  26.682  28.154  1.00  0.00     0.029 A 
ATOM     35  N   UNL A   1      41.495  27.192  29.003  1.00  0.00    -0.354 N 
ATOM     36  C   UNL A   1      42.255  31.040  30.795  1.00  0.00     0.074 A 
ATOM     37  C   UNL A   1      41.048  31.837  30.847  1.00  0.00     0.031 C 
ATOM     38  C   UNL A   1      40.271  25.599  28.019  1.00  0.00     0.029 A 
ATOM     39  C   UNL A   1      41.606  25.908  28.525  1.00  0.00     0.049 A 
ATOM     40  H   UNL A   1      42.235  27.669  29.441  1.00  0.00     0.167 HD
ATOM     41  C   UNL A   1      43.451  31.431  31.295  1.00  0.00     0.031 A 
ATOM     42  C   UNL A   1      42.667  25.080  28.471  1.00  0.00     0.031 A 
ATOM     43  C   UNL A   1      44.645  30.625  31.267  1.00  0.00     0.049 A 
ATOM     44  C   UNL A   1      43.995  25.552  28.993  1.00  0.00     0.074 A 
ATOM     45  C   UNL A   1      45.904  30.933  31.751  1.00  0.00     0.029 A 
ATOM     46  N   UNL A   1      44.723  29.346  30.738  1.00  0.00    -0.354 N 
ATOM     47  N   UNL A   1      44.298  26.696  29.557  1.00  0.00    -0.248 NA
ATOM     48  C   UNL A   1      45.126  24.623  28.863  1.00  0.00     0.031 C 
ATOM     49  C   UNL A   1      46.755  29.856  31.478  1.00  0.00     0.029 A 
ATOM     50  C   UNL A   1      46.013  28.859  30.865  1.00  0.00     0.049 A 
ATOM     51  H   UNL A   1      43.972  28.857  30.330  1.00  0.00     0.167 HD
ATOM     52  C   UNL A   1      45.653  26.624  29.854  1.00  0.00     0.074 A 
ATOM     53  C   UNL A   1      46.107  25.315  29.427  1.00  0.00     0.031 C 
ATOM     54  C   UNL A   1      46.452  27.559  30.425  1.00  0.00     0.031 A 
BRANCH  41  55
ATOM     55  C   UNL A   1      43.540  32.816  31.878  1.00  0.00    -0.014 A 
ATOM     56  C   UNL A   1      43.484  33.033  33.265  1.00  0.00     0.010 A 
ATOM     57  C   UNL A   1      43.708  33.917  31.018  1.00  0.00     0.010 A 
ATOM     58  C   UNL A   1      43.554  34.331  33.780  1.00  0.00     0.020 A 
ATOM     59  C   UNL A   1      43.802  35.214  31.529  1.00  0.00     0.020 A 
ATOM     60  C   UNL A   1      43.704  35.414  32.908  1.00  0.00     0.054 A 
BRANCH  60  61
ATOM     61  S   UNL A   1      43.799  37.090  33.598  1.00  0.00     0.124 S 
ATOM     62  O   UNL A   1      43.944  37.903  32.392  1.00  0.00    -0.237 OA
ATOM     63  O   UNL A   1      42.524  37.227  34.297  1.00  0.00    -0.237 OA
ATOM     64  O   UNL A   1      44.977  37.043  34.462  1.00  0.00    -0.744 OA
ENDBRANCH  60  61
ENDBRANCH  41  55
BRANCH  42  65
ATOM     65  C   UNL A   1      42.519  23.732  27.860  1.00  0.00    -0.014 A 
ATOM     66  C   UNL A   1      42.843  23.520  26.509  1.00  0.00     0.010 A 
ATOM     67  C   UNL A   1      42.078  22.647  28.638  1.00  0.00     0.010 A 
ATOM     68  C   UNL A   1      42.725  22.246  25.947  1.00  0.00     0.020 A 
ATOM     69  C   UNL A   1      41.983  21.367  28.086  1.00  0.00     0.020 A 
ATOM     70  C   UNL A   1      42.299  21.176  26.740  1.00  0.00     0.054 A 
BRANCH  70  71
ATOM     71  S   UNL A   1      42.222  19.515  26.014  1.00  0.00     0.124 S 
ATOM     72  O   UNL A   1      43.119  19.642  24.871  1.00  0.00    -0.237 OA
ATOM     73  O   UNL A   1      42.702  18.668  27.104  1.00  0.00    -0.237 OA
ATOM     74  O   UNL A   1      40.807  19.352  25.688  1.00  0.00    -0.744 OA
ENDBRANCH  70  71
ENDBRANCH  42  65
BRANCH  54  75
ATOM     75  C   UNL A   1      47.896  27.196  30.629  1.00  0.00    -0.014 A 
ATOM     76  C   UNL A   1      48.879  27.597  29.708  1.00  0.00     0.010 A 
ATOM     77  C   UNL A   1      48.281  26.481  31.778  1.00  0.00     0.010 A 
ATOM     78  C   UNL A   1      50.220  27.266  29.919  1.00  0.00     0.020 A 
ATOM     79  C   UNL A   1      49.623  26.166  32.002  1.00  0.00     0.020 A 
ATOM     80  C   UNL A   1      50.584  26.549  31.063  1.00  0.00     0.054 A 
BRANCH  80  81
ATOM     81  S   UNL A   1      52.335  26.162  31.335  1.00  0.00     0.124 S 
ATOM     82  O   UNL A   1      52.258  24.885  32.038  1.00  0.00    -0.237 OA
ATOM     83  O   UNL A   1      52.869  26.100  29.977  1.00  0.00    -0.237 OA
ATOM     84  O   UNL A   1      52.817  27.286  32.135  1.00  0.00    -0.744 OA
ENDBRANCH  80  81
ENDBRANCH  54  75
ENDBRANCH  28  29
ENDBRANCH  21  23
ENDBRANCH  20  21
ENDBRANCH   1  20
TORSDOF 16
ENDMDL
MODEL 2
REMARK VINA RESULT:      -8.8      2.794      5.447
REMARK SMILES Cc1cnccc1N[C@@H]1C=C[C@@H](C(=O)OCCOC(=O)c2ccc(-c3c4nc(c(-c5ccc(S(=O)(=O)[O-])cc5)c5ccc([nH]5)c(-c5ccc(S(=O)(=O)[O-])cc5)c5nc(c(-c6ccc(S(=O)(=O)[O-])cc6)c6ccc3[nH]6)C=C5)C=C4)cc2)C1
REMARK SMILES IDX 17 1 16 2 15 3 13 4 14 5 12 6 9 7 10 8 81 9 11 10 8 11 7 13
REMARK SMILES IDX 1 14 2 15 3 16 4 17 6 18 5 19 18 20 19 21 20 22 21 23 22 24
REMARK SMILES IDX 80 25 23 26 79 27 24 28 25 29 26 30 73 31 27 32 78 33 72 34
REMARK SMILES IDX 74 35 28 36 77 37 71 38 70 39 29 41 59 42 40 43 58 44 41 45
REMARK SMILES IDX 44 46 57 47 75 48 42 49 43 50 56 52 76 53 45 54 30 55 31 56
REMARK SMILES IDX 39 57 32 58 38 59 33 60 34 61 35 62 36 63 37 64 60 65 61 66
REMARK SMILES IDX 69 67 62 68 68 69 63 70 64 71 65 72 66 73 67 74 46 75 47 76
REMARK SMILES IDX 55 77 48 78 54 79 49 80 50 81 51 82 52 83 53 84
REMARK H PARENT 8 12 74 40 44 51
REMARK Flexibility Score: inf
ROOT
ATOM      1  C   UNL A   1      32.451  29.602  27.154  1.00  0.00     0.275 C 
ENDROOT
BRANCH   1   2
ATOM      2  C   UNL A   1      31.781  28.918  25.961  1.00  0.00     0.274 C 
BRANCH   2   3
ATOM      3  O   UNL A   1      31.182  27.682  26.392  1.00  0.00    -0.462 OA
BRANCH   3   4
ATOM      4  C   UNL A   1      31.309  26.619  25.559  1.00  0.00     0.312 C 
ATOM      5  O   UNL A   1      30.506  26.331  24.676  1.00  0.00    -0.252 OA
BRANCH   4   6
ATOM      6  C   UNL A   1      32.633  25.888  25.744  1.00  0.00     0.124 C 
ATOM      7  C   UNL A   1      33.796  23.818  25.131  1.00  0.00     0.103 C 
ATOM      8  C   UNL A   1      34.228  24.964  24.283  1.00  0.00    -0.006 C 
ATOM      9  C   UNL A   1      32.602  24.362  25.925  1.00  0.00     0.048 C 
ATOM     10  C   UNL A   1      33.562  26.085  24.581  1.00  0.00    -0.014 C 
BRANCH   7  11
ATOM     11  N   UNL A   1      34.889  23.260  25.910  1.00  0.00    -0.379 N 
ATOM     12  H   UNL A   1      34.993  23.664  26.802  1.00  0.00     0.161 HD
BRANCH  11  13
ATOM     13  C   UNL A   1      35.809  22.267  25.630  1.00  0.00     0.040 A 
ATOM     14  C   UNL A   1      37.787  23.853  26.084  1.00  0.00     0.048 C 
ATOM     15  C   UNL A   1      37.193  22.545  25.648  1.00  0.00    -0.010 A 
ATOM     16  C   UNL A   1      38.086  21.525  25.300  1.00  0.00     0.116 A 
ATOM     17  N   UNL A   1      37.725  20.281  24.937  1.00  0.00    -0.264 NA
ATOM     18  C   UNL A   1      35.443  20.970  25.270  1.00  0.00     0.046 A 
ATOM     19  C   UNL A   1      36.408  20.029  24.941  1.00  0.00     0.113 A 
ENDBRANCH  11  13
ENDBRANCH   7  11
ENDBRANCH   4   6
ENDBRANCH   3   4
ENDBRANCH   2   3
ENDBRANCH   1   2
BRANCH   1  20
ATOM     20  O   UNL A   1      33.826  29.931  26.865  1.00  0.00    -0.458 OA
BRANCH  20  21
ATOM     21  C   UNL A   1      34.450  30.655  27.825  1.00  0.00     0.338 C 
ATOM     22  O   UNL A   1      33.993  31.583  28.468  1.00  0.00    -0.246 OA
BRANCH  21  23
ATOM     23  C   UNL A   1      35.790  30.101  28.074  1.00  0.00     0.060 A 
ATOM     24  C   UNL A   1      36.100  29.673  29.364  1.00  0.00     0.016 A 
ATOM     25  C   UNL A   1      36.769  30.120  27.080  1.00  0.00     0.016 A 
ATOM     26  C   UNL A   1      37.398  29.286  29.679  1.00  0.00     0.010 A 
ATOM     27  C   UNL A   1      38.070  29.708  27.393  1.00  0.00     0.010 A 
ATOM     28  C   UNL A   1      38.400  29.305  28.700  1.00  0.00    -0.014 A 
BRANCH  28  29
ATOM     29  C   UNL A   1      39.793  28.948  29.071  1.00  0.00     0.031 A 
ATOM     30  C   UNL A   1      40.643  29.921  29.842  1.00  0.00     0.074 A 
ATOM     31  C   UNL A   1      40.284  27.736  28.750  1.00  0.00     0.049 A 
ATOM     32  N   UNL A   1      41.907  29.830  30.172  1.00  0.00    -0.248 NA
ATOM     33  C   UNL A   1      39.989  31.159  30.294  1.00  0.00     0.031 C 
ATOM     34  C   UNL A   1      39.545  26.681  28.054  1.00  0.00     0.029 A 
ATOM     35  N   UNL A   1      41.519  27.183  28.980  1.00  0.00    -0.354 N 
ATOM     36  C   UNL A   1      42.209  31.012  30.839  1.00  0.00     0.074 A 
ATOM     37  C   UNL A   1      41.000  31.808  30.856  1.00  0.00     0.031 C 
ATOM     38  C   UNL A   1      40.333  25.599  27.936  1.00  0.00     0.029 A 
ATOM     39  C   UNL A   1      41.648  25.904  28.492  1.00  0.00     0.049 A 
ATOM     40  H   UNL A   1      42.242  27.656  29.449  1.00  0.00     0.167 HD
ATOM     41  C   UNL A   1      43.387  31.399  31.385  1.00  0.00     0.031 A 
ATOM     42  C   UNL A   1      42.712  25.078  28.467  1.00  0.00     0.031 A 
ATOM     43  C   UNL A   1      44.582  30.594  31.391  1.00  0.00     0.049 A 
ATOM     44  C   UNL A   1      44.020  25.545  29.042  1.00  0.00     0.074 A 
ATOM     45  C   UNL A   1      45.822  30.899  31.923  1.00  0.00     0.029 A 
ATOM     46  N   UNL A   1      44.681  29.321  30.851  1.00  0.00    -0.354 N 
ATOM     47  N   UNL A   1      44.301  26.684  29.628  1.00  0.00    -0.248 NA
ATOM     48  C   UNL A   1      45.157  24.619  28.942  1.00  0.00     0.031 C 
ATOM     49  C   UNL A   1      46.684  29.825  31.669  1.00  0.00     0.029 A 
ATOM     50  C   UNL A   1      45.966  28.834  31.020  1.00  0.00     0.049 A 
ATOM     51  H   UNL A   1      43.945  28.836  30.412  1.00  0.00     0.167 HD
ATOM     52  C   UNL A   1      45.645  26.610  29.972  1.00  0.00     0.074 A 
ATOM     53  C   UNL A   1      46.115  25.306  29.548  1.00  0.00     0.031 C 
ATOM     54  C   UNL A   1      46.422  27.539  30.581  1.00  0.00     0.031 A 
BRANCH  41  55
ATOM     55  C   UNL A   1      43.453  32.778  31.985  1.00  0.00    -0.014 A 
ATOM     56  C   UNL A   1      43.201  32.996  33.351  1.00  0.00     0.010 A 
ATOM     57  C   UNL A   1      43.799  33.870  31.169  1.00  0.00     0.010 A 
ATOM     58  C   UNL A   1      43.254  34.289  33.880  1.00  0.00     0.020 A 
ATOM     59  C   UNL A   1      43.876  35.161  31.698  1.00  0.00     0.020 A 
ATOM     60  C   UNL A   1      43.584  35.365  33.049  1.00  0.00     0.054 A 
BRANCH  60  61
ATOM     61  S   UNL A   1      43.654  37.033  33.758  1.00  0.00     0.124 S 
ATOM     62  O   UNL A   1      42.416  37.083  34.532  1.00  0.00    -0.237 OA
ATOM     63  O   UNL A   1      44.884  37.000  34.545  1.00  0.00    -0.237 OA
ATOM     64  O   UNL A   1      43.692  37.907  32.587  1.00  0.00    -0.744 OA
ENDBRANCH  60  61
ENDBRANCH  41  55
BRANCH  42  65
ATOM     65  C   UNL A   1      42.588  23.737  27.837  1.00  0.00    -0.014 A 
ATOM     66  C   UNL A   1      42.821  23.568  26.461  1.00  0.00     0.010 A 
ATOM     67  C   UNL A   1      42.261  22.614  28.620  1.00  0.00     0.010 A 
ATOM     68  C   UNL A   1      42.726  22.301  25.879  1.00  0.00     0.020 A 
ATOM     69  C   UNL A   1      42.191  21.342  28.046  1.00  0.00     0.020 A 
ATOM     70  C   UNL A   1      42.415  21.195  26.676  1.00  0.00     0.054 A 
BRANCH  70  71
ATOM     71  S   UNL A   1      42.369  19.547  25.919  1.00  0.00     0.124 S 
ATOM     72  O   UNL A   1      42.658  18.682  27.058  1.00  0.00    -0.237 OA
ATOM     73  O   UNL A   1      41.007  19.473  25.397  1.00  0.00    -0.237 OA
ATOM     74  O   UNL A   1      43.414  19.613  24.899  1.00  0.00    -0.744 OA
ENDBRANCH  70  71
ENDBRANCH  42  65
BRANCH  54  75
ATOM     75  C   UNL A   1      47.858  27.175  30.833  1.00  0.00    -0.014 A 
ATOM     76  C   UNL A   1      48.228  26.441  31.974  1.00  0.00     0.010 A 
ATOM     77  C   UNL A   1      48.844  27.535  29.897  1.00  0.00     0.010 A 
ATOM     78  C   UNL A   1      49.565  26.096  32.188  1.00  0.00     0.020 A 
ATOM     79  C   UNL A   1      50.179  27.175  30.098  1.00  0.00     0.020 A 
ATOM     80  C   UNL A   1      50.534  26.469  31.251  1.00  0.00     0.054 A 
BRANCH  80  81
ATOM     81  S   UNL A   1      52.257  25.979  31.529  1.00  0.00     0.124 S 
ATOM     82  O   UNL A   1      52.733  27.034  32.419  1.00  0.00    -0.237 OA
ATOM     83  O   UNL A   1      52.125  24.657  32.137  1.00  0.00    -0.237 OA
ATOM     84  O   UNL A   1      52.840  25.984  30.189  1.00  0.00    -0.744 OA
ENDBRANCH  80  81
ENDBRANCH  54  75
ENDBRANCH  28  29
ENDBRANCH  21  23
ENDBRANCH  20  21
ENDBRANCH   1  20
TORSDOF 16
ENDMDL
MODEL 3
REMARK VINA RESULT:      -8.7      2.509     11.166
REMARK SMILES Cc1cnccc1N[C@@H]1C=C[C@@H](C(=O)OCCOC(=O)c2ccc(-c3c4nc(c(-c5ccc(S(=O)(=O)[O-])cc5)c5ccc([nH]5)c(-c5ccc(S(=O)(=O)[O-])cc5)c5nc(c(-c6ccc(S(=O)(=O)[O-])cc6)c6ccc3[nH]6)C=C5)C=C4)cc2)C1
REMARK SMILES IDX 17 1 16 2 15 3 13 4 14 5 12 6 9 7 10 8 81 9 11 10 8 11 7 13
REMARK SMILES IDX 1 14 2 15 3 16 4 17 6 18 5 19 18 20 19 21 20 22 21 23 22 24
REMARK SMILES IDX 80 25 23 26 79 27 24 28 25 29 26 30 73 31 27 32 78 33 72 34
REMARK SMILES IDX 74 35 28 36 77 37 71 38 70 39 29 41 59 42 40 43 58 44 41 45
REMARK SMILES IDX 44 46 57 47 75 48 42 49 43 50 56 52 76 53 45 54 30 55 31 56
REMARK SMILES IDX 39 57 32 58 38 59 33 60 34 61 35 62 36 63 37 64 60 65 61 66
REMARK SMILES IDX 69 67 62 68 68 69 63 70 64 71 65 72 66 73 67 74 46 75 47 76
REMARK SMILES IDX 55 77 48 78 54 79 49 80 50 81 51 82 52 83 53 84
REMARK H PARENT 8 12 74 40 44 51
REMARK Flexibility Score: inf
ROOT
ATOM      1  C   UNL A   1      40.329  20.875  26.476  1.00  0.00     0.275 C 
ENDROOT
BRANCH   1   2
ATOM      2  C   UNL A   1      41.761  20.352  26.359  1.00  0.00     0.274 C 
BRANCH   2   3
ATOM      3  O   UNL A   1      42.483  21.143  25.399  1.00  0.00    -0.462 OA
BRANCH   3   4
ATOM      4  C   UNL A   1      43.819  21.272  25.594  1.00  0.00     0.312 C 
ATOM      5  O   UNL A   1      44.648  20.418  25.292  1.00  0.00    -0.252 OA
BRANCH   4   6
ATOM      6  C   UNL A   1      44.203  22.653  26.110  1.00  0.00     0.124 C 
ATOM      7  C   UNL A   1      45.443  24.672  25.478  1.00  0.00     0.103 C 
ATOM      8  C   UNL A   1      43.976  24.845  25.288  1.00  0.00    -0.006 C 
ATOM      9  C   UNL A   1      45.611  23.181  25.795  1.00  0.00     0.048 C 
ATOM     10  C   UNL A   1      43.298  23.730  25.586  1.00  0.00    -0.014 C 
BRANCH   7  11
ATOM     11  N   UNL A   1      45.991  25.604  26.449  1.00  0.00    -0.379 N 
ATOM     12  H   UNL A   1      45.949  25.285  27.380  1.00  0.00     0.161 HD
BRANCH  11  13
ATOM     13  C   UNL A   1      46.561  26.856  26.308  1.00  0.00     0.040 A 
ATOM     14  C   UNL A   1      48.937  25.863  26.262  1.00  0.00     0.048 C 
ATOM     15  C   UNL A   1      47.964  27.007  26.277  1.00  0.00    -0.010 A 
ATOM     16  C   UNL A   1      48.497  28.298  26.193  1.00  0.00     0.116 A 
ATOM     17  N   UNL A   1      47.768  29.427  26.143  1.00  0.00    -0.264 NA
ATOM     18  C   UNL A   1      45.810  28.030  26.238  1.00  0.00     0.046 A 
ATOM     19  C   UNL A   1      46.437  29.265  26.156  1.00  0.00     0.113 A 
ENDBRANCH  11  13
ENDBRANCH   7  11
ENDBRANCH   4   6
ENDBRANCH   3   4
ENDBRANCH   2   3
ENDBRANCH   1   2
BRANCH   1  20
ATOM     20  O   UNL A   1      40.198  22.182  25.879  1.00  0.00    -0.458 OA
BRANCH  20  21
ATOM     21  C   UNL A   1      39.026  22.810  26.139  1.00  0.00     0.338 C 
ATOM     22  O   UNL A   1      37.900  22.380  25.961  1.00  0.00    -0.246 OA
BRANCH  21  23
ATOM     23  C   UNL A   1      39.288  24.111  26.774  1.00  0.00     0.060 A 
ATOM     24  C   UNL A   1      40.004  25.066  26.053  1.00  0.00     0.016 A 
ATOM     25  C   UNL A   1      38.943  24.341  28.105  1.00  0.00     0.016 A 
ATOM     26  C   UNL A   1      40.406  26.248  26.666  1.00  0.00     0.010 A 
ATOM     27  C   UNL A   1      39.329  25.542  28.714  1.00  0.00     0.010 A 
ATOM     28  C   UNL A   1      40.079  26.497  28.005  1.00  0.00    -0.014 A 
BRANCH  28  29
ATOM     29  C   UNL A   1      40.570  27.736  28.660  1.00  0.00     0.031 A 
ATOM     30  C   UNL A   1      41.999  27.833  29.120  1.00  0.00     0.074 A 
ATOM     31  C   UNL A   1      39.745  28.790  28.809  1.00  0.00     0.049 A 
ATOM     32  N   UNL A   1      42.585  28.789  29.796  1.00  0.00    -0.248 NA
ATOM     33  C   UNL A   1      42.882  26.705  28.783  1.00  0.00     0.031 C 
ATOM     34  C   UNL A   1      38.354  28.846  28.357  1.00  0.00     0.029 A 
ATOM     35  N   UNL A   1      39.962  30.022  29.372  1.00  0.00    -0.354 N 
ATOM     36  C   UNL A   1      43.894  28.365  29.995  1.00  0.00     0.074 A 
ATOM     37  C   UNL A   1      44.012  27.059  29.379  1.00  0.00     0.031 C 
ATOM     38  C   UNL A   1      37.850  30.058  28.637  1.00  0.00     0.029 A 
ATOM     39  C   UNL A   1      38.860  30.843  29.342  1.00  0.00     0.049 A 
ATOM     40  H   UNL A   1      40.825  30.293  29.761  1.00  0.00     0.167 HD
ATOM     41  C   UNL A   1      44.904  29.003  30.634  1.00  0.00     0.031 A 
ATOM     42  C   UNL A   1      38.671  32.078  29.848  1.00  0.00     0.031 A 
ATOM     43  C   UNL A   1      44.792  30.313  31.222  1.00  0.00     0.049 A 
ATOM     44  C   UNL A   1      39.793  32.748  30.589  1.00  0.00     0.074 A 
ATOM     45  C   UNL A   1      45.761  31.043  31.887  1.00  0.00     0.029 A 
ATOM     46  N   UNL A   1      43.647  31.093  31.203  1.00  0.00    -0.354 N 
ATOM     47  N   UNL A   1      41.010  32.314  30.808  1.00  0.00    -0.248 NA
ATOM     48  C   UNL A   1      39.511  34.072  31.161  1.00  0.00     0.031 C 
ATOM     49  C   UNL A   1      45.189  32.250  32.307  1.00  0.00     0.029 A 
ATOM     50  C   UNL A   1      43.878  32.289  31.862  1.00  0.00     0.049 A 
ATOM     51  H   UNL A   1      42.794  30.834  30.784  1.00  0.00     0.167 HD
ATOM     52  C   UNL A   1      41.642  33.312  31.538  1.00  0.00     0.074 A 
ATOM     53  C   UNL A   1      40.680  34.383  31.705  1.00  0.00     0.031 C 
ATOM     54  C   UNL A   1      42.905  33.340  32.030  1.00  0.00     0.031 A 
BRANCH  41  55
ATOM     55  C   UNL A   1      46.212  28.270  30.769  1.00  0.00    -0.014 A 
ATOM     56  C   UNL A   1      46.471  27.427  31.863  1.00  0.00     0.010 A 
ATOM     57  C   UNL A   1      47.189  28.411  29.766  1.00  0.00     0.010 A 
ATOM     58  C   UNL A   1      47.700  26.769  31.973  1.00  0.00     0.020 A 
ATOM     59  C   UNL A   1      48.410  27.738  29.860  1.00  0.00     0.020 A 
ATOM     60  C   UNL A   1      48.665  26.936  30.974  1.00  0.00     0.054 A 
BRANCH  60  61
ATOM     61  S   UNL A   1      50.251  26.068  31.133  1.00  0.00     0.124 S 
ATOM     62  O   UNL A   1      51.205  27.173  31.072  1.00  0.00    -0.237 OA
ATOM     63  O   UNL A   1      50.133  25.412  32.433  1.00  0.00    -0.237 OA
ATOM     64  O   UNL A   1      50.269  25.166  29.983  1.00  0.00    -0.744 OA
ENDBRANCH  60  61
ENDBRANCH  41  55
BRANCH  42  65
ATOM     65  C   UNL A   1      37.347  32.738  29.702  1.00  0.00    -0.014 A 
ATOM     66  C   UNL A   1      36.391  32.660  30.729  1.00  0.00     0.010 A 
ATOM     67  C   UNL A   1      37.046  33.473  28.540  1.00  0.00     0.010 A 
ATOM     68  C   UNL A   1      35.157  33.303  30.596  1.00  0.00     0.020 A 
ATOM     69  C   UNL A   1      35.824  34.138  28.415  1.00  0.00     0.020 A 
ATOM     70  C   UNL A   1      34.883  34.041  29.440  1.00  0.00     0.054 A 
BRANCH  70  71
ATOM     71  S   UNL A   1      33.306  34.931  29.315  1.00  0.00     0.124 S 
ATOM     72  O   UNL A   1      33.743  36.269  28.934  1.00  0.00    -0.237 OA
ATOM     73  O   UNL A   1      32.595  34.179  28.284  1.00  0.00    -0.237 OA
ATOM     74  O   UNL A   1      32.742  34.813  30.658  1.00  0.00    -0.744 OA
ENDBRANCH  70  71
ENDBRANCH  42  65
BRANCH  54  75
ATOM     75  C   UNL A   1      43.322  34.570  32.787  1.00  0.00    -0.014 A 
ATOM     76  C   UNL A   1      43.748  35.725  32.109  1.00  0.00     0.010 A 
ATOM     77  C   UNL A   1      43.244  34.585  34.191  1.00  0.00     0.010 A 
ATOM     78  C   UNL A   1      44.118  36.867  32.825  1.00  0.00     0.020 A 
ATOM     79  C   UNL A   1      43.594  35.732  34.909  1.00  0.00     0.020 A 
ATOM     80  C   UNL A   1      44.042  36.862  34.221  1.00  0.00     0.054 A 
BRANCH  80  81
ATOM     81  S   UNL A   1      44.491  38.367  35.128  1.00  0.00     0.124 S 
ATOM     82  O   UNL A   1      43.914  39.412  34.287  1.00  0.00    -0.237 OA
ATOM     83  O   UNL A   1      43.840  38.172  36.422  1.00  0.00    -0.237 OA
ATOM     84  O   UNL A   1      45.951  38.329  35.162  1.00  0.00    -0.744 OA
ENDBRANCH  80  81
ENDBRANCH  54  75
ENDBRANCH  28  29
ENDBRANCH  21  23
ENDBRANCH  20  21
ENDBRANCH   1  20
TORSDOF 16
ENDMDL
