MODEL 1
REMARK VINA RESULT:     -12.8      0.000      0.000
REMARK SMILES O=C(Cn1c(-c2nc(-c3ccc(C(F)(F)F)cc3)no2)cc2ccccc21)OCCOC(=O)c1ccc(-c2c3nc(c(-c4ccc(S(=O)(=O)[O-])cc4)c4ccc([nH]4)c(-c4ccc(S(=O)(=O)[O-])cc4)c4nc(c(-c5ccc(S(=O)(=O)[O-])cc5)c5ccc2[nH]5)C=C4)C=C3)cc1
REMARK SMILES IDX 29 1 28 2 2 3 1 4 3 5 4 6 5 7 27 8 21 9 22 10 26 11 23 12
REMARK SMILES IDX 25 13 24 14 6 15 7 16 20 17 8 18 19 19 9 20 10 21 18 22
REMARK SMILES IDX 11 23 17 24 12 25 13 26 14 27 15 28 16 29 30 30 31 31 32 32
REMARK SMILES IDX 33 33 34 34 35 35 93 36 36 37 92 38 37 39 38 40 39 41 86 42
REMARK SMILES IDX 40 43 91 44 85 45 87 46 41 47 90 48 84 49 83 50 42 52 72 53
REMARK SMILES IDX 53 54 71 55 54 56 57 57 70 58 88 59 55 60 56 61 69 63 89 64
REMARK SMILES IDX 58 65 43 66 44 67 52 68 45 69 51 70 46 71 47 72 48 73 49 74
REMARK SMILES IDX 50 75 73 76 74 77 82 78 75 79 81 80 76 81 77 82 78 83 79 84
REMARK SMILES IDX 80 85 59 86 60 87 68 88 61 89 67 90 62 91 63 92 64 93 65 94
REMARK SMILES IDX 66 95
REMARK H PARENT 87 51 57 62
REMARK Flexibility Score: inf
ROOT
ATOM      1  C   UNL A   1      32.685  30.969  26.399  1.00  0.00     0.274 C 
ENDROOT
BRANCH   1   2
ATOM      2  O   UNL A   1      31.723  29.908  26.479  1.00  0.00    -0.461 OA
BRANCH   2   3
ATOM      3  C   UNL A   1      31.922  28.854  25.632  1.00  0.00     0.326 C 
ATOM      4  O   UNL A   1      32.220  27.755  26.074  1.00  0.00    -0.250 OA
BRANCH   3   5
ATOM      5  C   UNL A   1      31.954  29.278  24.170  1.00  0.00     0.245 C 
BRANCH   5   6
ATOM      6  N   UNL A   1      30.710  29.087  23.439  1.00  0.00    -0.325 N 
ATOM      7  C   UNL A   1      30.240  27.891  22.935  1.00  0.00     0.109 A 
ATOM      8  C   UNL A   1      29.719  30.055  23.369  1.00  0.00     0.049 A 
ATOM      9  C   UNL A   1      28.860  28.027  22.898  1.00  0.00     0.042 A 
ATOM     10  C   UNL A   1      28.521  29.361  23.217  1.00  0.00     0.000 A 
ATOM     11  C   UNL A   1      29.752  31.445  23.546  1.00  0.00     0.027 A 
ATOM     12  C   UNL A   1      27.307  30.045  23.386  1.00  0.00     0.010 A 
ATOM     13  C   UNL A   1      28.535  32.110  23.708  1.00  0.00     0.002 A 
ATOM     14  C   UNL A   1      27.329  31.415  23.661  1.00  0.00     0.001 A 
BRANCH   7  15
ATOM     15  C   UNL A   1      30.929  26.655  22.667  1.00  0.00     0.274 A 
ATOM     16  N   UNL A   1      31.280  25.672  23.500  1.00  0.00    -0.185 NA
ATOM     17  O   UNL A   1      31.443  26.471  21.415  1.00  0.00    -0.332 OA
ATOM     18  C   UNL A   1      32.128  24.895  22.698  1.00  0.00     0.202 A 
ATOM     19  N   UNL A   1      32.240  25.369  21.453  1.00  0.00    -0.057 NA
BRANCH  18  20
ATOM     20  C   UNL A   1      32.822  23.632  23.027  1.00  0.00     0.023 A 
ATOM     21  C   UNL A   1      32.085  22.435  22.905  1.00  0.00     0.013 A 
ATOM     22  C   UNL A   1      34.101  23.536  23.581  1.00  0.00     0.013 A 
ATOM     23  C   UNL A   1      32.512  21.225  23.453  1.00  0.00     0.014 A 
ATOM     24  C   UNL A   1      34.555  22.305  24.111  1.00  0.00     0.014 A 
ATOM     25  C   UNL A   1      33.742  21.153  24.099  1.00  0.00     0.056 A 
BRANCH  25  26
ATOM     26  C   UNL A   1      34.124  19.891  24.841  1.00  0.00     0.416 C 
ATOM     27  F   UNL A   1      35.422  19.915  25.255  1.00  0.00    -0.166 F 
ATOM     28  F   UNL A   1      33.373  19.656  25.952  1.00  0.00    -0.166 F 
ATOM     29  F   UNL A   1      34.003  18.771  24.072  1.00  0.00    -0.166 F 
ENDBRANCH  25  26
ENDBRANCH  18  20
ENDBRANCH   7  15
ENDBRANCH   5   6
ENDBRANCH   3   5
ENDBRANCH   2   3
ENDBRANCH   1   2
BRANCH   1  30
ATOM     30  C   UNL A   1      33.504  31.117  27.694  1.00  0.00     0.275 C 
BRANCH  30  31
ATOM     31  O   UNL A   1      34.758  30.424  27.599  1.00  0.00    -0.458 OA
BRANCH  31  32
ATOM     32  C   UNL A   1      35.653  30.736  28.584  1.00  0.00     0.338 C 
ATOM     33  O   UNL A   1      35.461  31.464  29.525  1.00  0.00    -0.246 OA
BRANCH  32  34
ATOM     34  C   UNL A   1      36.750  29.736  28.489  1.00  0.00     0.060 A 
ATOM     35  C   UNL A   1      37.216  29.038  29.600  1.00  0.00     0.016 A 
ATOM     36  C   UNL A   1      37.478  29.714  27.294  1.00  0.00     0.016 A 
ATOM     37  C   UNL A   1      38.485  28.452  29.547  1.00  0.00     0.010 A 
ATOM     38  C   UNL A   1      38.750  29.135  27.257  1.00  0.00     0.010 A 
ATOM     39  C   UNL A   1      39.310  28.583  28.413  1.00  0.00    -0.014 A 
BRANCH  39  40
ATOM     40  C   UNL A   1      40.739  28.184  28.520  1.00  0.00     0.031 A 
ATOM     41  C   UNL A   1      41.118  26.787  28.124  1.00  0.00     0.074 A 
ATOM     42  C   UNL A   1      41.759  28.975  28.935  1.00  0.00     0.049 A 
ATOM     43  N   UNL A   1      41.955  26.000  28.730  1.00  0.00    -0.248 NA
ATOM     44  C   UNL A   1      40.505  26.198  26.928  1.00  0.00     0.031 C 
ATOM     45  C   UNL A   1      41.748  30.408  29.241  1.00  0.00     0.029 A 
ATOM     46  N   UNL A   1      43.090  28.647  29.085  1.00  0.00    -0.354 N 
ATOM     47  C   UNL A   1      42.049  24.842  27.965  1.00  0.00     0.074 A 
ATOM     48  C   UNL A   1      41.101  25.005  26.883  1.00  0.00     0.031 C 
ATOM     49  C   UNL A   1      43.020  30.865  29.294  1.00  0.00     0.029 A 
ATOM     50  C   UNL A   1      43.932  29.739  29.195  1.00  0.00     0.049 A 
ATOM     51  H   UNL A   1      43.411  27.717  29.112  1.00  0.00     0.167 HD
ATOM     52  C   UNL A   1      42.929  23.826  28.209  1.00  0.00     0.031 A 
ATOM     53  C   UNL A   1      45.285  29.746  29.154  1.00  0.00     0.031 A 
ATOM     54  C   UNL A   1      43.511  23.776  29.538  1.00  0.00     0.049 A 
ATOM     55  C   UNL A   1      45.821  28.475  29.694  1.00  0.00     0.074 A 
ATOM     56  C   UNL A   1      43.686  22.838  30.544  1.00  0.00     0.029 A 
ATOM     57  N   UNL A   1      43.954  24.947  30.081  1.00  0.00    -0.354 N 
ATOM     58  N   UNL A   1      45.775  28.134  30.953  1.00  0.00    -0.248 NA
ATOM     59  C   UNL A   1      46.299  27.447  28.772  1.00  0.00     0.031 C 
ATOM     60  C   UNL A   1      44.348  23.471  31.641  1.00  0.00     0.029 A 
ATOM     61  C   UNL A   1      44.636  24.763  31.258  1.00  0.00     0.049 A 
ATOM     62  H   UNL A   1      43.800  25.829  29.671  1.00  0.00     0.167 HD
ATOM     63  C   UNL A   1      45.888  26.762  30.934  1.00  0.00     0.074 A 
ATOM     64  C   UNL A   1      46.350  26.404  29.598  1.00  0.00     0.031 C 
ATOM     65  C   UNL A   1      45.241  25.947  31.815  1.00  0.00     0.031 A 
BRANCH  52  66
ATOM     66  C   UNL A   1      43.382  22.880  27.115  1.00  0.00    -0.014 A 
ATOM     67  C   UNL A   1      44.696  22.913  26.599  1.00  0.00     0.010 A 
ATOM     68  C   UNL A   1      42.589  21.780  26.734  1.00  0.00     0.010 A 
ATOM     69  C   UNL A   1      45.173  21.945  25.707  1.00  0.00     0.020 A 
ATOM     70  C   UNL A   1      43.068  20.781  25.874  1.00  0.00     0.020 A 
ATOM     71  C   UNL A   1      44.356  20.877  25.356  1.00  0.00     0.054 A 
BRANCH  71  72
ATOM     72  S   UNL A   1      45.035  19.577  24.296  1.00  0.00     0.124 S 
ATOM     73  O   UNL A   1      44.483  19.933  22.990  1.00  0.00    -0.237 OA
ATOM     74  O   UNL A   1      46.475  19.769  24.442  1.00  0.00    -0.237 OA
ATOM     75  O   UNL A   1      44.510  18.345  24.878  1.00  0.00    -0.744 OA
ENDBRANCH  71  72
ENDBRANCH  52  66
BRANCH  53  76
ATOM     76  C   UNL A   1      46.133  30.630  28.312  1.00  0.00    -0.014 A 
ATOM     77  C   UNL A   1      47.264  31.265  28.861  1.00  0.00     0.010 A 
ATOM     78  C   UNL A   1      45.646  31.103  27.075  1.00  0.00     0.010 A 
ATOM     79  C   UNL A   1      47.830  32.388  28.252  1.00  0.00     0.020 A 
ATOM     80  C   UNL A   1      46.200  32.238  26.466  1.00  0.00     0.020 A 
ATOM     81  C   UNL A   1      47.267  32.893  27.081  1.00  0.00     0.054 A 
BRANCH  81  82
ATOM     82  S   UNL A   1      47.897  34.468  26.436  1.00  0.00     0.124 S 
ATOM     83  O   UNL A   1      47.341  34.487  25.086  1.00  0.00    -0.237 OA
ATOM     84  O   UNL A   1      47.322  35.438  27.365  1.00  0.00    -0.237 OA
ATOM     85  O   UNL A   1      49.348  34.320  26.514  1.00  0.00    -0.744 OA
ENDBRANCH  81  82
ENDBRANCH  53  76
BRANCH  65  86
ATOM     86  C   UNL A   1      44.944  26.373  33.218  1.00  0.00    -0.014 A 
ATOM     87  C   UNL A   1      46.034  26.637  34.068  1.00  0.00     0.010 A 
ATOM     88  C   UNL A   1      43.646  26.484  33.747  1.00  0.00     0.010 A 
ATOM     89  C   UNL A   1      45.842  26.972  35.411  1.00  0.00     0.020 A 
ATOM     90  C   UNL A   1      43.443  26.838  35.091  1.00  0.00     0.020 A 
ATOM     91  C   UNL A   1      44.545  27.060  35.920  1.00  0.00     0.054 A 
BRANCH  91  92
ATOM     92  S   UNL A   1      44.336  27.463  37.674  1.00  0.00     0.124 S 
ATOM     93  O   UNL A   1      44.169  28.915  37.636  1.00  0.00    -0.237 OA
ATOM     94  O   UNL A   1      43.142  26.707  38.045  1.00  0.00    -0.237 OA
ATOM     95  O   UNL A   1      45.575  27.003  38.298  1.00  0.00    -0.744 OA
ENDBRANCH  91  92
ENDBRANCH  65  86
ENDBRANCH  39  40
ENDBRANCH  32  34
ENDBRANCH  31  32
ENDBRANCH  30  31
ENDBRANCH   1  30
TORSDOF 18
ENDMDL
MODEL 2
REMARK VINA RESULT:     -12.3      1.926      7.242
REMARK SMILES O=C(Cn1c(-c2nc(-c3ccc(C(F)(F)F)cc3)no2)cc2ccccc21)OCCOC(=O)c1ccc(-c2c3nc(c(-c4ccc(S(=O)(=O)[O-])cc4)c4ccc([nH]4)c(-c4ccc(S(=O)(=O)[O-])cc4)c4nc(c(-c5ccc(S(=O)(=O)[O-])cc5)c5ccc2[nH]5)C=C4)C=C3)cc1
REMARK SMILES IDX 29 1 28 2 2 3 1 4 3 5 4 6 5 7 27 8 21 9 22 10 26 11 23 12
REMARK SMILES IDX 25 13 24 14 6 15 7 16 20 17 8 18 19 19 9 20 10 21 18 22
REMARK SMILES IDX 11 23 17 24 12 25 13 26 14 27 15 28 16 29 30 30 31 31 32 32
REMARK SMILES IDX 33 33 34 34 35 35 93 36 36 37 92 38 37 39 38 40 39 41 86 42
REMARK SMILES IDX 40 43 91 44 85 45 87 46 41 47 90 48 84 49 83 50 42 52 72 53
REMARK SMILES IDX 53 54 71 55 54 56 57 57 70 58 88 59 55 60 56 61 69 63 89 64
REMARK SMILES IDX 58 65 43 66 44 67 52 68 45 69 51 70 46 71 47 72 48 73 49 74
REMARK SMILES IDX 50 75 73 76 74 77 82 78 75 79 81 80 76 81 77 82 78 83 79 84
REMARK SMILES IDX 80 85 59 86 60 87 68 88 61 89 67 90 62 91 63 92 64 93 65 94
REMARK SMILES IDX 66 95
REMARK H PARENT 87 51 57 62
REMARK Flexibility Score: inf
ROOT
ATOM      1  C   UNL A   1      33.004  30.097  26.284  1.00  0.00     0.274 C 
ENDROOT
BRANCH   1   2
ATOM      2  O   UNL A   1      33.305  29.722  24.932  1.00  0.00    -0.461 OA
BRANCH   2   3
ATOM      3  C   UNL A   1      33.231  28.387  24.651  1.00  0.00     0.326 C 
ATOM      4  O   UNL A   1      34.019  27.877  23.868  1.00  0.00    -0.250 OA
BRANCH   3   5
ATOM      5  C   UNL A   1      31.978  27.738  25.223  1.00  0.00     0.245 C 
BRANCH   5   6
ATOM      6  N   UNL A   1      30.955  27.391  24.247  1.00  0.00    -0.325 N 
ATOM      7  C   UNL A   1      30.573  26.114  23.891  1.00  0.00     0.109 A 
ATOM      8  C   UNL A   1      30.063  28.318  23.729  1.00  0.00     0.049 A 
ATOM      9  C   UNL A   1      29.256  26.231  23.470  1.00  0.00     0.042 A 
ATOM     10  C   UNL A   1      28.911  27.601  23.414  1.00  0.00     0.000 A 
ATOM     11  C   UNL A   1      30.116  29.715  23.624  1.00  0.00     0.027 A 
ATOM     12  C   UNL A   1      27.729  28.297  23.120  1.00  0.00     0.010 A 
ATOM     13  C   UNL A   1      28.931  30.392  23.325  1.00  0.00     0.002 A 
ATOM     14  C   UNL A   1      27.746  29.695  23.108  1.00  0.00     0.001 A 
BRANCH   7  15
ATOM     15  C   UNL A   1      31.247  24.853  24.067  1.00  0.00     0.274 A 
ATOM     16  N   UNL A   1      31.007  23.668  23.503  1.00  0.00    -0.185 NA
ATOM     17  O   UNL A   1      32.194  24.770  25.047  1.00  0.00    -0.332 OA
ATOM     18  C   UNL A   1      31.816  22.811  24.262  1.00  0.00     0.202 A 
ATOM     19  N   UNL A   1      32.523  23.458  25.194  1.00  0.00    -0.057 NA
BRANCH  18  20
ATOM     20  C   UNL A   1      32.028  21.355  24.113  1.00  0.00     0.023 A 
ATOM     21  C   UNL A   1      32.443  20.639  25.257  1.00  0.00     0.013 A 
ATOM     22  C   UNL A   1      31.987  20.655  22.906  1.00  0.00     0.013 A 
ATOM     23  C   UNL A   1      32.954  19.343  25.192  1.00  0.00     0.014 A 
ATOM     24  C   UNL A   1      32.475  19.328  22.838  1.00  0.00     0.014 A 
ATOM     25  C   UNL A   1      33.012  18.681  23.970  1.00  0.00     0.056 A 
BRANCH  25  26
ATOM     26  C   UNL A   1      33.724  17.349  23.874  1.00  0.00     0.416 C 
ATOM     27  F   UNL A   1      34.713  17.230  24.803  1.00  0.00    -0.166 F 
ATOM     28  F   UNL A   1      32.906  16.274  24.047  1.00  0.00    -0.166 F 
ATOM     29  F   UNL A   1      34.328  17.161  22.665  1.00  0.00    -0.166 F 
ENDBRANCH  25  26
ENDBRANCH  18  20
ENDBRANCH   7  15
ENDBRANCH   5   6
ENDBRANCH   3   5
ENDBRANCH   2   3
ENDBRANCH   1   2
BRANCH   1  30
ATOM     30  C   UNL A   1      34.168  29.805  27.247  1.00  0.00     0.275 C 
BRANCH  30  31
ATOM     31  O   UNL A   1      35.101  30.896  27.285  1.00  0.00    -0.458 OA
BRANCH  31  32
ATOM     32  C   UNL A   1      35.204  31.509  28.502  1.00  0.00     0.338 C 
ATOM     33  O   UNL A   1      34.342  32.132  29.068  1.00  0.00    -0.246 OA
BRANCH  32  34
ATOM     34  C   UNL A   1      36.423  30.955  29.150  1.00  0.00     0.060 A 
ATOM     35  C   UNL A   1      37.564  31.724  29.362  1.00  0.00     0.016 A 
ATOM     36  C   UNL A   1      36.479  29.565  29.299  1.00  0.00     0.016 A 
ATOM     37  C   UNL A   1      38.787  31.077  29.571  1.00  0.00     0.010 A 
ATOM     38  C   UNL A   1      37.708  28.929  29.496  1.00  0.00     0.010 A 
ATOM     39  C   UNL A   1      38.892  29.673  29.536  1.00  0.00    -0.014 A 
BRANCH  39  40
ATOM     40  C   UNL A   1      40.246  29.060  29.485  1.00  0.00     0.031 A 
ATOM     41  C   UNL A   1      40.947  28.777  30.781  1.00  0.00     0.074 A 
ATOM     42  C   UNL A   1      40.921  28.709  28.362  1.00  0.00     0.049 A 
ATOM     43  N   UNL A   1      42.204  28.963  31.049  1.00  0.00    -0.248 NA
ATOM     44  C   UNL A   1      40.173  28.229  31.901  1.00  0.00     0.031 C 
ATOM     45  C   UNL A   1      40.460  28.714  26.971  1.00  0.00     0.029 A 
ATOM     46  N   UNL A   1      42.186  28.172  28.257  1.00  0.00    -0.354 N 
ATOM     47  C   UNL A   1      42.418  28.488  32.339  1.00  0.00     0.074 A 
ATOM     48  C   UNL A   1      41.119  28.081  32.830  1.00  0.00     0.031 C 
ATOM     49  C   UNL A   1      41.315  27.989  26.213  1.00  0.00     0.029 A 
ATOM     50  C   UNL A   1      42.462  27.614  27.022  1.00  0.00     0.049 A 
ATOM     51  H   UNL A   1      42.836  28.186  28.997  1.00  0.00     0.167 HD
ATOM     52  C   UNL A   1      43.645  28.394  32.933  1.00  0.00     0.031 A 
ATOM     53  C   UNL A   1      43.525  26.849  26.680  1.00  0.00     0.031 A 
ATOM     54  C   UNL A   1      44.713  29.181  32.344  1.00  0.00     0.049 A 
ATOM     55  C   UNL A   1      44.710  27.229  27.483  1.00  0.00     0.074 A 
ATOM     56  C   UNL A   1      45.677  30.080  32.774  1.00  0.00     0.029 A 
ATOM     57  N   UNL A   1      44.827  29.181  30.985  1.00  0.00    -0.354 N 
ATOM     58  N   UNL A   1      45.364  28.349  27.344  1.00  0.00    -0.248 NA
ATOM     59  C   UNL A   1      45.110  26.393  28.615  1.00  0.00     0.031 C 
ATOM     60  C   UNL A   1      46.429  30.512  31.638  1.00  0.00     0.029 A 
ATOM     61  C   UNL A   1      45.964  29.813  30.546  1.00  0.00     0.049 A 
ATOM     62  H   UNL A   1      44.163  28.771  30.384  1.00  0.00     0.167 HD
ATOM     63  C   UNL A   1      46.007  28.516  28.550  1.00  0.00     0.074 A 
ATOM     64  C   UNL A   1      45.938  27.231  29.236  1.00  0.00     0.031 C 
ATOM     65  C   UNL A   1      46.208  29.734  29.127  1.00  0.00     0.031 A 
BRANCH  52  66
ATOM     66  C   UNL A   1      43.916  27.417  34.059  1.00  0.00    -0.014 A 
ATOM     67  C   UNL A   1      44.097  26.036  33.821  1.00  0.00     0.010 A 
ATOM     68  C   UNL A   1      44.230  27.873  35.354  1.00  0.00     0.010 A 
ATOM     69  C   UNL A   1      44.504  25.152  34.826  1.00  0.00     0.020 A 
ATOM     70  C   UNL A   1      44.678  27.004  36.360  1.00  0.00     0.020 A 
ATOM     71  C   UNL A   1      44.802  25.645  36.092  1.00  0.00     0.054 A 
BRANCH  71  72
ATOM     72  S   UNL A   1      45.439  24.501  37.340  1.00  0.00     0.124 S 
ATOM     73  O   UNL A   1      46.820  24.953  37.488  1.00  0.00    -0.237 OA
ATOM     74  O   UNL A   1      44.567  24.760  38.483  1.00  0.00    -0.237 OA
ATOM     75  O   UNL A   1      45.277  23.187  36.722  1.00  0.00    -0.744 OA
ENDBRANCH  71  72
ENDBRANCH  52  66
BRANCH  53  76
ATOM     76  C   UNL A   1      43.474  25.540  25.975  1.00  0.00    -0.014 A 
ATOM     77  C   UNL A   1      42.655  24.502  26.461  1.00  0.00     0.010 A 
ATOM     78  C   UNL A   1      44.469  25.211  25.031  1.00  0.00     0.010 A 
ATOM     79  C   UNL A   1      42.881  23.173  26.094  1.00  0.00     0.020 A 
ATOM     80  C   UNL A   1      44.709  23.877  24.670  1.00  0.00     0.020 A 
ATOM     81  C   UNL A   1      43.934  22.865  25.234  1.00  0.00     0.054 A 
BRANCH  81  82
ATOM     82  S   UNL A   1      44.324  21.116  24.948  1.00  0.00     0.124 S 
ATOM     83  O   UNL A   1      44.472  21.072  23.496  1.00  0.00    -0.237 OA
ATOM     84  O   UNL A   1      45.557  20.941  25.710  1.00  0.00    -0.237 OA
ATOM     85  O   UNL A   1      43.161  20.409  25.479  1.00  0.00    -0.744 OA
ENDBRANCH  81  82
ENDBRANCH  53  76
BRANCH  65  86
ATOM     86  C   UNL A   1      46.410  30.974  28.313  1.00  0.00    -0.014 A 
ATOM     87  C   UNL A   1      45.305  31.825  28.129  1.00  0.00     0.010 A 
ATOM     88  C   UNL A   1      47.624  31.314  27.689  1.00  0.00     0.010 A 
ATOM     89  C   UNL A   1      45.393  32.964  27.326  1.00  0.00     0.020 A 
ATOM     90  C   UNL A   1      47.726  32.467  26.894  1.00  0.00     0.020 A 
ATOM     91  C   UNL A   1      46.602  33.274  26.701  1.00  0.00     0.054 A 
BRANCH  91  92
ATOM     92  S   UNL A   1      46.670  34.741  25.640  1.00  0.00     0.124 S 
ATOM     93  O   UNL A   1      46.552  35.827  26.611  1.00  0.00    -0.237 OA
ATOM     94  O   UNL A   1      47.975  34.619  24.994  1.00  0.00    -0.237 OA
ATOM     95  O   UNL A   1      45.523  34.589  24.746  1.00  0.00    -0.744 OA
ENDBRANCH  91  92
ENDBRANCH  65  86
ENDBRANCH  39  40
ENDBRANCH  32  34
ENDBRANCH  31  32
ENDBRANCH  30  31
ENDBRANCH   1  30
TORSDOF 18
ENDMDL
MODEL 3
REMARK VINA RESULT:     -12.1      8.909     14.854
REMARK SMILES O=C(Cn1c(-c2nc(-c3ccc(C(F)(F)F)cc3)no2)cc2ccccc21)OCCOC(=O)c1ccc(-c2c3nc(c(-c4ccc(S(=O)(=O)[O-])cc4)c4ccc([nH]4)c(-c4ccc(S(=O)(=O)[O-])cc4)c4nc(c(-c5ccc(S(=O)(=O)[O-])cc5)c5ccc2[nH]5)C=C4)C=C3)cc1
REMARK SMILES IDX 29 1 28 2 2 3 1 4 3 5 4 6 5 7 27 8 21 9 22 10 26 11 23 12
REMARK SMILES IDX 25 13 24 14 6 15 7 16 20 17 8 18 19 19 9 20 10 21 18 22
REMARK SMILES IDX 11 23 17 24 12 25 13 26 14 27 15 28 16 29 30 30 31 31 32 32
REMARK SMILES IDX 33 33 34 34 35 35 93 36 36 37 92 38 37 39 38 40 39 41 86 42
REMARK SMILES IDX 40 43 91 44 85 45 87 46 41 47 90 48 84 49 83 50 42 52 72 53
REMARK SMILES IDX 53 54 71 55 54 56 57 57 70 58 88 59 55 60 56 61 69 63 89 64
REMARK SMILES IDX 58 65 43 66 44 67 52 68 45 69 51 70 46 71 47 72 48 73 49 74
REMARK SMILES IDX 50 75 73 76 74 77 82 78 75 79 81 80 76 81 77 82 78 83 79 84
REMARK SMILES IDX 80 85 59 86 60 87 68 88 61 89 67 90 62 91 63 92 64 93 65 94
REMARK SMILES IDX 66 95
REMARK H PARENT 87 51 57 62
REMARK Flexibility Score: inf
ROOT
ATOM      1  C   UNL A   1      47.263  39.626  27.339  1.00  0.00     0.274 C 
ENDROOT
BRANCH   1   2
ATOM      2  O   UNL A   1      47.517  40.387  26.150  1.00  0.00    -0.461 OA
BRANCH   2   3
ATOM      3  C   UNL A   1      46.414  40.828  25.475  1.00  0.00     0.326 C 
ATOM      4  O   UNL A   1      46.205  40.461  24.328  1.00  0.00    -0.250 OA
BRANCH   3   5
ATOM      5  C   UNL A   1      45.682  41.938  26.215  1.00  0.00     0.245 C 
BRANCH   5   6
ATOM      6  N   UNL A   1      44.258  41.717  26.419  1.00  0.00    -0.325 N 
ATOM      7  C   UNL A   1      43.267  41.878  25.472  1.00  0.00     0.109 A 
ATOM      8  C   UNL A   1      43.747  41.078  27.540  1.00  0.00     0.049 A 
ATOM      9  C   UNL A   1      42.250  41.017  25.858  1.00  0.00     0.042 A 
ATOM     10  C   UNL A   1      42.564  40.473  27.125  1.00  0.00     0.000 A 
ATOM     11  C   UNL A   1      44.270  40.877  28.825  1.00  0.00     0.027 A 
ATOM     12  C   UNL A   1      41.949  39.526  27.959  1.00  0.00     0.010 A 
ATOM     13  C   UNL A   1      43.643  39.935  29.644  1.00  0.00     0.002 A 
ATOM     14  C   UNL A   1      42.517  39.245  29.205  1.00  0.00     0.001 A 
BRANCH   7  15
ATOM     15  C   UNL A   1      43.274  42.599  24.226  1.00  0.00     0.274 A 
ATOM     16  N   UNL A   1      42.921  42.198  23.003  1.00  0.00    -0.185 NA
ATOM     17  O   UNL A   1      43.844  43.840  24.213  1.00  0.00    -0.332 OA
ATOM     18  C   UNL A   1      43.392  43.249  22.201  1.00  0.00     0.202 A 
ATOM     19  N   UNL A   1      43.953  44.230  22.913  1.00  0.00    -0.057 NA
BRANCH  18  20
ATOM     20  C   UNL A   1      43.279  43.426  20.738  1.00  0.00     0.023 A 
ATOM     21  C   UNL A   1      44.090  44.415  20.140  1.00  0.00     0.013 A 
ATOM     22  C   UNL A   1      42.339  42.796  19.920  1.00  0.00     0.013 A 
ATOM     23  C   UNL A   1      43.878  44.883  18.843  1.00  0.00     0.014 A 
ATOM     24  C   UNL A   1      42.139  43.243  18.592  1.00  0.00     0.014 A 
ATOM     25  C   UNL A   1      42.870  44.327  18.062  1.00  0.00     0.056 A 
BRANCH  25  26
ATOM     26  C   UNL A   1      42.528  44.950  16.726  1.00  0.00     0.416 C 
ATOM     27  F   UNL A   1      43.034  46.210  16.606  1.00  0.00    -0.166 F 
ATOM     28  F   UNL A   1      42.994  44.248  15.656  1.00  0.00    -0.166 F 
ATOM     29  F   UNL A   1      41.184  45.072  16.530  1.00  0.00    -0.166 F 
ENDBRANCH  25  26
ENDBRANCH  18  20
ENDBRANCH   7  15
ENDBRANCH   5   6
ENDBRANCH   3   5
ENDBRANCH   2   3
ENDBRANCH   1   2
BRANCH   1  30
ATOM     30  C   UNL A   1      46.999  38.139  27.040  1.00  0.00     0.275 C 
BRANCH  30  31
ATOM     31  O   UNL A   1      45.690  37.744  27.477  1.00  0.00    -0.458 OA
BRANCH  31  32
ATOM     32  C   UNL A   1      45.426  36.411  27.336  1.00  0.00     0.338 C 
ATOM     33  O   UNL A   1      46.061  35.616  26.690  1.00  0.00    -0.246 OA
BRANCH  32  34
ATOM     34  C   UNL A   1      44.455  36.058  28.407  1.00  0.00     0.060 A 
ATOM     35  C   UNL A   1      44.863  35.574  29.647  1.00  0.00     0.016 A 
ATOM     36  C   UNL A   1      43.109  35.977  28.033  1.00  0.00     0.016 A 
ATOM     37  C   UNL A   1      43.944  34.875  30.436  1.00  0.00     0.010 A 
ATOM     38  C   UNL A   1      42.202  35.266  28.825  1.00  0.00     0.010 A 
ATOM     39  C   UNL A   1      42.632  34.622  29.989  1.00  0.00    -0.014 A 
BRANCH  39  40
ATOM     40  C   UNL A   1      41.799  33.645  30.739  1.00  0.00     0.031 A 
ATOM     41  C   UNL A   1      41.542  32.304  30.117  1.00  0.00     0.074 A 
ATOM     42  C   UNL A   1      41.247  33.841  31.963  1.00  0.00     0.049 A 
ATOM     43  N   UNL A   1      40.424  31.643  30.112  1.00  0.00    -0.248 NA
ATOM     44  C   UNL A   1      42.640  31.621  29.423  1.00  0.00     0.031 C 
ATOM     45  C   UNL A   1      41.431  34.963  32.887  1.00  0.00     0.029 A 
ATOM     46  N   UNL A   1      40.441  32.986  32.685  1.00  0.00    -0.354 N 
ATOM     47  C   UNL A   1      40.676  30.424  29.492  1.00  0.00     0.074 A 
ATOM     48  C   UNL A   1      42.054  30.482  29.053  1.00  0.00     0.031 C 
ATOM     49  C   UNL A   1      40.974  34.613  34.112  1.00  0.00     0.029 A 
ATOM     50  C   UNL A   1      40.317  33.321  34.021  1.00  0.00     0.049 A 
ATOM     51  H   UNL A   1      39.994  32.206  32.283  1.00  0.00     0.167 HD
ATOM     52  C   UNL A   1      39.776  29.400  29.409  1.00  0.00     0.031 A 
ATOM     53  C   UNL A   1      39.766  32.580  35.010  1.00  0.00     0.031 A 
ATOM     54  C   UNL A   1      38.382  29.740  29.630  1.00  0.00     0.049 A 
ATOM     55  C   UNL A   1      38.687  31.723  34.469  1.00  0.00     0.074 A 
ATOM     56  C   UNL A   1      37.167  29.539  28.994  1.00  0.00     0.029 A 
ATOM     57  N   UNL A   1      38.089  30.565  30.676  1.00  0.00    -0.354 N 
ATOM     58  N   UNL A   1      37.536  32.169  34.046  1.00  0.00    -0.248 NA
ATOM     59  C   UNL A   1      38.945  30.303  34.234  1.00  0.00     0.031 C 
ATOM     60  C   UNL A   1      36.144  30.173  29.764  1.00  0.00     0.029 A 
ATOM     61  C   UNL A   1      36.739  30.685  30.897  1.00  0.00     0.049 A 
ATOM     62  H   UNL A   1      38.773  31.026  31.213  1.00  0.00     0.167 HD
ATOM     63  C   UNL A   1      37.082  31.182  33.200  1.00  0.00     0.074 A 
ATOM     64  C   UNL A   1      37.904  30.006  33.460  1.00  0.00     0.031 C 
ATOM     65  C   UNL A   1      36.367  31.439  32.068  1.00  0.00     0.031 A 
BRANCH  52  66
ATOM     66  C   UNL A   1      40.216  27.960  29.234  1.00  0.00    -0.014 A 
ATOM     67  C   UNL A   1      39.312  26.946  28.848  1.00  0.00     0.010 A 
ATOM     68  C   UNL A   1      41.582  27.617  29.218  1.00  0.00     0.010 A 
ATOM     69  C   UNL A   1      39.734  25.650  28.529  1.00  0.00     0.020 A 
ATOM     70  C   UNL A   1      42.023  26.334  28.860  1.00  0.00     0.020 A 
ATOM     71  C   UNL A   1      41.092  25.354  28.529  1.00  0.00     0.054 A 
BRANCH  71  72
ATOM     72  S   UNL A   1      41.620  23.707  27.998  1.00  0.00     0.124 S 
ATOM     73  O   UNL A   1      42.482  24.017  26.860  1.00  0.00    -0.237 OA
ATOM     74  O   UNL A   1      42.304  23.196  29.182  1.00  0.00    -0.237 OA
ATOM     75  O   UNL A   1      40.369  23.032  27.664  1.00  0.00    -0.744 OA
ENDBRANCH  71  72
ENDBRANCH  52  66
BRANCH  53  76
ATOM     76  C   UNL A   1      40.383  32.281  36.331  1.00  0.00    -0.014 A 
ATOM     77  C   UNL A   1      39.817  32.798  37.512  1.00  0.00     0.010 A 
ATOM     78  C   UNL A   1      41.696  31.771  36.394  1.00  0.00     0.010 A 
ATOM     79  C   UNL A   1      40.563  32.892  38.690  1.00  0.00     0.020 A 
ATOM     80  C   UNL A   1      42.455  31.875  37.569  1.00  0.00     0.020 A 
ATOM     81  C   UNL A   1      41.892  32.469  38.698  1.00  0.00     0.054 A 
BRANCH  81  82
ATOM     82  S   UNL A   1      42.887  32.798  40.179  1.00  0.00     0.124 S 
ATOM     83  O   UNL A   1      42.385  31.792  41.112  1.00  0.00    -0.237 OA
ATOM     84  O   UNL A   1      44.249  32.581  39.697  1.00  0.00    -0.237 OA
ATOM     85  O   UNL A   1      42.562  34.182  40.516  1.00  0.00    -0.744 OA
ENDBRANCH  81  82
ENDBRANCH  53  76
BRANCH  65  86
ATOM     86  C   UNL A   1      35.438  32.608  31.965  1.00  0.00    -0.014 A 
ATOM     87  C   UNL A   1      35.438  33.342  30.764  1.00  0.00     0.010 A 
ATOM     88  C   UNL A   1      34.601  33.039  33.009  1.00  0.00     0.010 A 
ATOM     89  C   UNL A   1      34.651  34.486  30.614  1.00  0.00     0.020 A 
ATOM     90  C   UNL A   1      33.793  34.179  32.860  1.00  0.00     0.020 A 
ATOM     91  C   UNL A   1      33.840  34.907  31.670  1.00  0.00     0.054 A 
BRANCH  91  92
ATOM     92  S   UNL A   1      32.860  36.415  31.451  1.00  0.00     0.124 S 
ATOM     93  O   UNL A   1      32.619  36.417  30.009  1.00  0.00    -0.237 OA
ATOM     94  O   UNL A   1      31.683  36.165  32.280  1.00  0.00    -0.237 OA
ATOM     95  O   UNL A   1      33.734  37.484  31.929  1.00  0.00    -0.744 OA
ENDBRANCH  91  92
ENDBRANCH  65  86
ENDBRANCH  39  40
ENDBRANCH  32  34
ENDBRANCH  31  32
ENDBRANCH  30  31
ENDBRANCH   1  30
TORSDOF 18
ENDMDL
