MODEL 1
REMARK VINA RESULT:     -10.5      0.000      0.000
REMARK SMILES CN1C(=O)N(CC(=O)OCCOC(=O)c2ccc(-c3c4nc(c(-c5ccc(S(=O)(=O)[O-])cc5)c5ccc([nH]5)c(-c5ccc(S(=O)(=O)[O-])cc5)c5nc(c(-c6ccc(S(=O)(=O)[O-])cc6)c6ccc3[nH]6)C=C5)C=C4)cc2)C(=O)C12CCCCC2
REMARK SMILES IDX 11 1 10 2 9 3 7 4 8 5 6 6 5 7 1 8 2 9 3 10 77 11 4 12 75 13
REMARK SMILES IDX 78 14 82 15 76 16 79 17 81 18 80 19 12 20 13 21 14 22 15 23
REMARK SMILES IDX 16 24 74 25 17 26 73 27 18 28 19 29 20 30 67 31 21 32 72 33
REMARK SMILES IDX 66 34 68 35 22 36 71 37 65 38 64 39 23 41 53 42 34 43 52 44
REMARK SMILES IDX 35 45 38 46 51 47 69 48 36 49 37 50 50 52 70 53 39 54 24 55
REMARK SMILES IDX 25 56 33 57 26 58 32 59 27 60 28 61 29 62 30 63 31 64 54 65
REMARK SMILES IDX 55 66 63 67 56 68 62 69 57 70 58 71 59 72 60 73 61 74 40 75
REMARK SMILES IDX 41 76 49 77 42 78 48 79 43 80 44 81 45 82 46 83 47 84
REMARK H PARENT 68 40 38 51
REMARK Flexibility Score: inf
ROOT
ATOM      1  C   UNL A   1      37.238  21.912  24.578  1.00  0.00     0.275 C 
ENDROOT
BRANCH   1   2
ATOM      2  C   UNL A   1      35.755  21.727  24.893  1.00  0.00     0.274 C 
BRANCH   2   3
ATOM      3  O   UNL A   1      35.082  23.000  24.824  1.00  0.00    -0.461 OA
BRANCH   3   4
ATOM      4  C   UNL A   1      34.669  23.405  23.586  1.00  0.00     0.326 C 
ATOM      5  O   UNL A   1      35.316  23.253  22.556  1.00  0.00    -0.250 OA
BRANCH   4   6
ATOM      6  C   UNL A   1      33.284  24.056  23.596  1.00  0.00     0.253 C 
BRANCH   6   7
ATOM      7  N   UNL A   1      33.373  25.479  23.818  1.00  0.00    -0.251 N 
ATOM      8  C   UNL A   1      33.159  28.840  22.556  1.00  0.00     0.150 C 
ATOM      9  N   UNL A   1      33.318  27.656  23.374  1.00  0.00    -0.313 N 
ATOM     10  C   UNL A   1      33.492  26.398  22.823  1.00  0.00     0.327 C 
ATOM     11  C   UNL A   1      33.027  27.600  24.809  1.00  0.00     0.124 C 
ATOM     12  O   UNL A   1      33.668  26.146  21.641  1.00  0.00    -0.248 OA
ATOM     13  C   UNL A   1      33.177  26.077  25.021  1.00  0.00     0.257 C 
ATOM     14  C   UNL A   1      34.048  28.391  25.631  1.00  0.00     0.039 C 
ATOM     15  C   UNL A   1      31.580  27.998  25.130  1.00  0.00     0.039 C 
ATOM     16  O   UNL A   1      33.071  25.483  26.087  1.00  0.00    -0.272 OA
ATOM     17  C   UNL A   1      33.745  28.379  27.129  1.00  0.00     0.003 C 
ATOM     18  C   UNL A   1      31.284  27.963  26.631  1.00  0.00     0.003 C 
ATOM     19  C   UNL A   1      32.301  28.767  27.436  1.00  0.00     0.000 C 
ENDBRANCH   6   7
ENDBRANCH   4   6
ENDBRANCH   3   4
ENDBRANCH   2   3
ENDBRANCH   1   2
BRANCH   1  20
ATOM     20  O   UNL A   1      37.742  22.996  25.373  1.00  0.00    -0.458 OA
BRANCH  20  21
ATOM     21  C   UNL A   1      38.967  22.804  25.918  1.00  0.00     0.338 C 
ATOM     22  O   UNL A   1      39.624  21.777  25.891  1.00  0.00    -0.246 OA
BRANCH  21  23
ATOM     23  C   UNL A   1      39.358  24.029  26.650  1.00  0.00     0.060 A 
ATOM     24  C   UNL A   1      40.149  25.016  26.052  1.00  0.00     0.016 A 
ATOM     25  C   UNL A   1      38.942  24.178  27.972  1.00  0.00     0.016 A 
ATOM     26  C   UNL A   1      40.564  26.128  26.784  1.00  0.00     0.010 A 
ATOM     27  C   UNL A   1      39.294  25.328  28.680  1.00  0.00     0.010 A 
ATOM     28  C   UNL A   1      40.124  26.304  28.101  1.00  0.00    -0.014 A 
BRANCH  28  29
ATOM     29  C   UNL A   1      40.537  27.484  28.903  1.00  0.00     0.031 A 
ATOM     30  C   UNL A   1      41.839  27.451  29.657  1.00  0.00     0.074 A 
ATOM     31  C   UNL A   1      39.732  28.561  28.997  1.00  0.00     0.049 A 
ATOM     32  N   UNL A   1      42.284  28.269  30.575  1.00  0.00    -0.248 NA
ATOM     33  C   UNL A   1      42.752  26.340  29.344  1.00  0.00     0.031 C 
ATOM     34  C   UNL A   1      38.471  28.748  28.277  1.00  0.00     0.029 A 
ATOM     35  N   UNL A   1      39.853  29.700  29.753  1.00  0.00    -0.354 N 
ATOM     36  C   UNL A   1      43.508  27.749  30.982  1.00  0.00     0.074 A 
ATOM     37  C   UNL A   1      43.727  26.538  30.219  1.00  0.00     0.031 C 
ATOM     38  C   UNL A   1      37.943  29.934  28.615  1.00  0.00     0.029 A 
ATOM     39  C   UNL A   1      38.785  30.557  29.631  1.00  0.00     0.049 A 
ATOM     40  H   UNL A   1      40.631  29.886  30.328  1.00  0.00     0.167 HD
ATOM     41  C   UNL A   1      44.369  28.236  31.907  1.00  0.00     0.031 A 
ATOM     42  C   UNL A   1      38.493  31.694  30.291  1.00  0.00     0.031 A 
ATOM     43  C   UNL A   1      44.150  29.447  32.653  1.00  0.00     0.049 A 
ATOM     44  C   UNL A   1      39.427  32.180  31.365  1.00  0.00     0.074 A 
ATOM     45  C   UNL A   1      44.960  30.028  33.614  1.00  0.00     0.029 A 
ATOM     46  N   UNL A   1      43.039  30.268  32.518  1.00  0.00    -0.354 N 
ATOM     47  N   UNL A   1      40.561  31.657  31.768  1.00  0.00    -0.248 NA
ATOM     48  C   UNL A   1      39.035  33.402  32.081  1.00  0.00     0.031 C 
ATOM     49  C   UNL A   1      44.320  31.179  34.087  1.00  0.00     0.029 A 
ATOM     50  C   UNL A   1      43.137  31.342  33.385  1.00  0.00     0.049 A 
ATOM     51  H   UNL A   1      42.292  30.110  31.896  1.00  0.00     0.167 HD
ATOM     52  C   UNL A   1      41.032  32.502  32.767  1.00  0.00     0.074 A 
ATOM     53  C   UNL A   1      40.064  33.571  32.901  1.00  0.00     0.031 C 
ATOM     54  C   UNL A   1      42.165  32.401  33.504  1.00  0.00     0.031 A 
BRANCH  41  55
ATOM     55  C   UNL A   1      45.609  27.429  32.191  1.00  0.00    -0.014 A 
ATOM     56  C   UNL A   1      45.621  26.431  33.182  1.00  0.00     0.010 A 
ATOM     57  C   UNL A   1      46.778  27.666  31.444  1.00  0.00     0.010 A 
ATOM     58  C   UNL A   1      46.794  25.719  33.454  1.00  0.00     0.020 A 
ATOM     59  C   UNL A   1      47.945  26.939  31.696  1.00  0.00     0.020 A 
ATOM     60  C   UNL A   1      47.951  25.985  32.715  1.00  0.00     0.054 A 
BRANCH  60  61
ATOM     61  S   UNL A   1      49.460  25.050  33.089  1.00  0.00     0.124 S 
ATOM     62  O   UNL A   1      49.961  24.739  31.753  1.00  0.00    -0.237 OA
ATOM     63  O   UNL A   1      50.255  26.011  33.849  1.00  0.00    -0.237 OA
ATOM     64  O   UNL A   1      48.977  23.903  33.855  1.00  0.00    -0.744 OA
ENDBRANCH  60  61
ENDBRANCH  41  55
BRANCH  42  65
ATOM     65  C   UNL A   1      37.245  32.439  29.969  1.00  0.00    -0.014 A 
ATOM     66  C   UNL A   1      36.041  32.119  30.620  1.00  0.00     0.010 A 
ATOM     67  C   UNL A   1      37.258  33.486  29.030  1.00  0.00     0.010 A 
ATOM     68  C   UNL A   1      34.871  32.829  30.333  1.00  0.00     0.020 A 
ATOM     69  C   UNL A   1      36.097  34.215  28.759  1.00  0.00     0.020 A 
ATOM     70  C   UNL A   1      34.907  33.875  29.406  1.00  0.00     0.054 A 
BRANCH  70  71
ATOM     71  S   UNL A   1      33.392  34.823  29.096  1.00  0.00     0.124 S 
ATOM     72  O   UNL A   1      32.784  34.864  30.421  1.00  0.00    -0.237 OA
ATOM     73  O   UNL A   1      33.911  36.095  28.598  1.00  0.00    -0.237 OA
ATOM     74  O   UNL A   1      32.682  34.018  28.104  1.00  0.00    -0.744 OA
ENDBRANCH  70  71
ENDBRANCH  42  65
BRANCH  54  75
ATOM     75  C   UNL A   1      42.446  33.500  34.492  1.00  0.00    -0.014 A 
ATOM     76  C   UNL A   1      43.134  34.664  34.111  1.00  0.00     0.010 A 
ATOM     77  C   UNL A   1      41.962  33.386  35.808  1.00  0.00     0.010 A 
ATOM     78  C   UNL A   1      43.354  35.688  35.037  1.00  0.00     0.020 A 
ATOM     79  C   UNL A   1      42.159  34.417  36.730  1.00  0.00     0.020 A 
ATOM     80  C   UNL A   1      42.864  35.557  36.342  1.00  0.00     0.054 A 
BRANCH  80  81
ATOM     81  S   UNL A   1      43.116  36.921  37.511  1.00  0.00     0.124 S 
ATOM     82  O   UNL A   1      44.124  36.369  38.411  1.00  0.00    -0.237 OA
ATOM     83  O   UNL A   1      43.573  38.006  36.646  1.00  0.00    -0.237 OA
ATOM     84  O   UNL A   1      41.794  37.118  38.101  1.00  0.00    -0.744 OA
ENDBRANCH  80  81
ENDBRANCH  54  75
ENDBRANCH  28  29
ENDBRANCH  21  23
ENDBRANCH  20  21
ENDBRANCH   1  20
TORSDOF 15
ENDMDL
MODEL 2
REMARK VINA RESULT:     -10.5      3.182      9.592
REMARK SMILES CN1C(=O)N(CC(=O)OCCOC(=O)c2ccc(-c3c4nc(c(-c5ccc(S(=O)(=O)[O-])cc5)c5ccc([nH]5)c(-c5ccc(S(=O)(=O)[O-])cc5)c5nc(c(-c6ccc(S(=O)(=O)[O-])cc6)c6ccc3[nH]6)C=C5)C=C4)cc2)C(=O)C12CCCCC2
REMARK SMILES IDX 11 1 10 2 9 3 7 4 8 5 6 6 5 7 1 8 2 9 3 10 77 11 4 12 75 13
REMARK SMILES IDX 78 14 82 15 76 16 79 17 81 18 80 19 12 20 13 21 14 22 15 23
REMARK SMILES IDX 16 24 74 25 17 26 73 27 18 28 19 29 20 30 67 31 21 32 72 33
REMARK SMILES IDX 66 34 68 35 22 36 71 37 65 38 64 39 23 41 53 42 34 43 52 44
REMARK SMILES IDX 35 45 38 46 51 47 69 48 36 49 37 50 50 52 70 53 39 54 24 55
REMARK SMILES IDX 25 56 33 57 26 58 32 59 27 60 28 61 29 62 30 63 31 64 54 65
REMARK SMILES IDX 55 66 63 67 56 68 62 69 57 70 58 71 59 72 60 73 61 74 40 75
REMARK SMILES IDX 41 76 49 77 42 78 48 79 43 80 44 81 45 82 46 83 47 84
REMARK H PARENT 68 40 38 51
REMARK Flexibility Score: inf
ROOT
ATOM      1  C   UNL A   1      32.459  29.454  27.207  1.00  0.00     0.275 C 
ENDROOT
BRANCH   1   2
ATOM      2  C   UNL A   1      32.110  27.971  27.313  1.00  0.00     0.274 C 
BRANCH   2   3
ATOM      3  O   UNL A   1      31.709  27.473  26.020  1.00  0.00    -0.461 OA
BRANCH   3   4
ATOM      4  C   UNL A   1      32.439  26.435  25.513  1.00  0.00     0.326 C 
ATOM      5  O   UNL A   1      33.198  26.525  24.554  1.00  0.00    -0.250 OA
BRANCH   4   6
ATOM      6  C   UNL A   1      32.241  25.128  26.283  1.00  0.00     0.253 C 
BRANCH   6   7
ATOM      7  N   UNL A   1      32.680  23.990  25.512  1.00  0.00    -0.251 N 
ATOM      8  C   UNL A   1      32.290  21.830  22.663  1.00  0.00     0.150 C 
ATOM      9  N   UNL A   1      32.728  22.484  23.878  1.00  0.00    -0.313 N 
ATOM     10  C   UNL A   1      31.921  23.371  24.568  1.00  0.00     0.327 C 
ATOM     11  C   UNL A   1      34.118  22.519  24.341  1.00  0.00     0.124 C 
ATOM     12  O   UNL A   1      30.745  23.604  24.340  1.00  0.00    -0.248 OA
ATOM     13  C   UNL A   1      33.951  23.513  25.513  1.00  0.00     0.257 C 
ATOM     14  C   UNL A   1      34.596  21.147  24.824  1.00  0.00     0.039 C 
ATOM     15  C   UNL A   1      35.066  23.140  23.305  1.00  0.00     0.039 C 
ATOM     16  O   UNL A   1      34.832  23.873  26.284  1.00  0.00    -0.272 OA
ATOM     17  C   UNL A   1      36.055  21.150  25.277  1.00  0.00     0.003 C 
ATOM     18  C   UNL A   1      36.521  23.154  23.779  1.00  0.00     0.003 C 
ATOM     19  C   UNL A   1      36.987  21.778  24.243  1.00  0.00     0.000 C 
ENDBRANCH   6   7
ENDBRANCH   4   6
ENDBRANCH   3   4
ENDBRANCH   2   3
ENDBRANCH   1   2
BRANCH   1  20
ATOM     20  O   UNL A   1      33.885  29.582  27.119  1.00  0.00    -0.458 OA
BRANCH  20  21
ATOM     21  C   UNL A   1      34.448  30.472  27.972  1.00  0.00     0.338 C 
ATOM     22  O   UNL A   1      33.946  31.503  28.385  1.00  0.00    -0.246 OA
BRANCH  21  23
ATOM     23  C   UNL A   1      35.834  30.041  28.260  1.00  0.00     0.060 A 
ATOM     24  C   UNL A   1      36.213  29.606  29.534  1.00  0.00     0.016 A 
ATOM     25  C   UNL A   1      36.778  30.100  27.236  1.00  0.00     0.016 A 
ATOM     26  C   UNL A   1      37.541  29.273  29.801  1.00  0.00     0.010 A 
ATOM     27  C   UNL A   1      38.089  29.694  27.484  1.00  0.00     0.010 A 
ATOM     28  C   UNL A   1      38.490  29.295  28.772  1.00  0.00    -0.014 A 
BRANCH  28  29
ATOM     29  C   UNL A   1      39.909  28.934  29.019  1.00  0.00     0.031 A 
ATOM     30  C   UNL A   1      40.860  29.975  29.544  1.00  0.00     0.074 A 
ATOM     31  C   UNL A   1      40.357  27.696  28.733  1.00  0.00     0.049 A 
ATOM     32  N   UNL A   1      42.165  29.938  29.626  1.00  0.00    -0.248 NA
ATOM     33  C   UNL A   1      40.261  31.230  30.026  1.00  0.00     0.031 C 
ATOM     34  C   UNL A   1      39.534  26.576  28.272  1.00  0.00     0.029 A 
ATOM     35  N   UNL A   1      41.627  27.176  28.777  1.00  0.00    -0.354 N 
ATOM     36  C   UNL A   1      42.547  31.177  30.126  1.00  0.00     0.074 A 
ATOM     37  C   UNL A   1      41.337  31.948  30.315  1.00  0.00     0.031 C 
ATOM     38  C   UNL A   1      40.316  25.501  28.089  1.00  0.00     0.029 A 
ATOM     39  C   UNL A   1      41.703  25.873  28.343  1.00  0.00     0.049 A 
ATOM     40  H   UNL A   1      42.409  27.688  29.088  1.00  0.00     0.167 HD
ATOM     41  C   UNL A   1      43.793  31.631  30.400  1.00  0.00     0.031 A 
ATOM     42  C   UNL A   1      42.771  25.080  28.134  1.00  0.00     0.031 A 
ATOM     43  C   UNL A   1      44.992  30.854  30.220  1.00  0.00     0.049 A 
ATOM     44  C   UNL A   1      44.151  25.627  28.376  1.00  0.00     0.074 A 
ATOM     45  C   UNL A   1      46.303  31.221  30.469  1.00  0.00     0.029 A 
ATOM     46  N   UNL A   1      45.024  29.549  29.751  1.00  0.00    -0.354 N 
ATOM     47  N   UNL A   1      44.501  26.814  28.812  1.00  0.00    -0.248 NA
ATOM     48  C   UNL A   1      45.279  24.730  28.090  1.00  0.00     0.031 C 
ATOM     49  C   UNL A   1      47.131  30.150  30.113  1.00  0.00     0.029 A 
ATOM     50  C   UNL A   1      46.331  29.100  29.691  1.00  0.00     0.049 A 
ATOM     51  H   UNL A   1      44.233  29.020  29.499  1.00  0.00     0.167 HD
ATOM     52  C   UNL A   1      45.890  26.799  28.875  1.00  0.00     0.074 A 
ATOM     53  C   UNL A   1      46.313  25.483  28.441  1.00  0.00     0.031 C 
ATOM     54  C   UNL A   1      46.736  27.785  29.259  1.00  0.00     0.031 A 
BRANCH  41  55
ATOM     55  C   UNL A   1      43.921  33.051  30.885  1.00  0.00    -0.014 A 
ATOM     56  C   UNL A   1      43.786  33.374  32.248  1.00  0.00     0.010 A 
ATOM     57  C   UNL A   1      44.194  34.079  29.963  1.00  0.00     0.010 A 
ATOM     58  C   UNL A   1      43.871  34.704  32.672  1.00  0.00     0.020 A 
ATOM     59  C   UNL A   1      44.305  35.406  30.387  1.00  0.00     0.020 A 
ATOM     60  C   UNL A   1      44.121  35.713  31.737  1.00  0.00     0.054 A 
BRANCH  60  61
ATOM     61  S   UNL A   1      44.224  37.430  32.312  1.00  0.00     0.124 S 
ATOM     62  O   UNL A   1      43.299  37.425  33.442  1.00  0.00    -0.237 OA
ATOM     63  O   UNL A   1      45.636  37.570  32.658  1.00  0.00    -0.237 OA
ATOM     64  O   UNL A   1      43.790  38.210  31.156  1.00  0.00    -0.744 OA
ENDBRANCH  60  61
ENDBRANCH  41  55
BRANCH  42  65
ATOM     65  C   UNL A   1      42.576  23.689  27.643  1.00  0.00    -0.014 A 
ATOM     66  C   UNL A   1      42.457  23.432  26.267  1.00  0.00     0.010 A 
ATOM     67  C   UNL A   1      42.533  22.611  28.547  1.00  0.00     0.010 A 
ATOM     68  C   UNL A   1      42.291  22.123  25.802  1.00  0.00     0.020 A 
ATOM     69  C   UNL A   1      42.394  21.299  28.084  1.00  0.00     0.020 A 
ATOM     70  C   UNL A   1      42.264  21.065  26.714  1.00  0.00     0.054 A 
BRANCH  70  71
ATOM     71  S   UNL A   1      42.112  19.370  26.085  1.00  0.00     0.124 S 
ATOM     72  O   UNL A   1      40.688  19.287  25.779  1.00  0.00    -0.237 OA
ATOM     73  O   UNL A   1      43.007  19.380  24.929  1.00  0.00    -0.237 OA
ATOM     74  O   UNL A   1      42.563  18.547  27.204  1.00  0.00    -0.744 OA
ENDBRANCH  70  71
ENDBRANCH  42  65
BRANCH  54  75
ATOM     75  C   UNL A   1      48.206  27.466  29.275  1.00  0.00    -0.014 A 
ATOM     76  C   UNL A   1      49.001  27.638  28.129  1.00  0.00     0.010 A 
ATOM     77  C   UNL A   1      48.809  27.042  30.473  1.00  0.00     0.010 A 
ATOM     78  C   UNL A   1      50.372  27.368  28.175  1.00  0.00     0.020 A 
ATOM     79  C   UNL A   1      50.182  26.793  30.529  1.00  0.00     0.020 A 
ATOM     80  C   UNL A   1      50.954  26.947  29.376  1.00  0.00     0.054 A 
BRANCH  80  81
ATOM     81  S   UNL A   1      52.743  26.654  29.426  1.00  0.00     0.124 S 
ATOM     82  O   UNL A   1      52.971  25.944  28.170  1.00  0.00    -0.237 OA
ATOM     83  O   UNL A   1      53.290  28.007  29.491  1.00  0.00    -0.237 OA
ATOM     84  O   UNL A   1      52.928  25.856  30.636  1.00  0.00    -0.744 OA
ENDBRANCH  80  81
ENDBRANCH  54  75
ENDBRANCH  28  29
ENDBRANCH  21  23
ENDBRANCH  20  21
ENDBRANCH   1  20
TORSDOF 15
ENDMDL
MODEL 3
REMARK VINA RESULT:     -10.4      3.154      9.498
REMARK SMILES CN1C(=O)N(CC(=O)OCCOC(=O)c2ccc(-c3c4nc(c(-c5ccc(S(=O)(=O)[O-])cc5)c5ccc([nH]5)c(-c5ccc(S(=O)(=O)[O-])cc5)c5nc(c(-c6ccc(S(=O)(=O)[O-])cc6)c6ccc3[nH]6)C=C5)C=C4)cc2)C(=O)C12CCCCC2
REMARK SMILES IDX 11 1 10 2 9 3 7 4 8 5 6 6 5 7 1 8 2 9 3 10 77 11 4 12 75 13
REMARK SMILES IDX 78 14 82 15 76 16 79 17 81 18 80 19 12 20 13 21 14 22 15 23
REMARK SMILES IDX 16 24 74 25 17 26 73 27 18 28 19 29 20 30 67 31 21 32 72 33
REMARK SMILES IDX 66 34 68 35 22 36 71 37 65 38 64 39 23 41 53 42 34 43 52 44
REMARK SMILES IDX 35 45 38 46 51 47 69 48 36 49 37 50 50 52 70 53 39 54 24 55
REMARK SMILES IDX 25 56 33 57 26 58 32 59 27 60 28 61 29 62 30 63 31 64 54 65
REMARK SMILES IDX 55 66 63 67 56 68 62 69 57 70 58 71 59 72 60 73 61 74 40 75
REMARK SMILES IDX 41 76 49 77 42 78 48 79 43 80 44 81 45 82 46 83 47 84
REMARK H PARENT 68 40 38 51
REMARK Flexibility Score: inf
ROOT
ATOM      1  C   UNL A   1      32.493  29.679  27.007  1.00  0.00     0.275 C 
ENDROOT
BRANCH   1   2
ATOM      2  C   UNL A   1      32.176  30.029  25.554  1.00  0.00     0.274 C 
BRANCH   2   3
ATOM      3  O   UNL A   1      32.130  28.824  24.764  1.00  0.00    -0.461 OA
BRANCH   3   4
ATOM      4  C   UNL A   1      31.034  28.660  23.964  1.00  0.00     0.326 C 
ATOM      5  O   UNL A   1      30.145  29.493  23.830  1.00  0.00    -0.250 OA
BRANCH   4   6
ATOM      6  C   UNL A   1      31.029  27.327  23.215  1.00  0.00     0.253 C 
BRANCH   6   7
ATOM      7  N   UNL A   1      31.547  26.259  24.037  1.00  0.00    -0.251 N 
ATOM      8  C   UNL A   1      30.972  23.438  26.192  1.00  0.00     0.150 C 
ATOM      9  N   UNL A   1      31.549  24.491  25.384  1.00  0.00    -0.313 N 
ATOM     10  C   UNL A   1      30.810  25.581  24.956  1.00  0.00     0.327 C 
ATOM     11  C   UNL A   1      32.842  24.393  24.700  1.00  0.00     0.124 C 
ATOM     12  O   UNL A   1      29.672  25.860  25.299  1.00  0.00    -0.248 OA
ATOM     13  C   UNL A   1      32.771  25.695  23.872  1.00  0.00     0.257 C 
ATOM     14  C   UNL A   1      34.014  24.409  25.685  1.00  0.00     0.039 C 
ATOM     15  C   UNL A   1      32.904  23.201  23.734  1.00  0.00     0.039 C 
ATOM     16  O   UNL A   1      33.644  26.126  23.129  1.00  0.00    -0.272 OA
ATOM     17  C   UNL A   1      35.371  24.268  24.998  1.00  0.00     0.003 C 
ATOM     18  C   UNL A   1      34.261  23.084  23.038  1.00  0.00     0.003 C 
ATOM     19  C   UNL A   1      35.418  23.087  24.033  1.00  0.00     0.000 C 
ENDBRANCH   6   7
ENDBRANCH   4   6
ENDBRANCH   3   4
ENDBRANCH   2   3
ENDBRANCH   1   2
BRANCH   1  20
ATOM     20  O   UNL A   1      33.917  29.591  27.155  1.00  0.00    -0.458 OA
BRANCH  20  21
ATOM     21  C   UNL A   1      34.479  30.504  27.983  1.00  0.00     0.338 C 
ATOM     22  O   UNL A   1      33.978  31.548  28.364  1.00  0.00    -0.246 OA
BRANCH  21  23
ATOM     23  C   UNL A   1      35.863  30.078  28.290  1.00  0.00     0.060 A 
ATOM     24  C   UNL A   1      36.229  29.654  29.572  1.00  0.00     0.016 A 
ATOM     25  C   UNL A   1      36.817  30.130  27.276  1.00  0.00     0.016 A 
ATOM     26  C   UNL A   1      37.554  29.326  29.855  1.00  0.00     0.010 A 
ATOM     27  C   UNL A   1      38.127  29.728  27.541  1.00  0.00     0.010 A 
ATOM     28  C   UNL A   1      38.514  29.341  28.836  1.00  0.00    -0.014 A 
BRANCH  28  29
ATOM     29  C   UNL A   1      39.931  28.984  29.102  1.00  0.00     0.031 A 
ATOM     30  C   UNL A   1      40.867  30.023  29.657  1.00  0.00     0.074 A 
ATOM     31  C   UNL A   1      40.391  27.753  28.806  1.00  0.00     0.049 A 
ATOM     32  N   UNL A   1      42.171  29.992  29.760  1.00  0.00    -0.248 NA
ATOM     33  C   UNL A   1      40.253  31.268  30.146  1.00  0.00     0.031 C 
ATOM     34  C   UNL A   1      39.582  26.635  28.316  1.00  0.00     0.029 A 
ATOM     35  N   UNL A   1      41.663  27.240  28.863  1.00  0.00    -0.354 N 
ATOM     36  C   UNL A   1      42.537  31.226  30.283  1.00  0.00     0.074 A 
ATOM     37  C   UNL A   1      41.320  31.988  30.463  1.00  0.00     0.031 C 
ATOM     38  C   UNL A   1      40.373  25.567  28.131  1.00  0.00     0.029 A 
ATOM     39  C   UNL A   1      41.754  25.944  28.413  1.00  0.00     0.049 A 
ATOM     40  H   UNL A   1      42.437  27.751  29.195  1.00  0.00     0.167 HD
ATOM     41  C   UNL A   1      43.777  31.684  30.584  1.00  0.00     0.031 A 
ATOM     42  C   UNL A   1      42.830  25.159  28.210  1.00  0.00     0.031 A 
ATOM     43  C   UNL A   1      44.982  30.916  30.413  1.00  0.00     0.049 A 
ATOM     44  C   UNL A   1      44.202  25.710  28.483  1.00  0.00     0.074 A 
ATOM     45  C   UNL A   1      46.287  31.287  30.689  1.00  0.00     0.029 A 
ATOM     46  N   UNL A   1      45.030  29.617  29.927  1.00  0.00    -0.354 N 
ATOM     47  N   UNL A   1      44.538  26.894  28.940  1.00  0.00    -0.248 NA
ATOM     48  C   UNL A   1      45.340  24.825  28.202  1.00  0.00     0.031 C 
ATOM     49  C   UNL A   1      47.127  30.226  30.331  1.00  0.00     0.029 A 
ATOM     50  C   UNL A   1      46.340  29.177  29.882  1.00  0.00     0.049 A 
ATOM     51  H   UNL A   1      44.246  29.088  29.654  1.00  0.00     0.167 HD
ATOM     52  C   UNL A   1      45.926  26.885  29.026  1.00  0.00     0.074 A 
ATOM     53  C   UNL A   1      46.364  25.578  28.581  1.00  0.00     0.031 C 
ATOM     54  C   UNL A   1      46.760  27.870  29.438  1.00  0.00     0.031 A 
BRANCH  41  55
ATOM     55  C   UNL A   1      43.888  33.097  31.091  1.00  0.00    -0.014 A 
ATOM     56  C   UNL A   1      43.854  33.386  32.468  1.00  0.00     0.010 A 
ATOM     57  C   UNL A   1      44.042  34.154  30.175  1.00  0.00     0.010 A 
ATOM     58  C   UNL A   1      43.921  34.709  32.915  1.00  0.00     0.020 A 
ATOM     59  C   UNL A   1      44.136  35.476  30.620  1.00  0.00     0.020 A 
ATOM     60  C   UNL A   1      44.053  35.747  31.987  1.00  0.00     0.054 A 
BRANCH  60  61
ATOM     61  S   UNL A   1      44.136  37.455  32.593  1.00  0.00     0.124 S 
ATOM     62  O   UNL A   1      43.074  37.470  33.597  1.00  0.00    -0.237 OA
ATOM     63  O   UNL A   1      45.496  37.546  33.117  1.00  0.00    -0.237 OA
ATOM     64  O   UNL A   1      43.876  38.259  31.401  1.00  0.00    -0.744 OA
ENDBRANCH  60  61
ENDBRANCH  41  55
BRANCH  42  65
ATOM     65  C   UNL A   1      42.651  23.774  27.697  1.00  0.00    -0.014 A 
ATOM     66  C   UNL A   1      42.462  22.705  28.591  1.00  0.00     0.010 A 
ATOM     67  C   UNL A   1      42.643  23.518  26.314  1.00  0.00     0.010 A 
ATOM     68  C   UNL A   1      42.277  21.405  28.111  1.00  0.00     0.020 A 
ATOM     69  C   UNL A   1      42.431  22.224  25.830  1.00  0.00     0.020 A 
ATOM     70  C   UNL A   1      42.259  21.174  26.732  1.00  0.00     0.054 A 
BRANCH  70  71
ATOM     71  S   UNL A   1      41.953  19.489  26.132  1.00  0.00     0.124 S 
ATOM     72  O   UNL A   1      42.403  18.679  27.259  1.00  0.00    -0.237 OA
ATOM     73  O   UNL A   1      40.511  19.495  25.893  1.00  0.00    -0.237 OA
ATOM     74  O   UNL A   1      42.776  19.401  24.928  1.00  0.00    -0.744 OA
ENDBRANCH  70  71
ENDBRANCH  42  65
BRANCH  54  75
ATOM     75  C   UNL A   1      48.231  27.559  29.473  1.00  0.00    -0.014 A 
ATOM     76  C   UNL A   1      49.039  27.726  28.335  1.00  0.00     0.010 A 
ATOM     77  C   UNL A   1      48.822  27.149  30.682  1.00  0.00     0.010 A 
ATOM     78  C   UNL A   1      50.411  27.464  28.399  1.00  0.00     0.020 A 
ATOM     79  C   UNL A   1      50.196  26.909  30.756  1.00  0.00     0.020 A 
ATOM     80  C   UNL A   1      50.981  27.057  29.611  1.00  0.00     0.054 A 
BRANCH  80  81
ATOM     81  S   UNL A   1      52.770  26.773  29.683  1.00  0.00     0.124 S 
ATOM     82  O   UNL A   1      53.280  28.110  29.976  1.00  0.00    -0.237 OA
ATOM     83  O   UNL A   1      52.899  25.801  30.766  1.00  0.00    -0.237 OA
ATOM     84  O   UNL A   1      53.092  26.261  28.353  1.00  0.00    -0.744 OA
ENDBRANCH  80  81
ENDBRANCH  54  75
ENDBRANCH  28  29
ENDBRANCH  21  23
ENDBRANCH  20  21
ENDBRANCH   1  20
TORSDOF 15
ENDMDL
