MODEL 1
REMARK VINA RESULT:     -10.4      0.000      0.000
REMARK SMILES CCc1c(C)nc(Nc2ccc(Cl)cc2Cl)nc1OCC(=O)OCCOC(=O)c1ccc(-c2c3nc(c(-c4ccc(S(=O)(=O)[O-])cc4)c4ccc([nH]4)c(-c4ccc(S(=O)(=O)[O-])cc4)c4nc(c(-c5ccc(S(=O)(=O)[O-])cc5)c5ccc2[nH]5)C=C4)C=C3)cc1
REMARK SMILES IDX 24 1 23 2 21 3 22 4 20 5 19 6 18 7 3 8 4 9 5 10 6 11 17 12
REMARK SMILES IDX 7 13 2 14 1 15 8 16 9 18 10 19 15 20 11 21 14 22 16 23 12 24
REMARK SMILES IDX 13 25 25 26 26 27 27 28 28 29 29 30 30 31 88 32 31 33 87 34
REMARK SMILES IDX 32 35 33 36 34 37 81 38 35 39 86 40 80 41 82 42 36 43 85 44
REMARK SMILES IDX 79 45 78 46 37 48 67 49 48 50 66 51 49 52 52 53 65 54 83 55
REMARK SMILES IDX 50 56 51 57 64 59 84 60 53 61 38 62 39 63 47 64 40 65 46 66
REMARK SMILES IDX 41 67 42 68 43 69 44 70 45 71 68 72 69 73 77 74 70 75 76 76
REMARK SMILES IDX 71 77 72 78 73 79 74 80 75 81 54 82 55 83 63 84 56 85 62 86
REMARK SMILES IDX 57 87 58 88 59 89 60 90 61 91
REMARK H PARENT 8 17 82 47 52 58
REMARK Flexibility Score: inf
ROOT
ATOM      1  C   UNL A   1      32.323  30.940  26.537  1.00  0.00     0.274 C 
ENDROOT
BRANCH   1   2
ATOM      2  O   UNL A   1      33.135  30.095  27.396  1.00  0.00    -0.460 OA
BRANCH   2   3
ATOM      3  C   UNL A   1      34.232  29.541  26.814  1.00  0.00     0.344 C 
ATOM      4  O   UNL A   1      35.368  29.616  27.278  1.00  0.00    -0.248 OA
BRANCH   3   5
ATOM      5  C   UNL A   1      33.916  28.699  25.557  1.00  0.00     0.353 C 
BRANCH   5   6
ATOM      6  O   UNL A   1      33.555  27.349  25.515  1.00  0.00    -0.465 OA
BRANCH   6   7
ATOM      7  C   UNL A   1      33.537  26.568  24.415  1.00  0.00     0.222 A 
ATOM      8  C   UNL A   1      32.751  26.649  23.269  1.00  0.00     0.035 A 
ATOM      9  C   UNL A   1      33.115  25.729  22.276  1.00  0.00     0.050 A 
ATOM     10  C   UNL A   1      32.543  25.619  20.896  1.00  0.00     0.067 C 
ATOM     11  N   UNL A   1      34.038  24.770  22.479  1.00  0.00    -0.218 NA
ATOM     12  N   UNL A   1      34.372  25.530  24.648  1.00  0.00    -0.177 NA
ATOM     13  C   UNL A   1      34.556  24.631  23.691  1.00  0.00     0.230 A 
BRANCH   8  14
ATOM     14  C   UNL A   1      31.470  27.443  23.155  1.00  0.00     0.040 C 
ATOM     15  C   UNL A   1      30.155  26.750  23.435  1.00  0.00     0.009 C 
ENDBRANCH   8  14
BRANCH  13  16
ATOM     16  N   UNL A   1      35.211  23.444  24.017  1.00  0.00    -0.323 N 
ATOM     17  H   UNL A   1      36.191  23.482  24.107  1.00  0.00     0.170 HD
BRANCH  16  18
ATOM     18  C   UNL A   1      34.598  22.198  24.229  1.00  0.00     0.060 A 
ATOM     19  C   UNL A   1      33.200  22.099  24.139  1.00  0.00     0.029 A 
ATOM     20  C   UNL A   1      35.317  21.068  24.659  1.00  0.00     0.066 A 
ATOM     21  C   UNL A   1      32.540  20.908  24.433  1.00  0.00     0.023 A 
ATOM     22  C   UNL A   1      34.659  19.876  24.975  1.00  0.00     0.043 A 
ATOM     23  Cl  UNL A   1      37.035  21.131  24.848  1.00  0.00    -0.082 Cl
ATOM     24  C   UNL A   1      33.273  19.801  24.852  1.00  0.00     0.042 A 
ATOM     25  Cl  UNL A   1      32.452  18.335  25.221  1.00  0.00    -0.084 Cl
ENDBRANCH  16  18
ENDBRANCH  13  16
ENDBRANCH   6   7
ENDBRANCH   5   6
ENDBRANCH   3   5
ENDBRANCH   2   3
ENDBRANCH   1   2
BRANCH   1  26
ATOM     26  C   UNL A   1      32.116  32.315  27.201  1.00  0.00     0.275 C 
BRANCH  26  27
ATOM     27  O   UNL A   1      33.388  32.972  27.419  1.00  0.00    -0.458 OA
BRANCH  27  28
ATOM     28  C   UNL A   1      33.453  33.833  28.473  1.00  0.00     0.338 C 
ATOM     29  O   UNL A   1      32.584  34.645  28.775  1.00  0.00    -0.246 OA
BRANCH  28  30
ATOM     30  C   UNL A   1      34.658  33.559  29.319  1.00  0.00     0.060 A 
ATOM     31  C   UNL A   1      35.858  34.203  29.065  1.00  0.00     0.016 A 
ATOM     32  C   UNL A   1      34.659  32.535  30.275  1.00  0.00     0.016 A 
ATOM     33  C   UNL A   1      37.060  33.685  29.560  1.00  0.00     0.010 A 
ATOM     34  C   UNL A   1      35.858  32.140  30.914  1.00  0.00     0.010 A 
ATOM     35  C   UNL A   1      37.097  32.692  30.547  1.00  0.00    -0.014 A 
BRANCH  35  36
ATOM     36  C   UNL A   1      38.390  32.308  31.223  1.00  0.00     0.031 A 
ATOM     37  C   UNL A   1      39.277  31.199  30.682  1.00  0.00     0.074 A 
ATOM     38  C   UNL A   1      38.788  32.930  32.361  1.00  0.00     0.049 A 
ATOM     39  N   UNL A   1      40.187  30.486  31.303  1.00  0.00    -0.248 NA
ATOM     40  C   UNL A   1      39.130  30.853  29.258  1.00  0.00     0.031 C 
ATOM     41  C   UNL A   1      38.145  34.095  32.985  1.00  0.00     0.029 A 
ATOM     42  N   UNL A   1      39.832  32.657  33.222  1.00  0.00    -0.354 N 
ATOM     43  C   UNL A   1      40.678  29.572  30.369  1.00  0.00     0.074 A 
ATOM     44  C   UNL A   1      39.976  29.835  29.129  1.00  0.00     0.031 C 
ATOM     45  C   UNL A   1      38.819  34.455  34.080  1.00  0.00     0.029 A 
ATOM     46  C   UNL A   1      39.821  33.445  34.354  1.00  0.00     0.049 A 
ATOM     47  H   UNL A   1      40.514  31.970  33.045  1.00  0.00     0.167 HD
ATOM     48  C   UNL A   1      41.610  28.599  30.540  1.00  0.00     0.031 A 
ATOM     49  C   UNL A   1      40.435  33.320  35.547  1.00  0.00     0.031 A 
ATOM     50  C   UNL A   1      42.313  28.365  31.781  1.00  0.00     0.049 A 
ATOM     51  C   UNL A   1      41.320  32.137  35.783  1.00  0.00     0.074 A 
ATOM     52  C   UNL A   1      43.236  27.375  32.081  1.00  0.00     0.029 A 
ATOM     53  N   UNL A   1      42.186  29.142  32.922  1.00  0.00    -0.354 N 
ATOM     54  N   UNL A   1      41.667  31.193  34.943  1.00  0.00    -0.248 NA
ATOM     55  C   UNL A   1      41.871  31.985  37.135  1.00  0.00     0.031 C 
ATOM     56  C   UNL A   1      43.621  27.522  33.418  1.00  0.00     0.029 A 
ATOM     57  C   UNL A   1      42.992  28.643  33.931  1.00  0.00     0.049 A 
ATOM     58  H   UNL A   1      41.606  29.934  33.003  1.00  0.00     0.167 HD
ATOM     59  C   UNL A   1      42.501  30.346  35.661  1.00  0.00     0.074 A 
ATOM     60  C   UNL A   1      42.619  30.900  36.994  1.00  0.00     0.031 C 
ATOM     61  C   UNL A   1      43.108  29.207  35.251  1.00  0.00     0.031 A 
BRANCH  48  62
ATOM     62  C   UNL A   1      41.900  27.659  29.390  1.00  0.00    -0.014 A 
ATOM     63  C   UNL A   1      43.092  27.737  28.648  1.00  0.00     0.010 A 
ATOM     64  C   UNL A   1      40.999  26.611  29.109  1.00  0.00     0.010 A 
ATOM     65  C   UNL A   1      43.364  26.807  27.636  1.00  0.00     0.020 A 
ATOM     66  C   UNL A   1      41.277  25.664  28.116  1.00  0.00     0.020 A 
ATOM     67  C   UNL A   1      42.454  25.775  27.376  1.00  0.00     0.054 A 
BRANCH  67  68
ATOM     68  S   UNL A   1      42.848  24.564  26.080  1.00  0.00     0.124 S 
ATOM     69  O   UNL A   1      41.857  23.521  26.331  1.00  0.00    -0.237 OA
ATOM     70  O   UNL A   1      42.653  25.333  24.854  1.00  0.00    -0.237 OA
ATOM     71  O   UNL A   1      44.231  24.188  26.363  1.00  0.00    -0.744 OA
ENDBRANCH  67  68
ENDBRANCH  48  62
BRANCH  49  72
ATOM     72  C   UNL A   1      40.119  34.271  36.654  1.00  0.00    -0.014 A 
ATOM     73  C   UNL A   1      40.807  35.490  36.774  1.00  0.00     0.010 A 
ATOM     74  C   UNL A   1      39.122  33.955  37.600  1.00  0.00     0.010 A 
ATOM     75  C   UNL A   1      40.519  36.362  37.828  1.00  0.00     0.020 A 
ATOM     76  C   UNL A   1      38.800  34.844  38.628  1.00  0.00     0.020 A 
ATOM     77  C   UNL A   1      39.517  36.034  38.746  1.00  0.00     0.054 A 
BRANCH  77  78
ATOM     78  S   UNL A   1      39.142  37.195  40.089  1.00  0.00     0.124 S 
ATOM     79  O   UNL A   1      38.401  36.350  41.018  1.00  0.00    -0.237 OA
ATOM     80  O   UNL A   1      40.472  37.609  40.528  1.00  0.00    -0.237 OA
ATOM     81  O   UNL A   1      38.360  38.238  39.429  1.00  0.00    -0.744 OA
ENDBRANCH  77  78
ENDBRANCH  49  72
BRANCH  61  82
ATOM     82  C   UNL A   1      44.002  28.522  36.246  1.00  0.00    -0.014 A 
ATOM     83  C   UNL A   1      43.599  27.343  36.897  1.00  0.00     0.010 A 
ATOM     84  C   UNL A   1      45.273  29.060  36.518  1.00  0.00     0.010 A 
ATOM     85  C   UNL A   1      44.440  26.732  37.830  1.00  0.00     0.020 A 
ATOM     86  C   UNL A   1      46.128  28.436  37.428  1.00  0.00     0.020 A 
ATOM     87  C   UNL A   1      45.700  27.282  38.088  1.00  0.00     0.054 A 
BRANCH  87  88
ATOM     88  S   UNL A   1      46.790  26.444  39.271  1.00  0.00     0.124 S 
ATOM     89  O   UNL A   1      48.113  26.847  38.803  1.00  0.00    -0.237 OA
ATOM     90  O   UNL A   1      46.373  27.017  40.548  1.00  0.00    -0.237 OA
ATOM     91  O   UNL A   1      46.471  25.030  39.094  1.00  0.00    -0.744 OA
ENDBRANCH  87  88
ENDBRANCH  61  82
ENDBRANCH  35  36
ENDBRANCH  28  30
ENDBRANCH  27  28
ENDBRANCH  26  27
ENDBRANCH   1  26
TORSDOF 19
ENDMDL
MODEL 2
REMARK VINA RESULT:     -10.3      6.753      9.140
REMARK SMILES CCc1c(C)nc(Nc2ccc(Cl)cc2Cl)nc1OCC(=O)OCCOC(=O)c1ccc(-c2c3nc(c(-c4ccc(S(=O)(=O)[O-])cc4)c4ccc([nH]4)c(-c4ccc(S(=O)(=O)[O-])cc4)c4nc(c(-c5ccc(S(=O)(=O)[O-])cc5)c5ccc2[nH]5)C=C4)C=C3)cc1
REMARK SMILES IDX 24 1 23 2 21 3 22 4 20 5 19 6 18 7 3 8 4 9 5 10 6 11 17 12
REMARK SMILES IDX 7 13 2 14 1 15 8 16 9 18 10 19 15 20 11 21 14 22 16 23 12 24
REMARK SMILES IDX 13 25 25 26 26 27 27 28 28 29 29 30 30 31 88 32 31 33 87 34
REMARK SMILES IDX 32 35 33 36 34 37 81 38 35 39 86 40 80 41 82 42 36 43 85 44
REMARK SMILES IDX 79 45 78 46 37 48 67 49 48 50 66 51 49 52 52 53 65 54 83 55
REMARK SMILES IDX 50 56 51 57 64 59 84 60 53 61 38 62 39 63 47 64 40 65 46 66
REMARK SMILES IDX 41 67 42 68 43 69 44 70 45 71 68 72 69 73 77 74 70 75 76 76
REMARK SMILES IDX 71 77 72 78 73 79 74 80 75 81 54 82 55 83 63 84 56 85 62 86
REMARK SMILES IDX 57 87 58 88 59 89 60 90 61 91
REMARK H PARENT 8 17 82 47 52 58
REMARK Flexibility Score: inf
ROOT
ATOM      1  C   UNL A   1      34.681  31.114  28.360  1.00  0.00     0.274 C 
ENDROOT
BRANCH   1   2
ATOM      2  O   UNL A   1      33.727  30.453  27.485  1.00  0.00    -0.460 OA
BRANCH   2   3
ATOM      3  C   UNL A   1      32.666  31.207  27.090  1.00  0.00     0.344 C 
ATOM      4  O   UNL A   1      32.505  32.384  27.404  1.00  0.00    -0.248 OA
BRANCH   3   5
ATOM      5  C   UNL A   1      31.718  30.485  26.107  1.00  0.00     0.353 C 
BRANCH   5   6
ATOM      6  O   UNL A   1      30.927  31.072  25.114  1.00  0.00    -0.465 OA
BRANCH   6   7
ATOM      7  C   UNL A   1      30.296  30.417  24.116  1.00  0.00     0.222 A 
ATOM      8  C   UNL A   1      29.272  30.839  23.273  1.00  0.00     0.035 A 
ATOM      9  C   UNL A   1      28.963  29.914  22.265  1.00  0.00     0.050 A 
ATOM     10  C   UNL A   1      27.988  30.098  21.143  1.00  0.00     0.067 C 
ATOM     11  N   UNL A   1      29.507  28.684  22.217  1.00  0.00    -0.218 NA
ATOM     12  N   UNL A   1      30.744  29.142  24.129  1.00  0.00    -0.177 NA
ATOM     13  C   UNL A   1      30.296  28.297  23.211  1.00  0.00     0.230 A 
BRANCH   8  14
ATOM     14  C   UNL A   1      28.381  32.033  23.526  1.00  0.00     0.040 C 
ATOM     15  C   UNL A   1      28.843  33.398  23.066  1.00  0.00     0.009 C 
ENDBRANCH   8  14
BRANCH  13  16
ATOM     16  N   UNL A   1      30.562  26.938  23.375  1.00  0.00    -0.323 N 
ATOM     17  H   UNL A   1      29.852  26.307  23.115  1.00  0.00     0.170 HD
BRANCH  16  18
ATOM     18  C   UNL A   1      31.753  26.390  23.878  1.00  0.00     0.060 A 
ATOM     19  C   UNL A   1      32.775  26.036  22.983  1.00  0.00     0.029 A 
ATOM     20  C   UNL A   1      31.915  26.055  25.235  1.00  0.00     0.066 A 
ATOM     21  C   UNL A   1      33.935  25.402  23.425  1.00  0.00     0.023 A 
ATOM     22  C   UNL A   1      33.067  25.401  25.682  1.00  0.00     0.043 A 
ATOM     23  Cl  UNL A   1      30.674  26.408  26.387  1.00  0.00    -0.082 Cl
ATOM     24  C   UNL A   1      34.075  25.086  24.773  1.00  0.00     0.042 A 
ATOM     25  Cl  UNL A   1      35.506  24.297  25.311  1.00  0.00    -0.084 Cl
ENDBRANCH  16  18
ENDBRANCH  13  16
ENDBRANCH   6   7
ENDBRANCH   5   6
ENDBRANCH   3   5
ENDBRANCH   2   3
ENDBRANCH   1   2
BRANCH   1  26
ATOM     26  C   UNL A   1      36.108  30.931  27.809  1.00  0.00     0.275 C 
BRANCH  26  27
ATOM     27  O   UNL A   1      36.564  29.573  28.016  1.00  0.00    -0.458 OA
BRANCH  27  28
ATOM     28  C   UNL A   1      37.459  29.380  29.025  1.00  0.00     0.338 C 
ATOM     29  O   UNL A   1      37.171  29.040  30.167  1.00  0.00    -0.246 OA
BRANCH  28  30
ATOM     30  C   UNL A   1      38.867  29.481  28.523  1.00  0.00     0.060 A 
ATOM     31  C   UNL A   1      39.142  29.372  27.170  1.00  0.00     0.016 A 
ATOM     32  C   UNL A   1      39.954  29.522  29.407  1.00  0.00     0.016 A 
ATOM     33  C   UNL A   1      40.435  29.066  26.731  1.00  0.00     0.010 A 
ATOM     34  C   UNL A   1      41.281  29.399  28.931  1.00  0.00     0.010 A 
ATOM     35  C   UNL A   1      41.549  29.139  27.576  1.00  0.00    -0.014 A 
BRANCH  35  36
ATOM     36  C   UNL A   1      42.953  29.024  27.034  1.00  0.00     0.031 A 
ATOM     37  C   UNL A   1      43.515  27.699  26.545  1.00  0.00     0.074 A 
ATOM     38  C   UNL A   1      43.770  30.106  26.992  1.00  0.00     0.049 A 
ATOM     39  N   UNL A   1      44.766  27.326  26.413  1.00  0.00    -0.248 NA
ATOM     40  C   UNL A   1      42.548  26.663  26.144  1.00  0.00     0.031 C 
ATOM     41  C   UNL A   1      43.394  31.491  27.304  1.00  0.00     0.029 A 
ATOM     42  N   UNL A   1      45.111  30.213  26.685  1.00  0.00    -0.354 N 
ATOM     43  C   UNL A   1      44.740  26.003  25.974  1.00  0.00     0.074 A 
ATOM     44  C   UNL A   1      43.343  25.641  25.842  1.00  0.00     0.031 C 
ATOM     45  C   UNL A   1      44.445  32.298  27.134  1.00  0.00     0.029 A 
ATOM     46  C   UNL A   1      45.616  31.480  26.892  1.00  0.00     0.049 A 
ATOM     47  H   UNL A   1      45.652  29.461  26.351  1.00  0.00     0.167 HD
ATOM     48  C   UNL A   1      45.782  25.168  25.723  1.00  0.00     0.031 A 
ATOM     49  C   UNL A   1      46.876  31.942  27.014  1.00  0.00     0.031 A 
ATOM     50  C   UNL A   1      47.170  25.554  25.843  1.00  0.00     0.049 A 
ATOM     51  C   UNL A   1      48.011  30.972  26.918  1.00  0.00     0.074 A 
ATOM     52  C   UNL A   1      48.304  24.775  25.666  1.00  0.00     0.029 A 
ATOM     53  N   UNL A   1      47.614  26.831  26.150  1.00  0.00    -0.354 N 
ATOM     54  N   UNL A   1      47.974  29.691  26.646  1.00  0.00    -0.248 NA
ATOM     55  C   UNL A   1      49.355  31.505  27.175  1.00  0.00     0.031 C 
ATOM     56  C   UNL A   1      49.427  25.569  25.923  1.00  0.00     0.029 A 
ATOM     57  C   UNL A   1      48.998  26.858  26.191  1.00  0.00     0.049 A 
ATOM     58  H   UNL A   1      47.029  27.606  26.315  1.00  0.00     0.167 HD
ATOM     59  C   UNL A   1      49.297  29.268  26.674  1.00  0.00     0.074 A 
ATOM     60  C   UNL A   1      50.107  30.432  26.970  1.00  0.00     0.031 C 
ATOM     61  C   UNL A   1      49.793  28.023  26.479  1.00  0.00     0.031 A 
BRANCH  48  62
ATOM     62  C   UNL A   1      45.490  23.730  25.351  1.00  0.00    -0.014 A 
ATOM     63  C   UNL A   1      45.352  23.322  24.013  1.00  0.00     0.010 A 
ATOM     64  C   UNL A   1      45.450  22.749  26.362  1.00  0.00     0.010 A 
ATOM     65  C   UNL A   1      45.154  21.971  23.697  1.00  0.00     0.020 A 
ATOM     66  C   UNL A   1      45.278  21.395  26.051  1.00  0.00     0.020 A 
ATOM     67  C   UNL A   1      45.119  21.015  24.718  1.00  0.00     0.054 A 
BRANCH  67  68
ATOM     68  S   UNL A   1      44.893  19.267  24.276  1.00  0.00     0.124 S 
ATOM     69  O   UNL A   1      46.227  18.721  24.517  1.00  0.00    -0.237 OA
ATOM     70  O   UNL A   1      43.859  18.832  25.211  1.00  0.00    -0.237 OA
ATOM     71  O   UNL A   1      44.484  19.311  22.875  1.00  0.00    -0.744 OA
ENDBRANCH  67  68
ENDBRANCH  48  62
BRANCH  49  72
ATOM     72  C   UNL A   1      47.117  33.368  27.382  1.00  0.00    -0.014 A 
ATOM     73  C   UNL A   1      47.288  34.348  26.391  1.00  0.00     0.010 A 
ATOM     74  C   UNL A   1      47.179  33.753  28.738  1.00  0.00     0.010 A 
ATOM     75  C   UNL A   1      47.536  35.677  26.746  1.00  0.00     0.020 A 
ATOM     76  C   UNL A   1      47.383  35.086  29.097  1.00  0.00     0.020 A 
ATOM     77  C   UNL A   1      47.581  36.037  28.097  1.00  0.00     0.054 A 
BRANCH  77  78
ATOM     78  S   UNL A   1      47.876  37.773  28.533  1.00  0.00     0.124 S 
ATOM     79  O   UNL A   1      47.366  37.830  29.899  1.00  0.00    -0.237 OA
ATOM     80  O   UNL A   1      49.325  37.891  28.391  1.00  0.00    -0.237 OA
ATOM     81  O   UNL A   1      47.098  38.511  27.541  1.00  0.00    -0.744 OA
ENDBRANCH  77  78
ENDBRANCH  49  72
BRANCH  61  82
ATOM     82  C   UNL A   1      51.288  27.876  26.520  1.00  0.00    -0.014 A 
ATOM     83  C   UNL A   1      52.069  28.041  25.363  1.00  0.00     0.010 A 
ATOM     84  C   UNL A   1      51.920  27.585  27.743  1.00  0.00     0.010 A 
ATOM     85  C   UNL A   1      53.455  27.883  25.421  1.00  0.00     0.020 A 
ATOM     86  C   UNL A   1      53.308  27.455  27.810  1.00  0.00     0.020 A 
ATOM     87  C   UNL A   1      54.066  27.593  26.645  1.00  0.00     0.054 A 
BRANCH  87  88
ATOM     88  S   UNL A   1      55.872  27.438  26.702  1.00  0.00     0.124 S 
ATOM     89  O   UNL A   1      56.222  27.436  25.284  1.00  0.00    -0.237 OA
ATOM     90  O   UNL A   1      56.270  28.629  27.448  1.00  0.00    -0.237 OA
ATOM     91  O   UNL A   1      56.089  26.172  27.397  1.00  0.00    -0.744 OA
ENDBRANCH  87  88
ENDBRANCH  61  82
ENDBRANCH  35  36
ENDBRANCH  28  30
ENDBRANCH  27  28
ENDBRANCH  26  27
ENDBRANCH   1  26
TORSDOF 19
ENDMDL
MODEL 3
REMARK VINA RESULT:     -10.3      6.053     11.917
REMARK SMILES CCc1c(C)nc(Nc2ccc(Cl)cc2Cl)nc1OCC(=O)OCCOC(=O)c1ccc(-c2c3nc(c(-c4ccc(S(=O)(=O)[O-])cc4)c4ccc([nH]4)c(-c4ccc(S(=O)(=O)[O-])cc4)c4nc(c(-c5ccc(S(=O)(=O)[O-])cc5)c5ccc2[nH]5)C=C4)C=C3)cc1
REMARK SMILES IDX 24 1 23 2 21 3 22 4 20 5 19 6 18 7 3 8 4 9 5 10 6 11 17 12
REMARK SMILES IDX 7 13 2 14 1 15 8 16 9 18 10 19 15 20 11 21 14 22 16 23 12 24
REMARK SMILES IDX 13 25 25 26 26 27 27 28 28 29 29 30 30 31 88 32 31 33 87 34
REMARK SMILES IDX 32 35 33 36 34 37 81 38 35 39 86 40 80 41 82 42 36 43 85 44
REMARK SMILES IDX 79 45 78 46 37 48 67 49 48 50 66 51 49 52 52 53 65 54 83 55
REMARK SMILES IDX 50 56 51 57 64 59 84 60 53 61 38 62 39 63 47 64 40 65 46 66
REMARK SMILES IDX 41 67 42 68 43 69 44 70 45 71 68 72 69 73 77 74 70 75 76 76
REMARK SMILES IDX 71 77 72 78 73 79 74 80 75 81 54 82 55 83 63 84 56 85 62 86
REMARK SMILES IDX 57 87 58 88 59 89 60 90 61 91
REMARK H PARENT 8 17 82 47 52 58
REMARK Flexibility Score: inf
ROOT
ATOM      1  C   UNL A   1      38.215  20.396  24.970  1.00  0.00     0.274 C 
ENDROOT
BRANCH   1   2
ATOM      2  O   UNL A   1      37.424  21.527  24.516  1.00  0.00    -0.460 OA
BRANCH   2   3
ATOM      3  C   UNL A   1      36.080  21.419  24.696  1.00  0.00     0.344 C 
ATOM      4  O   UNL A   1      35.505  20.365  24.960  1.00  0.00    -0.248 OA
BRANCH   3   5
ATOM      5  C   UNL A   1      35.332  22.771  24.651  1.00  0.00     0.353 C 
BRANCH   5   6
ATOM      6  O   UNL A   1      34.896  23.530  25.741  1.00  0.00    -0.465 OA
BRANCH   6   7
ATOM      7  C   UNL A   1      33.611  23.803  26.051  1.00  0.00     0.222 A 
ATOM      8  C   UNL A   1      32.512  22.955  26.150  1.00  0.00     0.035 A 
ATOM      9  C   UNL A   1      31.357  23.592  26.626  1.00  0.00     0.050 A 
ATOM     10  C   UNL A   1      30.041  22.951  26.941  1.00  0.00     0.067 C 
ATOM     11  N   UNL A   1      31.291  24.921  26.824  1.00  0.00    -0.218 NA
ATOM     12  N   UNL A   1      33.498  25.147  26.137  1.00  0.00    -0.177 NA
ATOM     13  C   UNL A   1      32.326  25.671  26.470  1.00  0.00     0.230 A 
BRANCH   8  14
ATOM     14  C   UNL A   1      32.444  21.559  25.576  1.00  0.00     0.040 C 
ATOM     15  C   UNL A   1      32.128  21.389  24.106  1.00  0.00     0.009 C 
ENDBRANCH   8  14
BRANCH  13  16
ATOM     16  N   UNL A   1      32.148  27.045  26.315  1.00  0.00    -0.323 N 
ATOM     17  H   UNL A   1      32.619  27.633  26.951  1.00  0.00     0.170 HD
BRANCH  16  18
ATOM     18  C   UNL A   1      31.357  27.666  25.335  1.00  0.00     0.060 A 
ATOM     19  C   UNL A   1      30.658  26.870  24.414  1.00  0.00     0.029 A 
ATOM     20  C   UNL A   1      31.340  29.061  25.153  1.00  0.00     0.066 A 
ATOM     21  C   UNL A   1      29.937  27.441  23.366  1.00  0.00     0.023 A 
ATOM     22  C   UNL A   1      30.635  29.639  24.094  1.00  0.00     0.043 A 
ATOM     23  Cl  UNL A   1      32.223  30.102  26.215  1.00  0.00    -0.082 Cl
ATOM     24  C   UNL A   1      29.931  28.824  23.211  1.00  0.00     0.042 A 
ATOM     25  Cl  UNL A   1      29.045  29.523  21.912  1.00  0.00    -0.084 Cl
ENDBRANCH  16  18
ENDBRANCH  13  16
ENDBRANCH   6   7
ENDBRANCH   5   6
ENDBRANCH   3   5
ENDBRANCH   2   3
ENDBRANCH   1   2
BRANCH   1  26
ATOM     26  C   UNL A   1      39.322  20.882  25.926  1.00  0.00     0.275 C 
BRANCH  26  27
ATOM     27  O   UNL A   1      40.240  19.806  26.232  1.00  0.00    -0.458 OA
BRANCH  27  28
ATOM     28  C   UNL A   1      41.555  20.034  25.957  1.00  0.00     0.338 C 
ATOM     29  O   UNL A   1      42.266  19.313  25.264  1.00  0.00    -0.246 OA
BRANCH  28  30
ATOM     30  C   UNL A   1      41.992  21.368  26.481  1.00  0.00     0.060 A 
ATOM     31  C   UNL A   1      42.252  22.415  25.612  1.00  0.00     0.016 A 
ATOM     32  C   UNL A   1      42.310  21.550  27.834  1.00  0.00     0.016 A 
ATOM     33  C   UNL A   1      43.024  23.506  26.026  1.00  0.00     0.010 A 
ATOM     34  C   UNL A   1      42.925  22.744  28.279  1.00  0.00     0.010 A 
ATOM     35  C   UNL A   1      43.324  23.742  27.374  1.00  0.00    -0.014 A 
BRANCH  35  36
ATOM     36  C   UNL A   1      43.963  25.035  27.819  1.00  0.00     0.031 A 
ATOM     37  C   UNL A   1      43.138  26.184  28.374  1.00  0.00     0.074 A 
ATOM     38  C   UNL A   1      45.303  25.218  27.710  1.00  0.00     0.049 A 
ATOM     39  N   UNL A   1      43.435  27.460  28.445  1.00  0.00    -0.248 NA
ATOM     40  C   UNL A   1      41.814  25.857  28.931  1.00  0.00     0.031 C 
ATOM     41  C   UNL A   1      46.289  24.206  27.312  1.00  0.00     0.029 A 
ATOM     42  N   UNL A   1      46.078  26.343  27.908  1.00  0.00    -0.354 N 
ATOM     43  C   UNL A   1      42.321  28.095  28.994  1.00  0.00     0.074 A 
ATOM     44  C   UNL A   1      41.345  27.057  29.258  1.00  0.00     0.031 C 
ATOM     45  C   UNL A   1      47.517  24.731  27.337  1.00  0.00     0.029 A 
ATOM     46  C   UNL A   1      47.400  26.158  27.559  1.00  0.00     0.049 A 
ATOM     47  H   UNL A   1      45.724  27.189  28.263  1.00  0.00     0.167 HD
ATOM     48  C   UNL A   1      42.129  29.418  29.237  1.00  0.00     0.031 A 
ATOM     49  C   UNL A   1      48.398  27.027  27.307  1.00  0.00     0.031 A 
ATOM     50  C   UNL A   1      43.122  30.437  28.983  1.00  0.00     0.049 A 
ATOM     51  C   UNL A   1      48.116  28.494  27.400  1.00  0.00     0.074 A 
ATOM     52  C   UNL A   1      43.015  31.810  29.140  1.00  0.00     0.029 A 
ATOM     53  N   UNL A   1      44.413  30.191  28.539  1.00  0.00    -0.354 N 
ATOM     54  N   UNL A   1      47.016  29.095  27.780  1.00  0.00    -0.248 NA
ATOM     55  C   UNL A   1      49.202  29.399  27.001  1.00  0.00     0.031 C 
ATOM     56  C   UNL A   1      44.220  32.395  28.737  1.00  0.00     0.029 A 
ATOM     57  C   UNL A   1      45.102  31.384  28.394  1.00  0.00     0.049 A 
ATOM     58  H   UNL A   1      44.784  29.299  28.352  1.00  0.00     0.167 HD
ATOM     59  C   UNL A   1      47.286  30.454  27.690  1.00  0.00     0.074 A 
ATOM     60  C   UNL A   1      48.657  30.584  27.240  1.00  0.00     0.031 C 
ATOM     61  C   UNL A   1      46.467  31.501  27.952  1.00  0.00     0.031 A 
BRANCH  48  62
ATOM     62  C   UNL A   1      40.780  29.876  29.748  1.00  0.00    -0.014 A 
ATOM     63  C   UNL A   1      40.562  30.177  31.104  1.00  0.00     0.010 A 
ATOM     64  C   UNL A   1      39.733  30.103  28.831  1.00  0.00     0.010 A 
ATOM     65  C   UNL A   1      39.322  30.668  31.534  1.00  0.00     0.020 A 
ATOM     66  C   UNL A   1      38.501  30.617  29.251  1.00  0.00     0.020 A 
ATOM     67  C   UNL A   1      38.298  30.885  30.605  1.00  0.00     0.054 A 
BRANCH  67  68
ATOM     68  S   UNL A   1      36.712  31.553  31.187  1.00  0.00     0.124 S 
ATOM     69  O   UNL A   1      35.778  31.016  30.200  1.00  0.00    -0.237 OA
ATOM     70  O   UNL A   1      36.599  30.987  32.529  1.00  0.00    -0.237 OA
ATOM     71  O   UNL A   1      36.903  33.000  31.138  1.00  0.00    -0.744 OA
ENDBRANCH  67  68
ENDBRANCH  48  62
BRANCH  49  72
ATOM     72  C   UNL A   1      49.713  26.531  26.804  1.00  0.00    -0.014 A 
ATOM     73  C   UNL A   1      49.986  26.486  25.428  1.00  0.00     0.010 A 
ATOM     74  C   UNL A   1      50.704  26.097  27.710  1.00  0.00     0.010 A 
ATOM     75  C   UNL A   1      51.212  25.998  24.966  1.00  0.00     0.020 A 
ATOM     76  C   UNL A   1      51.946  25.652  27.256  1.00  0.00     0.020 A 
ATOM     77  C   UNL A   1      52.184  25.586  25.883  1.00  0.00     0.054 A 
BRANCH  77  78
ATOM     78  S   UNL A   1      53.779  24.983  25.262  1.00  0.00     0.124 S 
ATOM     79  O   UNL A   1      53.809  25.547  23.916  1.00  0.00    -0.237 OA
ATOM     80  O   UNL A   1      54.725  25.558  26.213  1.00  0.00    -0.237 OA
ATOM     81  O   UNL A   1      53.644  23.530  25.330  1.00  0.00    -0.744 OA
ENDBRANCH  77  78
ENDBRANCH  49  72
BRANCH  61  82
ATOM     82  C   UNL A   1      47.059  32.875  27.813  1.00  0.00    -0.014 A 
ATOM     83  C   UNL A   1      46.991  33.578  26.598  1.00  0.00     0.010 A 
ATOM     84  C   UNL A   1      47.680  33.475  28.924  1.00  0.00     0.010 A 
ATOM     85  C   UNL A   1      47.562  34.848  26.487  1.00  0.00     0.020 A 
ATOM     86  C   UNL A   1      48.226  34.756  28.824  1.00  0.00     0.020 A 
ATOM     87  C   UNL A   1      48.175  35.429  27.602  1.00  0.00     0.054 A 
BRANCH  87  88
ATOM     88  S   UNL A   1      48.870  37.096  27.442  1.00  0.00     0.124 S 
ATOM     89  O   UNL A   1      48.403  37.495  26.118  1.00  0.00    -0.237 OA
ATOM     90  O   UNL A   1      48.259  37.804  28.565  1.00  0.00    -0.237 OA
ATOM     91  O   UNL A   1      50.310  36.883  27.557  1.00  0.00    -0.744 OA
ENDBRANCH  87  88
ENDBRANCH  61  82
ENDBRANCH  35  36
ENDBRANCH  28  30
ENDBRANCH  27  28
ENDBRANCH  26  27
ENDBRANCH   1  26
TORSDOF 19
ENDMDL
