MODEL 1
REMARK VINA RESULT:     -12.2      0.000      0.000
REMARK SMILES C[C@H]1[C@H](C)CC[C@@]2(C(=O)OCCOC(=O)c3ccc(-c4c5nc(c(-c6ccc(S(=O)(=O)[O-])cc6)c6ccc([nH]6)c(-c6ccc(S(=O)(=O)[O-])cc6)c6nc(c(-c7ccc(S(=O)(=O)[O-])cc7)c7ccc4[nH]7)C=C6)C=C5)cc3)CC[C@@]3(C)C(=CC[C@@H]4[C@@]5(C)CC[C@H](O)C(C)(C)[C@@H]5CC[C@]43C)[C@H]12
REMARK SMILES IDX 12 1 11 2 10 3 8 4 9 5 7 6 1 7 2 8 3 9 98 10 4 11 5 12 80 13
REMARK SMILES IDX 6 14 76 15 78 16 81 17 77 18 79 19 96 20 82 21 83 22 95 23
REMARK SMILES IDX 97 24 84 25 94 26 85 27 86 28 93 29 87 30 90 31 88 32 91 33
REMARK SMILES IDX 92 34 89 35 13 37 14 38 15 39 16 40 17 41 75 42 18 43 74 44
REMARK SMILES IDX 19 45 20 46 21 47 68 48 22 49 73 50 67 51 69 52 23 53 72 54
REMARK SMILES IDX 66 55 65 56 24 58 54 59 35 60 53 61 36 62 39 63 52 64 70 65
REMARK SMILES IDX 37 66 38 67 51 69 71 70 40 71 25 72 26 73 34 74 27 75 33 76
REMARK SMILES IDX 28 77 29 78 30 79 31 80 32 81 55 82 56 83 64 84 57 85 63 86
REMARK SMILES IDX 58 87 59 88 60 89 61 90 62 91 41 92 42 93 50 94 43 95 49 96
REMARK SMILES IDX 44 97 45 98 46 99 47 100 48 101
REMARK H PARENT 89 36 69 57 39 68
REMARK Flexibility Score: inf
ROOT
ATOM      1  C   UNL A   1      37.741  24.161  26.201  1.00  0.00     0.275 C 
ENDROOT
BRANCH   1   2
ATOM      2  C   UNL A   1      36.682  23.116  26.595  1.00  0.00     0.274 C 
BRANCH   2   3
ATOM      3  O   UNL A   1      35.346  23.298  26.075  1.00  0.00    -0.462 OA
BRANCH   3   4
ATOM      4  C   UNL A   1      34.724  22.134  25.743  1.00  0.00     0.312 C 
ATOM      5  O   UNL A   1      34.020  21.550  26.538  1.00  0.00    -0.252 OA
BRANCH   4   6
ATOM      6  C   UNL A   1      35.148  21.510  24.394  1.00  0.00     0.075 C 
ATOM      7  C   UNL A   1      32.117  19.225  23.375  1.00  0.00     0.008 C 
ATOM      8  C   UNL A   1      33.265  19.756  24.249  1.00  0.00    -0.003 C 
ATOM      9  C   UNL A   1      34.340  18.633  24.432  1.00  0.00    -0.011 C 
ATOM     10  C   UNL A   1      33.858  21.079  23.633  1.00  0.00     0.036 C 
ATOM     11  C   UNL A   1      33.798  17.419  25.204  1.00  0.00     0.008 C 
ATOM     12  C   UNL A   1      35.603  19.097  25.158  1.00  0.00     0.005 C 
ATOM     13  C   UNL A   1      32.963  22.367  23.560  1.00  0.00    -0.063 C 
ATOM     14  C   UNL A   1      36.171  20.379  24.586  1.00  0.00     0.020 C 
ATOM     15  C   UNL A   1      35.856  22.577  23.507  1.00  0.00     0.020 C 
ATOM     16  C   UNL A   1      33.539  23.598  22.771  1.00  0.00    -0.006 C 
ATOM     17  C   UNL A   1      31.888  22.503  24.365  1.00  0.00    -0.027 C 
ATOM     18  C   UNL A   1      35.029  23.828  23.187  1.00  0.00     0.013 C 
ATOM     19  C   UNL A   1      33.568  23.234  21.263  1.00  0.00     0.017 C 
ATOM     20  C   UNL A   1      32.643  24.982  23.004  1.00  0.00    -0.020 C 
ATOM     21  C   UNL A   1      31.291  23.818  24.790  1.00  0.00     0.032 C 
ATOM     22  C   UNL A   1      32.219  25.024  24.516  1.00  0.00     0.006 C 
ATOM     23  C   UNL A   1      33.439  26.271  22.671  1.00  0.00     0.008 C 
ATOM     24  C   UNL A   1      31.405  24.982  22.068  1.00  0.00     0.012 C 
ATOM     25  C   UNL A   1      31.750  26.404  25.175  1.00  0.00    -0.025 C 
ATOM     26  C   UNL A   1      32.802  27.579  23.162  1.00  0.00     0.005 C 
ATOM     27  C   UNL A   1      30.258  26.672  24.902  1.00  0.00     0.012 C 
ATOM     28  C   UNL A   1      31.934  26.298  26.726  1.00  0.00     0.010 C 
ATOM     29  C   UNL A   1      32.701  27.562  24.697  1.00  0.00     0.003 C 
ATOM     30  C   UNL A   1      31.756  27.613  27.487  1.00  0.00     0.033 C 
ATOM     31  C   UNL A   1      32.506  28.968  25.394  1.00  0.00    -0.006 C 
ATOM     32  C   UNL A   1      32.601  28.762  26.938  1.00  0.00     0.120 C 
ATOM     33  C   UNL A   1      31.206  29.698  25.001  1.00  0.00     0.014 C 
ATOM     34  C   UNL A   1      33.653  29.937  24.984  1.00  0.00     0.014 C 
BRANCH  32  35
ATOM     35  O   UNL A   1      32.286  29.949  27.666  1.00  0.00    -0.393 OA
ATOM     36  H   UNL A   1      33.052  30.543  27.662  1.00  0.00     0.210 HD
ENDBRANCH  32  35
ENDBRANCH   4   6
ENDBRANCH   3   4
ENDBRANCH   2   3
ENDBRANCH   1   2
BRANCH   1  37
ATOM     37  O   UNL A   1      38.839  24.262  27.122  1.00  0.00    -0.458 OA
BRANCH  37  38
ATOM     38  C   UNL A   1      39.738  25.249  26.853  1.00  0.00     0.338 C 
ATOM     39  O   UNL A   1      40.370  25.374  25.813  1.00  0.00    -0.246 OA
BRANCH  38  40
ATOM     40  C   UNL A   1      39.680  26.296  27.910  1.00  0.00     0.060 A 
ATOM     41  C   UNL A   1      40.223  27.565  27.633  1.00  0.00     0.016 A 
ATOM     42  C   UNL A   1      39.025  26.083  29.117  1.00  0.00     0.016 A 
ATOM     43  C   UNL A   1      40.107  28.622  28.551  1.00  0.00     0.010 A 
ATOM     44  C   UNL A   1      38.924  27.133  30.035  1.00  0.00     0.010 A 
ATOM     45  C   UNL A   1      39.472  28.407  29.775  1.00  0.00    -0.014 A 
BRANCH  45  46
ATOM     46  C   UNL A   1      39.642  29.321  30.941  1.00  0.00     0.031 A 
ATOM     47  C   UNL A   1      40.731  28.940  31.909  1.00  0.00     0.074 A 
ATOM     48  C   UNL A   1      38.839  30.366  31.225  1.00  0.00     0.049 A 
ATOM     49  N   UNL A   1      40.981  29.395  33.107  1.00  0.00    -0.248 NA
ATOM     50  C   UNL A   1      41.645  27.870  31.463  1.00  0.00     0.031 C 
ATOM     51  C   UNL A   1      37.788  30.902  30.371  1.00  0.00     0.029 A 
ATOM     52  N   UNL A   1      38.756  31.140  32.362  1.00  0.00    -0.354 N 
ATOM     53  C   UNL A   1      42.077  28.667  33.549  1.00  0.00     0.074 A 
ATOM     54  C   UNL A   1      42.371  27.669  32.548  1.00  0.00     0.031 C 
ATOM     55  C   UNL A   1      37.093  31.838  31.046  1.00  0.00     0.029 A 
ATOM     56  C   UNL A   1      37.680  32.002  32.372  1.00  0.00     0.049 A 
ATOM     57  H   UNL A   1      39.407  31.083  33.098  1.00  0.00     0.167 HD
ATOM     58  C   UNL A   1      42.832  28.854  34.654  1.00  0.00     0.031 A 
ATOM     59  C   UNL A   1      37.229  32.827  33.340  1.00  0.00     0.031 A 
ATOM     60  C   UNL A   1      42.574  29.862  35.636  1.00  0.00     0.049 A 
ATOM     61  C   UNL A   1      38.023  32.958  34.619  1.00  0.00     0.074 A 
ATOM     62  C   UNL A   1      43.307  30.172  36.764  1.00  0.00     0.029 A 
ATOM     63  N   UNL A   1      41.499  30.734  35.594  1.00  0.00    -0.354 N 
ATOM     64  N   UNL A   1      39.112  32.322  34.984  1.00  0.00    -0.248 NA
ATOM     65  C   UNL A   1      37.563  33.962  35.593  1.00  0.00     0.031 C 
ATOM     66  C   UNL A   1      42.661  31.224  37.421  1.00  0.00     0.029 A 
ATOM     67  C   UNL A   1      41.549  31.588  36.678  1.00  0.00     0.049 A 
ATOM     68  H   UNL A   1      40.804  30.744  34.897  1.00  0.00     0.167 HD
ATOM     69  C   UNL A   1      39.507  32.904  36.185  1.00  0.00     0.074 A 
ATOM     70  C   UNL A   1      38.531  33.925  36.498  1.00  0.00     0.031 C 
ATOM     71  C   UNL A   1      40.596  32.633  36.946  1.00  0.00     0.031 A 
BRANCH  58  72
ATOM     72  C   UNL A   1      44.036  27.970  34.793  1.00  0.00    -0.014 A 
ATOM     73  C   UNL A   1      43.940  26.756  35.501  1.00  0.00     0.010 A 
ATOM     74  C   UNL A   1      45.274  28.364  34.262  1.00  0.00     0.010 A 
ATOM     75  C   UNL A   1      45.075  25.980  35.729  1.00  0.00     0.020 A 
ATOM     76  C   UNL A   1      46.408  27.572  34.462  1.00  0.00     0.020 A 
ATOM     77  C   UNL A   1      46.305  26.398  35.214  1.00  0.00     0.054 A 
BRANCH  77  78
ATOM     78  S   UNL A   1      47.764  25.370  35.524  1.00  0.00     0.124 S 
ATOM     79  O   UNL A   1      47.224  24.340  36.407  1.00  0.00    -0.237 OA
ATOM     80  O   UNL A   1      48.130  24.918  34.183  1.00  0.00    -0.237 OA
ATOM     81  O   UNL A   1      48.710  26.293  36.146  1.00  0.00    -0.744 OA
ENDBRANCH  77  78
ENDBRANCH  58  72
BRANCH  59  82
ATOM     82  C   UNL A   1      35.998  33.650  33.152  1.00  0.00    -0.014 A 
ATOM     83  C   UNL A   1      34.725  33.079  33.335  1.00  0.00     0.010 A 
ATOM     84  C   UNL A   1      36.085  34.978  32.696  1.00  0.00     0.010 A 
ATOM     85  C   UNL A   1      33.566  33.798  33.018  1.00  0.00     0.020 A 
ATOM     86  C   UNL A   1      34.926  35.709  32.397  1.00  0.00     0.020 A 
ATOM     87  C   UNL A   1      33.675  35.106  32.540  1.00  0.00     0.054 A 
BRANCH  87  88
ATOM     88  S   UNL A   1      32.157  36.010  32.116  1.00  0.00     0.124 S 
ATOM     89  O   UNL A   1      32.277  37.209  32.940  1.00  0.00    -0.237 OA
ATOM     90  O   UNL A   1      32.302  36.215  30.677  1.00  0.00    -0.237 OA
ATOM     91  O   UNL A   1      31.091  35.089  32.502  1.00  0.00    -0.744 OA
ENDBRANCH  87  88
ENDBRANCH  59  82
BRANCH  71  92
ATOM     92  C   UNL A   1      40.859  33.509  38.139  1.00  0.00    -0.014 A 
ATOM     93  C   UNL A   1      41.584  34.706  38.025  1.00  0.00     0.010 A 
ATOM     94  C   UNL A   1      40.277  33.169  39.376  1.00  0.00     0.010 A 
ATOM     95  C   UNL A   1      41.733  35.544  39.133  1.00  0.00     0.020 A 
ATOM     96  C   UNL A   1      40.402  34.016  40.477  1.00  0.00     0.020 A 
ATOM     97  C   UNL A   1      41.137  35.196  40.351  1.00  0.00     0.054 A 
BRANCH  97  98
ATOM     98  S   UNL A   1      41.273  36.341  41.752  1.00  0.00     0.124 S 
ATOM     99  O   UNL A   1      41.764  35.465  42.812  1.00  0.00    -0.237 OA
ATOM    100  O   UNL A   1      42.226  37.335  41.264  1.00  0.00    -0.237 OA
ATOM    101  O   UNL A   1      39.908  36.832  41.931  1.00  0.00    -0.744 OA
ENDBRANCH  97  98
ENDBRANCH  71  92
ENDBRANCH  45  46
ENDBRANCH  38  40
ENDBRANCH  37  38
ENDBRANCH   1  37
TORSDOF 15
ENDMDL
MODEL 2
REMARK VINA RESULT:     -11.9      6.163     11.980
REMARK SMILES C[C@H]1[C@H](C)CC[C@@]2(C(=O)OCCOC(=O)c3ccc(-c4c5nc(c(-c6ccc(S(=O)(=O)[O-])cc6)c6ccc([nH]6)c(-c6ccc(S(=O)(=O)[O-])cc6)c6nc(c(-c7ccc(S(=O)(=O)[O-])cc7)c7ccc4[nH]7)C=C6)C=C5)cc3)CC[C@@]3(C)C(=CC[C@@H]4[C@@]5(C)CC[C@H](O)C(C)(C)[C@@H]5CC[C@]43C)[C@H]12
REMARK SMILES IDX 12 1 11 2 10 3 8 4 9 5 7 6 1 7 2 8 3 9 98 10 4 11 5 12 80 13
REMARK SMILES IDX 6 14 76 15 78 16 81 17 77 18 79 19 96 20 82 21 83 22 95 23
REMARK SMILES IDX 97 24 84 25 94 26 85 27 86 28 93 29 87 30 90 31 88 32 91 33
REMARK SMILES IDX 92 34 89 35 13 37 14 38 15 39 16 40 17 41 75 42 18 43 74 44
REMARK SMILES IDX 19 45 20 46 21 47 68 48 22 49 73 50 67 51 69 52 23 53 72 54
REMARK SMILES IDX 66 55 65 56 24 58 54 59 35 60 53 61 36 62 39 63 52 64 70 65
REMARK SMILES IDX 37 66 38 67 51 69 71 70 40 71 25 72 26 73 34 74 27 75 33 76
REMARK SMILES IDX 28 77 29 78 30 79 31 80 32 81 55 82 56 83 64 84 57 85 63 86
REMARK SMILES IDX 58 87 59 88 60 89 61 90 62 91 41 92 42 93 50 94 43 95 49 96
REMARK SMILES IDX 44 97 45 98 46 99 47 100 48 101
REMARK H PARENT 89 36 69 57 39 68
REMARK Flexibility Score: inf
ROOT
ATOM      1  C   UNL A   1      34.877  28.988  27.173  1.00  0.00     0.275 C 
ENDROOT
BRANCH   1   2
ATOM      2  C   UNL A   1      34.397  29.163  25.721  1.00  0.00     0.274 C 
BRANCH   2   3
ATOM      3  O   UNL A   1      33.632  28.084  25.141  1.00  0.00    -0.462 OA
BRANCH   3   4
ATOM      4  C   UNL A   1      32.537  28.498  24.448  1.00  0.00     0.312 C 
ATOM      5  O   UNL A   1      32.614  28.809  23.280  1.00  0.00    -0.252 OA
BRANCH   4   6
ATOM      6  C   UNL A   1      31.268  28.756  25.293  1.00  0.00     0.075 C 
ATOM      7  C   UNL A   1      28.298  28.354  22.751  1.00  0.00     0.008 C 
ATOM      8  C   UNL A   1      29.605  28.918  23.331  1.00  0.00    -0.003 C 
ATOM      9  C   UNL A   1      29.414  30.437  23.658  1.00  0.00    -0.011 C 
ATOM     10  C   UNL A   1      30.064  28.073  24.579  1.00  0.00     0.036 C 
ATOM     11  C   UNL A   1      29.153  31.283  22.402  1.00  0.00     0.008 C 
ATOM     12  C   UNL A   1      30.605  31.068  24.384  1.00  0.00     0.005 C 
ATOM     13  C   UNL A   1      30.485  26.573  24.384  1.00  0.00    -0.063 C 
ATOM     14  C   UNL A   1      31.064  30.254  25.574  1.00  0.00     0.020 C 
ATOM     15  C   UNL A   1      31.405  28.077  26.688  1.00  0.00     0.020 C 
ATOM     16  C   UNL A   1      30.752  25.729  25.683  1.00  0.00    -0.006 C 
ATOM     17  C   UNL A   1      30.868  26.119  23.172  1.00  0.00    -0.027 C 
ATOM     18  C   UNL A   1      31.635  26.561  26.669  1.00  0.00     0.013 C 
ATOM     19  C   UNL A   1      29.397  25.510  26.404  1.00  0.00     0.017 C 
ATOM     20  C   UNL A   1      31.463  24.259  25.353  1.00  0.00    -0.020 C 
ATOM     21  C   UNL A   1      31.773  24.938  22.941  1.00  0.00     0.032 C 
ATOM     22  C   UNL A   1      32.523  24.489  24.216  1.00  0.00     0.006 C 
ATOM     23  C   UNL A   1      32.177  23.652  26.589  1.00  0.00     0.008 C 
ATOM     24  C   UNL A   1      30.386  23.228  24.923  1.00  0.00     0.012 C 
ATOM     25  C   UNL A   1      33.683  23.413  23.978  1.00  0.00    -0.025 C 
ATOM     26  C   UNL A   1      33.118  22.475  26.289  1.00  0.00     0.005 C 
ATOM     27  C   UNL A   1      33.193  22.258  23.085  1.00  0.00     0.012 C 
ATOM     28  C   UNL A   1      34.864  24.118  23.231  1.00  0.00     0.010 C 
ATOM     29  C   UNL A   1      34.255  22.944  25.365  1.00  0.00     0.003 C 
ATOM     30  C   UNL A   1      36.148  23.293  23.135  1.00  0.00     0.033 C 
ATOM     31  C   UNL A   1      35.538  22.020  25.323  1.00  0.00    -0.006 C 
ATOM     32  C   UNL A   1      36.631  22.746  24.478  1.00  0.00     0.120 C 
ATOM     33  C   UNL A   1      35.277  20.593  24.803  1.00  0.00     0.014 C 
ATOM     34  C   UNL A   1      36.112  21.828  26.758  1.00  0.00     0.014 C 
BRANCH  32  35
ATOM     35  O   UNL A   1      37.778  21.926  24.252  1.00  0.00    -0.393 OA
ATOM     36  H   UNL A   1      38.577  22.476  24.266  1.00  0.00     0.210 HD
ENDBRANCH  32  35
ENDBRANCH   4   6
ENDBRANCH   3   4
ENDBRANCH   2   3
ENDBRANCH   1   2
BRANCH   1  37
ATOM     37  O   UNL A   1      35.887  29.926  27.576  1.00  0.00    -0.458 OA
BRANCH  37  38
ATOM     38  C   UNL A   1      36.499  29.653  28.761  1.00  0.00     0.338 C 
ATOM     39  O   UNL A   1      35.945  29.584  29.851  1.00  0.00    -0.246 OA
BRANCH  38  40
ATOM     40  C   UNL A   1      37.903  29.218  28.526  1.00  0.00     0.060 A 
ATOM     41  C   UNL A   1      38.559  28.482  29.531  1.00  0.00     0.016 A 
ATOM     42  C   UNL A   1      38.544  29.436  27.312  1.00  0.00     0.016 A 
ATOM     43  C   UNL A   1      39.846  27.958  29.326  1.00  0.00     0.010 A 
ATOM     44  C   UNL A   1      39.830  28.925  27.116  1.00  0.00     0.010 A 
ATOM     45  C   UNL A   1      40.504  28.195  28.118  1.00  0.00    -0.014 A 
BRANCH  45  46
ATOM     46  C   UNL A   1      41.977  28.027  27.958  1.00  0.00     0.031 A 
ATOM     47  C   UNL A   1      42.797  29.274  28.161  1.00  0.00     0.074 A 
ATOM     48  C   UNL A   1      42.584  26.894  27.551  1.00  0.00     0.049 A 
ATOM     49  N   UNL A   1      44.052  29.503  27.886  1.00  0.00    -0.248 NA
ATOM     50  C   UNL A   1      42.080  30.432  28.731  1.00  0.00     0.031 C 
ATOM     51  C   UNL A   1      41.951  25.594  27.371  1.00  0.00     0.029 A 
ATOM     52  N   UNL A   1      43.887  26.674  27.161  1.00  0.00    -0.354 N 
ATOM     53  C   UNL A   1      44.268  30.824  28.250  1.00  0.00     0.074 A 
ATOM     54  C   UNL A   1      42.997  31.378  28.654  1.00  0.00     0.031 C 
ATOM     55  C   UNL A   1      42.828  24.741  26.805  1.00  0.00     0.029 A 
ATOM     56  C   UNL A   1      44.105  25.424  26.622  1.00  0.00     0.049 A 
ATOM     57  H   UNL A   1      44.598  27.348  27.259  1.00  0.00     0.167 HD
ATOM     58  C   UNL A   1      45.431  31.508  28.321  1.00  0.00     0.031 A 
ATOM     59  C   UNL A   1      45.209  24.896  26.053  1.00  0.00     0.031 A 
ATOM     60  C   UNL A   1      46.702  30.960  27.958  1.00  0.00     0.049 A 
ATOM     61  C   UNL A   1      46.485  25.705  26.044  1.00  0.00     0.074 A 
ATOM     62  C   UNL A   1      47.948  31.549  28.043  1.00  0.00     0.029 A 
ATOM     63  N   UNL A   1      46.885  29.685  27.451  1.00  0.00    -0.354 N 
ATOM     64  N   UNL A   1      46.691  26.928  26.474  1.00  0.00    -0.248 NA
ATOM     65  C   UNL A   1      47.694  25.042  25.526  1.00  0.00     0.031 C 
ATOM     66  C   UNL A   1      48.890  30.632  27.565  1.00  0.00     0.029 A 
ATOM     67  C   UNL A   1      48.229  29.463  27.219  1.00  0.00     0.049 A 
ATOM     68  H   UNL A   1      46.166  29.034  27.281  1.00  0.00     0.167 HD
ATOM     69  C   UNL A   1      48.060  27.147  26.354  1.00  0.00     0.074 A 
ATOM     70  C   UNL A   1      48.631  25.943  25.790  1.00  0.00     0.031 C 
ATOM     71  C   UNL A   1      48.783  28.239  26.704  1.00  0.00     0.031 A 
BRANCH  58  72
ATOM     72  C   UNL A   1      45.351  32.900  28.873  1.00  0.00    -0.014 A 
ATOM     73  C   UNL A   1      45.139  33.990  28.006  1.00  0.00     0.010 A 
ATOM     74  C   UNL A   1      45.532  33.134  30.245  1.00  0.00     0.010 A 
ATOM     75  C   UNL A   1      45.170  35.296  28.492  1.00  0.00     0.020 A 
ATOM     76  C   UNL A   1      45.532  34.440  30.741  1.00  0.00     0.020 A 
ATOM     77  C   UNL A   1      45.375  35.513  29.858  1.00  0.00     0.054 A 
BRANCH  77  78
ATOM     78  S   UNL A   1      45.410  37.220  30.463  1.00  0.00     0.124 S 
ATOM     79  O   UNL A   1      46.812  37.579  30.271  1.00  0.00    -0.237 OA
ATOM     80  O   UNL A   1      44.463  37.894  29.578  1.00  0.00    -0.237 OA
ATOM     81  O   UNL A   1      44.980  37.102  31.854  1.00  0.00    -0.744 OA
ENDBRANCH  77  78
ENDBRANCH  58  72
BRANCH  59  82
ATOM     82  C   UNL A   1      45.209  23.516  25.484  1.00  0.00    -0.014 A 
ATOM     83  C   UNL A   1      44.673  23.273  24.205  1.00  0.00     0.010 A 
ATOM     84  C   UNL A   1      45.654  22.424  26.251  1.00  0.00     0.010 A 
ATOM     85  C   UNL A   1      44.533  21.965  23.726  1.00  0.00     0.020 A 
ATOM     86  C   UNL A   1      45.535  21.114  25.765  1.00  0.00     0.020 A 
ATOM     87  C   UNL A   1      44.956  20.892  24.515  1.00  0.00     0.054 A 
BRANCH  87  88
ATOM     88  S   UNL A   1      44.744  19.203  23.877  1.00  0.00     0.124 S 
ATOM     89  O   UNL A   1      43.582  18.739  24.627  1.00  0.00    -0.237 OA
ATOM     90  O   UNL A   1      44.528  19.429  22.451  1.00  0.00    -0.237 OA
ATOM     91  O   UNL A   1      46.007  18.551  24.213  1.00  0.00    -0.744 OA
ENDBRANCH  87  88
ENDBRANCH  59  82
BRANCH  71  92
ATOM     92  C   UNL A   1      50.280  28.161  26.589  1.00  0.00    -0.014 A 
ATOM     93  C   UNL A   1      50.949  28.570  25.424  1.00  0.00     0.010 A 
ATOM     94  C   UNL A   1      51.030  27.765  27.713  1.00  0.00     0.010 A 
ATOM     95  C   UNL A   1      52.346  28.571  25.382  1.00  0.00     0.020 A 
ATOM     96  C   UNL A   1      52.424  27.790  27.683  1.00  0.00     0.020 A 
ATOM     97  C   UNL A   1      53.075  28.186  26.513  1.00  0.00     0.054 A 
BRANCH  97  98
ATOM     98  S   UNL A   1      54.886  28.278  26.463  1.00  0.00     0.124 S 
ATOM     99  O   UNL A   1      55.268  26.912  26.811  1.00  0.00    -0.237 OA
ATOM    100  O   UNL A   1      55.150  28.672  25.081  1.00  0.00    -0.237 OA
ATOM    101  O   UNL A   1      55.210  29.291  27.465  1.00  0.00    -0.744 OA
ENDBRANCH  97  98
ENDBRANCH  71  92
ENDBRANCH  45  46
ENDBRANCH  38  40
ENDBRANCH  37  38
ENDBRANCH   1  37
TORSDOF 15
ENDMDL
MODEL 3
REMARK VINA RESULT:     -11.5      3.372      3.959
REMARK SMILES C[C@H]1[C@H](C)CC[C@@]2(C(=O)OCCOC(=O)c3ccc(-c4c5nc(c(-c6ccc(S(=O)(=O)[O-])cc6)c6ccc([nH]6)c(-c6ccc(S(=O)(=O)[O-])cc6)c6nc(c(-c7ccc(S(=O)(=O)[O-])cc7)c7ccc4[nH]7)C=C6)C=C5)cc3)CC[C@@]3(C)C(=CC[C@@H]4[C@@]5(C)CC[C@H](O)C(C)(C)[C@@H]5CC[C@]43C)[C@H]12
REMARK SMILES IDX 12 1 11 2 10 3 8 4 9 5 7 6 1 7 2 8 3 9 98 10 4 11 5 12 80 13
REMARK SMILES IDX 6 14 76 15 78 16 81 17 77 18 79 19 96 20 82 21 83 22 95 23
REMARK SMILES IDX 97 24 84 25 94 26 85 27 86 28 93 29 87 30 90 31 88 32 91 33
REMARK SMILES IDX 92 34 89 35 13 37 14 38 15 39 16 40 17 41 75 42 18 43 74 44
REMARK SMILES IDX 19 45 20 46 21 47 68 48 22 49 73 50 67 51 69 52 23 53 72 54
REMARK SMILES IDX 66 55 65 56 24 58 54 59 35 60 53 61 36 62 39 63 52 64 70 65
REMARK SMILES IDX 37 66 38 67 51 69 71 70 40 71 25 72 26 73 34 74 27 75 33 76
REMARK SMILES IDX 28 77 29 78 30 79 31 80 32 81 55 82 56 83 64 84 57 85 63 86
REMARK SMILES IDX 58 87 59 88 60 89 61 90 62 91 41 92 42 93 50 94 43 95 49 96
REMARK SMILES IDX 44 97 45 98 46 99 47 100 48 101
REMARK H PARENT 89 36 69 57 39 68
REMARK Flexibility Score: inf
ROOT
ATOM      1  C   UNL A   1      36.916  22.577  26.481  1.00  0.00     0.275 C 
ENDROOT
BRANCH   1   2
ATOM      2  C   UNL A   1      35.619  23.326  26.832  1.00  0.00     0.274 C 
BRANCH   2   3
ATOM      3  O   UNL A   1      34.509  23.196  25.917  1.00  0.00    -0.462 OA
BRANCH   3   4
ATOM      4  C   UNL A   1      34.157  21.907  25.660  1.00  0.00     0.312 C 
ATOM      5  O   UNL A   1      33.607  21.228  26.500  1.00  0.00    -0.252 OA
BRANCH   4   6
ATOM      6  C   UNL A   1      34.698  21.315  24.339  1.00  0.00     0.075 C 
ATOM      7  C   UNL A   1      31.676  19.279  22.867  1.00  0.00     0.008 C 
ATOM      8  C   UNL A   1      32.744  19.695  23.891  1.00  0.00    -0.003 C 
ATOM      9  C   UNL A   1      33.722  18.498  24.138  1.00  0.00    -0.011 C 
ATOM     10  C   UNL A   1      33.483  21.003  23.415  1.00  0.00     0.036 C 
ATOM     11  C   UNL A   1      33.022  17.289  24.780  1.00  0.00     0.008 C 
ATOM     12  C   UNL A   1      34.917  18.848  25.026  1.00  0.00     0.005 C 
ATOM     13  C   UNL A   1      32.680  22.348  23.306  1.00  0.00    -0.063 C 
ATOM     14  C   UNL A   1      35.623  20.113  24.588  1.00  0.00     0.020 C 
ATOM     15  C   UNL A   1      35.567  22.372  23.593  1.00  0.00     0.020 C 
ATOM     16  C   UNL A   1      33.417  23.572  22.650  1.00  0.00    -0.006 C 
ATOM     17  C   UNL A   1      31.529  22.518  23.989  1.00  0.00    -0.027 C 
ATOM     18  C   UNL A   1      34.859  23.687  23.245  1.00  0.00     0.013 C 
ATOM     19  C   UNL A   1      33.600  23.274  21.140  1.00  0.00     0.017 C 
ATOM     20  C   UNL A   1      32.584  25.000  22.850  1.00  0.00    -0.020 C 
ATOM     21  C   UNL A   1      30.965  23.850  24.410  1.00  0.00     0.032 C 
ATOM     22  C   UNL A   1      31.989  25.004  24.305  1.00  0.00     0.006 C 
ATOM     23  C   UNL A   1      33.488  26.248  22.676  1.00  0.00     0.008 C 
ATOM     24  C   UNL A   1      31.465  25.121  21.781  1.00  0.00     0.012 C 
ATOM     25  C   UNL A   1      31.529  26.381  24.975  1.00  0.00    -0.025 C 
ATOM     26  C   UNL A   1      32.877  27.572  23.157  1.00  0.00     0.005 C 
ATOM     27  C   UNL A   1      30.098  26.757  24.548  1.00  0.00     0.012 C 
ATOM     28  C   UNL A   1      31.524  26.196  26.530  1.00  0.00     0.010 C 
ATOM     29  C   UNL A   1      32.596  27.495  24.667  1.00  0.00     0.003 C 
ATOM     30  C   UNL A   1      31.336  27.485  27.331  1.00  0.00     0.033 C 
ATOM     31  C   UNL A   1      32.405  28.879  25.409  1.00  0.00    -0.006 C 
ATOM     32  C   UNL A   1      32.307  28.600  26.940  1.00  0.00     0.120 C 
ATOM     33  C   UNL A   1      31.206  29.708  24.907  1.00  0.00     0.014 C 
ATOM     34  C   UNL A   1      33.648  29.789  25.181  1.00  0.00     0.014 C 
BRANCH  32  35
ATOM     35  O   UNL A   1      31.980  29.772  27.688  1.00  0.00    -0.393 OA
ATOM     36  H   UNL A   1      32.227  29.642  28.617  1.00  0.00     0.210 HD
ENDBRANCH  32  35
ENDBRANCH   4   6
ENDBRANCH   3   4
ENDBRANCH   2   3
ENDBRANCH   1   2
BRANCH   1  37
ATOM     37  O   UNL A   1      37.918  23.396  25.857  1.00  0.00    -0.458 OA
BRANCH  37  38
ATOM     38  C   UNL A   1      39.187  23.221  26.320  1.00  0.00     0.338 C 
ATOM     39  O   UNL A   1      39.902  22.254  26.094  1.00  0.00    -0.246 OA
BRANCH  38  40
ATOM     40  C   UNL A   1      39.679  24.477  26.952  1.00  0.00     0.060 A 
ATOM     41  C   UNL A   1      39.312  24.749  28.284  1.00  0.00     0.016 A 
ATOM     42  C   UNL A   1      40.560  25.329  26.299  1.00  0.00     0.016 A 
ATOM     43  C   UNL A   1      39.828  25.864  28.967  1.00  0.00     0.010 A 
ATOM     44  C   UNL A   1      41.060  26.445  26.976  1.00  0.00     0.010 A 
ATOM     45  C   UNL A   1      40.694  26.737  28.307  1.00  0.00    -0.014 A 
BRANCH  45  46
ATOM     46  C   UNL A   1      40.972  28.118  28.798  1.00  0.00     0.031 A 
ATOM     47  C   UNL A   1      42.315  28.315  29.451  1.00  0.00     0.074 A 
ATOM     48  C   UNL A   1      40.084  29.132  28.789  1.00  0.00     0.049 A 
ATOM     49  N   UNL A   1      42.760  29.318  30.158  1.00  0.00    -0.248 NA
ATOM     50  C   UNL A   1      43.273  27.203  29.303  1.00  0.00     0.031 C 
ATOM     51  C   UNL A   1      38.776  29.128  28.146  1.00  0.00     0.029 A 
ATOM     52  N   UNL A   1      40.139  30.368  29.396  1.00  0.00    -0.354 N 
ATOM     53  C   UNL A   1      44.046  28.953  30.533  1.00  0.00     0.074 A 
ATOM     54  C   UNL A   1      44.266  27.600  30.078  1.00  0.00     0.031 C 
ATOM     55  C   UNL A   1      38.107  30.249  28.480  1.00  0.00     0.029 A 
ATOM     56  C   UNL A   1      38.958  31.077  29.328  1.00  0.00     0.049 A 
ATOM     57  H   UNL A   1      40.949  30.713  29.838  1.00  0.00     0.167 HD
ATOM     58  C   UNL A   1      44.999  29.696  31.136  1.00  0.00     0.031 A 
ATOM     59  C   UNL A   1      38.613  32.257  29.884  1.00  0.00     0.031 A 
ATOM     60  C   UNL A   1      44.807  31.049  31.559  1.00  0.00     0.049 A 
ATOM     61  C   UNL A   1      39.657  33.041  30.644  1.00  0.00     0.074 A 
ATOM     62  C   UNL A   1      45.723  31.911  32.130  1.00  0.00     0.029 A 
ATOM     63  N   UNL A   1      43.613  31.741  31.442  1.00  0.00    -0.354 N 
ATOM     64  N   UNL A   1      40.899  32.716  30.916  1.00  0.00    -0.248 NA
ATOM     65  C   UNL A   1      39.271  34.379  31.125  1.00  0.00     0.031 C 
ATOM     66  C   UNL A   1      45.075  33.124  32.380  1.00  0.00     0.029 A 
ATOM     67  C   UNL A   1      43.767  33.024  31.928  1.00  0.00     0.049 A 
ATOM     68  H   UNL A   1      42.779  31.374  31.068  1.00  0.00     0.167 HD
ATOM     69  C   UNL A   1      41.461  33.836  31.522  1.00  0.00     0.074 A 
ATOM     70  C   UNL A   1      40.420  34.838  31.601  1.00  0.00     0.031 C 
ATOM     71  C   UNL A   1      42.733  34.025  31.952  1.00  0.00     0.031 A 
BRANCH  58  72
ATOM     72  C   UNL A   1      46.343  29.049  31.300  1.00  0.00    -0.014 A 
ATOM     73  C   UNL A   1      47.289  29.120  30.259  1.00  0.00     0.010 A 
ATOM     74  C   UNL A   1      46.650  28.332  32.466  1.00  0.00     0.010 A 
ATOM     75  C   UNL A   1      48.498  28.433  30.356  1.00  0.00     0.020 A 
ATOM     76  C   UNL A   1      47.874  27.667  32.579  1.00  0.00     0.020 A 
ATOM     77  C   UNL A   1      48.779  27.703  31.515  1.00  0.00     0.054 A 
BRANCH  77  78
ATOM     78  S   UNL A   1      50.358  26.820  31.615  1.00  0.00     0.124 S 
ATOM     79  O   UNL A   1      50.002  25.506  31.085  1.00  0.00    -0.237 OA
ATOM     80  O   UNL A   1      51.231  27.624  30.763  1.00  0.00    -0.237 OA
ATOM     81  O   UNL A   1      50.682  26.853  33.039  1.00  0.00    -0.744 OA
ENDBRANCH  77  78
ENDBRANCH  58  72
BRANCH  59  82
ATOM     82  C   UNL A   1      37.243  32.827  29.715  1.00  0.00    -0.014 A 
ATOM     83  C   UNL A   1      36.859  33.409  28.493  1.00  0.00     0.010 A 
ATOM     84  C   UNL A   1      36.350  32.878  30.801  1.00  0.00     0.010 A 
ATOM     85  C   UNL A   1      35.634  34.076  28.373  1.00  0.00     0.020 A 
ATOM     86  C   UNL A   1      35.113  33.527  30.678  1.00  0.00     0.020 A 
ATOM     87  C   UNL A   1      34.772  34.140  29.471  1.00  0.00     0.054 A 
BRANCH  87  88
ATOM     88  S   UNL A   1      33.197  35.029  29.294  1.00  0.00     0.124 S 
ATOM     89  O   UNL A   1      32.651  34.952  30.646  1.00  0.00    -0.237 OA
ATOM     90  O   UNL A   1      33.630  36.356  28.862  1.00  0.00    -0.237 OA
ATOM     91  O   UNL A   1      32.480  34.256  28.284  1.00  0.00    -0.744 OA
ENDBRANCH  87  88
ENDBRANCH  59  82
BRANCH  71  92
ATOM     92  C   UNL A   1      43.112  35.390  32.454  1.00  0.00    -0.014 A 
ATOM     93  C   UNL A   1      43.726  36.336  31.617  1.00  0.00     0.010 A 
ATOM     94  C   UNL A   1      42.752  35.758  33.764  1.00  0.00     0.010 A 
ATOM     95  C   UNL A   1      43.983  37.626  32.088  1.00  0.00     0.020 A 
ATOM     96  C   UNL A   1      42.983  37.053  34.229  1.00  0.00     0.020 A 
ATOM     97  C   UNL A   1      43.606  37.979  33.388  1.00  0.00     0.054 A 
BRANCH  97  98
ATOM     98  S   UNL A   1      43.873  39.684  33.947  1.00  0.00     0.124 S 
ATOM     99  O   UNL A   1      44.129  39.498  35.373  1.00  0.00    -0.237 OA
ATOM    100  O   UNL A   1      45.022  40.107  33.151  1.00  0.00    -0.237 OA
ATOM    101  O   UNL A   1      42.616  40.355  33.622  1.00  0.00    -0.744 OA
ENDBRANCH  97  98
ENDBRANCH  71  92
ENDBRANCH  45  46
ENDBRANCH  38  40
ENDBRANCH  37  38
ENDBRANCH   1  37
TORSDOF 15
ENDMDL
