MODEL 1
REMARK VINA RESULT:      -9.6      0.000      0.000
REMARK SMILES O=C(Cc1ccccc1F)NC[C@@H]1CC[C@@H](C(=O)OCCOC(=O)c2ccc(-c3c4nc(c(-c5ccc(S(=O)(=O)[O-])cc5)c5ccc([nH]5)c(-c5ccc(S(=O)(=O)[O-])cc5)c5nc(c(-c6ccc(S(=O)(=O)[O-])cc6)c6ccc3[nH]6)C=C5)C=C4)cc2)O1
REMARK SMILES IDX 20 1 19 2 17 3 18 4 16 5 13 6 14 7 85 8 15 9 12 10 11 11
REMARK SMILES IDX 1 12 2 13 3 15 4 16 5 17 9 18 6 19 8 20 10 21 7 22 21 23
REMARK SMILES IDX 22 24 23 25 24 26 25 27 26 28 84 29 27 30 83 31 28 32 29 33
REMARK SMILES IDX 30 34 77 35 31 36 82 37 76 38 78 39 32 40 81 41 75 42 74 43
REMARK SMILES IDX 33 45 63 46 44 47 62 48 45 49 48 50 61 51 79 52 46 53 47 54
REMARK SMILES IDX 60 56 80 57 49 58 34 59 35 60 43 61 36 62 42 63 37 64 38 65
REMARK SMILES IDX 39 66 40 67 41 68 64 69 65 70 73 71 66 72 72 73 67 74 68 75
REMARK SMILES IDX 69 76 70 77 71 78 50 79 51 80 59 81 52 82 58 83 53 84 54 85
REMARK SMILES IDX 55 86 56 87 57 88
REMARK H PARENT 11 14 78 44 48 55
REMARK Flexibility Score: inf
ROOT
ATOM      1  C   UNL A   1      33.797  34.425  28.238  1.00  0.00     0.274 C 
ENDROOT
BRANCH   1   2
ATOM      2  O   UNL A   1      32.882  34.584  29.342  1.00  0.00    -0.460 OA
BRANCH   2   3
ATOM      3  C   UNL A   1      32.930  35.783  29.989  1.00  0.00     0.335 C 
ATOM      4  O   UNL A   1      33.254  36.844  29.468  1.00  0.00    -0.249 OA
BRANCH   3   5
ATOM      5  C   UNL A   1      32.553  35.626  31.470  1.00  0.00     0.228 C 
ATOM      6  C   UNL A   1      34.491  35.132  32.639  1.00  0.00     0.138 C 
ATOM      7  C   UNL A   1      34.016  36.449  33.215  1.00  0.00     0.037 C 
ATOM      8  O   UNL A   1      33.302  34.550  32.062  1.00  0.00    -0.361 OA
ATOM      9  C   UNL A   1      32.885  36.867  32.289  1.00  0.00     0.047 C 
BRANCH   6  10
ATOM     10  C   UNL A   1      35.094  34.171  33.662  1.00  0.00     0.147 C 
BRANCH  10  11
ATOM     11  N   UNL A   1      36.543  34.154  33.558  1.00  0.00    -0.353 N 
ATOM     12  O   UNL A   1      36.885  33.010  35.515  1.00  0.00    -0.275 OA
ATOM     13  C   UNL A   1      37.332  33.515  34.489  1.00  0.00     0.224 C 
ATOM     14  H   UNL A   1      36.973  34.611  32.801  1.00  0.00     0.163 HD
BRANCH  13  15
ATOM     15  C   UNL A   1      38.795  33.417  34.091  1.00  0.00     0.138 C 
BRANCH  15  16
ATOM     16  C   UNL A   1      39.267  31.986  33.980  1.00  0.00    -0.003 A 
ATOM     17  C   UNL A   1      40.444  31.553  34.612  1.00  0.00     0.007 A 
ATOM     18  C   UNL A   1      38.521  31.049  33.261  1.00  0.00     0.126 A 
ATOM     19  C   UNL A   1      40.869  30.227  34.496  1.00  0.00     0.001 A 
ATOM     20  C   UNL A   1      38.938  29.725  33.145  1.00  0.00     0.039 A 
ATOM     21  F   UNL A   1      37.374  31.412  32.670  1.00  0.00    -0.207 F 
ATOM     22  C   UNL A   1      40.118  29.312  33.760  1.00  0.00     0.003 A 
ENDBRANCH  15  16
ENDBRANCH  13  15
ENDBRANCH  10  11
ENDBRANCH   6  10
ENDBRANCH   3   5
ENDBRANCH   2   3
ENDBRANCH   1   2
BRANCH   1  23
ATOM     23  C   UNL A   1      34.834  33.336  28.509  1.00  0.00     0.275 C 
BRANCH  23  24
ATOM     24  O   UNL A   1      34.221  32.141  29.021  1.00  0.00    -0.458 OA
BRANCH  24  25
ATOM     25  C   UNL A   1      34.308  31.067  28.206  1.00  0.00     0.338 C 
ATOM     26  O   UNL A   1      33.475  30.674  27.405  1.00  0.00    -0.246 OA
BRANCH  25  27
ATOM     27  C   UNL A   1      35.626  30.439  28.355  1.00  0.00     0.060 A 
ATOM     28  C   UNL A   1      36.002  29.979  29.616  1.00  0.00     0.016 A 
ATOM     29  C   UNL A   1      36.532  30.435  27.293  1.00  0.00     0.016 A 
ATOM     30  C   UNL A   1      37.317  29.580  29.843  1.00  0.00     0.010 A 
ATOM     31  C   UNL A   1      37.839  29.986  27.512  1.00  0.00     0.010 A 
ATOM     32  C   UNL A   1      38.251  29.588  28.796  1.00  0.00    -0.014 A 
BRANCH  32  33
ATOM     33  C   UNL A   1      39.666  29.234  29.072  1.00  0.00     0.031 A 
ATOM     34  C   UNL A   1      40.562  30.201  29.800  1.00  0.00     0.074 A 
ATOM     35  C   UNL A   1      40.141  28.025  28.716  1.00  0.00     0.049 A 
ATOM     36  N   UNL A   1      41.838  30.098  30.071  1.00  0.00    -0.248 NA
ATOM     37  C   UNL A   1      39.943  31.447  30.283  1.00  0.00     0.031 C 
ATOM     38  C   UNL A   1      39.370  26.978  28.041  1.00  0.00     0.029 A 
ATOM     39  N   UNL A   1      41.380  27.465  28.896  1.00  0.00    -0.354 N 
ATOM     40  C   UNL A   1      42.186  31.282  30.712  1.00  0.00     0.074 A 
ATOM     41  C   UNL A   1      40.985  32.085  30.797  1.00  0.00     0.031 C 
ATOM     42  C   UNL A   1      40.142  25.888  27.904  1.00  0.00     0.029 A 
ATOM     43  C   UNL A   1      41.471  26.174  28.436  1.00  0.00     0.049 A 
ATOM     44  H   UNL A   1      42.131  27.943  29.315  1.00  0.00     0.167 HD
ATOM     45  C   UNL A   1      43.397  31.669  31.180  1.00  0.00     0.031 A 
ATOM     46  C   UNL A   1      42.510  25.318  28.432  1.00  0.00     0.031 A 
ATOM     47  C   UNL A   1      44.587  30.864  31.127  1.00  0.00     0.049 A 
ATOM     48  C   UNL A   1      43.836  25.758  28.979  1.00  0.00     0.074 A 
ATOM     49  C   UNL A   1      45.867  31.185  31.546  1.00  0.00     0.029 A 
ATOM     50  N   UNL A   1      44.639  29.567  30.644  1.00  0.00    -0.354 N 
ATOM     51  N   UNL A   1      44.162  26.911  29.510  1.00  0.00    -0.248 NA
ATOM     52  C   UNL A   1      44.936  24.787  28.912  1.00  0.00     0.031 C 
ATOM     53  C   UNL A   1      46.697  30.082  31.306  1.00  0.00     0.029 A 
ATOM     54  C   UNL A   1      45.926  29.068  30.760  1.00  0.00     0.049 A 
ATOM     55  H   UNL A   1      43.873  29.071  30.274  1.00  0.00     0.167 HD
ATOM     56  C   UNL A   1      45.509  26.807  29.833  1.00  0.00     0.074 A 
ATOM     57  C   UNL A   1      45.930  25.472  29.461  1.00  0.00     0.031 C 
ATOM     58  C   UNL A   1      46.328  27.741  30.378  1.00  0.00     0.031 A 
BRANCH  45  59
ATOM     59  C   UNL A   1      43.493  33.053  31.756  1.00  0.00    -0.014 A 
ATOM     60  C   UNL A   1      43.719  34.170  30.933  1.00  0.00     0.010 A 
ATOM     61  C   UNL A   1      43.357  33.235  33.144  1.00  0.00     0.010 A 
ATOM     62  C   UNL A   1      43.846  35.443  31.494  1.00  0.00     0.020 A 
ATOM     63  C   UNL A   1      43.471  34.508  33.707  1.00  0.00     0.020 A 
ATOM     64  C   UNL A   1      43.736  35.603  32.880  1.00  0.00     0.054 A 
BRANCH  64  65
ATOM     65  S   UNL A   1      43.913  37.259  33.600  1.00  0.00     0.124 S 
ATOM     66  O   UNL A   1      44.024  38.092  32.405  1.00  0.00    -0.237 OA
ATOM     67  O   UNL A   1      42.679  37.419  34.364  1.00  0.00    -0.237 OA
ATOM     68  O   UNL A   1      45.129  37.154  34.403  1.00  0.00    -0.744 OA
ENDBRANCH  64  65
ENDBRANCH  45  59
BRANCH  46  69
ATOM     69  C   UNL A   1      42.331  23.955  27.870  1.00  0.00    -0.014 A 
ATOM     70  C   UNL A   1      42.444  23.738  26.487  1.00  0.00     0.010 A 
ATOM     71  C   UNL A   1      42.091  22.865  28.724  1.00  0.00     0.010 A 
ATOM     72  C   UNL A   1      42.325  22.447  25.964  1.00  0.00     0.020 A 
ATOM     73  C   UNL A   1      41.986  21.571  28.206  1.00  0.00     0.020 A 
ATOM     74  C   UNL A   1      42.099  21.372  26.828  1.00  0.00     0.054 A 
BRANCH  74  75
ATOM     75  S   UNL A   1      42.036  19.686  26.158  1.00  0.00     0.124 S 
ATOM     76  O   UNL A   1      42.991  19.763  25.057  1.00  0.00    -0.237 OA
ATOM     77  O   UNL A   1      42.446  18.866  27.295  1.00  0.00    -0.237 OA
ATOM     78  O   UNL A   1      40.635  19.537  25.768  1.00  0.00    -0.744 OA
ENDBRANCH  74  75
ENDBRANCH  46  69
BRANCH  58  79
ATOM     79  C   UNL A   1      47.758  27.345  30.597  1.00  0.00    -0.014 A 
ATOM     80  C   UNL A   1      48.175  26.833  31.838  1.00  0.00     0.010 A 
ATOM     81  C   UNL A   1      48.687  27.457  29.548  1.00  0.00     0.010 A 
ATOM     82  C   UNL A   1      49.507  26.466  32.037  1.00  0.00     0.020 A 
ATOM     83  C   UNL A   1      50.018  27.080  29.740  1.00  0.00     0.020 A 
ATOM     84  C   UNL A   1      50.423  26.600  30.988  1.00  0.00     0.054 A 
BRANCH  84  85
ATOM     85  S   UNL A   1      52.145  26.092  31.249  1.00  0.00     0.124 S 
ATOM     86  O   UNL A   1      52.604  27.070  32.232  1.00  0.00    -0.237 OA
ATOM     87  O   UNL A   1      52.014  24.722  31.741  1.00  0.00    -0.237 OA
ATOM     88  O   UNL A   1      52.742  26.214  29.920  1.00  0.00    -0.744 OA
ENDBRANCH  84  85
ENDBRANCH  58  79
ENDBRANCH  32  33
ENDBRANCH  25  27
ENDBRANCH  24  25
ENDBRANCH  23  24
ENDBRANCH   1  23
TORSDOF 18
ENDMDL
MODEL 2
REMARK VINA RESULT:      -9.5      2.883      3.766
REMARK SMILES O=C(Cc1ccccc1F)NC[C@@H]1CC[C@@H](C(=O)OCCOC(=O)c2ccc(-c3c4nc(c(-c5ccc(S(=O)(=O)[O-])cc5)c5ccc([nH]5)c(-c5ccc(S(=O)(=O)[O-])cc5)c5nc(c(-c6ccc(S(=O)(=O)[O-])cc6)c6ccc3[nH]6)C=C5)C=C4)cc2)O1
REMARK SMILES IDX 20 1 19 2 17 3 18 4 16 5 13 6 14 7 85 8 15 9 12 10 11 11
REMARK SMILES IDX 1 12 2 13 3 15 4 16 5 17 9 18 6 19 8 20 10 21 7 22 21 23
REMARK SMILES IDX 22 24 23 25 24 26 25 27 26 28 84 29 27 30 83 31 28 32 29 33
REMARK SMILES IDX 30 34 77 35 31 36 82 37 76 38 78 39 32 40 81 41 75 42 74 43
REMARK SMILES IDX 33 45 63 46 44 47 62 48 45 49 48 50 61 51 79 52 46 53 47 54
REMARK SMILES IDX 60 56 80 57 49 58 34 59 35 60 43 61 36 62 42 63 37 64 38 65
REMARK SMILES IDX 39 66 40 67 41 68 64 69 65 70 73 71 66 72 72 73 67 74 68 75
REMARK SMILES IDX 69 76 70 77 71 78 50 79 51 80 59 81 52 82 58 83 53 84 54 85
REMARK SMILES IDX 55 86 56 87 57 88
REMARK H PARENT 11 14 78 44 48 55
REMARK Flexibility Score: inf
ROOT
ATOM      1  C   UNL A   1      34.934  33.345  29.036  1.00  0.00     0.274 C 
ENDROOT
BRANCH   1   2
ATOM      2  O   UNL A   1      33.635  33.958  29.165  1.00  0.00    -0.460 OA
BRANCH   2   3
ATOM      3  C   UNL A   1      33.629  35.312  29.330  1.00  0.00     0.335 C 
ATOM      4  O   UNL A   1      34.165  36.109  28.571  1.00  0.00    -0.249 OA
BRANCH   3   5
ATOM      5  C   UNL A   1      32.884  35.707  30.614  1.00  0.00     0.228 C 
ATOM      6  C   UNL A   1      34.392  35.582  32.368  1.00  0.00     0.138 C 
ATOM      7  C   UNL A   1      33.973  37.036  32.320  1.00  0.00     0.037 C 
ATOM      8  O   UNL A   1      33.313  34.882  31.712  1.00  0.00    -0.361 OA
ATOM      9  C   UNL A   1      33.170  37.143  31.033  1.00  0.00     0.047 C 
BRANCH   6  10
ATOM     10  C   UNL A   1      34.593  35.024  33.775  1.00  0.00     0.147 C 
BRANCH  10  11
ATOM     11  N   UNL A   1      35.982  34.657  33.990  1.00  0.00    -0.353 N 
ATOM     12  O   UNL A   1      35.672  32.416  33.620  1.00  0.00    -0.275 OA
ATOM     13  C   UNL A   1      36.424  33.361  33.840  1.00  0.00     0.224 C 
ATOM     14  H   UNL A   1      36.626  35.355  34.249  1.00  0.00     0.163 HD
BRANCH  13  15
ATOM     15  C   UNL A   1      37.937  33.219  33.888  1.00  0.00     0.138 C 
BRANCH  15  16
ATOM     16  C   UNL A   1      38.574  33.400  32.530  1.00  0.00    -0.003 A 
ATOM     17  C   UNL A   1      38.188  34.445  31.674  1.00  0.00     0.007 A 
ATOM     18  C   UNL A   1      39.591  32.541  32.106  1.00  0.00     0.126 A 
ATOM     19  C   UNL A   1      38.784  34.596  30.420  1.00  0.00     0.001 A 
ATOM     20  C   UNL A   1      40.192  32.689  30.858  1.00  0.00     0.039 A 
ATOM     21  F   UNL A   1      40.014  31.551  32.905  1.00  0.00    -0.207 F 
ATOM     22  C   UNL A   1      39.786  33.717  30.010  1.00  0.00     0.003 A 
ENDBRANCH  15  16
ENDBRANCH  13  15
ENDBRANCH  10  11
ENDBRANCH   6  10
ENDBRANCH   3   5
ENDBRANCH   2   3
ENDBRANCH   1   2
BRANCH   1  23
ATOM     23  C   UNL A   1      35.213  32.358  30.168  1.00  0.00     0.275 C 
BRANCH  23  24
ATOM     24  O   UNL A   1      36.545  31.824  30.085  1.00  0.00    -0.458 OA
BRANCH  24  25
ATOM     25  C   UNL A   1      36.684  30.572  30.572  1.00  0.00     0.338 C 
ATOM     26  O   UNL A   1      35.918  29.973  31.308  1.00  0.00    -0.246 OA
BRANCH  25  27
ATOM     27  C   UNL A   1      37.898  29.958  30.017  1.00  0.00     0.060 A 
ATOM     28  C   UNL A   1      38.758  29.289  30.887  1.00  0.00     0.016 A 
ATOM     29  C   UNL A   1      38.250  30.165  28.683  1.00  0.00     0.016 A 
ATOM     30  C   UNL A   1      40.014  28.887  30.443  1.00  0.00     0.010 A 
ATOM     31  C   UNL A   1      39.493  29.715  28.226  1.00  0.00     0.010 A 
ATOM     32  C   UNL A   1      40.399  29.104  29.111  1.00  0.00    -0.014 A 
BRANCH  32  33
ATOM     33  C   UNL A   1      41.770  28.739  28.673  1.00  0.00     0.031 A 
ATOM     34  C   UNL A   1      42.879  29.757  28.728  1.00  0.00     0.074 A 
ATOM     35  C   UNL A   1      42.038  27.482  28.273  1.00  0.00     0.049 A 
ATOM     36  N   UNL A   1      44.120  29.645  28.326  1.00  0.00    -0.248 NA
ATOM     37  C   UNL A   1      42.549  31.070  29.305  1.00  0.00     0.031 C 
ATOM     38  C   UNL A   1      41.067  26.387  28.210  1.00  0.00     0.029 A 
ATOM     39  N   UNL A   1      43.216  26.907  27.867  1.00  0.00    -0.354 N 
ATOM     40  C   UNL A   1      44.705  30.885  28.557  1.00  0.00     0.074 A 
ATOM     41  C   UNL A   1      43.687  31.731  29.141  1.00  0.00     0.031 C 
ATOM     42  C   UNL A   1      41.699  25.264  27.834  1.00  0.00     0.029 A 
ATOM     43  C   UNL A   1      43.104  25.569  27.582  1.00  0.00     0.049 A 
ATOM     44  H   UNL A   1      44.060  27.407  27.789  1.00  0.00     0.167 HD
ATOM     45  C   UNL A   1      45.973  31.286  28.299  1.00  0.00     0.031 A 
ATOM     46  C   UNL A   1      44.025  24.685  27.155  1.00  0.00     0.031 A 
ATOM     47  C   UNL A   1      46.999  30.442  27.748  1.00  0.00     0.049 A 
ATOM     48  C   UNL A   1      45.431  25.144  26.900  1.00  0.00     0.074 A 
ATOM     49  C   UNL A   1      48.304  30.769  27.420  1.00  0.00     0.029 A 
ATOM     50  N   UNL A   1      46.841  29.095  27.464  1.00  0.00    -0.354 N 
ATOM     51  N   UNL A   1      45.943  26.340  27.052  1.00  0.00    -0.248 NA
ATOM     52  C   UNL A   1      46.377  24.136  26.402  1.00  0.00     0.031 C 
ATOM     53  C   UNL A   1      48.934  29.618  26.927  1.00  0.00     0.029 A 
ATOM     54  C   UNL A   1      48.026  28.573  26.971  1.00  0.00     0.049 A 
ATOM     55  H   UNL A   1      46.010  28.584  27.593  1.00  0.00     0.167 HD
ATOM     56  C   UNL A   1      47.271  26.232  26.659  1.00  0.00     0.074 A 
ATOM     57  C   UNL A   1      47.490  24.849  26.287  1.00  0.00     0.031 C 
ATOM     58  C   UNL A   1      48.222  27.197  26.599  1.00  0.00     0.031 A 
BRANCH  45  59
ATOM     59  C   UNL A   1      46.302  32.724  28.578  1.00  0.00    -0.014 A 
ATOM     60  C   UNL A   1      47.041  33.094  29.715  1.00  0.00     0.010 A 
ATOM     61  C   UNL A   1      45.861  33.720  27.688  1.00  0.00     0.010 A 
ATOM     62  C   UNL A   1      47.300  34.443  29.979  1.00  0.00     0.020 A 
ATOM     63  C   UNL A   1      46.129  35.067  27.942  1.00  0.00     0.020 A 
ATOM     64  C   UNL A   1      46.830  35.422  29.097  1.00  0.00     0.054 A 
BRANCH  64  65
ATOM     65  S   UNL A   1      47.162  37.170  29.453  1.00  0.00     0.124 S 
ATOM     66  O   UNL A   1      48.486  37.347  28.859  1.00  0.00    -0.237 OA
ATOM     67  O   UNL A   1      46.071  37.859  28.769  1.00  0.00    -0.237 OA
ATOM     68  O   UNL A   1      47.118  37.236  30.912  1.00  0.00    -0.744 OA
ENDBRANCH  64  65
ENDBRANCH  45  59
BRANCH  46  69
ATOM     69  C   UNL A   1      43.631  23.271  26.928  1.00  0.00    -0.014 A 
ATOM     70  C   UNL A   1      43.141  22.494  27.991  1.00  0.00     0.010 A 
ATOM     71  C   UNL A   1      43.704  22.714  25.640  1.00  0.00     0.010 A 
ATOM     72  C   UNL A   1      42.723  21.178  27.768  1.00  0.00     0.020 A 
ATOM     73  C   UNL A   1      43.272  21.405  25.412  1.00  0.00     0.020 A 
ATOM     74  C   UNL A   1      42.790  20.644  26.479  1.00  0.00     0.054 A 
BRANCH  74  75
ATOM     75  S   UNL A   1      42.162  18.968  26.174  1.00  0.00     0.124 S 
ATOM     76  O   UNL A   1      42.328  18.341  27.481  1.00  0.00    -0.237 OA
ATOM     77  O   UNL A   1      40.782  19.206  25.756  1.00  0.00    -0.237 OA
ATOM     78  O   UNL A   1      43.044  18.470  25.120  1.00  0.00    -0.744 OA
ENDBRANCH  74  75
ENDBRANCH  46  69
BRANCH  58  79
ATOM     79  C   UNL A   1      49.579  26.783  26.111  1.00  0.00    -0.014 A 
ATOM     80  C   UNL A   1      50.503  26.188  26.987  1.00  0.00     0.010 A 
ATOM     81  C   UNL A   1      49.925  26.965  24.761  1.00  0.00     0.010 A 
ATOM     82  C   UNL A   1      51.764  25.805  26.528  1.00  0.00     0.020 A 
ATOM     83  C   UNL A   1      51.182  26.572  24.295  1.00  0.00     0.020 A 
ATOM     84  C   UNL A   1      52.100  26.007  25.185  1.00  0.00     0.054 A 
BRANCH  84  85
ATOM     85  S   UNL A   1      53.731  25.479  24.592  1.00  0.00     0.124 S 
ATOM     86  O   UNL A   1      53.727  25.971  23.217  1.00  0.00    -0.237 OA
ATOM     87  O   UNL A   1      54.649  26.164  25.501  1.00  0.00    -0.237 OA
ATOM     88  O   UNL A   1      53.692  24.025  24.738  1.00  0.00    -0.744 OA
ENDBRANCH  84  85
ENDBRANCH  58  79
ENDBRANCH  32  33
ENDBRANCH  25  27
ENDBRANCH  24  25
ENDBRANCH  23  24
ENDBRANCH   1  23
TORSDOF 18
ENDMDL
MODEL 3
REMARK VINA RESULT:      -9.4      4.316      7.476
REMARK SMILES O=C(Cc1ccccc1F)NC[C@@H]1CC[C@@H](C(=O)OCCOC(=O)c2ccc(-c3c4nc(c(-c5ccc(S(=O)(=O)[O-])cc5)c5ccc([nH]5)c(-c5ccc(S(=O)(=O)[O-])cc5)c5nc(c(-c6ccc(S(=O)(=O)[O-])cc6)c6ccc3[nH]6)C=C5)C=C4)cc2)O1
REMARK SMILES IDX 20 1 19 2 17 3 18 4 16 5 13 6 14 7 85 8 15 9 12 10 11 11
REMARK SMILES IDX 1 12 2 13 3 15 4 16 5 17 9 18 6 19 8 20 10 21 7 22 21 23
REMARK SMILES IDX 22 24 23 25 24 26 25 27 26 28 84 29 27 30 83 31 28 32 29 33
REMARK SMILES IDX 30 34 77 35 31 36 82 37 76 38 78 39 32 40 81 41 75 42 74 43
REMARK SMILES IDX 33 45 63 46 44 47 62 48 45 49 48 50 61 51 79 52 46 53 47 54
REMARK SMILES IDX 60 56 80 57 49 58 34 59 35 60 43 61 36 62 42 63 37 64 38 65
REMARK SMILES IDX 39 66 40 67 41 68 64 69 65 70 73 71 66 72 72 73 67 74 68 75
REMARK SMILES IDX 69 76 70 77 71 78 50 79 51 80 59 81 52 82 58 83 53 84 54 85
REMARK SMILES IDX 55 86 56 87 57 88
REMARK H PARENT 11 14 78 44 48 55
REMARK Flexibility Score: inf
ROOT
ATOM      1  C   UNL A   1      33.647  28.037  26.644  1.00  0.00     0.274 C 
ENDROOT
BRANCH   1   2
ATOM      2  O   UNL A   1      32.620  27.177  26.108  1.00  0.00    -0.460 OA
BRANCH   2   3
ATOM      3  C   UNL A   1      32.269  27.404  24.810  1.00  0.00     0.335 C 
ATOM      4  O   UNL A   1      31.160  27.773  24.442  1.00  0.00    -0.249 OA
BRANCH   3   5
ATOM      5  C   UNL A   1      33.441  27.107  23.862  1.00  0.00     0.228 C 
ATOM      6  C   UNL A   1      33.182  24.940  23.085  1.00  0.00     0.138 C 
ATOM      7  C   UNL A   1      33.105  25.808  21.846  1.00  0.00     0.037 C 
ATOM      8  O   UNL A   1      33.895  25.753  24.042  1.00  0.00    -0.361 OA
ATOM      9  C   UNL A   1      33.046  27.225  22.395  1.00  0.00     0.047 C 
BRANCH   6  10
ATOM     10  C   UNL A   1      33.913  23.613  22.887  1.00  0.00     0.147 C 
BRANCH  10  11
ATOM     11  N   UNL A   1      33.413  22.609  23.810  1.00  0.00    -0.353 N 
ATOM     12  O   UNL A   1      31.939  21.669  22.328  1.00  0.00    -0.275 OA
ATOM     13  C   UNL A   1      32.483  21.667  23.428  1.00  0.00     0.224 C 
ATOM     14  H   UNL A   1      33.748  22.601  24.736  1.00  0.00     0.163 HD
BRANCH  13  15
ATOM     15  C   UNL A   1      32.255  20.575  24.460  1.00  0.00     0.138 C 
BRANCH  15  16
ATOM     16  C   UNL A   1      32.981  19.296  24.115  1.00  0.00    -0.003 A 
ATOM     17  C   UNL A   1      32.416  18.347  23.246  1.00  0.00     0.007 A 
ATOM     18  C   UNL A   1      34.252  19.041  24.634  1.00  0.00     0.126 A 
ATOM     19  C   UNL A   1      33.099  17.166  22.940  1.00  0.00     0.001 A 
ATOM     20  C   UNL A   1      34.939  17.868  24.329  1.00  0.00     0.039 A 
ATOM     21  F   UNL A   1      34.842  19.936  25.440  1.00  0.00    -0.207 F 
ATOM     22  C   UNL A   1      34.360  16.925  23.484  1.00  0.00     0.003 A 
ENDBRANCH  15  16
ENDBRANCH  13  15
ENDBRANCH  10  11
ENDBRANCH   6  10
ENDBRANCH   3   5
ENDBRANCH   2   3
ENDBRANCH   1   2
BRANCH   1  23
ATOM     23  C   UNL A   1      33.090  29.396  27.065  1.00  0.00     0.275 C 
BRANCH  23  24
ATOM     24  O   UNL A   1      34.063  30.440  26.897  1.00  0.00    -0.458 OA
BRANCH  24  25
ATOM     25  C   UNL A   1      34.626  30.879  28.044  1.00  0.00     0.338 C 
ATOM     26  O   UNL A   1      34.155  31.668  28.847  1.00  0.00    -0.246 OA
BRANCH  25  27
ATOM     27  C   UNL A   1      35.909  30.197  28.258  1.00  0.00     0.060 A 
ATOM     28  C   UNL A   1      36.162  29.641  29.511  1.00  0.00     0.016 A 
ATOM     29  C   UNL A   1      36.902  30.234  27.278  1.00  0.00     0.016 A 
ATOM     30  C   UNL A   1      37.441  29.183  29.818  1.00  0.00     0.010 A 
ATOM     31  C   UNL A   1      38.172  29.727  27.573  1.00  0.00     0.010 A 
ATOM     32  C   UNL A   1      38.461  29.230  28.856  1.00  0.00    -0.014 A 
BRANCH  32  33
ATOM     33  C   UNL A   1      39.837  28.810  29.224  1.00  0.00     0.031 A 
ATOM     34  C   UNL A   1      40.696  29.698  30.085  1.00  0.00     0.074 A 
ATOM     35  C   UNL A   1      40.304  27.610  28.829  1.00  0.00     0.049 A 
ATOM     36  N   UNL A   1      41.942  29.534  30.452  1.00  0.00    -0.248 NA
ATOM     37  C   UNL A   1      40.076  30.931  30.596  1.00  0.00     0.031 C 
ATOM     38  C   UNL A   1      39.563  26.635  28.026  1.00  0.00     0.029 A 
ATOM     39  N   UNL A   1      41.506  26.998  29.073  1.00  0.00    -0.354 N 
ATOM     40  C   UNL A   1      42.269  30.662  31.196  1.00  0.00     0.074 A 
ATOM     41  C   UNL A   1      41.089  31.499  31.234  1.00  0.00     0.031 C 
ATOM     42  C   UNL A   1      40.310  25.529  27.882  1.00  0.00     0.029 A 
ATOM     43  C   UNL A   1      41.598  25.736  28.539  1.00  0.00     0.049 A 
ATOM     44  H   UNL A   1      42.233  27.421  29.583  1.00  0.00     0.167 HD
ATOM     45  C   UNL A   1      43.447  30.977  31.786  1.00  0.00     0.031 A 
ATOM     46  C   UNL A   1      42.608  24.846  28.564  1.00  0.00     0.031 A 
ATOM     47  C   UNL A   1      44.613  30.135  31.779  1.00  0.00     0.049 A 
ATOM     48  C   UNL A   1      43.895  25.204  29.246  1.00  0.00     0.074 A 
ATOM     49  C   UNL A   1      45.862  30.385  32.321  1.00  0.00     0.029 A 
ATOM     50  N   UNL A   1      44.667  28.870  31.218  1.00  0.00    -0.354 N 
ATOM     51  N   UNL A   1      44.209  26.309  29.877  1.00  0.00    -0.248 NA
ATOM     52  C   UNL A   1      44.968  24.201  29.206  1.00  0.00     0.031 C 
ATOM     53  C   UNL A   1      46.676  29.270  32.078  1.00  0.00     0.029 A 
ATOM     54  C   UNL A   1      45.924  28.321  31.405  1.00  0.00     0.049 A 
ATOM     55  H   UNL A   1      43.921  28.426  30.754  1.00  0.00     0.167 HD
ATOM     56  C   UNL A   1      45.521  26.139  30.302  1.00  0.00     0.074 A 
ATOM     57  C   UNL A   1      45.932  24.815  29.878  1.00  0.00     0.031 C 
ATOM     58  C   UNL A   1      46.318  27.007  30.971  1.00  0.00     0.031 A 
BRANCH  45  59
ATOM     59  C   UNL A   1      43.534  32.317  32.458  1.00  0.00    -0.014 A 
ATOM     60  C   UNL A   1      43.232  32.469  33.822  1.00  0.00     0.010 A 
ATOM     61  C   UNL A   1      43.923  33.442  31.708  1.00  0.00     0.010 A 
ATOM     62  C   UNL A   1      43.279  33.733  34.417  1.00  0.00     0.020 A 
ATOM     63  C   UNL A   1      43.984  34.704  32.303  1.00  0.00     0.020 A 
ATOM     64  C   UNL A   1      43.641  34.845  33.650  1.00  0.00     0.054 A 
BRANCH  64  65
ATOM     65  S   UNL A   1      43.690  36.483  34.430  1.00  0.00     0.124 S 
ATOM     66  O   UNL A   1      44.940  36.416  35.183  1.00  0.00    -0.237 OA
ATOM     67  O   UNL A   1      43.693  37.392  33.287  1.00  0.00    -0.237 OA
ATOM     68  O   UNL A   1      42.474  36.512  35.240  1.00  0.00    -0.744 OA
ENDBRANCH  64  65
ENDBRANCH  45  59
BRANCH  46  69
ATOM     69  C   UNL A   1      42.436  23.528  27.902  1.00  0.00    -0.014 A 
ATOM     70  C   UNL A   1      43.180  23.210  26.752  1.00  0.00     0.010 A 
ATOM     71  C   UNL A   1      41.562  22.571  28.446  1.00  0.00     0.010 A 
ATOM     72  C   UNL A   1      43.055  21.951  26.158  1.00  0.00     0.020 A 
ATOM     73  C   UNL A   1      41.447  21.307  27.863  1.00  0.00     0.020 A 
ATOM     74  C   UNL A   1      42.191  21.007  26.719  1.00  0.00     0.054 A 
BRANCH  74  75
ATOM     75  S   UNL A   1      42.100  19.343  26.001  1.00  0.00     0.124 S 
ATOM     76  O   UNL A   1      42.902  19.492  24.791  1.00  0.00    -0.237 OA
ATOM     77  O   UNL A   1      42.681  18.502  27.046  1.00  0.00    -0.237 OA
ATOM     78  O   UNL A   1      40.666  19.151  25.788  1.00  0.00    -0.744 OA
ENDBRANCH  74  75
ENDBRANCH  46  69
BRANCH  58  79
ATOM     79  C   UNL A   1      47.712  26.548  31.281  1.00  0.00    -0.014 A 
ATOM     80  C   UNL A   1      48.767  26.819  30.392  1.00  0.00     0.010 A 
ATOM     81  C   UNL A   1      47.977  25.866  32.481  1.00  0.00     0.010 A 
ATOM     82  C   UNL A   1      50.063  26.389  30.685  1.00  0.00     0.020 A 
ATOM     83  C   UNL A   1      49.274  25.445  32.783  1.00  0.00     0.020 A 
ATOM     84  C   UNL A   1      50.307  25.696  31.875  1.00  0.00     0.054 A 
BRANCH  84  85
ATOM     85  S   UNL A   1      52.000  25.168  32.259  1.00  0.00     0.124 S 
ATOM     86  O   UNL A   1      51.849  23.719  32.358  1.00  0.00    -0.237 OA
ATOM     87  O   UNL A   1      52.762  25.642  31.106  1.00  0.00    -0.237 OA
ATOM     88  O   UNL A   1      52.294  25.854  33.516  1.00  0.00    -0.744 OA
ENDBRANCH  84  85
ENDBRANCH  58  79
ENDBRANCH  32  33
ENDBRANCH  25  27
ENDBRANCH  24  25
ENDBRANCH  23  24
ENDBRANCH   1  23
TORSDOF 18
ENDMDL
