MODEL 1
REMARK VINA RESULT:     -10.3      0.000      0.000
REMARK SMILES CC(C)[NH2+][C@@]1(C(=O)OCCOC(=O)c2ccc(-c3c4nc(c(-c5ccc(S(=O)(=O)[O-])cc5)c5ccc([nH]5)c(-c5ccc(S(=O)(=O)[O-])cc5)c5nc(c(-c6ccc(S(=O)(=O)[O-])cc6)c6ccc3[nH]6)C=C5)C=C4)cc2)CC[C@@H](Sc2ccncc2)C1
REMARK SMILES IDX 10 1 9 2 8 3 6 4 7 5 5 6 74 7 84 8 75 9 76 10 4 11 2 14 1 15
REMARK SMILES IDX 3 16 77 17 78 18 79 19 83 20 80 21 82 22 81 23 11 24 12 25
REMARK SMILES IDX 13 26 14 27 15 28 73 29 16 30 72 31 17 32 18 33 19 34 66 35
REMARK SMILES IDX 20 36 71 37 65 38 67 39 21 40 70 41 64 42 63 43 22 45 52 46
REMARK SMILES IDX 33 47 51 48 34 49 37 50 50 51 68 52 35 53 36 54 49 56 69 57
REMARK SMILES IDX 38 58 23 59 24 60 32 61 25 62 31 63 26 64 27 65 28 66 29 67
REMARK SMILES IDX 30 68 53 69 54 70 62 71 55 72 61 73 56 74 57 75 58 76 59 77
REMARK SMILES IDX 60 78 39 79 40 80 48 81 41 82 47 83 42 84 43 85 44 86 45 87
REMARK SMILES IDX 46 88
REMARK H PARENT 4 12 4 13 67 44 37 55
REMARK Flexibility Score: inf
ROOT
ATOM      1  C   UNL A   1      39.282  20.293  25.747  1.00  0.00     0.275 C 
ENDROOT
BRANCH   1   2
ATOM      2  C   UNL A   1      38.755  21.701  26.027  1.00  0.00     0.274 C 
BRANCH   2   3
ATOM      3  O   UNL A   1      37.472  21.903  25.401  1.00  0.00    -0.457 OA
BRANCH   3   4
ATOM      4  C   UNL A   1      36.814  23.063  25.714  1.00  0.00     0.368 C 
ATOM      5  O   UNL A   1      37.317  23.952  26.391  1.00  0.00    -0.245 OA
BRANCH   4   6
ATOM      6  C   UNL A   1      35.340  23.061  25.168  1.00  0.00     0.195 C 
ATOM      7  C   UNL A   1      34.331  23.114  26.322  1.00  0.00     0.082 C 
ATOM      8  C   UNL A   1      35.014  21.720  24.459  1.00  0.00     0.096 C 
ATOM      9  C   UNL A   1      34.161  21.670  26.769  1.00  0.00     0.022 C 
ATOM     10  C   UNL A   1      34.292  20.842  25.490  1.00  0.00     0.059 C 
BRANCH   6  11
ATOM     11  N   UNL A   1      35.145  24.149  24.173  1.00  0.00    -0.330 N 
ATOM     12  H   UNL A   1      35.671  24.958  24.506  1.00  0.00     0.347 HD
ATOM     13  H   UNL A   1      35.460  23.742  23.293  1.00  0.00     0.347 HD
BRANCH  11  14
ATOM     14  C   UNL A   1      33.775  24.606  23.892  1.00  0.00     0.176 C 
ATOM     15  C   UNL A   1      33.787  26.134  23.996  1.00  0.00     0.075 C 
ATOM     16  C   UNL A   1      33.298  24.210  22.492  1.00  0.00     0.075 C 
ENDBRANCH  11  14
ENDBRANCH   6  11
BRANCH  10  17
ATOM     17  S   UNL A   1      32.707  20.107  24.892  1.00  0.00    -0.122 SA
BRANCH  17  18
ATOM     18  C   UNL A   1      33.083  18.371  24.718  1.00  0.00     0.011 A 
ATOM     19  C   UNL A   1      33.671  17.874  23.556  1.00  0.00     0.035 A 
ATOM     20  C   UNL A   1      32.886  17.507  25.794  1.00  0.00     0.035 A 
ATOM     21  C   UNL A   1      33.978  16.525  23.495  1.00  0.00     0.112 A 
ATOM     22  C   UNL A   1      33.240  16.177  25.643  1.00  0.00     0.112 A 
ATOM     23  N   UNL A   1      33.768  15.664  24.512  1.00  0.00    -0.265 NA
ENDBRANCH  17  18
ENDBRANCH  10  17
ENDBRANCH   4   6
ENDBRANCH   3   4
ENDBRANCH   2   3
ENDBRANCH   1   2
BRANCH   1  24
ATOM     24  O   UNL A   1      40.310  19.939  26.689  1.00  0.00    -0.458 OA
BRANCH  24  25
ATOM     25  C   UNL A   1      41.576  19.944  26.208  1.00  0.00     0.338 C 
ATOM     26  O   UNL A   1      42.132  19.069  25.568  1.00  0.00    -0.246 OA
BRANCH  25  27
ATOM     27  C   UNL A   1      42.166  21.267  26.459  1.00  0.00     0.060 A 
ATOM     28  C   UNL A   1      42.373  21.642  27.787  1.00  0.00     0.016 A 
ATOM     29  C   UNL A   1      42.485  22.139  25.417  1.00  0.00     0.016 A 
ATOM     30  C   UNL A   1      42.936  22.881  28.082  1.00  0.00     0.010 A 
ATOM     31  C   UNL A   1      43.048  23.386  25.716  1.00  0.00     0.010 A 
ATOM     32  C   UNL A   1      43.287  23.758  27.050  1.00  0.00    -0.014 A 
BRANCH  32  33
ATOM     33  C   UNL A   1      43.910  25.060  27.383  1.00  0.00     0.031 A 
ATOM     34  C   UNL A   1      43.080  26.164  27.966  1.00  0.00     0.074 A 
ATOM     35  C   UNL A   1      45.233  25.230  27.203  1.00  0.00     0.049 A 
ATOM     36  N   UNL A   1      43.433  27.386  28.269  1.00  0.00    -0.248 NA
ATOM     37  C   UNL A   1      41.674  25.848  28.257  1.00  0.00     0.031 C 
ATOM     38  C   UNL A   1      46.159  24.202  26.725  1.00  0.00     0.029 A 
ATOM     39  N   UNL A   1      46.029  26.329  27.407  1.00  0.00    -0.354 N 
ATOM     40  C   UNL A   1      42.292  27.992  28.780  1.00  0.00     0.074 A 
ATOM     41  C   UNL A   1      41.235  27.003  28.742  1.00  0.00     0.031 C 
ATOM     42  C   UNL A   1      47.397  24.721  26.669  1.00  0.00     0.029 A 
ATOM     43  C   UNL A   1      47.344  26.128  27.059  1.00  0.00     0.049 A 
ATOM     44  H   UNL A   1      45.691  27.180  27.767  1.00  0.00     0.167 HD
ATOM     45  C   UNL A   1      42.141  29.260  29.229  1.00  0.00     0.031 A 
ATOM     46  C   UNL A   1      48.379  26.989  27.023  1.00  0.00     0.031 A 
ATOM     47  C   UNL A   1      43.187  30.249  29.239  1.00  0.00     0.049 A 
ATOM     48  C   UNL A   1      48.154  28.424  27.416  1.00  0.00     0.074 A 
ATOM     49  C   UNL A   1      43.120  31.568  29.652  1.00  0.00     0.029 A 
ATOM     50  N   UNL A   1      44.485  30.031  28.803  1.00  0.00    -0.354 N 
ATOM     51  N   UNL A   1      47.064  28.991  27.877  1.00  0.00    -0.248 NA
ATOM     52  C   UNL A   1      49.294  29.341  27.268  1.00  0.00     0.031 C 
ATOM     53  C   UNL A   1      44.365  32.163  29.417  1.00  0.00     0.029 A 
ATOM     54  C   UNL A   1      45.220  31.200  28.904  1.00  0.00     0.049 A 
ATOM     55  H   UNL A   1      44.832  29.173  28.471  1.00  0.00     0.167 HD
ATOM     56  C   UNL A   1      47.390  30.329  28.077  1.00  0.00     0.074 A 
ATOM     57  C   UNL A   1      48.782  30.482  27.710  1.00  0.00     0.031 C 
ATOM     58  C   UNL A   1      46.602  31.341  28.520  1.00  0.00     0.031 A 
BRANCH  45  59
ATOM     59  C   UNL A   1      40.770  29.666  29.693  1.00  0.00    -0.014 A 
ATOM     60  C   UNL A   1      39.772  30.043  28.779  1.00  0.00     0.010 A 
ATOM     61  C   UNL A   1      40.473  29.648  31.068  1.00  0.00     0.010 A 
ATOM     62  C   UNL A   1      38.507  30.427  29.235  1.00  0.00     0.020 A 
ATOM     63  C   UNL A   1      39.206  30.014  31.526  1.00  0.00     0.020 A 
ATOM     64  C   UNL A   1      38.235  30.418  30.607  1.00  0.00     0.054 A 
BRANCH  64  65
ATOM     65  S   UNL A   1      36.586  30.916  31.175  1.00  0.00     0.124 S 
ATOM     66  O   UNL A   1      36.894  32.079  32.005  1.00  0.00    -0.237 OA
ATOM     67  O   UNL A   1      35.888  31.205  29.925  1.00  0.00    -0.237 OA
ATOM     68  O   UNL A   1      36.100  29.745  31.900  1.00  0.00    -0.744 OA
ENDBRANCH  64  65
ENDBRANCH  45  59
BRANCH  46  69
ATOM     69  C   UNL A   1      49.710  26.537  26.534  1.00  0.00    -0.014 A 
ATOM     70  C   UNL A   1      50.637  25.945  27.408  1.00  0.00     0.010 A 
ATOM     71  C   UNL A   1      50.058  26.707  25.180  1.00  0.00     0.010 A 
ATOM     72  C   UNL A   1      51.894  25.547  26.941  1.00  0.00     0.020 A 
ATOM     73  C   UNL A   1      51.302  26.287  24.705  1.00  0.00     0.020 A 
ATOM     74  C   UNL A   1      52.219  25.720  25.592  1.00  0.00     0.054 A 
BRANCH  74  75
ATOM     75  S   UNL A   1      53.836  25.156  24.993  1.00  0.00     0.124 S 
ATOM     76  O   UNL A   1      53.606  23.727  24.802  1.00  0.00    -0.237 OA
ATOM     77  O   UNL A   1      54.015  25.937  23.772  1.00  0.00    -0.237 OA
ATOM     78  O   UNL A   1      54.743  25.505  26.084  1.00  0.00    -0.744 OA
ENDBRANCH  74  75
ENDBRANCH  46  69
BRANCH  58  79
ATOM     79  C   UNL A   1      47.229  32.704  28.635  1.00  0.00    -0.014 A 
ATOM     80  C   UNL A   1      47.883  33.100  29.816  1.00  0.00     0.010 A 
ATOM     81  C   UNL A   1      47.214  33.577  27.533  1.00  0.00     0.010 A 
ATOM     82  C   UNL A   1      48.490  34.356  29.899  1.00  0.00     0.020 A 
ATOM     83  C   UNL A   1      47.840  34.823  27.605  1.00  0.00     0.020 A 
ATOM     84  C   UNL A   1      48.464  35.210  28.793  1.00  0.00     0.054 A 
BRANCH  84  85
ATOM     85  S   UNL A   1      49.304  36.815  28.907  1.00  0.00     0.124 S 
ATOM     86  O   UNL A   1      50.692  36.450  28.633  1.00  0.00    -0.237 OA
ATOM     87  O   UNL A   1      48.644  37.600  27.867  1.00  0.00    -0.237 OA
ATOM     88  O   UNL A   1      49.033  37.252  30.275  1.00  0.00    -0.744 OA
ENDBRANCH  84  85
ENDBRANCH  58  79
ENDBRANCH  32  33
ENDBRANCH  25  27
ENDBRANCH  24  25
ENDBRANCH   1  24
TORSDOF 18
ENDMDL
MODEL 2
REMARK VINA RESULT:      -9.9      6.466      8.585
REMARK SMILES CC(C)[NH2+][C@@]1(C(=O)OCCOC(=O)c2ccc(-c3c4nc(c(-c5ccc(S(=O)(=O)[O-])cc5)c5ccc([nH]5)c(-c5ccc(S(=O)(=O)[O-])cc5)c5nc(c(-c6ccc(S(=O)(=O)[O-])cc6)c6ccc3[nH]6)C=C5)C=C4)cc2)CC[C@@H](Sc2ccncc2)C1
REMARK SMILES IDX 10 1 9 2 8 3 6 4 7 5 5 6 74 7 84 8 75 9 76 10 4 11 2 14 1 15
REMARK SMILES IDX 3 16 77 17 78 18 79 19 83 20 80 21 82 22 81 23 11 24 12 25
REMARK SMILES IDX 13 26 14 27 15 28 73 29 16 30 72 31 17 32 18 33 19 34 66 35
REMARK SMILES IDX 20 36 71 37 65 38 67 39 21 40 70 41 64 42 63 43 22 45 52 46
REMARK SMILES IDX 33 47 51 48 34 49 37 50 50 51 68 52 35 53 36 54 49 56 69 57
REMARK SMILES IDX 38 58 23 59 24 60 32 61 25 62 31 63 26 64 27 65 28 66 29 67
REMARK SMILES IDX 30 68 53 69 54 70 62 71 55 72 61 73 56 74 57 75 58 76 59 77
REMARK SMILES IDX 60 78 39 79 40 80 48 81 41 82 47 83 42 84 43 85 44 86 45 87
REMARK SMILES IDX 46 88
REMARK H PARENT 4 12 4 13 67 44 37 55
REMARK Flexibility Score: inf
ROOT
ATOM      1  C   UNL A   1      39.491  23.341  26.053  1.00  0.00     0.275 C 
ENDROOT
BRANCH   1   2
ATOM      2  C   UNL A   1      38.060  23.311  26.592  1.00  0.00     0.274 C 
BRANCH   2   3
ATOM      3  O   UNL A   1      37.180  24.089  25.756  1.00  0.00    -0.457 OA
BRANCH   3   4
ATOM      4  C   UNL A   1      36.438  23.396  24.837  1.00  0.00     0.368 C 
ATOM      5  O   UNL A   1      36.813  23.204  23.687  1.00  0.00    -0.245 OA
BRANCH   4   6
ATOM      6  C   UNL A   1      35.044  22.964  25.421  1.00  0.00     0.195 C 
ATOM      7  C   UNL A   1      35.181  21.712  26.295  1.00  0.00     0.082 C 
ATOM      8  C   UNL A   1      34.084  22.514  24.287  1.00  0.00     0.096 C 
ATOM      9  C   UNL A   1      35.131  20.542  25.326  1.00  0.00     0.022 C 
ATOM     10  C   UNL A   1      34.170  20.983  24.222  1.00  0.00     0.059 C 
BRANCH   6  11
ATOM     11  N   UNL A   1      34.394  24.100  26.128  1.00  0.00    -0.330 N 
ATOM     12  H   UNL A   1      34.025  23.736  27.006  1.00  0.00     0.347 HD
ATOM     13  H   UNL A   1      35.132  24.800  26.208  1.00  0.00     0.347 HD
BRANCH  11  14
ATOM     14  C   UNL A   1      33.295  24.809  25.454  1.00  0.00     0.176 C 
ATOM     15  C   UNL A   1      32.087  24.751  26.395  1.00  0.00     0.075 C 
ATOM     16  C   UNL A   1      33.627  26.277  25.170  1.00  0.00     0.075 C 
ENDBRANCH  11  14
ENDBRANCH   6  11
BRANCH  10  17
ATOM     17  S   UNL A   1      32.535  20.126  24.246  1.00  0.00    -0.122 SA
BRANCH  17  18
ATOM     18  C   UNL A   1      32.961  18.404  24.442  1.00  0.00     0.011 A 
ATOM     19  C   UNL A   1      32.555  17.684  25.565  1.00  0.00     0.035 A 
ATOM     20  C   UNL A   1      33.620  17.731  23.415  1.00  0.00     0.035 A 
ATOM     21  C   UNL A   1      32.879  16.340  25.642  1.00  0.00     0.112 A 
ATOM     22  C   UNL A   1      33.887  16.382  23.577  1.00  0.00     0.112 A 
ATOM     23  N   UNL A   1      33.543  15.675  24.675  1.00  0.00    -0.265 NA
ENDBRANCH  17  18
ENDBRANCH  10  17
ENDBRANCH   4   6
ENDBRANCH   3   4
ENDBRANCH   2   3
ENDBRANCH   1   2
BRANCH   1  24
ATOM     24  O   UNL A   1      40.351  24.082  26.936  1.00  0.00    -0.458 OA
BRANCH  24  25
ATOM     25  C   UNL A   1      40.731  25.306  26.497  1.00  0.00     0.338 C 
ATOM     26  O   UNL A   1      40.972  25.644  25.353  1.00  0.00    -0.246 OA
BRANCH  25  27
ATOM     27  C   UNL A   1      40.676  26.245  27.628  1.00  0.00     0.060 A 
ATOM     28  C   UNL A   1      39.669  26.059  28.575  1.00  0.00     0.016 A 
ATOM     29  C   UNL A   1      41.575  27.306  27.746  1.00  0.00     0.016 A 
ATOM     30  C   UNL A   1      39.575  26.914  29.671  1.00  0.00     0.010 A 
ATOM     31  C   UNL A   1      41.478  28.167  28.846  1.00  0.00     0.010 A 
ATOM     32  C   UNL A   1      40.485  27.967  29.821  1.00  0.00    -0.014 A 
BRANCH  32  33
ATOM     33  C   UNL A   1      40.385  28.848  31.007  1.00  0.00     0.031 A 
ATOM     34  C   UNL A   1      39.386  29.965  31.033  1.00  0.00     0.074 A 
ATOM     35  C   UNL A   1      41.166  28.612  32.078  1.00  0.00     0.049 A 
ATOM     36  N   UNL A   1      39.190  30.872  31.955  1.00  0.00    -0.248 NA
ATOM     37  C   UNL A   1      38.480  30.067  29.879  1.00  0.00     0.031 C 
ATOM     38  C   UNL A   1      42.114  27.504  32.204  1.00  0.00     0.029 A 
ATOM     39  N   UNL A   1      41.280  29.287  33.267  1.00  0.00    -0.354 N 
ATOM     40  C   UNL A   1      38.145  31.660  31.492  1.00  0.00     0.074 A 
ATOM     41  C   UNL A   1      37.750  31.126  30.205  1.00  0.00     0.031 C 
ATOM     42  C   UNL A   1      42.717  27.579  33.403  1.00  0.00     0.029 A 
ATOM     43  C   UNL A   1      42.234  28.764  34.108  1.00  0.00     0.049 A 
ATOM     44  H   UNL A   1      40.732  30.073  33.496  1.00  0.00     0.167 HD
ATOM     45  C   UNL A   1      37.574  32.736  32.083  1.00  0.00     0.031 A 
ATOM     46  C   UNL A   1      42.692  29.210  35.294  1.00  0.00     0.031 A 
ATOM     47  C   UNL A   1      37.987  33.281  33.350  1.00  0.00     0.049 A 
ATOM     48  C   UNL A   1      42.122  30.476  35.872  1.00  0.00     0.074 A 
ATOM     49  C   UNL A   1      37.485  34.386  34.016  1.00  0.00     0.029 A 
ATOM     50  N   UNL A   1      39.011  32.772  34.134  1.00  0.00    -0.354 N 
ATOM     51  N   UNL A   1      41.148  31.226  35.413  1.00  0.00    -0.248 NA
ATOM     52  C   UNL A   1      42.724  30.968  37.121  1.00  0.00     0.031 C 
ATOM     53  C   UNL A   1      38.241  34.574  35.179  1.00  0.00     0.029 A 
ATOM     54  C   UNL A   1      39.180  33.559  35.261  1.00  0.00     0.049 A 
ATOM     55  H   UNL A   1      39.539  31.970  33.921  1.00  0.00     0.167 HD
ATOM     56  C   UNL A   1      41.019  32.274  36.319  1.00  0.00     0.074 A 
ATOM     57  C   UNL A   1      41.997  32.050  37.363  1.00  0.00     0.031 C 
ATOM     58  C   UNL A   1      40.169  33.331  36.284  1.00  0.00     0.031 A 
BRANCH  45  59
ATOM     59  C   UNL A   1      36.476  33.433  31.331  1.00  0.00    -0.014 A 
ATOM     60  C   UNL A   1      36.679  33.922  30.029  1.00  0.00     0.010 A 
ATOM     61  C   UNL A   1      35.212  33.579  31.931  1.00  0.00     0.010 A 
ATOM     62  C   UNL A   1      35.645  34.576  29.352  1.00  0.00     0.020 A 
ATOM     63  C   UNL A   1      34.171  34.217  31.252  1.00  0.00     0.020 A 
ATOM     64  C   UNL A   1      34.400  34.727  29.972  1.00  0.00     0.054 A 
BRANCH  64  65
ATOM     65  S   UNL A   1      33.072  35.575  29.073  1.00  0.00     0.124 S 
ATOM     66  O   UNL A   1      32.520  34.491  28.263  1.00  0.00    -0.237 OA
ATOM     67  O   UNL A   1      32.210  36.056  30.149  1.00  0.00    -0.237 OA
ATOM     68  O   UNL A   1      33.770  36.618  28.325  1.00  0.00    -0.744 OA
ENDBRANCH  64  65
ENDBRANCH  45  59
BRANCH  46  69
ATOM     69  C   UNL A   1      43.797  28.491  35.984  1.00  0.00    -0.014 A 
ATOM     70  C   UNL A   1      45.140  28.802  35.715  1.00  0.00     0.010 A 
ATOM     71  C   UNL A   1      43.503  27.475  36.914  1.00  0.00     0.010 A 
ATOM     72  C   UNL A   1      46.170  28.102  36.352  1.00  0.00     0.020 A 
ATOM     73  C   UNL A   1      44.529  26.791  37.572  1.00  0.00     0.020 A 
ATOM     74  C   UNL A   1      45.858  27.100  37.277  1.00  0.00     0.054 A 
BRANCH  74  75
ATOM     75  S   UNL A   1      47.205  26.233  38.128  1.00  0.00     0.124 S 
ATOM     76  O   UNL A   1      46.511  25.083  38.700  1.00  0.00    -0.237 OA
ATOM     77  O   UNL A   1      48.132  25.935  37.038  1.00  0.00    -0.237 OA
ATOM     78  O   UNL A   1      47.688  27.219  39.092  1.00  0.00    -0.744 OA
ENDBRANCH  74  75
ENDBRANCH  46  69
BRANCH  58  79
ATOM     79  C   UNL A   1      40.258  34.325  37.411  1.00  0.00    -0.014 A 
ATOM     80  C   UNL A   1      41.067  35.470  37.299  1.00  0.00     0.010 A 
ATOM     81  C   UNL A   1      39.482  34.142  38.569  1.00  0.00     0.010 A 
ATOM     82  C   UNL A   1      41.117  36.402  38.339  1.00  0.00     0.020 A 
ATOM     83  C   UNL A   1      39.511  35.084  39.600  1.00  0.00     0.020 A 
ATOM     84  C   UNL A   1      40.339  36.203  39.483  1.00  0.00     0.054 A 
BRANCH  84  85
ATOM     85  S   UNL A   1      40.379  37.454  40.798  1.00  0.00     0.124 S 
ATOM     86  O   UNL A   1      41.373  38.396  40.290  1.00  0.00    -0.237 OA
ATOM     87  O   UNL A   1      39.002  37.944  40.820  1.00  0.00    -0.237 OA
ATOM     88  O   UNL A   1      40.784  36.699  41.982  1.00  0.00    -0.744 OA
ENDBRANCH  84  85
ENDBRANCH  58  79
ENDBRANCH  32  33
ENDBRANCH  25  27
ENDBRANCH  24  25
ENDBRANCH   1  24
TORSDOF 18
ENDMDL
MODEL 3
REMARK VINA RESULT:      -9.8      2.707      9.471
REMARK SMILES CC(C)[NH2+][C@@]1(C(=O)OCCOC(=O)c2ccc(-c3c4nc(c(-c5ccc(S(=O)(=O)[O-])cc5)c5ccc([nH]5)c(-c5ccc(S(=O)(=O)[O-])cc5)c5nc(c(-c6ccc(S(=O)(=O)[O-])cc6)c6ccc3[nH]6)C=C5)C=C4)cc2)CC[C@@H](Sc2ccncc2)C1
REMARK SMILES IDX 10 1 9 2 8 3 6 4 7 5 5 6 74 7 84 8 75 9 76 10 4 11 2 14 1 15
REMARK SMILES IDX 3 16 77 17 78 18 79 19 83 20 80 21 82 22 81 23 11 24 12 25
REMARK SMILES IDX 13 26 14 27 15 28 73 29 16 30 72 31 17 32 18 33 19 34 66 35
REMARK SMILES IDX 20 36 71 37 65 38 67 39 21 40 70 41 64 42 63 43 22 45 52 46
REMARK SMILES IDX 33 47 51 48 34 49 37 50 50 51 68 52 35 53 36 54 49 56 69 57
REMARK SMILES IDX 38 58 23 59 24 60 32 61 25 62 31 63 26 64 27 65 28 66 29 67
REMARK SMILES IDX 30 68 53 69 54 70 62 71 55 72 61 73 56 74 57 75 58 76 59 77
REMARK SMILES IDX 60 78 39 79 40 80 48 81 41 82 47 83 42 84 43 85 44 86 45 87
REMARK SMILES IDX 46 88
REMARK H PARENT 4 12 4 13 67 44 37 55
REMARK Flexibility Score: inf
ROOT
ATOM      1  C   UNL A   1      37.710  21.186  25.079  1.00  0.00     0.275 C 
ENDROOT
BRANCH   1   2
ATOM      2  C   UNL A   1      36.231  20.969  25.403  1.00  0.00     0.274 C 
BRANCH   2   3
ATOM      3  O   UNL A   1      35.682  22.112  26.088  1.00  0.00    -0.457 OA
BRANCH   3   4
ATOM      4  C   UNL A   1      34.324  22.128  26.262  1.00  0.00     0.368 C 
ATOM      5  O   UNL A   1      33.765  21.566  27.196  1.00  0.00    -0.245 OA
BRANCH   4   6
ATOM      6  C   UNL A   1      33.595  22.875  25.086  1.00  0.00     0.195 C 
ATOM      7  C   UNL A   1      34.244  24.239  24.820  1.00  0.00     0.082 C 
ATOM      8  C   UNL A   1      32.137  23.235  25.479  1.00  0.00     0.096 C 
ATOM      9  C   UNL A   1      33.598  25.189  25.817  1.00  0.00     0.022 C 
ATOM     10  C   UNL A   1      32.159  24.691  25.963  1.00  0.00     0.059 C 
BRANCH   6  11
ATOM     11  N   UNL A   1      33.530  22.015  23.875  1.00  0.00    -0.330 N 
ATOM     12  H   UNL A   1      33.520  22.636  23.065  1.00  0.00     0.347 HD
ATOM     13  H   UNL A   1      34.342  21.402  23.959  1.00  0.00     0.347 HD
BRANCH  11  14
ATOM     14  C   UNL A   1      32.394  21.092  23.730  1.00  0.00     0.176 C 
ATOM     15  C   UNL A   1      31.948  21.163  22.266  1.00  0.00     0.075 C 
ATOM     16  C   UNL A   1      32.765  19.644  24.062  1.00  0.00     0.075 C 
ENDBRANCH  11  14
ENDBRANCH   6  11
BRANCH  10  17
ATOM     17  S   UNL A   1      30.892  25.777  25.172  1.00  0.00    -0.122 SA
BRANCH  17  18
ATOM     18  C   UNL A   1      31.355  27.419  25.695  1.00  0.00     0.011 A 
ATOM     19  C   UNL A   1      31.536  27.722  27.044  1.00  0.00     0.035 A 
ATOM     20  C   UNL A   1      31.644  28.395  24.744  1.00  0.00     0.035 A 
ATOM     21  C   UNL A   1      31.936  29.002  27.387  1.00  0.00     0.112 A 
ATOM     22  C   UNL A   1      32.053  29.643  25.183  1.00  0.00     0.112 A 
ATOM     23  N   UNL A   1      32.191  29.972  26.485  1.00  0.00    -0.265 NA
ENDBRANCH  17  18
ENDBRANCH  10  17
ENDBRANCH   4   6
ENDBRANCH   3   4
ENDBRANCH   2   3
ENDBRANCH   1   2
BRANCH   1  24
ATOM     24  O   UNL A   1      38.219  22.334  25.780  1.00  0.00    -0.458 OA
BRANCH  24  25
ATOM     25  C   UNL A   1      39.368  22.139  26.472  1.00  0.00     0.338 C 
ATOM     26  O   UNL A   1      39.945  21.086  26.674  1.00  0.00    -0.246 OA
BRANCH  25  27
ATOM     27  C   UNL A   1      39.918  23.452  26.842  1.00  0.00     0.060 A 
ATOM     28  C   UNL A   1      40.682  23.529  28.006  1.00  0.00     0.016 A 
ATOM     29  C   UNL A   1      39.667  24.595  26.080  1.00  0.00     0.016 A 
ATOM     30  C   UNL A   1      41.233  24.746  28.399  1.00  0.00     0.010 A 
ATOM     31  C   UNL A   1      40.219  25.818  26.478  1.00  0.00     0.010 A 
ATOM     32  C   UNL A   1      41.016  25.897  27.634  1.00  0.00    -0.014 A 
BRANCH  32  33
ATOM     33  C   UNL A   1      41.634  27.176  28.054  1.00  0.00     0.031 A 
ATOM     34  C   UNL A   1      43.117  27.366  27.948  1.00  0.00     0.074 A 
ATOM     35  C   UNL A   1      40.851  28.182  28.488  1.00  0.00     0.049 A 
ATOM     36  N   UNL A   1      43.842  28.389  28.317  1.00  0.00    -0.248 NA
ATOM     37  C   UNL A   1      43.880  26.268  27.335  1.00  0.00     0.031 C 
ATOM     38  C   UNL A   1      39.389  28.145  28.554  1.00  0.00     0.029 A 
ATOM     39  N   UNL A   1      41.176  29.431  28.951  1.00  0.00    -0.354 N 
ATOM     40  C   UNL A   1      45.152  28.059  27.990  1.00  0.00     0.074 A 
ATOM     41  C   UNL A   1      45.119  26.739  27.396  1.00  0.00     0.031 C 
ATOM     42  C   UNL A   1      38.944  29.319  29.034  1.00  0.00     0.029 A 
ATOM     43  C   UNL A   1      40.088  30.169  29.354  1.00  0.00     0.049 A 
ATOM     44  H   UNL A   1      42.101  29.768  28.991  1.00  0.00     0.167 HD
ATOM     45  C   UNL A   1      46.277  28.788  28.179  1.00  0.00     0.031 A 
ATOM     46  C   UNL A   1      40.024  31.377  29.948  1.00  0.00     0.031 A 
ATOM     47  C   UNL A   1      46.309  30.089  28.794  1.00  0.00     0.049 A 
ATOM     48  C   UNL A   1      41.299  32.114  30.253  1.00  0.00     0.074 A 
ATOM     49  C   UNL A   1      47.406  30.893  29.051  1.00  0.00     0.029 A 
ATOM     50  N   UNL A   1      45.195  30.769  29.264  1.00  0.00    -0.354 N 
ATOM     51  N   UNL A   1      42.534  31.781  29.959  1.00  0.00    -0.248 NA
ATOM     52  C   UNL A   1      41.175  33.383  30.987  1.00  0.00     0.031 C 
ATOM     53  C   UNL A   1      46.961  32.037  29.723  1.00  0.00     0.029 A 
ATOM     54  C   UNL A   1      45.581  31.968  29.840  1.00  0.00     0.049 A 
ATOM     55  H   UNL A   1      44.268  30.447  29.197  1.00  0.00     0.167 HD
ATOM     56  C   UNL A   1      43.332  32.801  30.468  1.00  0.00     0.074 A 
ATOM     57  C   UNL A   1      42.441  33.773  31.067  1.00  0.00     0.031 C 
ATOM     58  C   UNL A   1      44.683  32.918  30.445  1.00  0.00     0.031 A 
BRANCH  45  59
ATOM     59  C   UNL A   1      47.579  28.163  27.764  1.00  0.00    -0.014 A 
ATOM     60  C   UNL A   1      48.308  27.343  28.643  1.00  0.00     0.010 A 
ATOM     61  C   UNL A   1      48.068  28.383  26.464  1.00  0.00     0.010 A 
ATOM     62  C   UNL A   1      49.522  26.781  28.238  1.00  0.00     0.020 A 
ATOM     63  C   UNL A   1      49.272  27.809  26.050  1.00  0.00     0.020 A 
ATOM     64  C   UNL A   1      50.001  27.025  26.946  1.00  0.00     0.054 A 
BRANCH  64  65
ATOM     65  S   UNL A   1      51.576  26.281  26.442  1.00  0.00     0.124 S 
ATOM     66  O   UNL A   1      51.380  24.882  26.816  1.00  0.00    -0.237 OA
ATOM     67  O   UNL A   1      51.614  26.547  25.007  1.00  0.00    -0.237 OA
ATOM     68  O   UNL A   1      52.570  27.003  27.232  1.00  0.00    -0.744 OA
ENDBRANCH  64  65
ENDBRANCH  45  59
BRANCH  46  69
ATOM     69  C   UNL A   1      38.707  31.938  30.356  1.00  0.00    -0.014 A 
ATOM     70  C   UNL A   1      38.141  31.619  31.601  1.00  0.00     0.010 A 
ATOM     71  C   UNL A   1      38.006  32.794  29.485  1.00  0.00     0.010 A 
ATOM     72  C   UNL A   1      36.891  32.132  31.963  1.00  0.00     0.020 A 
ATOM     73  C   UNL A   1      36.769  33.329  29.853  1.00  0.00     0.020 A 
ATOM     74  C   UNL A   1      36.213  32.985  31.086  1.00  0.00     0.054 A 
BRANCH  74  75
ATOM     75  S   UNL A   1      34.613  33.679  31.590  1.00  0.00     0.124 S 
ATOM     76  O   UNL A   1      35.017  34.901  32.277  1.00  0.00    -0.237 OA
ATOM     77  O   UNL A   1      33.931  33.867  30.311  1.00  0.00    -0.237 OA
ATOM     78  O   UNL A   1      34.045  32.638  32.442  1.00  0.00    -0.744 OA
ENDBRANCH  74  75
ENDBRANCH  46  69
BRANCH  58  79
ATOM     79  C   UNL A   1      45.281  34.142  31.085  1.00  0.00    -0.014 A 
ATOM     80  C   UNL A   1      45.460  35.326  30.348  1.00  0.00     0.010 A 
ATOM     81  C   UNL A   1      45.615  34.126  32.451  1.00  0.00     0.010 A 
ATOM     82  C   UNL A   1      45.986  36.467  30.962  1.00  0.00     0.020 A 
ATOM     83  C   UNL A   1      46.119  35.270  33.073  1.00  0.00     0.020 A 
ATOM     84  C   UNL A   1      46.313  36.431  32.320  1.00  0.00     0.054 A 
BRANCH  84  85
ATOM     85  S   UNL A   1      46.944  37.939  33.109  1.00  0.00     0.124 S 
ATOM     86  O   UNL A   1      48.163  38.191  32.346  1.00  0.00    -0.237 OA
ATOM     87  O   UNL A   1      45.859  38.895  32.895  1.00  0.00    -0.237 OA
ATOM     88  O   UNL A   1      47.149  37.542  34.500  1.00  0.00    -0.744 OA
ENDBRANCH  84  85
ENDBRANCH  58  79
ENDBRANCH  32  33
ENDBRANCH  25  27
ENDBRANCH  24  25
ENDBRANCH   1  24
TORSDOF 18
ENDMDL
