MODEL 1
REMARK VINA RESULT:     -10.6      0.000      0.000
REMARK SMILES C[C@@H](C(=O)OCCOC(=O)c1ccc(-c2c3nc(c(-c4ccc(S(=O)(=O)[O-])cc4)c4ccc([nH]4)c(-c4ccc(S(=O)(=O)[O-])cc4)c4nc(c(-c5ccc(S(=O)(=O)[O-])cc5)c5ccc2[nH]5)C=C4)C=C3)cc1)c1ccc(C[C@H]2CCCC2=O)cc1
REMARK SMILES IDX 6 1 5 2 3 3 4 4 2 5 1 6 71 7 72 8 83 9 73 10 82 11 74 12
REMARK SMILES IDX 75 13 76 14 77 15 80 16 78 17 79 18 81 19 7 20 8 21 9 22
REMARK SMILES IDX 10 23 11 24 12 25 70 26 13 27 69 28 14 29 15 30 16 31 63 32
REMARK SMILES IDX 17 33 68 34 62 35 64 36 18 37 67 38 61 39 60 40 19 42 49 43
REMARK SMILES IDX 30 44 48 45 31 46 34 47 47 48 65 49 32 50 33 51 46 53 66 54
REMARK SMILES IDX 35 55 20 56 21 57 29 58 22 59 28 60 23 61 24 62 25 63 26 64
REMARK SMILES IDX 27 65 50 66 51 67 59 68 52 69 58 70 53 71 54 72 55 73 56 74
REMARK SMILES IDX 57 75 36 76 37 77 45 78 38 79 44 80 39 81 40 82 41 83 42 84
REMARK SMILES IDX 43 85
REMARK H PARENT 64 41 34 52
REMARK Flexibility Score: inf
ROOT
ATOM      1  C   UNL A   1      31.635  30.476  25.814  1.00  0.00     0.274 C 
ENDROOT
BRANCH   1   2
ATOM      2  O   UNL A   1      31.739  29.570  24.694  1.00  0.00    -0.462 OA
BRANCH   2   3
ATOM      3  C   UNL A   1      30.594  29.340  23.984  1.00  0.00     0.313 C 
ATOM      4  O   UNL A   1      29.753  30.200  23.745  1.00  0.00    -0.252 OA
BRANCH   3   5
ATOM      5  C   UNL A   1      30.517  27.892  23.448  1.00  0.00     0.126 C 
ATOM      6  C   UNL A   1      29.100  27.319  23.531  1.00  0.00     0.025 C 
BRANCH   5   7
ATOM      7  C   UNL A   1      31.517  26.985  24.150  1.00  0.00    -0.034 A 
ATOM      8  C   UNL A   1      32.688  26.665  23.483  1.00  0.00     0.005 A 
ATOM      9  C   UNL A   1      31.345  26.456  25.438  1.00  0.00     0.005 A 
ATOM     10  C   UNL A   1      33.594  25.766  24.023  1.00  0.00     0.004 A 
ATOM     11  C   UNL A   1      32.285  25.551  25.986  1.00  0.00     0.004 A 
ATOM     12  C   UNL A   1      33.406  25.153  25.253  1.00  0.00    -0.047 A 
BRANCH  12  13
ATOM     13  C   UNL A   1      34.482  24.217  25.758  1.00  0.00     0.047 C 
BRANCH  13  14
ATOM     14  C   UNL A   1      35.827  24.104  25.004  1.00  0.00     0.060 C 
ATOM     15  C   UNL A   1      37.024  23.681  25.861  1.00  0.00     0.012 C 
ATOM     16  C   UNL A   1      35.926  23.110  23.862  1.00  0.00     0.136 C 
ATOM     17  C   UNL A   1      37.333  22.239  25.477  1.00  0.00     0.009 C 
ATOM     18  C   UNL A   1      37.087  22.175  23.986  1.00  0.00     0.076 C 
ATOM     19  O   UNL A   1      35.190  23.071  22.902  1.00  0.00    -0.299 OA
ENDBRANCH  13  14
ENDBRANCH  12  13
ENDBRANCH   5   7
ENDBRANCH   3   5
ENDBRANCH   2   3
ENDBRANCH   1   2
BRANCH   1  20
ATOM     20  C   UNL A   1      32.491  29.946  26.969  1.00  0.00     0.275 C 
BRANCH  20  21
ATOM     21  O   UNL A   1      33.860  30.369  26.784  1.00  0.00    -0.458 OA
BRANCH  21  22
ATOM     22  C   UNL A   1      34.318  31.348  27.611  1.00  0.00     0.338 C 
ATOM     23  O   UNL A   1      33.746  32.390  27.883  1.00  0.00    -0.246 OA
BRANCH  22  24
ATOM     24  C   UNL A   1      35.633  30.962  28.187  1.00  0.00     0.060 A 
ATOM     25  C   UNL A   1      35.792  29.686  28.693  1.00  0.00     0.016 A 
ATOM     26  C   UNL A   1      36.675  31.885  28.367  1.00  0.00     0.016 A 
ATOM     27  C   UNL A   1      36.903  29.386  29.470  1.00  0.00     0.010 A 
ATOM     28  C   UNL A   1      37.862  31.517  29.049  1.00  0.00     0.010 A 
ATOM     29  C   UNL A   1      37.979  30.252  29.633  1.00  0.00    -0.014 A 
BRANCH  29  30
ATOM     30  C   UNL A   1      39.081  29.756  30.519  1.00  0.00     0.031 A 
ATOM     31  C   UNL A   1      40.201  28.952  29.923  1.00  0.00     0.074 A 
ATOM     32  C   UNL A   1      39.244  30.247  31.773  1.00  0.00     0.049 A 
ATOM     33  N   UNL A   1      41.238  28.427  30.521  1.00  0.00    -0.248 NA
ATOM     34  C   UNL A   1      40.155  28.710  28.474  1.00  0.00     0.031 C 
ATOM     35  C   UNL A   1      38.335  31.192  32.422  1.00  0.00     0.029 A 
ATOM     36  N   UNL A   1      40.284  30.135  32.674  1.00  0.00    -0.354 N 
ATOM     37  C   UNL A   1      41.886  27.672  29.553  1.00  0.00     0.074 A 
ATOM     38  C   UNL A   1      41.193  27.901  28.303  1.00  0.00     0.031 C 
ATOM     39  C   UNL A   1      38.934  31.703  33.511  1.00  0.00     0.029 A 
ATOM     40  C   UNL A   1      40.211  31.031  33.725  1.00  0.00     0.049 A 
ATOM     41  H   UNL A   1      41.011  29.478  32.577  1.00  0.00     0.167 HD
ATOM     42  C   UNL A   1      42.908  26.803  29.728  1.00  0.00     0.031 A 
ATOM     43  C   UNL A   1      41.071  31.279  34.740  1.00  0.00     0.031 A 
ATOM     44  C   UNL A   1      43.600  26.620  30.977  1.00  0.00     0.049 A 
ATOM     45  C   UNL A   1      42.238  30.335  34.910  1.00  0.00     0.074 A 
ATOM     46  C   UNL A   1      44.533  25.657  31.321  1.00  0.00     0.029 A 
ATOM     47  N   UNL A   1      43.453  27.445  32.082  1.00  0.00    -0.354 N 
ATOM     48  N   UNL A   1      42.703  29.438  34.076  1.00  0.00    -0.248 NA
ATOM     49  C   UNL A   1      42.938  30.372  36.204  1.00  0.00     0.031 C 
ATOM     50  C   UNL A   1      44.915  25.873  32.650  1.00  0.00     0.029 A 
ATOM     51  C   UNL A   1      44.272  27.009  33.111  1.00  0.00     0.049 A 
ATOM     52  H   UNL A   1      42.855  28.225  32.129  1.00  0.00     0.167 HD
ATOM     53  C   UNL A   1      43.702  28.760  34.767  1.00  0.00     0.074 A 
ATOM     54  C   UNL A   1      43.843  29.414  36.050  1.00  0.00     0.031 C 
ATOM     55  C   UNL A   1      44.397  27.658  34.392  1.00  0.00     0.031 A 
BRANCH  42  56
ATOM     56  C   UNL A   1      43.180  25.845  28.603  1.00  0.00    -0.014 A 
ATOM     57  C   UNL A   1      42.499  24.629  28.447  1.00  0.00     0.010 A 
ATOM     58  C   UNL A   1      44.184  26.195  27.678  1.00  0.00     0.010 A 
ATOM     59  C   UNL A   1      42.842  23.764  27.401  1.00  0.00     0.020 A 
ATOM     60  C   UNL A   1      44.510  25.349  26.620  1.00  0.00     0.020 A 
ATOM     61  C   UNL A   1      43.849  24.128  26.498  1.00  0.00     0.054 A 
BRANCH  61  62
ATOM     62  S   UNL A   1      44.276  22.993  25.149  1.00  0.00     0.124 S 
ATOM     63  O   UNL A   1      45.017  23.867  24.243  1.00  0.00    -0.237 OA
ATOM     64  O   UNL A   1      45.070  21.973  25.828  1.00  0.00    -0.237 OA
ATOM     65  O   UNL A   1      42.978  22.540  24.653  1.00  0.00    -0.744 OA
ENDBRANCH  61  62
ENDBRANCH  42  56
BRANCH  43  66
ATOM     66  C   UNL A   1      40.843  32.373  35.742  1.00  0.00    -0.014 A 
ATOM     67  C   UNL A   1      39.890  32.220  36.771  1.00  0.00     0.010 A 
ATOM     68  C   UNL A   1      41.522  33.601  35.649  1.00  0.00     0.010 A 
ATOM     69  C   UNL A   1      39.616  33.266  37.664  1.00  0.00     0.020 A 
ATOM     70  C   UNL A   1      41.288  34.633  36.566  1.00  0.00     0.020 A 
ATOM     71  C   UNL A   1      40.321  34.467  37.558  1.00  0.00     0.054 A 
BRANCH  71  72
ATOM     72  S   UNL A   1      40.000  35.801  38.747  1.00  0.00     0.124 S 
ATOM     73  O   UNL A   1      38.972  35.211  39.597  1.00  0.00    -0.237 OA
ATOM     74  O   UNL A   1      41.306  35.994  39.373  1.00  0.00    -0.237 OA
ATOM     75  O   UNL A   1      39.557  36.908  37.900  1.00  0.00    -0.744 OA
ENDBRANCH  71  72
ENDBRANCH  43  66
BRANCH  55  76
ATOM     76  C   UNL A   1      45.351  27.064  35.393  1.00  0.00    -0.014 A 
ATOM     77  C   UNL A   1      46.687  27.502  35.461  1.00  0.00     0.010 A 
ATOM     78  C   UNL A   1      44.894  26.112  36.321  1.00  0.00     0.010 A 
ATOM     79  C   UNL A   1      47.555  26.979  36.423  1.00  0.00     0.020 A 
ATOM     80  C   UNL A   1      45.753  25.605  37.300  1.00  0.00     0.020 A 
ATOM     81  C   UNL A   1      47.081  26.033  37.337  1.00  0.00     0.054 A 
BRANCH  81  82
ATOM     82  S   UNL A   1      48.215  25.404  38.606  1.00  0.00     0.124 S 
ATOM     83  O   UNL A   1      49.064  26.566  38.859  1.00  0.00    -0.237 OA
ATOM     84  O   UNL A   1      47.311  25.039  39.693  1.00  0.00    -0.237 OA
ATOM     85  O   UNL A   1      48.879  24.280  37.951  1.00  0.00    -0.744 OA
ENDBRANCH  81  82
ENDBRANCH  55  76
ENDBRANCH  29  30
ENDBRANCH  22  24
ENDBRANCH  21  22
ENDBRANCH  20  21
ENDBRANCH   1  20
TORSDOF 17
ENDMDL
MODEL 2
REMARK VINA RESULT:     -10.5      3.735     10.513
REMARK SMILES C[C@@H](C(=O)OCCOC(=O)c1ccc(-c2c3nc(c(-c4ccc(S(=O)(=O)[O-])cc4)c4ccc([nH]4)c(-c4ccc(S(=O)(=O)[O-])cc4)c4nc(c(-c5ccc(S(=O)(=O)[O-])cc5)c5ccc2[nH]5)C=C4)C=C3)cc1)c1ccc(C[C@H]2CCCC2=O)cc1
REMARK SMILES IDX 6 1 5 2 3 3 4 4 2 5 1 6 71 7 72 8 83 9 73 10 82 11 74 12
REMARK SMILES IDX 75 13 76 14 77 15 80 16 78 17 79 18 81 19 7 20 8 21 9 22
REMARK SMILES IDX 10 23 11 24 12 25 70 26 13 27 69 28 14 29 15 30 16 31 63 32
REMARK SMILES IDX 17 33 68 34 62 35 64 36 18 37 67 38 61 39 60 40 19 42 49 43
REMARK SMILES IDX 30 44 48 45 31 46 34 47 47 48 65 49 32 50 33 51 46 53 66 54
REMARK SMILES IDX 35 55 20 56 21 57 29 58 22 59 28 60 23 61 24 62 25 63 26 64
REMARK SMILES IDX 27 65 50 66 51 67 59 68 52 69 58 70 53 71 54 72 55 73 56 74
REMARK SMILES IDX 57 75 36 76 37 77 45 78 38 79 44 80 39 81 40 82 41 83 42 84
REMARK SMILES IDX 43 85
REMARK H PARENT 64 41 34 52
REMARK Flexibility Score: inf
ROOT
ATOM      1  C   UNL A   1      33.942  34.502  28.647  1.00  0.00     0.274 C 
ENDROOT
BRANCH   1   2
ATOM      2  O   UNL A   1      33.542  34.505  30.034  1.00  0.00    -0.462 OA
BRANCH   2   3
ATOM      3  C   UNL A   1      33.144  35.705  30.554  1.00  0.00     0.313 C 
ATOM      4  O   UNL A   1      32.538  36.559  29.917  1.00  0.00    -0.252 OA
BRANCH   3   5
ATOM      5  C   UNL A   1      33.474  35.830  32.060  1.00  0.00     0.126 C 
ATOM      6  C   UNL A   1      33.837  37.263  32.455  1.00  0.00     0.025 C 
BRANCH   5   7
ATOM      7  C   UNL A   1      34.566  34.855  32.472  1.00  0.00    -0.034 A 
ATOM      8  C   UNL A   1      34.199  33.729  33.191  1.00  0.00     0.005 A 
ATOM      9  C   UNL A   1      35.927  35.006  32.164  1.00  0.00     0.005 A 
ATOM     10  C   UNL A   1      35.154  32.854  33.684  1.00  0.00     0.004 A 
ATOM     11  C   UNL A   1      36.892  34.097  32.660  1.00  0.00     0.004 A 
ATOM     12  C   UNL A   1      36.515  33.028  33.476  1.00  0.00    -0.047 A 
BRANCH  12  13
ATOM     13  C   UNL A   1      37.462  31.985  34.030  1.00  0.00     0.047 C 
BRANCH  13  14
ATOM     14  C   UNL A   1      38.354  32.318  35.247  1.00  0.00     0.060 C 
ATOM     15  C   UNL A   1      38.164  33.720  35.835  1.00  0.00     0.012 C 
ATOM     16  C   UNL A   1      38.213  31.463  36.494  1.00  0.00     0.136 C 
ATOM     17  C   UNL A   1      37.414  33.532  37.148  1.00  0.00     0.009 C 
ATOM     18  C   UNL A   1      37.980  32.260  37.738  1.00  0.00     0.076 C 
ATOM     19  O   UNL A   1      38.317  30.258  36.532  1.00  0.00    -0.299 OA
ENDBRANCH  13  14
ENDBRANCH  12  13
ENDBRANCH   5   7
ENDBRANCH   3   5
ENDBRANCH   2   3
ENDBRANCH   1   2
BRANCH   1  20
ATOM     20  C   UNL A   1      33.576  33.152  28.021  1.00  0.00     0.275 C 
BRANCH  20  21
ATOM     21  O   UNL A   1      34.297  32.100  28.700  1.00  0.00    -0.458 OA
BRANCH  21  22
ATOM     22  C   UNL A   1      34.321  30.881  28.096  1.00  0.00     0.338 C 
ATOM     23  O   UNL A   1      33.398  30.354  27.497  1.00  0.00    -0.246 OA
BRANCH  22  24
ATOM     24  C   UNL A   1      35.667  30.264  28.230  1.00  0.00     0.060 A 
ATOM     25  C   UNL A   1      36.004  29.651  29.422  1.00  0.00     0.016 A 
ATOM     26  C   UNL A   1      36.658  30.401  27.248  1.00  0.00     0.016 A 
ATOM     27  C   UNL A   1      37.327  29.308  29.671  1.00  0.00     0.010 A 
ATOM     28  C   UNL A   1      37.974  29.921  27.470  1.00  0.00     0.010 A 
ATOM     29  C   UNL A   1      38.329  29.381  28.710  1.00  0.00    -0.014 A 
BRANCH  29  30
ATOM     30  C   UNL A   1      39.697  28.980  29.171  1.00  0.00     0.031 A 
ATOM     31  C   UNL A   1      40.266  29.597  30.417  1.00  0.00     0.074 A 
ATOM     32  C   UNL A   1      40.311  27.881  28.665  1.00  0.00     0.049 A 
ATOM     33  N   UNL A   1      41.431  29.390  30.973  1.00  0.00    -0.248 NA
ATOM     34  C   UNL A   1      39.421  30.565  31.131  1.00  0.00     0.031 C 
ATOM     35  C   UNL A   1      39.784  27.060  27.575  1.00  0.00     0.029 A 
ATOM     36  N   UNL A   1      41.431  27.185  29.076  1.00  0.00    -0.354 N 
ATOM     37  C   UNL A   1      41.517  30.305  32.013  1.00  0.00     0.074 A 
ATOM     38  C   UNL A   1      40.243  30.987  32.083  1.00  0.00     0.031 C 
ATOM     39  C   UNL A   1      40.463  25.901  27.527  1.00  0.00     0.029 A 
ATOM     40  C   UNL A   1      41.562  25.941  28.485  1.00  0.00     0.049 A 
ATOM     41  H   UNL A   1      42.076  27.542  29.729  1.00  0.00     0.167 HD
ATOM     42  C   UNL A   1      42.600  30.600  32.769  1.00  0.00     0.031 A 
ATOM     43  C   UNL A   1      42.463  24.953  28.691  1.00  0.00     0.031 A 
ATOM     44  C   UNL A   1      43.845  29.881  32.699  1.00  0.00     0.049 A 
ATOM     45  C   UNL A   1      43.650  25.265  29.572  1.00  0.00     0.074 A 
ATOM     46  C   UNL A   1      45.060  30.188  33.288  1.00  0.00     0.029 A 
ATOM     47  N   UNL A   1      44.025  28.688  32.016  1.00  0.00    -0.354 N 
ATOM     48  N   UNL A   1      43.833  26.278  30.383  1.00  0.00    -0.248 NA
ATOM     49  C   UNL A   1      44.796  24.345  29.491  1.00  0.00     0.031 C 
ATOM     50  C   UNL A   1      45.985  29.203  32.922  1.00  0.00     0.029 A 
ATOM     51  C   UNL A   1      45.330  28.248  32.162  1.00  0.00     0.049 A 
ATOM     52  H   UNL A   1      43.327  28.221  31.501  1.00  0.00     0.167 HD
ATOM     53  C   UNL A   1      45.136  26.155  30.853  1.00  0.00     0.074 A 
ATOM     54  C   UNL A   1      45.662  24.918  30.317  1.00  0.00     0.031 C 
ATOM     55  C   UNL A   1      45.850  27.022  31.614  1.00  0.00     0.031 A 
BRANCH  42  56
ATOM     56  C   UNL A   1      42.543  31.872  33.566  1.00  0.00    -0.014 A 
ATOM     57  C   UNL A   1      42.893  33.124  33.041  1.00  0.00     0.010 A 
ATOM     58  C   UNL A   1      42.127  31.780  34.910  1.00  0.00     0.010 A 
ATOM     59  C   UNL A   1      42.862  34.259  33.860  1.00  0.00     0.020 A 
ATOM     60  C   UNL A   1      42.070  32.912  35.721  1.00  0.00     0.020 A 
ATOM     61  C   UNL A   1      42.455  34.144  35.195  1.00  0.00     0.054 A 
BRANCH  61  62
ATOM     62  S   UNL A   1      42.419  35.628  36.237  1.00  0.00     0.124 S 
ATOM     63  O   UNL A   1      43.802  36.092  36.149  1.00  0.00    -0.237 OA
ATOM     64  O   UNL A   1      41.431  36.467  35.565  1.00  0.00    -0.237 OA
ATOM     65  O   UNL A   1      42.016  35.123  37.547  1.00  0.00    -0.744 OA
ENDBRANCH  61  62
ENDBRANCH  42  56
BRANCH  43  66
ATOM     66  C   UNL A   1      42.375  23.623  28.000  1.00  0.00    -0.014 A 
ATOM     67  C   UNL A   1      41.721  22.534  28.614  1.00  0.00     0.010 A 
ATOM     68  C   UNL A   1      42.994  23.404  26.756  1.00  0.00     0.010 A 
ATOM     69  C   UNL A   1      41.702  21.268  28.010  1.00  0.00     0.020 A 
ATOM     70  C   UNL A   1      42.938  22.156  26.125  1.00  0.00     0.020 A 
ATOM     71  C   UNL A   1      42.308  21.089  26.765  1.00  0.00     0.054 A 
BRANCH  71  72
ATOM     72  S   UNL A   1      42.238  19.462  25.962  1.00  0.00     0.124 S 
ATOM     73  O   UNL A   1      43.140  19.642  24.829  1.00  0.00    -0.237 OA
ATOM     74  O   UNL A   1      42.714  18.564  27.013  1.00  0.00    -0.237 OA
ATOM     75  O   UNL A   1      40.824  19.313  25.623  1.00  0.00    -0.744 OA
ENDBRANCH  71  72
ENDBRANCH  43  66
BRANCH  55  76
ATOM     76  C   UNL A   1      47.291  26.683  31.886  1.00  0.00    -0.014 A 
ATOM     77  C   UNL A   1      47.646  25.881  32.987  1.00  0.00     0.010 A 
ATOM     78  C   UNL A   1      48.294  27.106  30.996  1.00  0.00     0.010 A 
ATOM     79  C   UNL A   1      48.981  25.533  33.209  1.00  0.00     0.020 A 
ATOM     80  C   UNL A   1      49.626  26.739  31.201  1.00  0.00     0.020 A 
ATOM     81  C   UNL A   1      49.963  25.964  32.313  1.00  0.00     0.054 A 
BRANCH  81  82
ATOM     82  S   UNL A   1      51.682  25.459  32.595  1.00  0.00     0.124 S 
ATOM     83  O   UNL A   1      52.363  26.036  31.439  1.00  0.00    -0.237 OA
ATOM     84  O   UNL A   1      51.993  26.079  33.881  1.00  0.00    -0.237 OA
ATOM     85  O   UNL A   1      51.617  24.000  32.614  1.00  0.00    -0.744 OA
ENDBRANCH  81  82
ENDBRANCH  55  76
ENDBRANCH  29  30
ENDBRANCH  22  24
ENDBRANCH  21  22
ENDBRANCH  20  21
ENDBRANCH   1  20
TORSDOF 17
ENDMDL
MODEL 3
REMARK VINA RESULT:     -10.5      1.760      3.929
REMARK SMILES C[C@@H](C(=O)OCCOC(=O)c1ccc(-c2c3nc(c(-c4ccc(S(=O)(=O)[O-])cc4)c4ccc([nH]4)c(-c4ccc(S(=O)(=O)[O-])cc4)c4nc(c(-c5ccc(S(=O)(=O)[O-])cc5)c5ccc2[nH]5)C=C4)C=C3)cc1)c1ccc(C[C@H]2CCCC2=O)cc1
REMARK SMILES IDX 6 1 5 2 3 3 4 4 2 5 1 6 71 7 72 8 83 9 73 10 82 11 74 12
REMARK SMILES IDX 75 13 76 14 77 15 80 16 78 17 79 18 81 19 7 20 8 21 9 22
REMARK SMILES IDX 10 23 11 24 12 25 70 26 13 27 69 28 14 29 15 30 16 31 63 32
REMARK SMILES IDX 17 33 68 34 62 35 64 36 18 37 67 38 61 39 60 40 19 42 49 43
REMARK SMILES IDX 30 44 48 45 31 46 34 47 47 48 65 49 32 50 33 51 46 53 66 54
REMARK SMILES IDX 35 55 20 56 21 57 29 58 22 59 28 60 23 61 24 62 25 63 26 64
REMARK SMILES IDX 27 65 50 66 51 67 59 68 52 69 58 70 53 71 54 72 55 73 56 74
REMARK SMILES IDX 57 75 36 76 37 77 45 78 38 79 44 80 39 81 40 82 41 83 42 84
REMARK SMILES IDX 43 85
REMARK H PARENT 64 41 34 52
REMARK Flexibility Score: inf
ROOT
ATOM      1  C   UNL A   1      31.904  29.451  26.367  1.00  0.00     0.274 C 
ENDROOT
BRANCH   1   2
ATOM      2  O   UNL A   1      32.917  28.434  26.210  1.00  0.00    -0.462 OA
BRANCH   2   3
ATOM      3  C   UNL A   1      32.482  27.184  25.866  1.00  0.00     0.313 C 
ATOM      4  O   UNL A   1      32.057  26.362  26.670  1.00  0.00    -0.252 OA
BRANCH   3   5
ATOM      5  C   UNL A   1      32.512  26.953  24.337  1.00  0.00     0.126 C 
ATOM      6  C   UNL A   1      33.796  27.485  23.697  1.00  0.00     0.025 C 
BRANCH   5   7
ATOM      7  C   UNL A   1      31.280  27.537  23.662  1.00  0.00    -0.034 A 
ATOM      8  C   UNL A   1      31.452  28.613  22.807  1.00  0.00     0.005 A 
ATOM      9  C   UNL A   1      29.974  27.054  23.833  1.00  0.00     0.005 A 
ATOM     10  C   UNL A   1      30.363  29.255  22.240  1.00  0.00     0.004 A 
ATOM     11  C   UNL A   1      28.870  27.709  23.236  1.00  0.00     0.004 A 
ATOM     12  C   UNL A   1      29.053  28.859  22.465  1.00  0.00    -0.047 A 
BRANCH  12  13
ATOM     13  C   UNL A   1      27.946  29.614  21.760  1.00  0.00     0.047 C 
BRANCH  13  14
ATOM     14  C   UNL A   1      27.520  31.012  22.263  1.00  0.00     0.060 C 
ATOM     15  C   UNL A   1      27.749  31.269  23.756  1.00  0.00     0.012 C 
ATOM     16  C   UNL A   1      28.196  32.228  21.656  1.00  0.00     0.136 C 
ATOM     17  C   UNL A   1      28.937  32.219  23.846  1.00  0.00     0.009 C 
ATOM     18  C   UNL A   1      28.770  33.161  22.675  1.00  0.00     0.076 C 
ATOM     19  O   UNL A   1      28.250  32.482  20.474  1.00  0.00    -0.299 OA
ENDBRANCH  13  14
ENDBRANCH  12  13
ENDBRANCH   5   7
ENDBRANCH   3   5
ENDBRANCH   2   3
ENDBRANCH   1   2
BRANCH   1  20
ATOM     20  C   UNL A   1      32.528  30.682  27.033  1.00  0.00     0.275 C 
BRANCH  20  21
ATOM     21  O   UNL A   1      33.954  30.485  27.161  1.00  0.00    -0.458 OA
BRANCH  21  22
ATOM     22  C   UNL A   1      34.680  31.536  27.629  1.00  0.00     0.338 C 
ATOM     23  O   UNL A   1      34.346  32.709  27.611  1.00  0.00    -0.246 OA
BRANCH  22  24
ATOM     24  C   UNL A   1      35.960  31.059  28.216  1.00  0.00     0.060 A 
ATOM     25  C   UNL A   1      36.023  29.778  28.729  1.00  0.00     0.016 A 
ATOM     26  C   UNL A   1      37.065  31.904  28.396  1.00  0.00     0.016 A 
ATOM     27  C   UNL A   1      37.105  29.402  29.515  1.00  0.00     0.010 A 
ATOM     28  C   UNL A   1      38.219  31.454  29.088  1.00  0.00     0.010 A 
ATOM     29  C   UNL A   1      38.240  30.187  29.679  1.00  0.00    -0.014 A 
BRANCH  29  30
ATOM     30  C   UNL A   1      39.297  29.617  30.574  1.00  0.00     0.031 A 
ATOM     31  C   UNL A   1      40.415  28.813  29.975  1.00  0.00     0.074 A 
ATOM     32  C   UNL A   1      39.431  30.041  31.855  1.00  0.00     0.049 A 
ATOM     33  N   UNL A   1      41.418  28.230  30.578  1.00  0.00    -0.248 NA
ATOM     34  C   UNL A   1      40.412  28.644  28.514  1.00  0.00     0.031 C 
ATOM     35  C   UNL A   1      38.527  30.978  32.522  1.00  0.00     0.029 A 
ATOM     36  N   UNL A   1      40.437  29.855  32.783  1.00  0.00    -0.354 N 
ATOM     37  C   UNL A   1      42.078  27.506  29.595  1.00  0.00     0.074 A 
ATOM     38  C   UNL A   1      41.433  27.816  28.337  1.00  0.00     0.031 C 
ATOM     39  C   UNL A   1      39.102  31.417  33.654  1.00  0.00     0.029 A 
ATOM     40  C   UNL A   1      40.352  30.701  33.875  1.00  0.00     0.049 A 
ATOM     41  H   UNL A   1      41.149  29.184  32.677  1.00  0.00     0.167 HD
ATOM     42  C   UNL A   1      43.069  26.601  29.759  1.00  0.00     0.031 A 
ATOM     43  C   UNL A   1      41.184  30.873  34.929  1.00  0.00     0.031 A 
ATOM     44  C   UNL A   1      43.714  26.337  31.020  1.00  0.00     0.049 A 
ATOM     45  C   UNL A   1      42.319  29.890  35.089  1.00  0.00     0.074 A 
ATOM     46  C   UNL A   1      44.609  25.332  31.345  1.00  0.00     0.029 A 
ATOM     47  N   UNL A   1      43.552  27.110  32.159  1.00  0.00    -0.354 N 
ATOM     48  N   UNL A   1      42.788  29.022  34.226  1.00  0.00    -0.248 NA
ATOM     49  C   UNL A   1      42.976  29.843  36.405  1.00  0.00     0.031 C 
ATOM     50  C   UNL A   1      44.951  25.471  32.694  1.00  0.00     0.029 A 
ATOM     51  C   UNL A   1      44.324  26.601  33.191  1.00  0.00     0.049 A 
ATOM     52  H   UNL A   1      42.974  27.904  32.226  1.00  0.00     0.167 HD
ATOM     53  C   UNL A   1      43.745  28.283  34.914  1.00  0.00     0.074 A 
ATOM     54  C   UNL A   1      43.860  28.869  36.232  1.00  0.00     0.031 C 
ATOM     55  C   UNL A   1      44.422  27.182  34.506  1.00  0.00     0.031 A 
BRANCH  42  56
ATOM     56  C   UNL A   1      43.354  25.692  28.597  1.00  0.00    -0.014 A 
ATOM     57  C   UNL A   1      42.666  24.491  28.374  1.00  0.00     0.010 A 
ATOM     58  C   UNL A   1      44.377  26.076  27.706  1.00  0.00     0.010 A 
ATOM     59  C   UNL A   1      43.021  23.671  27.296  1.00  0.00     0.020 A 
ATOM     60  C   UNL A   1      44.715  25.275  26.617  1.00  0.00     0.020 A 
ATOM     61  C   UNL A   1      44.047  24.067  26.429  1.00  0.00     0.054 A 
BRANCH  61  62
ATOM     62  S   UNL A   1      44.488  22.991  25.037  1.00  0.00     0.124 S 
ATOM     63  O   UNL A   1      45.113  21.859  25.717  1.00  0.00    -0.237 OA
ATOM     64  O   UNL A   1      43.193  22.716  24.421  1.00  0.00    -0.237 OA
ATOM     65  O   UNL A   1      45.394  23.812  24.237  1.00  0.00    -0.744 OA
ENDBRANCH  61  62
ENDBRANCH  42  56
BRANCH  43  66
ATOM     66  C   UNL A   1      40.951  31.922  35.977  1.00  0.00    -0.014 A 
ATOM     67  C   UNL A   1      39.742  31.959  36.703  1.00  0.00     0.010 A 
ATOM     68  C   UNL A   1      41.898  32.933  36.221  1.00  0.00     0.010 A 
ATOM     69  C   UNL A   1      39.485  32.982  37.628  1.00  0.00     0.020 A 
ATOM     70  C   UNL A   1      41.669  33.929  37.177  1.00  0.00     0.020 A 
ATOM     71  C   UNL A   1      40.455  33.959  37.863  1.00  0.00     0.054 A 
BRANCH  71  72
ATOM     72  S   UNL A   1      40.140  35.253  39.098  1.00  0.00     0.124 S 
ATOM     73  O   UNL A   1      41.490  35.716  39.404  1.00  0.00    -0.237 OA
ATOM     74  O   UNL A   1      39.298  36.197  38.367  1.00  0.00    -0.237 OA
ATOM     75  O   UNL A   1      39.463  34.533  40.175  1.00  0.00    -0.744 OA
ENDBRANCH  71  72
ENDBRANCH  43  66
BRANCH  55  76
ATOM     76  C   UNL A   1      45.326  26.512  35.506  1.00  0.00    -0.014 A 
ATOM     77  C   UNL A   1      44.848  25.471  36.324  1.00  0.00     0.010 A 
ATOM     78  C   UNL A   1      46.684  26.873  35.580  1.00  0.00     0.010 A 
ATOM     79  C   UNL A   1      45.704  24.822  37.218  1.00  0.00     0.020 A 
ATOM     80  C   UNL A   1      47.548  26.210  36.455  1.00  0.00     0.020 A 
ATOM     81  C   UNL A   1      47.050  25.196  37.277  1.00  0.00     0.054 A 
BRANCH  81  82
ATOM     82  S   UNL A   1      48.152  24.307  38.411  1.00  0.00     0.124 S 
ATOM     83  O   UNL A   1      49.414  24.312  37.676  1.00  0.00    -0.237 OA
ATOM     84  O   UNL A   1      48.121  25.141  39.610  1.00  0.00    -0.237 OA
ATOM     85  O   UNL A   1      47.520  22.998  38.553  1.00  0.00    -0.744 OA
ENDBRANCH  81  82
ENDBRANCH  55  76
ENDBRANCH  29  30
ENDBRANCH  22  24
ENDBRANCH  21  22
ENDBRANCH  20  21
ENDBRANCH   1  20
TORSDOF 17
ENDMDL
