MODEL 1
REMARK VINA RESULT:      -9.4      0.000      0.000
REMARK SMILES Cc1ccc(C(c2ccccc2)(c2ccccc2)n2cnc(C[C@H]([NH3+])C(=O)OCCOC(=O)c3ccc(-c4c5nc(c(-c6ccc(S(=O)(=O)[O-])cc6)c6ccc([nH]6)c(-c6ccc(S(=O)(=O)[O-])cc6)c6nc(c(-c7ccc(S(=O)(=O)[O-])cc7)c7ccc4[nH]7)C=C6)C=C5)cc3)c2)cc1
REMARK SMILES IDX 29 1 28 2 26 3 27 4 24 5 23 6 22 7 19 8 20 9 94 10 21 11
REMARK SMILES IDX 6 12 5 13 1 14 2 15 3 16 96 17 4 18 95 19 7 20 8 21 12 22
REMARK SMILES IDX 9 23 11 24 10 25 13 26 14 27 18 28 15 29 17 30 16 31 25 32
REMARK SMILES IDX 30 36 31 37 32 38 33 39 34 40 35 41 93 42 36 43 92 44 37 45
REMARK SMILES IDX 38 46 39 47 86 48 40 49 91 50 85 51 87 52 41 53 90 54 84 55
REMARK SMILES IDX 83 56 42 58 72 59 53 60 71 61 54 62 57 63 70 64 88 65 55 66
REMARK SMILES IDX 56 67 69 69 89 70 58 71 43 72 44 73 52 74 45 75 51 76 46 77
REMARK SMILES IDX 47 78 48 79 49 80 50 81 73 82 74 83 82 84 75 85 81 86 76 87
REMARK SMILES IDX 77 88 78 89 79 90 80 91 59 92 60 93 68 94 61 95 67 96 62 97
REMARK SMILES IDX 63 98 64 99 65 100 66 101
REMARK H PARENT 25 33 25 34 25 35 87 57 57 68
REMARK Flexibility Score: inf
ROOT
ATOM      1  C   UNL A   1      36.059  31.055  30.368  1.00  0.00     0.274 C 
ENDROOT
BRANCH   1   2
ATOM      2  O   UNL A   1      35.933  31.426  31.742  1.00  0.00    -0.458 OA
BRANCH   2   3
ATOM      3  C   UNL A   1      36.390  32.677  31.980  1.00  0.00     0.365 C 
ATOM      4  O   UNL A   1      36.119  33.193  33.059  1.00  0.00    -0.245 OA
BRANCH   3   5
ATOM      5  C   UNL A   1      37.452  33.441  30.973  1.00  0.00     0.297 C 
BRANCH   5   6
ATOM      6  C   UNL A   1      39.059  33.344  31.979  1.00  0.00     0.135 C 
BRANCH   6   7
ATOM      7  C   UNL A   1      40.434  34.095  31.740  1.00  0.00     0.065 A 
ATOM      8  N   UNL A   1      42.545  34.749  31.188  1.00  0.00    -0.319 N 
ATOM      9  C   UNL A   1      42.237  35.079  32.475  1.00  0.00     0.201 A 
ATOM     10  C   UNL A   1      41.350  34.188  30.680  1.00  0.00     0.112 A 
ATOM     11  N   UNL A   1      41.074  34.599  32.830  1.00  0.00    -0.241 NA
BRANCH   8  12
ATOM     12  C   UNL A   1      44.008  34.675  30.724  1.00  0.00     0.121 C 
BRANCH  12  13
ATOM     13  C   UNL A   1      44.940  35.657  31.586  1.00  0.00    -0.013 A 
ATOM     14  C   UNL A   1      46.945  38.519  35.434  1.00  0.00     0.044 C 
ATOM     15  C   UNL A   1      46.459  37.453  33.627  1.00  0.00    -0.051 A 
ATOM     16  C   UNL A   1      45.533  37.857  32.497  1.00  0.00     0.004 A 
ATOM     17  C   UNL A   1      46.833  36.084  33.168  1.00  0.00     0.004 A 
ATOM     18  C   UNL A   1      44.765  37.025  31.624  1.00  0.00     0.007 A 
ATOM     19  C   UNL A   1      46.135  35.265  32.204  1.00  0.00     0.007 A 
ENDBRANCH  12  13
BRANCH  12  20
ATOM     20  C   UNL A   1      44.415  33.133  31.014  1.00  0.00    -0.013 A 
ATOM     21  C   UNL A   1      45.111  32.364  30.056  1.00  0.00     0.007 A 
ATOM     22  C   UNL A   1      43.922  32.384  32.115  1.00  0.00     0.007 A 
ATOM     23  C   UNL A   1      45.362  30.990  30.222  1.00  0.00     0.000 A 
ATOM     24  C   UNL A   1      44.180  31.016  32.295  1.00  0.00     0.000 A 
ATOM     25  C   UNL A   1      44.905  30.318  31.347  1.00  0.00     0.000 A 
ENDBRANCH  12  20
BRANCH  12  26
ATOM     26  C   UNL A   1      44.073  35.147  29.218  1.00  0.00    -0.013 A 
ATOM     27  C   UNL A   1      42.919  35.105  28.392  1.00  0.00     0.007 A 
ATOM     28  C   UNL A   1      45.272  35.480  28.562  1.00  0.00     0.007 A 
ATOM     29  C   UNL A   1      42.973  35.297  27.009  1.00  0.00     0.000 A 
ATOM     30  C   UNL A   1      45.334  35.649  27.171  1.00  0.00     0.000 A 
ATOM     31  C   UNL A   1      44.188  35.540  26.393  1.00  0.00     0.000 A 
ENDBRANCH  12  26
ENDBRANCH   8  12
ENDBRANCH   6   7
ENDBRANCH   5   6
BRANCH   5  32
ATOM     32  N   UNL A   1      37.071  34.560  29.259  1.00  0.00    -0.346 N 
ATOM     33  H   UNL A   1      36.743  33.943  28.516  1.00  0.00     0.345 HD
ATOM     34  H   UNL A   1      37.927  35.027  28.961  1.00  0.00     0.345 HD
ATOM     35  H   UNL A   1      36.355  35.258  29.462  1.00  0.00     0.345 HD
ENDBRANCH   5  32
ENDBRANCH   3   5
ENDBRANCH   2   3
ENDBRANCH   1   2
BRANCH   1  36
ATOM     36  C   UNL A   1      36.294  29.524  30.204  1.00  0.00     0.275 C 
BRANCH  36  37
ATOM     37  O   UNL A   1      37.202  28.900  31.182  1.00  0.00    -0.458 OA
BRANCH  37  38
ATOM     38  C   UNL A   1      38.567  29.070  31.258  1.00  0.00     0.338 C 
ATOM     39  O   UNL A   1      39.195  29.145  32.302  1.00  0.00    -0.246 OA
BRANCH  38  40
ATOM     40  C   UNL A   1      39.194  29.412  29.944  1.00  0.00     0.060 A 
ATOM     41  C   UNL A   1      39.026  28.422  28.379  1.00  0.00     0.016 A 
ATOM     42  C   UNL A   1      40.635  30.435  30.211  1.00  0.00     0.016 A 
ATOM     43  C   UNL A   1      40.442  28.426  27.168  1.00  0.00     0.010 A 
ATOM     44  C   UNL A   1      42.044  30.340  29.114  1.00  0.00     0.010 A 
ATOM     45  C   UNL A   1      42.019  29.277  27.649  1.00  0.00    -0.014 A 
BRANCH  45  46
ATOM     46  C   UNL A   1      43.437  29.053  27.336  1.00  0.00     0.031 A 
ATOM     47  C   UNL A   1      44.289  30.117  26.826  1.00  0.00     0.074 A 
ATOM     48  C   UNL A   1      44.065  27.995  27.949  1.00  0.00     0.049 A 
ATOM     49  N   UNL A   1      45.498  29.898  26.421  1.00  0.00    -0.248 NA
ATOM     50  C   UNL A   1      43.865  31.508  26.691  1.00  0.00     0.031 C 
ATOM     51  C   UNL A   1      45.395  27.982  28.531  1.00  0.00     0.029 A 
ATOM     52  N   UNL A   1      43.656  26.653  28.111  1.00  0.00    -0.354 N 
ATOM     53  C   UNL A   1      46.109  31.117  26.488  1.00  0.00     0.074 A 
ATOM     54  C   UNL A   1      45.027  32.066  26.329  1.00  0.00     0.031 C 
ATOM     55  C   UNL A   1      45.766  26.717  28.781  1.00  0.00     0.029 A 
ATOM     56  C   UNL A   1      44.751  25.801  28.288  1.00  0.00     0.049 A 
ATOM     57  H   UNL A   1      42.717  26.355  28.099  1.00  0.00     0.167 HD
ATOM     58  C   UNL A   1      47.385  31.208  26.961  1.00  0.00     0.031 A 
ATOM     59  C   UNL A   1      44.927  24.585  27.672  1.00  0.00     0.031 A 
ATOM     60  C   UNL A   1      48.043  29.910  27.238  1.00  0.00     0.049 A 
ATOM     61  C   UNL A   1      46.220  24.604  26.873  1.00  0.00     0.074 A 
ATOM     62  C   UNL A   1      48.772  29.372  28.291  1.00  0.00     0.029 A 
ATOM     63  N   UNL A   1      47.853  28.837  26.379  1.00  0.00    -0.354 N 
ATOM     64  N   UNL A   1      47.250  25.365  27.134  1.00  0.00    -0.248 NA
ATOM     65  C   UNL A   1      46.370  23.903  25.596  1.00  0.00     0.031 C 
ATOM     66  C   UNL A   1      49.124  28.020  27.966  1.00  0.00     0.029 A 
ATOM     67  C   UNL A   1      48.632  27.744  26.707  1.00  0.00     0.049 A 
ATOM     68  H   UNL A   1      47.230  28.854  25.617  1.00  0.00     0.167 HD
ATOM     69  C   UNL A   1      47.944  25.556  25.963  1.00  0.00     0.074 A 
ATOM     70  C   UNL A   1      47.444  24.520  25.077  1.00  0.00     0.031 C 
ATOM     71  C   UNL A   1      48.706  26.667  25.731  1.00  0.00     0.031 A 
BRANCH  58  72
ATOM     72  C   UNL A   1      48.022  32.530  27.342  1.00  0.00    -0.014 A 
ATOM     73  C   UNL A   1      48.511  33.379  26.331  1.00  0.00     0.010 A 
ATOM     74  C   UNL A   1      48.207  32.977  28.668  1.00  0.00     0.010 A 
ATOM     75  C   UNL A   1      49.137  34.600  26.627  1.00  0.00     0.020 A 
ATOM     76  C   UNL A   1      48.774  34.216  28.977  1.00  0.00     0.020 A 
ATOM     77  C   UNL A   1      49.253  35.017  27.952  1.00  0.00     0.054 A 
BRANCH  77  78
ATOM     78  S   UNL A   1      50.051  36.595  28.332  1.00  0.00     0.124 S 
ATOM     79  O   UNL A   1      51.290  36.505  27.565  1.00  0.00    -0.237 OA
ATOM     80  O   UNL A   1      49.077  37.570  27.851  1.00  0.00    -0.237 OA
ATOM     81  O   UNL A   1      50.219  36.556  29.785  1.00  0.00    -0.744 OA
ENDBRANCH  77  78
ENDBRANCH  58  72
BRANCH  59  82
ATOM     82  C   UNL A   1      43.712  23.736  27.350  1.00  0.00    -0.014 A 
ATOM     83  C   UNL A   1      43.535  23.334  26.010  1.00  0.00     0.010 A 
ATOM     84  C   UNL A   1      42.891  23.106  28.305  1.00  0.00     0.010 A 
ATOM     85  C   UNL A   1      42.749  22.214  25.672  1.00  0.00     0.020 A 
ATOM     86  C   UNL A   1      42.150  21.948  27.991  1.00  0.00     0.020 A 
ATOM     87  C   UNL A   1      42.145  21.465  26.683  1.00  0.00     0.054 A 
BRANCH  87  88
ATOM     88  S   UNL A   1      41.679  19.715  26.380  1.00  0.00     0.124 S 
ATOM     89  O   UNL A   1      42.142  19.059  27.601  1.00  0.00    -0.237 OA
ATOM     90  O   UNL A   1      40.225  19.758  26.223  1.00  0.00    -0.237 OA
ATOM     91  O   UNL A   1      42.429  19.359  25.173  1.00  0.00    -0.744 OA
ENDBRANCH  87  88
ENDBRANCH  59  82
BRANCH  71  92
ATOM     92  C   UNL A   1      49.374  26.994  24.418  1.00  0.00    -0.014 A 
ATOM     93  C   UNL A   1      48.465  27.500  22.916  1.00  0.00     0.010 A 
ATOM     94  C   UNL A   1      51.217  26.959  24.366  1.00  0.00     0.010 A 
ATOM     95  C   UNL A   1      49.350  28.019  21.415  1.00  0.00     0.020 A 
ATOM     96  C   UNL A   1      52.117  27.641  22.914  1.00  0.00     0.020 A 
ATOM     97  C   UNL A   1      51.178  28.159  21.453  1.00  0.00     0.054 A 
BRANCH  97  98
ATOM     98  S   UNL A   1      52.021  28.417  19.892  1.00  0.00     0.124 S 
ATOM     99  O   UNL A   1      51.450  27.358  19.061  1.00  0.00    -0.237 OA
ATOM    100  O   UNL A   1      51.612  29.773  19.544  1.00  0.00    -0.237 OA
ATOM    101  O   UNL A   1      53.427  28.243  20.240  1.00  0.00    -0.744 OA
ENDBRANCH  97  98
ENDBRANCH  71  92
ENDBRANCH  45  46
ENDBRANCH  38  40
ENDBRANCH  37  38
ENDBRANCH  36  37
ENDBRANCH   1  36
TORSDOF 21
ENDMDL
MODEL 2
REMARK VINA RESULT:      -9.0      9.926     15.153
REMARK SMILES Cc1ccc(C(c2ccccc2)(c2ccccc2)n2cnc(C[C@H]([NH3+])C(=O)OCCOC(=O)c3ccc(-c4c5nc(c(-c6ccc(S(=O)(=O)[O-])cc6)c6ccc([nH]6)c(-c6ccc(S(=O)(=O)[O-])cc6)c6nc(c(-c7ccc(S(=O)(=O)[O-])cc7)c7ccc4[nH]7)C=C6)C=C5)cc3)c2)cc1
REMARK SMILES IDX 29 1 28 2 26 3 27 4 24 5 23 6 22 7 19 8 20 9 94 10 21 11
REMARK SMILES IDX 6 12 5 13 1 14 2 15 3 16 96 17 4 18 95 19 7 20 8 21 12 22
REMARK SMILES IDX 9 23 11 24 10 25 13 26 14 27 18 28 15 29 17 30 16 31 25 32
REMARK SMILES IDX 30 36 31 37 32 38 33 39 34 40 35 41 93 42 36 43 92 44 37 45
REMARK SMILES IDX 38 46 39 47 86 48 40 49 91 50 85 51 87 52 41 53 90 54 84 55
REMARK SMILES IDX 83 56 42 58 72 59 53 60 71 61 54 62 57 63 70 64 88 65 55 66
REMARK SMILES IDX 56 67 69 69 89 70 58 71 43 72 44 73 52 74 45 75 51 76 46 77
REMARK SMILES IDX 47 78 48 79 49 80 50 81 73 82 74 83 82 84 75 85 81 86 76 87
REMARK SMILES IDX 77 88 78 89 79 90 80 91 59 92 60 93 68 94 61 95 67 96 62 97
REMARK SMILES IDX 63 98 64 99 65 100 66 101
REMARK H PARENT 25 33 25 34 25 35 87 57 57 68
REMARK Flexibility Score: inf
ROOT
ATOM      1  C   UNL A   1      50.076  21.898  36.966  1.00  0.00     0.274 C 
ENDROOT
BRANCH   1   2
ATOM      2  O   UNL A   1      50.733  21.088  37.941  1.00  0.00    -0.458 OA
BRANCH   2   3
ATOM      3  C   UNL A   1      50.342  19.795  37.884  1.00  0.00     0.365 C 
ATOM      4  O   UNL A   1      51.171  18.957  37.542  1.00  0.00    -0.245 OA
BRANCH   3   5
ATOM      5  C   UNL A   1      48.876  19.285  38.444  1.00  0.00     0.297 C 
BRANCH   5   6
ATOM      6  C   UNL A   1      49.381  18.329  40.004  1.00  0.00     0.135 C 
BRANCH   6   7
ATOM      7  C   UNL A   1      48.465  17.728  41.149  1.00  0.00     0.065 A 
ATOM      8  N   UNL A   1      46.784  16.947  42.473  1.00  0.00    -0.319 N 
ATOM      9  C   UNL A   1      47.610  17.791  43.155  1.00  0.00     0.201 A 
ATOM     10  C   UNL A   1      47.382  16.835  41.196  1.00  0.00     0.112 A 
ATOM     11  N   UNL A   1      48.502  18.333  42.367  1.00  0.00    -0.241 NA
BRANCH   8  12
ATOM     12  C   UNL A   1      45.367  16.648  42.988  1.00  0.00     0.121 C 
BRANCH  12  13
ATOM     13  C   UNL A   1      45.337  15.293  43.848  1.00  0.00    -0.013 A 
ATOM     14  C   UNL A   1      44.558  10.394  45.400  1.00  0.00     0.044 C 
ATOM     15  C   UNL A   1      45.087  12.462  45.123  1.00  0.00    -0.051 A 
ATOM     16  C   UNL A   1      44.257  13.705  45.376  1.00  0.00     0.004 A 
ATOM     17  C   UNL A   1      46.307  13.091  44.538  1.00  0.00     0.004 A 
ATOM     18  C   UNL A   1      44.316  14.974  44.720  1.00  0.00     0.007 A 
ATOM     19  C   UNL A   1      46.421  14.413  43.967  1.00  0.00     0.007 A 
ENDBRANCH  12  13
BRANCH  12  20
ATOM     20  C   UNL A   1      45.042  17.915  43.945  1.00  0.00    -0.013 A 
ATOM     21  C   UNL A   1      44.625  19.153  43.409  1.00  0.00     0.007 A 
ATOM     22  C   UNL A   1      45.361  17.958  45.327  1.00  0.00     0.007 A 
ATOM     23  C   UNL A   1      44.463  20.306  44.196  1.00  0.00     0.000 A 
ATOM     24  C   UNL A   1      45.189  19.101  46.124  1.00  0.00     0.000 A 
ATOM     25  C   UNL A   1      44.735  20.278  45.557  1.00  0.00     0.000 A 
ENDBRANCH  12  20
BRANCH  12  26
ATOM     26  C   UNL A   1      44.420  16.448  41.740  1.00  0.00    -0.013 A 
ATOM     27  C   UNL A   1      43.274  15.616  41.823  1.00  0.00     0.007 A 
ATOM     28  C   UNL A   1      44.721  16.932  40.454  1.00  0.00     0.007 A 
ATOM     29  C   UNL A   1      42.536  15.231  40.700  1.00  0.00     0.000 A 
ATOM     30  C   UNL A   1      43.999  16.529  39.322  1.00  0.00     0.000 A 
ATOM     31  C   UNL A   1      42.918  15.665  39.442  1.00  0.00     0.000 A 
ENDBRANCH  12  26
ENDBRANCH   8  12
ENDBRANCH   6   7
ENDBRANCH   5   6
BRANCH   5  32
ATOM     32  N   UNL A   1      47.019  19.323  37.503  1.00  0.00    -0.346 N 
ATOM     33  H   UNL A   1      46.694  20.287  37.431  1.00  0.00     0.345 HD
ATOM     34  H   UNL A   1      46.350  18.778  38.047  1.00  0.00     0.345 HD
ATOM     35  H   UNL A   1      47.103  18.923  36.568  1.00  0.00     0.345 HD
ENDBRANCH   5  32
ENDBRANCH   3   5
ENDBRANCH   2   3
ENDBRANCH   1   2
BRANCH   1  36
ATOM     36  C   UNL A   1      48.918  22.731  37.593  1.00  0.00     0.275 C 
BRANCH  36  37
ATOM     37  O   UNL A   1      47.552  22.284  37.273  1.00  0.00    -0.458 OA
BRANCH  37  38
ATOM     38  C   UNL A   1      46.465  23.089  37.013  1.00  0.00     0.338 C 
ATOM     39  O   UNL A   1      45.594  23.355  37.826  1.00  0.00    -0.246 OA
BRANCH  38  40
ATOM     40  C   UNL A   1      46.304  23.413  35.562  1.00  0.00     0.060 A 
ATOM     41  C   UNL A   1      47.556  24.298  34.509  1.00  0.00     0.016 A 
ATOM     42  C   UNL A   1      44.567  23.490  35.149  1.00  0.00     0.016 A 
ATOM     43  C   UNL A   1      46.946  25.359  33.104  1.00  0.00     0.010 A 
ATOM     44  C   UNL A   1      43.973  24.606  33.885  1.00  0.00     0.010 A 
ATOM     45  C   UNL A   1      45.118  25.622  32.919  1.00  0.00    -0.014 A 
BRANCH  45  46
ATOM     46  C   UNL A   1      44.291  26.725  32.414  1.00  0.00     0.031 A 
ATOM     47  C   UNL A   1      44.109  27.958  33.166  1.00  0.00     0.074 A 
ATOM     48  C   UNL A   1      44.075  26.787  31.057  1.00  0.00     0.049 A 
ATOM     49  N   UNL A   1      43.278  28.877  32.793  1.00  0.00    -0.248 NA
ATOM     50  C   UNL A   1      44.807  28.264  34.411  1.00  0.00     0.031 C 
ATOM     51  C   UNL A   1      44.106  27.973  30.218  1.00  0.00     0.029 A 
ATOM     52  N   UNL A   1      43.695  25.783  30.141  1.00  0.00    -0.354 N 
ATOM     53  C   UNL A   1      43.718  30.010  33.414  1.00  0.00     0.074 A 
ATOM     54  C   UNL A   1      44.400  29.527  34.596  1.00  0.00     0.031 C 
ATOM     55  C   UNL A   1      43.580  27.689  29.017  1.00  0.00     0.029 A 
ATOM     56  C   UNL A   1      43.071  26.327  29.014  1.00  0.00     0.049 A 
ATOM     57  H   UNL A   1      43.850  24.821  30.278  1.00  0.00     0.167 HD
ATOM     58  C   UNL A   1      43.729  31.192  32.733  1.00  0.00     0.031 A 
ATOM     59  C   UNL A   1      41.927  25.846  28.421  1.00  0.00     0.031 A 
ATOM     60  C   UNL A   1      43.114  31.143  31.385  1.00  0.00     0.049 A 
ATOM     61  C   UNL A   1      40.864  26.931  28.418  1.00  0.00     0.074 A 
ATOM     62  C   UNL A   1      43.473  31.575  30.115  1.00  0.00     0.029 A 
ATOM     63  N   UNL A   1      41.962  30.400  31.174  1.00  0.00    -0.354 N 
ATOM     64  N   UNL A   1      41.104  28.216  28.438  1.00  0.00    -0.248 NA
ATOM     65  C   UNL A   1      39.438  26.641  28.593  1.00  0.00     0.031 C 
ATOM     66  C   UNL A   1      42.443  31.198  29.191  1.00  0.00     0.029 A 
ATOM     67  C   UNL A   1      41.448  30.559  29.902  1.00  0.00     0.049 A 
ATOM     68  H   UNL A   1      41.555  29.821  31.858  1.00  0.00     0.167 HD
ATOM     69  C   UNL A   1      40.016  28.843  28.998  1.00  0.00     0.074 A 
ATOM     70  C   UNL A   1      38.961  27.847  28.943  1.00  0.00     0.031 C 
ATOM     71  C   UNL A   1      40.111  30.036  29.657  1.00  0.00     0.031 A 
BRANCH  58  72
ATOM     72  C   UNL A   1      44.465  32.417  33.236  1.00  0.00    -0.014 A 
ATOM     73  C   UNL A   1      44.044  33.036  34.428  1.00  0.00     0.010 A 
ATOM     74  C   UNL A   1      45.547  33.032  32.570  1.00  0.00     0.010 A 
ATOM     75  C   UNL A   1      44.670  34.191  34.925  1.00  0.00     0.020 A 
ATOM     76  C   UNL A   1      46.218  34.145  33.082  1.00  0.00     0.020 A 
ATOM     77  C   UNL A   1      45.764  34.732  34.252  1.00  0.00     0.054 A 
BRANCH  77  78
ATOM     78  S   UNL A   1      46.576  36.213  34.899  1.00  0.00     0.124 S 
ATOM     79  O   UNL A   1      45.873  36.421  36.162  1.00  0.00    -0.237 OA
ATOM     80  O   UNL A   1      47.968  35.791  35.011  1.00  0.00    -0.237 OA
ATOM     81  O   UNL A   1      46.316  37.224  33.874  1.00  0.00    -0.744 OA
ENDBRANCH  77  78
ENDBRANCH  58  72
BRANCH  59  82
ATOM     82  C   UNL A   1      41.656  24.354  28.441  1.00  0.00    -0.014 A 
ATOM     83  C   UNL A   1      40.538  23.886  27.721  1.00  0.00     0.010 A 
ATOM     84  C   UNL A   1      42.558  23.376  28.900  1.00  0.00     0.010 A 
ATOM     85  C   UNL A   1      40.443  22.547  27.290  1.00  0.00     0.020 A 
ATOM     86  C   UNL A   1      42.509  22.048  28.426  1.00  0.00     0.020 A 
ATOM     87  C   UNL A   1      41.487  21.661  27.560  1.00  0.00     0.054 A 
BRANCH  87  88
ATOM     88  S   UNL A   1      41.717  20.165  26.521  1.00  0.00     0.124 S 
ATOM     89  O   UNL A   1      40.343  19.839  26.145  1.00  0.00    -0.237 OA
ATOM     90  O   UNL A   1      42.559  20.625  25.417  1.00  0.00    -0.237 OA
ATOM     91  O   UNL A   1      42.346  19.203  27.430  1.00  0.00    -0.744 OA
ENDBRANCH  87  88
ENDBRANCH  59  82
BRANCH  71  92
ATOM     92  C   UNL A   1      38.982  30.699  30.407  1.00  0.00    -0.014 A 
ATOM     93  C   UNL A   1      38.462  30.217  32.091  1.00  0.00     0.010 A 
ATOM     94  C   UNL A   1      38.146  32.131  29.599  1.00  0.00     0.010 A 
ATOM     95  C   UNL A   1      37.191  31.159  32.985  1.00  0.00     0.020 A 
ATOM     96  C   UNL A   1      36.984  33.187  30.558  1.00  0.00     0.020 A 
ATOM     97  C   UNL A   1      36.514  32.690  32.235  1.00  0.00     0.054 A 
BRANCH  97  98
ATOM     98  S   UNL A   1      35.087  33.436  33.024  1.00  0.00     0.124 S 
ATOM     99  O   UNL A   1      35.377  33.220  34.441  1.00  0.00    -0.237 OA
ATOM    100  O   UNL A   1      35.175  34.820  32.572  1.00  0.00    -0.237 OA
ATOM    101  O   UNL A   1      33.970  32.660  32.494  1.00  0.00    -0.744 OA
ENDBRANCH  97  98
ENDBRANCH  71  92
ENDBRANCH  45  46
ENDBRANCH  38  40
ENDBRANCH  37  38
ENDBRANCH  36  37
ENDBRANCH   1  36
TORSDOF 21
ENDMDL
MODEL 3
REMARK VINA RESULT:      -8.9      3.993     10.591
REMARK SMILES Cc1ccc(C(c2ccccc2)(c2ccccc2)n2cnc(C[C@H]([NH3+])C(=O)OCCOC(=O)c3ccc(-c4c5nc(c(-c6ccc(S(=O)(=O)[O-])cc6)c6ccc([nH]6)c(-c6ccc(S(=O)(=O)[O-])cc6)c6nc(c(-c7ccc(S(=O)(=O)[O-])cc7)c7ccc4[nH]7)C=C6)C=C5)cc3)c2)cc1
REMARK SMILES IDX 29 1 28 2 26 3 27 4 24 5 23 6 22 7 19 8 20 9 94 10 21 11
REMARK SMILES IDX 6 12 5 13 1 14 2 15 3 16 96 17 4 18 95 19 7 20 8 21 12 22
REMARK SMILES IDX 9 23 11 24 10 25 13 26 14 27 18 28 15 29 17 30 16 31 25 32
REMARK SMILES IDX 30 36 31 37 32 38 33 39 34 40 35 41 93 42 36 43 92 44 37 45
REMARK SMILES IDX 38 46 39 47 86 48 40 49 91 50 85 51 87 52 41 53 90 54 84 55
REMARK SMILES IDX 83 56 42 58 72 59 53 60 71 61 54 62 57 63 70 64 88 65 55 66
REMARK SMILES IDX 56 67 69 69 89 70 58 71 43 72 44 73 52 74 45 75 51 76 46 77
REMARK SMILES IDX 47 78 48 79 49 80 50 81 73 82 74 83 82 84 75 85 81 86 76 87
REMARK SMILES IDX 77 88 78 89 79 90 80 91 59 92 60 93 68 94 61 95 67 96 62 97
REMARK SMILES IDX 63 98 64 99 65 100 66 101
REMARK H PARENT 25 33 25 34 25 35 87 57 57 68
REMARK Flexibility Score: inf
ROOT
ATOM      1  C   UNL A   1      45.696  23.606  37.244  1.00  0.00     0.274 C 
ENDROOT
BRANCH   1   2
ATOM      2  O   UNL A   1      44.531  23.604  36.418  1.00  0.00    -0.458 OA
BRANCH   2   3
ATOM      3  C   UNL A   1      44.818  23.329  35.125  1.00  0.00     0.365 C 
ATOM      4  O   UNL A   1      44.091  22.541  34.528  1.00  0.00    -0.245 OA
BRANCH   3   5
ATOM      5  C   UNL A   1      45.967  24.156  34.276  1.00  0.00     0.297 C 
BRANCH   5   6
ATOM      6  C   UNL A   1      44.900  25.099  33.021  1.00  0.00     0.135 C 
BRANCH   6   7
ATOM      7  C   UNL A   1      44.683  24.811  31.477  1.00  0.00     0.065 A 
ATOM      8  N   UNL A   1      44.104  24.811  29.274  1.00  0.00    -0.319 N 
ATOM      9  C   UNL A   1      43.924  23.584  29.842  1.00  0.00     0.201 A 
ATOM     10  C   UNL A   1      44.677  25.588  30.308  1.00  0.00     0.112 A 
ATOM     11  N   UNL A   1      44.141  23.612  31.130  1.00  0.00    -0.241 NA
BRANCH   8  12
ATOM     12  C   UNL A   1      43.392  25.184  27.965  1.00  0.00     0.121 C 
BRANCH  12  13
ATOM     13  C   UNL A   1      42.333  26.368  28.198  1.00  0.00    -0.013 A 
ATOM     14  C   UNL A   1      37.933  29.080  28.749  1.00  0.00     0.044 C 
ATOM     15  C   UNL A   1      39.944  28.321  28.621  1.00  0.00    -0.051 A 
ATOM     16  C   UNL A   1      40.818  28.125  27.399  1.00  0.00     0.004 A 
ATOM     17  C   UNL A   1      40.839  27.741  29.665  1.00  0.00     0.004 A 
ATOM     18  C   UNL A   1      41.851  27.162  27.178  1.00  0.00     0.007 A 
ATOM     19  C   UNL A   1      41.959  26.852  29.458  1.00  0.00     0.007 A 
ENDBRANCH  12  13
BRANCH  12  20
ATOM     20  C   UNL A   1      44.599  25.703  27.017  1.00  0.00    -0.013 A 
ATOM     21  C   UNL A   1      44.643  27.034  26.545  1.00  0.00     0.007 A 
ATOM     22  C   UNL A   1      45.551  24.841  26.412  1.00  0.00     0.007 A 
ATOM     23  C   UNL A   1      45.601  27.480  25.618  1.00  0.00     0.000 A 
ATOM     24  C   UNL A   1      46.519  25.280  25.496  1.00  0.00     0.000 A 
ATOM     25  C   UNL A   1      46.546  26.605  25.100  1.00  0.00     0.000 A 
ENDBRANCH  12  20
BRANCH  12  26
ATOM     26  C   UNL A   1      42.595  23.918  27.458  1.00  0.00    -0.013 A 
ATOM     27  C   UNL A   1      43.083  23.135  26.380  1.00  0.00     0.007 A 
ATOM     28  C   UNL A   1      41.308  23.579  27.915  1.00  0.00     0.007 A 
ATOM     29  C   UNL A   1      42.315  22.149  25.754  1.00  0.00     0.000 A 
ATOM     30  C   UNL A   1      40.525  22.608  27.274  1.00  0.00     0.000 A 
ATOM     31  C   UNL A   1      41.022  21.906  26.183  1.00  0.00     0.000 A 
ENDBRANCH  12  26
ENDBRANCH   8  12
ENDBRANCH   6   7
ENDBRANCH   5   6
BRANCH   5  32
ATOM     32  N   UNL A   1      48.037  23.932  34.295  1.00  0.00    -0.346 N 
ATOM     33  H   UNL A   1      48.439  24.418  33.494  1.00  0.00     0.345 HD
ATOM     34  H   UNL A   1      48.271  22.941  34.245  1.00  0.00     0.345 HD
ATOM     35  H   UNL A   1      48.413  24.328  35.157  1.00  0.00     0.345 HD
ENDBRANCH   5  32
ENDBRANCH   3   5
ENDBRANCH   2   3
ENDBRANCH   1   2
BRANCH   1  36
ATOM     36  C   UNL A   1      45.924  24.994  37.914  1.00  0.00     0.275 C 
BRANCH  36  37
ATOM     37  O   UNL A   1      45.194  26.128  37.321  1.00  0.00    -0.458 OA
BRANCH  37  38
ATOM     38  C   UNL A   1      44.047  26.712  37.812  1.00  0.00     0.338 C 
ATOM     39  O   UNL A   1      43.611  26.534  38.938  1.00  0.00    -0.246 OA
BRANCH  38  40
ATOM     40  C   UNL A   1      43.234  27.392  36.759  1.00  0.00     0.060 A 
ATOM     41  C   UNL A   1      42.404  26.550  35.323  1.00  0.00     0.016 A 
ATOM     42  C   UNL A   1      43.719  29.108  36.635  1.00  0.00     0.016 A 
ATOM     43  C   UNL A   1      42.211  27.492  33.728  1.00  0.00     0.010 A 
ATOM     44  C   UNL A   1      43.650  29.971  35.070  1.00  0.00     0.010 A 
ATOM     45  C   UNL A   1      43.000  29.166  33.586  1.00  0.00    -0.014 A 
BRANCH  45  46
ATOM     46  C   UNL A   1      43.577  29.931  32.473  1.00  0.00     0.031 A 
ATOM     47  C   UNL A   1      44.955  29.744  32.042  1.00  0.00     0.074 A 
ATOM     48  C   UNL A   1      42.707  30.472  31.554  1.00  0.00     0.049 A 
ATOM     49  N   UNL A   1      45.510  30.505  31.155  1.00  0.00    -0.248 NA
ATOM     50  C   UNL A   1      45.845  28.719  32.579  1.00  0.00     0.031 C 
ATOM     51  C   UNL A   1      42.856  30.488  30.110  1.00  0.00     0.029 A 
ATOM     52  N   UNL A   1      41.517  31.207  31.740  1.00  0.00    -0.354 N 
ATOM     53  C   UNL A   1      46.554  29.769  30.676  1.00  0.00     0.074 A 
ATOM     54  C   UNL A   1      46.899  28.885  31.769  1.00  0.00     0.031 C 
ATOM     55  C   UNL A   1      41.964  31.334  29.574  1.00  0.00     0.029 A 
ATOM     56  C   UNL A   1      41.234  32.013  30.633  1.00  0.00     0.049 A 
ATOM     57  H   UNL A   1      40.956  31.158  32.548  1.00  0.00     0.167 HD
ATOM     58  C   UNL A   1      46.820  29.765  29.337  1.00  0.00     0.031 A 
ATOM     59  C   UNL A   1      40.825  33.325  30.681  1.00  0.00     0.031 A 
ATOM     60  C   UNL A   1      45.998  30.700  28.535  1.00  0.00     0.049 A 
ATOM     61  C   UNL A   1      41.817  34.193  29.924  1.00  0.00     0.074 A 
ATOM     62  C   UNL A   1      45.265  30.617  27.358  1.00  0.00     0.029 A 
ATOM     63  N   UNL A   1      45.696  31.961  29.030  1.00  0.00    -0.354 N 
ATOM     64  N   UNL A   1      42.585  33.778  28.951  1.00  0.00    -0.248 NA
ATOM     65  C   UNL A   1      42.158  35.554  30.345  1.00  0.00     0.031 C 
ATOM     66  C   UNL A   1      44.653  31.890  27.104  1.00  0.00     0.029 A 
ATOM     67  C   UNL A   1      45.033  32.752  28.112  1.00  0.00     0.049 A 
ATOM     68  H   UNL A   1      45.930  32.259  29.938  1.00  0.00     0.167 HD
ATOM     69  C   UNL A   1      43.692  34.591  28.908  1.00  0.00     0.074 A 
ATOM     70  C   UNL A   1      43.314  35.754  29.691  1.00  0.00     0.031 C 
ATOM     71  C   UNL A   1      44.900  34.167  28.429  1.00  0.00     0.031 A 
BRANCH  58  72
ATOM     72  C   UNL A   1      47.756  28.762  28.694  1.00  0.00    -0.014 A 
ATOM     73  C   UNL A   1      47.534  27.385  28.886  1.00  0.00     0.010 A 
ATOM     74  C   UNL A   1      48.891  29.103  27.928  1.00  0.00     0.010 A 
ATOM     75  C   UNL A   1      48.386  26.413  28.340  1.00  0.00     0.020 A 
ATOM     76  C   UNL A   1      49.715  28.147  27.327  1.00  0.00     0.020 A 
ATOM     77  C   UNL A   1      49.467  26.802  27.551  1.00  0.00     0.054 A 
BRANCH  77  78
ATOM     78  S   UNL A   1      50.559  25.548  26.839  1.00  0.00     0.124 S 
ATOM     79  O   UNL A   1      51.881  26.058  27.191  1.00  0.00    -0.237 OA
ATOM     80  O   UNL A   1      50.143  24.332  27.531  1.00  0.00    -0.237 OA
ATOM     81  O   UNL A   1      50.242  25.585  25.411  1.00  0.00    -0.744 OA
ENDBRANCH  77  78
ENDBRANCH  58  72
BRANCH  59  82
ATOM     82  C   UNL A   1      39.962  33.788  31.838  1.00  0.00    -0.014 A 
ATOM     83  C   UNL A   1      38.582  33.506  31.776  1.00  0.00     0.010 A 
ATOM     84  C   UNL A   1      40.451  34.245  33.077  1.00  0.00     0.010 A 
ATOM     85  C   UNL A   1      37.782  33.466  32.936  1.00  0.00     0.020 A 
ATOM     86  C   UNL A   1      39.680  34.150  34.255  1.00  0.00     0.020 A 
ATOM     87  C   UNL A   1      38.367  33.687  34.184  1.00  0.00     0.054 A 
BRANCH  87  88
ATOM     88  S   UNL A   1      37.567  33.038  35.704  1.00  0.00     0.124 S 
ATOM     89  O   UNL A   1      38.445  33.550  36.754  1.00  0.00    -0.237 OA
ATOM     90  O   UNL A   1      36.230  33.631  35.683  1.00  0.00    -0.237 OA
ATOM     91  O   UNL A   1      37.610  31.585  35.527  1.00  0.00    -0.744 OA
ENDBRANCH  87  88
ENDBRANCH  59  82
BRANCH  71  92
ATOM     92  C   UNL A   1      46.178  34.967  28.486  1.00  0.00    -0.014 A 
ATOM     93  C   UNL A   1      46.906  35.820  27.043  1.00  0.00     0.010 A 
ATOM     94  C   UNL A   1      46.994  35.157  30.130  1.00  0.00     0.010 A 
ATOM     95  C   UNL A   1      48.368  36.884  27.224  1.00  0.00     0.020 A 
ATOM     96  C   UNL A   1      48.367  36.361  30.349  1.00  0.00     0.020 A 
ATOM     97  C   UNL A   1      49.043  37.208  28.898  1.00  0.00     0.054 A 
BRANCH  97  98
ATOM     98  S   UNL A   1      50.627  38.041  29.004  1.00  0.00     0.124 S 
ATOM     99  O   UNL A   1      50.560  38.964  27.872  1.00  0.00    -0.237 OA
ATOM    100  O   UNL A   1      50.558  38.663  30.322  1.00  0.00    -0.237 OA
ATOM    101  O   UNL A   1      51.587  36.951  28.861  1.00  0.00    -0.744 OA
ENDBRANCH  97  98
ENDBRANCH  71  92
ENDBRANCH  45  46
ENDBRANCH  38  40
ENDBRANCH  37  38
ENDBRANCH  36  37
ENDBRANCH   1  36
TORSDOF 21
ENDMDL
