MODEL 1
REMARK VINA RESULT:     -10.2      0.000      0.000
REMARK SMILES C[C@@H](C(=O)OCCOC(=O)c1ccc(-c2c3nc(c(-c4ccc(S(=O)(=O)[O-])cc4)c4ccc([nH]4)c(-c4ccc(S(=O)(=O)[O-])cc4)c4nc(c(-c5ccc(S(=O)(=O)[O-])cc5)c5ccc2[nH]5)C=C4)C=C3)cc1)c1ccc(C[C@H]2CCC[C@@H]2O)cc1F
REMARK SMILES IDX 6 1 5 2 3 3 4 4 2 5 1 6 71 7 72 8 83 9 73 10 82 11 84 12
REMARK SMILES IDX 74 13 75 14 76 15 77 16 80 17 78 18 79 19 81 20 7 22 8 23
REMARK SMILES IDX 9 24 10 25 11 26 12 27 70 28 13 29 69 30 14 31 15 32 16 33
REMARK SMILES IDX 63 34 17 35 68 36 62 37 64 38 18 39 67 40 61 41 60 42 19 44
REMARK SMILES IDX 49 45 30 46 48 47 31 48 34 49 47 50 65 51 32 52 33 53 46 55
REMARK SMILES IDX 66 56 35 57 20 58 21 59 29 60 22 61 28 62 23 63 24 64 25 65
REMARK SMILES IDX 26 66 27 67 50 68 51 69 59 70 52 71 58 72 53 73 54 74 55 75
REMARK SMILES IDX 56 76 57 77 36 78 37 79 45 80 38 81 44 82 39 83 40 84 41 85
REMARK SMILES IDX 42 86 43 87
REMARK H PARENT 81 21 64 43 34 54
REMARK Flexibility Score: inf
ROOT
ATOM      1  C   UNL A   1      33.137  29.317  25.491  1.00  0.00     0.274 C 
ENDROOT
BRANCH   1   2
ATOM      2  O   UNL A   1      31.996  29.119  24.631  1.00  0.00    -0.462 OA
BRANCH   2   3
ATOM      3  C   UNL A   1      32.196  28.337  23.533  1.00  0.00     0.313 C 
ATOM      4  O   UNL A   1      32.905  28.667  22.587  1.00  0.00    -0.252 OA
BRANCH   3   5
ATOM      5  C   UNL A   1      31.385  27.031  23.572  1.00  0.00     0.129 C 
ATOM      6  C   UNL A   1      29.975  27.231  24.141  1.00  0.00     0.025 C 
BRANCH   5   7
ATOM      7  C   UNL A   1      32.184  25.886  24.194  1.00  0.00     0.002 A 
ATOM      8  C   UNL A   1      32.768  24.928  23.345  1.00  0.00     0.008 A 
ATOM      9  C   UNL A   1      32.415  25.738  25.566  1.00  0.00     0.127 A 
ATOM     10  C   UNL A   1      33.574  23.898  23.846  1.00  0.00     0.004 A 
ATOM     11  C   UNL A   1      33.187  24.688  26.077  1.00  0.00     0.043 A 
ATOM     12  F   UNL A   1      31.920  26.620  26.444  1.00  0.00    -0.207 F 
ATOM     13  C   UNL A   1      33.784  23.755  25.221  1.00  0.00    -0.045 A 
BRANCH  13  14
ATOM     14  C   UNL A   1      34.709  22.690  25.772  1.00  0.00     0.041 C 
BRANCH  14  15
ATOM     15  C   UNL A   1      36.158  22.671  25.259  1.00  0.00     0.022 C 
ATOM     16  C   UNL A   1      37.000  23.903  25.632  1.00  0.00     0.007 C 
ATOM     17  C   UNL A   1      36.989  21.456  25.694  1.00  0.00     0.117 C 
ATOM     18  C   UNL A   1      38.309  23.360  26.202  1.00  0.00     0.003 C 
ATOM     19  C   UNL A   1      38.423  21.960  25.626  1.00  0.00     0.032 C 
BRANCH  17  20
ATOM     20  O   UNL A   1      36.819  20.347  24.833  1.00  0.00    -0.393 OA
ATOM     21  H   UNL A   1      37.645  20.179  24.354  1.00  0.00     0.210 HD
ENDBRANCH  17  20
ENDBRANCH  14  15
ENDBRANCH  13  14
ENDBRANCH   5   7
ENDBRANCH   3   5
ENDBRANCH   2   3
ENDBRANCH   1   2
BRANCH   1  22
ATOM     22  C   UNL A   1      32.812  30.367  26.549  1.00  0.00     0.275 C 
BRANCH  22  23
ATOM     23  O   UNL A   1      33.429  29.985  27.790  1.00  0.00    -0.458 OA
BRANCH  23  24
ATOM     24  C   UNL A   1      34.299  30.876  28.323  1.00  0.00     0.338 C 
ATOM     25  O   UNL A   1      34.057  32.019  28.672  1.00  0.00    -0.246 OA
BRANCH  24  26
ATOM     26  C   UNL A   1      35.641  30.263  28.411  1.00  0.00     0.060 A 
ATOM     27  C   UNL A   1      36.128  29.792  29.626  1.00  0.00     0.016 A 
ATOM     28  C   UNL A   1      36.460  30.234  27.281  1.00  0.00     0.016 A 
ATOM     29  C   UNL A   1      37.458  29.380  29.727  1.00  0.00     0.010 A 
ATOM     30  C   UNL A   1      37.768  29.739  27.374  1.00  0.00     0.010 A 
ATOM     31  C   UNL A   1      38.309  29.352  28.612  1.00  0.00    -0.014 A 
BRANCH  31  32
ATOM     32  C   UNL A   1      39.761  29.002  28.757  1.00  0.00     0.031 A 
ATOM     33  C   UNL A   1      40.735  30.010  29.330  1.00  0.00     0.074 A 
ATOM     34  C   UNL A   1      40.233  27.779  28.432  1.00  0.00     0.049 A 
ATOM     35  N   UNL A   1      42.045  29.984  29.334  1.00  0.00    -0.248 NA
ATOM     36  C   UNL A   1      40.164  31.206  29.968  1.00  0.00     0.031 C 
ATOM     37  C   UNL A   1      39.437  26.658  27.927  1.00  0.00     0.029 A 
ATOM     38  N   UNL A   1      41.508  27.264  28.504  1.00  0.00    -0.354 N 
ATOM     39  C   UNL A   1      42.451  31.197  29.882  1.00  0.00     0.074 A 
ATOM     40  C   UNL A   1      41.248  31.926  30.222  1.00  0.00     0.031 C 
ATOM     41  C   UNL A   1      40.221  25.576  27.806  1.00  0.00     0.029 A 
ATOM     42  C   UNL A   1      41.599  25.949  28.107  1.00  0.00     0.049 A 
ATOM     43  H   UNL A   1      42.284  27.788  28.809  1.00  0.00     0.167 HD
ATOM     44  C   UNL A   1      43.708  31.670  30.074  1.00  0.00     0.031 A 
ATOM     45  C   UNL A   1      42.664  25.138  27.948  1.00  0.00     0.031 A 
ATOM     46  C   UNL A   1      44.910  30.924  29.811  1.00  0.00     0.049 A 
ATOM     47  C   UNL A   1      44.049  25.677  28.164  1.00  0.00     0.074 A 
ATOM     48  C   UNL A   1      46.227  31.328  29.968  1.00  0.00     0.029 A 
ATOM     49  N   UNL A   1      44.948  29.610  29.373  1.00  0.00    -0.354 N 
ATOM     50  N   UNL A   1      44.415  26.872  28.559  1.00  0.00    -0.248 NA
ATOM     51  C   UNL A   1      45.168  24.766  27.879  1.00  0.00     0.031 C 
ATOM     52  C   UNL A   1      47.060  30.266  29.599  1.00  0.00     0.029 A 
ATOM     53  C   UNL A   1      46.261  29.188  29.254  1.00  0.00     0.049 A 
ATOM     54  H   UNL A   1      44.158  29.058  29.176  1.00  0.00     0.167 HD
ATOM     55  C   UNL A   1      45.805  26.861  28.556  1.00  0.00     0.074 A 
ATOM     56  C   UNL A   1      46.216  25.531  28.156  1.00  0.00     0.031 C 
ATOM     57  C   UNL A   1      46.663  27.869  28.845  1.00  0.00     0.031 A 
BRANCH  44  58
ATOM     58  C   UNL A   1      43.853  33.094  30.543  1.00  0.00    -0.014 A 
ATOM     59  C   UNL A   1      43.868  34.173  29.643  1.00  0.00     0.010 A 
ATOM     60  C   UNL A   1      43.930  33.353  31.925  1.00  0.00     0.010 A 
ATOM     61  C   UNL A   1      43.995  35.483  30.116  1.00  0.00     0.020 A 
ATOM     62  C   UNL A   1      44.033  34.662  32.402  1.00  0.00     0.020 A 
ATOM     63  C   UNL A   1      44.084  35.718  31.492  1.00  0.00     0.054 A 
BRANCH  63  64
ATOM     64  S   UNL A   1      44.230  37.428  32.084  1.00  0.00     0.124 S 
ATOM     65  O   UNL A   1      43.325  37.427  33.230  1.00  0.00    -0.237 OA
ATOM     66  O   UNL A   1      45.650  37.539  32.405  1.00  0.00    -0.237 OA
ATOM     67  O   UNL A   1      43.789  38.227  30.943  1.00  0.00    -0.744 OA
ENDBRANCH  63  64
ENDBRANCH  44  58
BRANCH  45  68
ATOM     68  C   UNL A   1      42.462  23.738  27.484  1.00  0.00    -0.014 A 
ATOM     69  C   UNL A   1      42.416  23.439  26.111  1.00  0.00     0.010 A 
ATOM     70  C   UNL A   1      42.342  22.693  28.418  1.00  0.00     0.010 A 
ATOM     71  C   UNL A   1      42.256  22.119  25.681  1.00  0.00     0.020 A 
ATOM     72  C   UNL A   1      42.212  21.369  27.991  1.00  0.00     0.020 A 
ATOM     73  C   UNL A   1      42.161  21.091  26.624  1.00  0.00     0.054 A 
BRANCH  73  74
ATOM     74  S   UNL A   1      42.045  19.372  26.056  1.00  0.00     0.124 S 
ATOM     75  O   UNL A   1      42.940  19.372  24.904  1.00  0.00    -0.237 OA
ATOM     76  O   UNL A   1      42.507  18.616  27.217  1.00  0.00    -0.237 OA
ATOM     77  O   UNL A   1      40.624  19.215  25.749  1.00  0.00    -0.744 OA
ENDBRANCH  73  74
ENDBRANCH  45  68
BRANCH  57  78
ATOM     78  C   UNL A   1      48.134  27.572  28.747  1.00  0.00    -0.014 A 
ATOM     79  C   UNL A   1      48.855  27.865  27.576  1.00  0.00     0.010 A 
ATOM     80  C   UNL A   1      48.813  27.031  29.854  1.00  0.00     0.010 A 
ATOM     81  C   UNL A   1      50.223  27.595  27.502  1.00  0.00     0.020 A 
ATOM     82  C   UNL A   1      50.186  26.777  29.790  1.00  0.00     0.020 A 
ATOM     83  C   UNL A   1      50.880  27.048  28.608  1.00  0.00     0.054 A 
BRANCH  83  84
ATOM     84  S   UNL A   1      52.665  26.736  28.503  1.00  0.00     0.124 S 
ATOM     85  O   UNL A   1      53.180  28.048  28.122  1.00  0.00    -0.237 OA
ATOM     86  O   UNL A   1      52.997  26.299  29.857  1.00  0.00    -0.237 OA
ATOM     87  O   UNL A   1      52.775  25.702  27.477  1.00  0.00    -0.744 OA
ENDBRANCH  83  84
ENDBRANCH  57  78
ENDBRANCH  31  32
ENDBRANCH  24  26
ENDBRANCH  23  24
ENDBRANCH  22  23
ENDBRANCH   1  22
TORSDOF 18
ENDMDL
MODEL 2
REMARK VINA RESULT:     -10.0      1.912      2.691
REMARK SMILES C[C@@H](C(=O)OCCOC(=O)c1ccc(-c2c3nc(c(-c4ccc(S(=O)(=O)[O-])cc4)c4ccc([nH]4)c(-c4ccc(S(=O)(=O)[O-])cc4)c4nc(c(-c5ccc(S(=O)(=O)[O-])cc5)c5ccc2[nH]5)C=C4)C=C3)cc1)c1ccc(C[C@H]2CCC[C@@H]2O)cc1F
REMARK SMILES IDX 6 1 5 2 3 3 4 4 2 5 1 6 71 7 72 8 83 9 73 10 82 11 84 12
REMARK SMILES IDX 74 13 75 14 76 15 77 16 80 17 78 18 79 19 81 20 7 22 8 23
REMARK SMILES IDX 9 24 10 25 11 26 12 27 70 28 13 29 69 30 14 31 15 32 16 33
REMARK SMILES IDX 63 34 17 35 68 36 62 37 64 38 18 39 67 40 61 41 60 42 19 44
REMARK SMILES IDX 49 45 30 46 48 47 31 48 34 49 47 50 65 51 32 52 33 53 46 55
REMARK SMILES IDX 66 56 35 57 20 58 21 59 29 60 22 61 28 62 23 63 24 64 25 65
REMARK SMILES IDX 26 66 27 67 50 68 51 69 59 70 52 71 58 72 53 73 54 74 55 75
REMARK SMILES IDX 56 76 57 77 36 78 37 79 45 80 38 81 44 82 39 83 40 84 41 85
REMARK SMILES IDX 42 86 43 87
REMARK H PARENT 81 21 64 43 34 54
REMARK Flexibility Score: inf
ROOT
ATOM      1  C   UNL A   1      31.433  27.771  26.698  1.00  0.00     0.274 C 
ENDROOT
BRANCH   1   2
ATOM      2  O   UNL A   1      31.825  26.815  25.691  1.00  0.00    -0.462 OA
BRANCH   2   3
ATOM      3  C   UNL A   1      32.034  25.539  26.118  1.00  0.00     0.313 C 
ATOM      4  O   UNL A   1      31.264  24.939  26.862  1.00  0.00    -0.252 OA
BRANCH   3   5
ATOM      5  C   UNL A   1      33.369  24.953  25.626  1.00  0.00     0.129 C 
ATOM      6  C   UNL A   1      34.098  25.888  24.655  1.00  0.00     0.025 C 
BRANCH   5   7
ATOM      7  C   UNL A   1      33.212  23.508  25.150  1.00  0.00     0.002 A 
ATOM      8  C   UNL A   1      33.781  22.476  25.919  1.00  0.00     0.008 A 
ATOM      9  C   UNL A   1      32.501  23.126  24.007  1.00  0.00     0.127 A 
ATOM     10  C   UNL A   1      33.610  21.129  25.578  1.00  0.00     0.004 A 
ATOM     11  C   UNL A   1      32.360  21.783  23.640  1.00  0.00     0.043 A 
ATOM     12  F   UNL A   1      31.903  24.041  23.233  1.00  0.00    -0.207 F 
ATOM     13  C   UNL A   1      32.909  20.763  24.426  1.00  0.00    -0.045 A 
BRANCH  13  14
ATOM     14  C   UNL A   1      32.656  19.310  24.083  1.00  0.00     0.041 C 
BRANCH  14  15
ATOM     15  C   UNL A   1      33.311  18.244  24.977  1.00  0.00     0.022 C 
ATOM     16  C   UNL A   1      32.401  17.064  25.361  1.00  0.00     0.007 C 
ATOM     17  C   UNL A   1      34.589  17.610  24.409  1.00  0.00     0.117 C 
ATOM     18  C   UNL A   1      33.206  15.800  25.070  1.00  0.00     0.003 C 
ATOM     19  C   UNL A   1      34.654  16.255  25.098  1.00  0.00     0.032 C 
BRANCH  17  20
ATOM     20  O   UNL A   1      35.746  18.367  24.706  1.00  0.00    -0.393 OA
ATOM     21  H   UNL A   1      35.583  18.913  25.491  1.00  0.00     0.210 HD
ENDBRANCH  17  20
ENDBRANCH  14  15
ENDBRANCH  13  14
ENDBRANCH   5   7
ENDBRANCH   3   5
ENDBRANCH   2   3
ENDBRANCH   1   2
BRANCH   1  22
ATOM     22  C   UNL A   1      32.590  28.013  27.662  1.00  0.00     0.275 C 
BRANCH  22  23
ATOM     23  O   UNL A   1      33.615  28.757  26.982  1.00  0.00    -0.458 OA
BRANCH  23  24
ATOM     24  C   UNL A   1      33.999  29.916  27.567  1.00  0.00     0.338 C 
ATOM     25  O   UNL A   1      33.309  30.903  27.762  1.00  0.00    -0.246 OA
BRANCH  24  26
ATOM     26  C   UNL A   1      35.427  29.836  27.934  1.00  0.00     0.060 A 
ATOM     27  C   UNL A   1      36.418  30.077  26.988  1.00  0.00     0.016 A 
ATOM     28  C   UNL A   1      35.786  29.431  29.221  1.00  0.00     0.016 A 
ATOM     29  C   UNL A   1      37.755  29.826  27.303  1.00  0.00     0.010 A 
ATOM     30  C   UNL A   1      37.138  29.263  29.553  1.00  0.00     0.010 A 
ATOM     31  C   UNL A   1      38.145  29.406  28.584  1.00  0.00    -0.014 A 
BRANCH  31  32
ATOM     32  C   UNL A   1      39.572  29.044  28.877  1.00  0.00     0.031 A 
ATOM     33  C   UNL A   1      40.473  30.020  29.602  1.00  0.00     0.074 A 
ATOM     34  C   UNL A   1      40.078  27.835  28.551  1.00  0.00     0.049 A 
ATOM     35  N   UNL A   1      41.775  29.988  29.753  1.00  0.00    -0.248 NA
ATOM     36  C   UNL A   1      39.832  31.189  30.225  1.00  0.00     0.031 C 
ATOM     37  C   UNL A   1      39.346  26.742  27.908  1.00  0.00     0.029 A 
ATOM     38  N   UNL A   1      41.337  27.311  28.743  1.00  0.00    -0.354 N 
ATOM     39  C   UNL A   1      42.115  31.173  30.399  1.00  0.00     0.074 A 
ATOM     40  C   UNL A   1      40.880  31.891  30.633  1.00  0.00     0.031 C 
ATOM     41  C   UNL A   1      40.139  25.663  27.827  1.00  0.00     0.029 A 
ATOM     42  C   UNL A   1      41.474  26.016  28.299  1.00  0.00     0.049 A 
ATOM     43  H   UNL A   1      42.073  27.817  29.158  1.00  0.00     0.167 HD
ATOM     44  C   UNL A   1      43.341  31.631  30.753  1.00  0.00     0.031 A 
ATOM     45  C   UNL A   1      42.551  25.208  28.225  1.00  0.00     0.031 A 
ATOM     46  C   UNL A   1      44.566  30.893  30.595  1.00  0.00     0.049 A 
ATOM     47  C   UNL A   1      43.902  25.730  28.621  1.00  0.00     0.074 A 
ATOM     48  C   UNL A   1      45.856  31.284  30.919  1.00  0.00     0.029 A 
ATOM     49  N   UNL A   1      44.655  29.600  30.104  1.00  0.00    -0.354 N 
ATOM     50  N   UNL A   1      44.219  26.905  29.109  1.00  0.00    -0.248 NA
ATOM     51  C   UNL A   1      45.047  24.829  28.423  1.00  0.00     0.031 C 
ATOM     52  C   UNL A   1      46.727  30.236  30.598  1.00  0.00     0.029 A 
ATOM     53  C   UNL A   1      45.973  29.178  30.115  1.00  0.00     0.049 A 
ATOM     54  H   UNL A   1      43.892  29.062  29.793  1.00  0.00     0.167 HD
ATOM     55  C   UNL A   1      45.602  26.887  29.264  1.00  0.00     0.074 A 
ATOM     56  C   UNL A   1      46.056  25.575  28.852  1.00  0.00     0.031 C 
ATOM     57  C   UNL A   1      46.420  27.877  29.694  1.00  0.00     0.031 A 
BRANCH  44  58
ATOM     58  C   UNL A   1      43.431  33.031  31.301  1.00  0.00    -0.014 A 
ATOM     59  C   UNL A   1      43.453  33.288  32.682  1.00  0.00     0.010 A 
ATOM     60  C   UNL A   1      43.542  34.110  30.402  1.00  0.00     0.010 A 
ATOM     61  C   UNL A   1      43.546  34.601  33.154  1.00  0.00     0.020 A 
ATOM     62  C   UNL A   1      43.660  35.421  30.870  1.00  0.00     0.020 A 
ATOM     63  C   UNL A   1      43.642  35.660  32.245  1.00  0.00     0.054 A 
BRANCH  63  64
ATOM     64  S   UNL A   1      43.782  37.354  32.880  1.00  0.00     0.124 S 
ATOM     65  O   UNL A   1      43.620  38.145  31.664  1.00  0.00    -0.237 OA
ATOM     66  O   UNL A   1      42.677  37.434  33.833  1.00  0.00    -0.237 OA
ATOM     67  O   UNL A   1      45.115  37.391  33.475  1.00  0.00    -0.744 OA
ENDBRANCH  63  64
ENDBRANCH  44  58
BRANCH  45  68
ATOM     68  C   UNL A   1      42.404  23.832  27.677  1.00  0.00    -0.014 A 
ATOM     69  C   UNL A   1      42.647  23.574  26.317  1.00  0.00     0.010 A 
ATOM     70  C   UNL A   1      42.045  22.767  28.523  1.00  0.00     0.010 A 
ATOM     71  C   UNL A   1      42.537  22.274  25.814  1.00  0.00     0.020 A 
ATOM     72  C   UNL A   1      41.963  21.463  28.031  1.00  0.00     0.020 A 
ATOM     73  C   UNL A   1      42.202  21.225  26.676  1.00  0.00     0.054 A 
BRANCH  73  74
ATOM     74  S   UNL A   1      42.149  19.530  26.033  1.00  0.00     0.124 S 
ATOM     75  O   UNL A   1      42.594  18.754  27.186  1.00  0.00    -0.237 OA
ATOM     76  O   UNL A   1      40.745  19.368  25.663  1.00  0.00    -0.237 OA
ATOM     77  O   UNL A   1      43.078  19.569  24.905  1.00  0.00    -0.744 OA
ENDBRANCH  73  74
ENDBRANCH  45  68
BRANCH  57  78
ATOM     78  C   UNL A   1      47.893  27.579  29.750  1.00  0.00    -0.014 A 
ATOM     79  C   UNL A   1      48.446  26.874  30.834  1.00  0.00     0.010 A 
ATOM     80  C   UNL A   1      48.728  27.970  28.688  1.00  0.00     0.010 A 
ATOM     81  C   UNL A   1      49.814  26.592  30.869  1.00  0.00     0.020 A 
ATOM     82  C   UNL A   1      50.093  27.673  28.710  1.00  0.00     0.020 A 
ATOM     83  C   UNL A   1      50.631  26.998  29.809  1.00  0.00     0.054 A 
BRANCH  83  84
ATOM     84  S   UNL A   1      52.399  26.592  29.858  1.00  0.00     0.124 S 
ATOM     85  O   UNL A   1      53.007  27.907  30.042  1.00  0.00    -0.237 OA
ATOM     86  O   UNL A   1      52.492  25.691  31.005  1.00  0.00    -0.237 OA
ATOM     87  O   UNL A   1      52.647  25.968  28.562  1.00  0.00    -0.744 OA
ENDBRANCH  83  84
ENDBRANCH  57  78
ENDBRANCH  31  32
ENDBRANCH  24  26
ENDBRANCH  23  24
ENDBRANCH  22  23
ENDBRANCH   1  22
TORSDOF 18
ENDMDL
MODEL 3
REMARK VINA RESULT:      -9.9      1.349      2.066
REMARK SMILES C[C@@H](C(=O)OCCOC(=O)c1ccc(-c2c3nc(c(-c4ccc(S(=O)(=O)[O-])cc4)c4ccc([nH]4)c(-c4ccc(S(=O)(=O)[O-])cc4)c4nc(c(-c5ccc(S(=O)(=O)[O-])cc5)c5ccc2[nH]5)C=C4)C=C3)cc1)c1ccc(C[C@H]2CCC[C@@H]2O)cc1F
REMARK SMILES IDX 6 1 5 2 3 3 4 4 2 5 1 6 71 7 72 8 83 9 73 10 82 11 84 12
REMARK SMILES IDX 74 13 75 14 76 15 77 16 80 17 78 18 79 19 81 20 7 22 8 23
REMARK SMILES IDX 9 24 10 25 11 26 12 27 70 28 13 29 69 30 14 31 15 32 16 33
REMARK SMILES IDX 63 34 17 35 68 36 62 37 64 38 18 39 67 40 61 41 60 42 19 44
REMARK SMILES IDX 49 45 30 46 48 47 31 48 34 49 47 50 65 51 32 52 33 53 46 55
REMARK SMILES IDX 66 56 35 57 20 58 21 59 29 60 22 61 28 62 23 63 24 64 25 65
REMARK SMILES IDX 26 66 27 67 50 68 51 69 59 70 52 71 58 72 53 73 54 74 55 75
REMARK SMILES IDX 56 76 57 77 36 78 37 79 45 80 38 81 44 82 39 83 40 84 41 85
REMARK SMILES IDX 42 86 43 87
REMARK H PARENT 81 21 64 43 34 54
REMARK Flexibility Score: inf
ROOT
ATOM      1  C   UNL A   1      32.273  29.177  26.985  1.00  0.00     0.274 C 
ENDROOT
BRANCH   1   2
ATOM      2  O   UNL A   1      31.447  29.134  25.803  1.00  0.00    -0.462 OA
BRANCH   2   3
ATOM      3  C   UNL A   1      31.699  28.123  24.925  1.00  0.00     0.313 C 
ATOM      4  O   UNL A   1      30.828  27.389  24.469  1.00  0.00    -0.252 OA
BRANCH   3   5
ATOM      5  C   UNL A   1      33.198  27.953  24.621  1.00  0.00     0.129 C 
ATOM      6  C   UNL A   1      33.697  28.939  23.559  1.00  0.00     0.025 C 
BRANCH   5   7
ATOM      7  C   UNL A   1      33.563  26.488  24.376  1.00  0.00     0.002 A 
ATOM      8  C   UNL A   1      33.887  25.678  25.479  1.00  0.00     0.008 A 
ATOM      9  C   UNL A   1      33.562  25.874  23.119  1.00  0.00     0.127 A 
ATOM     10  C   UNL A   1      34.158  24.312  25.331  1.00  0.00     0.004 A 
ATOM     11  C   UNL A   1      33.870  24.518  22.959  1.00  0.00     0.043 A 
ATOM     12  F   UNL A   1      33.238  26.564  22.018  1.00  0.00    -0.207 F 
ATOM     13  C   UNL A   1      34.167  23.715  24.067  1.00  0.00    -0.045 A 
BRANCH  13  14
ATOM     14  C   UNL A   1      34.388  22.227  23.898  1.00  0.00     0.041 C 
BRANCH  14  15
ATOM     15  C   UNL A   1      33.332  21.278  24.489  1.00  0.00     0.022 C 
ATOM     16  C   UNL A   1      32.498  20.503  23.455  1.00  0.00     0.007 C 
ATOM     17  C   UNL A   1      33.874  20.219  25.460  1.00  0.00     0.117 C 
ATOM     18  C   UNL A   1      32.529  19.043  23.900  1.00  0.00     0.003 C 
ATOM     19  C   UNL A   1      32.843  19.103  25.384  1.00  0.00     0.032 C 
BRANCH  17  20
ATOM     20  O   UNL A   1      33.977  20.702  26.785  1.00  0.00    -0.393 OA
ATOM     21  H   UNL A   1      34.476  21.534  26.788  1.00  0.00     0.210 HD
ENDBRANCH  17  20
ENDBRANCH  14  15
ENDBRANCH  13  14
ENDBRANCH   5   7
ENDBRANCH   3   5
ENDBRANCH   2   3
ENDBRANCH   1   2
BRANCH   1  22
ATOM     22  C   UNL A   1      32.730  30.609  27.246  1.00  0.00     0.275 C 
BRANCH  22  23
ATOM     23  O   UNL A   1      34.167  30.651  27.230  1.00  0.00    -0.458 OA
BRANCH  23  24
ATOM     24  C   UNL A   1      34.768  30.965  28.401  1.00  0.00     0.338 C 
ATOM     25  O   UNL A   1      34.323  31.673  29.287  1.00  0.00    -0.246 OA
BRANCH  24  26
ATOM     26  C   UNL A   1      36.101  30.330  28.457  1.00  0.00     0.060 A 
ATOM     27  C   UNL A   1      36.663  29.966  29.677  1.00  0.00     0.016 A 
ATOM     28  C   UNL A   1      36.839  30.170  27.283  1.00  0.00     0.016 A 
ATOM     29  C   UNL A   1      37.988  29.532  29.728  1.00  0.00     0.010 A 
ATOM     30  C   UNL A   1      38.141  29.653  27.336  1.00  0.00     0.010 A 
ATOM     31  C   UNL A   1      38.759  29.373  28.567  1.00  0.00    -0.014 A 
BRANCH  31  32
ATOM     32  C   UNL A   1      40.211  29.003  28.647  1.00  0.00     0.031 A 
ATOM     33  C   UNL A   1      41.227  30.003  29.155  1.00  0.00     0.074 A 
ATOM     34  C   UNL A   1      40.647  27.766  28.321  1.00  0.00     0.049 A 
ATOM     35  N   UNL A   1      42.536  29.956  29.095  1.00  0.00    -0.248 NA
ATOM     36  C   UNL A   1      40.707  31.220  29.799  1.00  0.00     0.031 C 
ATOM     37  C   UNL A   1      39.810  26.651  27.875  1.00  0.00     0.029 A 
ATOM     38  N   UNL A   1      41.916  27.231  28.340  1.00  0.00    -0.354 N 
ATOM     39  C   UNL A   1      42.987  31.171  29.602  1.00  0.00     0.074 A 
ATOM     40  C   UNL A   1      41.813  31.925  29.987  1.00  0.00     0.031 C 
ATOM     41  C   UNL A   1      40.570  25.554  27.735  1.00  0.00     0.029 A 
ATOM     42  C   UNL A   1      41.966  25.909  27.963  1.00  0.00     0.049 A 
ATOM     43  H   UNL A   1      42.714  27.747  28.598  1.00  0.00     0.167 HD
ATOM     44  C   UNL A   1      44.259  31.626  29.724  1.00  0.00     0.031 A 
ATOM     45  C   UNL A   1      43.010  25.078  27.766  1.00  0.00     0.031 A 
ATOM     46  C   UNL A   1      45.435  30.856  29.417  1.00  0.00     0.049 A 
ATOM     47  C   UNL A   1      44.412  25.597  27.905  1.00  0.00     0.074 A 
ATOM     48  C   UNL A   1      46.764  31.241  29.502  1.00  0.00     0.029 A 
ATOM     49  N   UNL A   1      45.431  29.535  29.000  1.00  0.00    -0.354 N 
ATOM     50  N   UNL A   1      44.815  26.793  28.261  1.00  0.00    -0.248 NA
ATOM     51  C   UNL A   1      45.501  24.663  27.581  1.00  0.00     0.031 C 
ATOM     52  C   UNL A   1      47.561  30.159  29.111  1.00  0.00     0.029 A 
ATOM     53  C   UNL A   1      46.730  29.089  28.824  1.00  0.00     0.049 A 
ATOM     54  H   UNL A   1      44.623  28.993  28.851  1.00  0.00     0.167 HD
ATOM     55  C   UNL A   1      46.204  26.758  28.190  1.00  0.00     0.074 A 
ATOM     56  C   UNL A   1      46.573  25.415  27.794  1.00  0.00     0.031 C 
ATOM     57  C   UNL A   1      47.091  27.757  28.419  1.00  0.00     0.031 A 
BRANCH  44  58
ATOM     58  C   UNL A   1      44.449  33.055  30.160  1.00  0.00    -0.014 A 
ATOM     59  C   UNL A   1      44.777  33.388  31.486  1.00  0.00     0.010 A 
ATOM     60  C   UNL A   1      44.341  34.082  29.202  1.00  0.00     0.010 A 
ATOM     61  C   UNL A   1      44.954  34.726  31.852  1.00  0.00     0.020 A 
ATOM     62  C   UNL A   1      44.542  35.417  29.560  1.00  0.00     0.020 A 
ATOM     63  C   UNL A   1      44.829  35.732  30.889  1.00  0.00     0.054 A 
BRANCH  63  64
ATOM     64  S   UNL A   1      45.083  37.460  31.384  1.00  0.00     0.124 S 
ATOM     65  O   UNL A   1      43.722  37.987  31.343  1.00  0.00    -0.237 OA
ATOM     66  O   UNL A   1      45.668  37.332  32.716  1.00  0.00    -0.237 OA
ATOM     67  O   UNL A   1      45.985  37.983  30.361  1.00  0.00    -0.744 OA
ENDBRANCH  63  64
ENDBRANCH  44  58
BRANCH  45  68
ATOM     68  C   UNL A   1      42.763  23.674  27.337  1.00  0.00    -0.014 A 
ATOM     69  C   UNL A   1      42.769  23.331  25.973  1.00  0.00     0.010 A 
ATOM     70  C   UNL A   1      42.548  22.667  28.296  1.00  0.00     0.010 A 
ATOM     71  C   UNL A   1      42.568  22.006  25.577  1.00  0.00     0.020 A 
ATOM     72  C   UNL A   1      42.375  21.338  27.905  1.00  0.00     0.020 A 
ATOM     73  C   UNL A   1      42.378  21.016  26.547  1.00  0.00     0.054 A 
BRANCH  73  74
ATOM     74  S   UNL A   1      42.206  19.286  26.028  1.00  0.00     0.124 S 
ATOM     75  O   UNL A   1      43.151  19.207  24.919  1.00  0.00    -0.237 OA
ATOM     76  O   UNL A   1      42.579  18.549  27.232  1.00  0.00    -0.237 OA
ATOM     77  O   UNL A   1      40.795  19.183  25.660  1.00  0.00    -0.744 OA
ENDBRANCH  73  74
ENDBRANCH  45  68
BRANCH  57  78
ATOM     78  C   UNL A   1      48.550  27.433  28.256  1.00  0.00    -0.014 A 
ATOM     79  C   UNL A   1      49.291  26.883  29.316  1.00  0.00     0.010 A 
ATOM     80  C   UNL A   1      49.179  27.644  27.015  1.00  0.00     0.010 A 
ATOM     81  C   UNL A   1      50.644  26.576  29.148  1.00  0.00     0.020 A 
ATOM     82  C   UNL A   1      50.526  27.320  26.838  1.00  0.00     0.020 A 
ATOM     83  C   UNL A   1      51.255  26.801  27.911  1.00  0.00     0.054 A 
BRANCH  83  84
ATOM     84  S   UNL A   1      53.004  26.365  27.703  1.00  0.00     0.124 S 
ATOM     85  O   UNL A   1      53.430  26.153  29.084  1.00  0.00    -0.237 OA
ATOM     86  O   UNL A   1      52.941  25.163  26.874  1.00  0.00    -0.237 OA
ATOM     87  O   UNL A   1      53.578  27.537  27.048  1.00  0.00    -0.744 OA
ENDBRANCH  83  84
ENDBRANCH  57  78
ENDBRANCH  31  32
ENDBRANCH  24  26
ENDBRANCH  23  24
ENDBRANCH  22  23
ENDBRANCH   1  22
TORSDOF 18
ENDMDL
