MODEL 1
REMARK VINA RESULT:     -10.2      0.000      0.000
REMARK SMILES O=C(OCCOC(=O)c1cnccc1C(=O)N1CCC(Cc2ccccc2)CC1)c1ccc(-c2c3nc(c(-c4ccc(S(=O)(=O)[O-])cc4)c4ccc([nH]4)c(-c4ccc(S(=O)(=O)[O-])cc4)c4nc(c(-c5ccc(S(=O)(=O)[O-])cc5)c5ccc2[nH]5)C=C4)C=C3)cc1
REMARK SMILES IDX 4 1 3 2 2 3 1 4 30 5 31 6 89 7 32 8 88 9 33 10 34 11 35 12
REMARK SMILES IDX 82 13 36 14 87 15 81 16 83 17 37 18 86 19 80 20 79 21 38 23
REMARK SMILES IDX 68 24 49 25 67 26 50 27 53 28 66 29 84 30 51 31 52 32 65 34
REMARK SMILES IDX 85 35 54 36 39 37 40 38 48 39 41 40 47 41 42 42 43 43 44 44
REMARK SMILES IDX 45 45 46 46 69 47 70 48 78 49 71 50 77 51 72 52 73 53 74 54
REMARK SMILES IDX 75 55 76 56 55 57 56 58 64 59 57 60 63 61 58 62 59 63 60 64
REMARK SMILES IDX 61 65 62 66 5 67 6 68 7 69 8 70 9 71 10 72 14 73 11 74 13 75
REMARK SMILES IDX 12 76 15 77 16 78 17 79 18 80 29 81 19 82 28 83 20 84 21 85
REMARK SMILES IDX 22 86 23 87 27 88 24 89 26 90 25 91
REMARK H PARENT 83 22 53 33
REMARK Flexibility Score: inf
ROOT
ATOM      1  C   UNL A   1      34.302  32.670  27.641  1.00  0.00     0.275 C 
ENDROOT
BRANCH   1   2
ATOM      2  O   UNL A   1      33.723  31.376  27.885  1.00  0.00    -0.458 OA
BRANCH   2   3
ATOM      3  C   UNL A   1      34.279  30.144  27.825  1.00  0.00     0.338 C 
ATOM      4  O   UNL A   1      33.536  29.192  27.587  1.00  0.00    -0.246 OA
BRANCH   3   5
ATOM      5  C   UNL A   1      35.737  29.852  28.052  1.00  0.00     0.060 A 
ATOM      6  C   UNL A   1      36.750  29.925  27.092  1.00  0.00     0.016 A 
ATOM      7  C   UNL A   1      36.108  29.487  29.362  1.00  0.00     0.016 A 
ATOM      8  C   UNL A   1      38.089  29.721  27.434  1.00  0.00     0.010 A 
ATOM      9  C   UNL A   1      37.446  29.260  29.707  1.00  0.00     0.010 A 
ATOM     10  C   UNL A   1      38.443  29.377  28.738  1.00  0.00    -0.014 A 
BRANCH  10  11
ATOM     11  C   UNL A   1      39.840  28.977  29.008  1.00  0.00     0.031 A 
ATOM     12  C   UNL A   1      40.727  29.963  29.697  1.00  0.00     0.074 A 
ATOM     13  C   UNL A   1      40.266  27.727  28.757  1.00  0.00     0.049 A 
ATOM     14  N   UNL A   1      41.936  29.789  30.154  1.00  0.00    -0.248 NA
ATOM     15  C   UNL A   1      40.161  31.298  29.952  1.00  0.00     0.031 C 
ATOM     16  C   UNL A   1      39.431  26.674  28.202  1.00  0.00     0.029 A 
ATOM     17  N   UNL A   1      41.476  27.114  28.943  1.00  0.00    -0.354 N 
ATOM     18  C   UNL A   1      42.259  30.975  30.794  1.00  0.00     0.074 A 
ATOM     19  C   UNL A   1      41.144  31.879  30.625  1.00  0.00     0.031 C 
ATOM     20  C   UNL A   1      40.150  25.550  28.051  1.00  0.00     0.029 A 
ATOM     21  C   UNL A   1      41.507  25.806  28.509  1.00  0.00     0.049 A 
ATOM     22  H   UNL A   1      42.251  27.566  29.350  1.00  0.00     0.167 HD
ATOM     23  C   UNL A   1      43.383  31.269  31.482  1.00  0.00     0.031 A 
ATOM     24  C   UNL A   1      42.520  24.918  28.487  1.00  0.00     0.031 A 
ATOM     25  C   UNL A   1      44.509  30.382  31.577  1.00  0.00     0.049 A 
ATOM     26  C   UNL A   1      43.824  25.340  29.108  1.00  0.00     0.074 A 
ATOM     27  C   UNL A   1      45.733  30.605  32.177  1.00  0.00     0.029 A 
ATOM     28  N   UNL A   1      44.551  29.104  31.035  1.00  0.00    -0.354 N 
ATOM     29  N   UNL A   1      44.113  26.466  29.720  1.00  0.00    -0.248 NA
ATOM     30  C   UNL A   1      44.928  24.373  29.067  1.00  0.00     0.031 C 
ATOM     31  C   UNL A   1      46.536  29.484  31.948  1.00  0.00     0.029 A 
ATOM     32  C   UNL A   1      45.792  28.536  31.261  1.00  0.00     0.049 A 
ATOM     33  H   UNL A   1      43.808  28.667  30.560  1.00  0.00     0.167 HD
ATOM     34  C   UNL A   1      45.420  26.330  30.167  1.00  0.00     0.074 A 
ATOM     35  C   UNL A   1      45.856  25.004  29.772  1.00  0.00     0.031 C 
ATOM     36  C   UNL A   1      46.193  27.216  30.843  1.00  0.00     0.031 A 
BRANCH  23  37
ATOM     37  C   UNL A   1      43.443  32.619  32.133  1.00  0.00    -0.014 A 
ATOM     38  C   UNL A   1      44.085  33.698  31.495  1.00  0.00     0.010 A 
ATOM     39  C   UNL A   1      42.867  32.811  33.400  1.00  0.00     0.010 A 
ATOM     40  C   UNL A   1      44.172  34.940  32.127  1.00  0.00     0.020 A 
ATOM     41  C   UNL A   1      42.934  34.058  34.026  1.00  0.00     0.020 A 
ATOM     42  C   UNL A   1      43.595  35.111  33.389  1.00  0.00     0.054 A 
BRANCH  42  43
ATOM     43  S   UNL A   1      43.700  36.742  34.176  1.00  0.00     0.124 S 
ATOM     44  O   UNL A   1      43.348  37.632  33.072  1.00  0.00    -0.237 OA
ATOM     45  O   UNL A   1      42.708  36.643  35.244  1.00  0.00    -0.237 OA
ATOM     46  O   UNL A   1      45.088  36.822  34.623  1.00  0.00    -0.744 OA
ENDBRANCH  42  43
ENDBRANCH  23  37
BRANCH  24  47
ATOM     47  C   UNL A   1      42.360  23.578  27.851  1.00  0.00    -0.014 A 
ATOM     48  C   UNL A   1      41.798  22.494  28.548  1.00  0.00     0.010 A 
ATOM     49  C   UNL A   1      42.829  23.364  26.540  1.00  0.00     0.010 A 
ATOM     50  C   UNL A   1      41.756  21.218  27.970  1.00  0.00     0.020 A 
ATOM     51  C   UNL A   1      42.762  22.098  25.947  1.00  0.00     0.020 A 
ATOM     52  C   UNL A   1      42.247  21.026  26.676  1.00  0.00     0.054 A 
BRANCH  52  53
ATOM     53  S   UNL A   1      42.208  19.360  25.958  1.00  0.00     0.124 S 
ATOM     54  O   UNL A   1      43.076  19.512  24.793  1.00  0.00    -0.237 OA
ATOM     55  O   UNL A   1      42.742  18.535  27.038  1.00  0.00    -0.237 OA
ATOM     56  O   UNL A   1      40.794  19.146  25.658  1.00  0.00    -0.744 OA
ENDBRANCH  52  53
ENDBRANCH  24  47
BRANCH  36  57
ATOM     57  C   UNL A   1      47.577  26.761  31.213  1.00  0.00    -0.014 A 
ATOM     58  C   UNL A   1      47.832  26.146  32.451  1.00  0.00     0.010 A 
ATOM     59  C   UNL A   1      48.627  26.923  30.292  1.00  0.00     0.010 A 
ATOM     60  C   UNL A   1      49.125  25.737  32.778  1.00  0.00     0.020 A 
ATOM     61  C   UNL A   1      49.914  26.485  30.603  1.00  0.00     0.020 A 
ATOM     62  C   UNL A   1      50.159  25.912  31.852  1.00  0.00     0.054 A 
BRANCH  62  63
ATOM     63  S   UNL A   1      51.823  25.344  32.288  1.00  0.00     0.124 S 
ATOM     64  O   UNL A   1      52.632  25.936  31.226  1.00  0.00    -0.237 OA
ATOM     65  O   UNL A   1      52.019  25.913  33.618  1.00  0.00    -0.237 OA
ATOM     66  O   UNL A   1      51.713  23.888  32.248  1.00  0.00    -0.744 OA
ENDBRANCH  62  63
ENDBRANCH  36  57
ENDBRANCH  10  11
ENDBRANCH   3   5
ENDBRANCH   2   3
ENDBRANCH   1   2
BRANCH   1  67
ATOM     67  C   UNL A   1      33.455  33.837  28.137  1.00  0.00     0.275 C 
BRANCH  67  68
ATOM     68  O   UNL A   1      34.119  34.590  29.165  1.00  0.00    -0.458 OA
BRANCH  68  69
ATOM     69  C   UNL A   1      34.025  34.115  30.425  1.00  0.00     0.340 C 
ATOM     70  O   UNL A   1      34.058  32.939  30.776  1.00  0.00    -0.246 OA
BRANCH  69  71
ATOM     71  C   UNL A   1      33.958  35.214  31.377  1.00  0.00     0.091 A 
ATOM     72  C   UNL A   1      33.387  36.387  30.891  1.00  0.00     0.127 A 
ATOM     73  C   UNL A   1      34.467  35.211  32.677  1.00  0.00     0.057 A 
ATOM     74  N   UNL A   1      33.233  37.521  31.614  1.00  0.00    -0.264 NA
ATOM     75  C   UNL A   1      34.344  36.398  33.426  1.00  0.00     0.035 A 
ATOM     76  C   UNL A   1      33.710  37.498  32.874  1.00  0.00     0.112 A 
BRANCH  73  77
ATOM     77  C   UNL A   1      35.098  34.054  33.396  1.00  0.00     0.254 C 
ATOM     78  O   UNL A   1      34.402  33.306  34.074  1.00  0.00    -0.269 OA
ATOM     79  N   UNL A   1      36.432  33.772  33.167  1.00  0.00    -0.339 N 
ATOM     80  C   UNL A   1      36.777  32.560  32.421  1.00  0.00     0.120 C 
ATOM     81  C   UNL A   1      37.433  34.379  34.031  1.00  0.00     0.120 C 
ATOM     82  C   UNL A   1      37.674  31.579  33.179  1.00  0.00     0.025 C 
ATOM     83  C   UNL A   1      38.271  33.365  34.789  1.00  0.00     0.025 C 
ATOM     84  C   UNL A   1      38.853  32.314  33.830  1.00  0.00    -0.003 C 
BRANCH  84  85
ATOM     85  C   UNL A   1      39.804  31.400  34.618  1.00  0.00     0.039 C 
BRANCH  85  86
ATOM     86  C   UNL A   1      40.239  30.131  33.930  1.00  0.00    -0.048 A 
ATOM     87  C   UNL A   1      39.325  29.436  33.127  1.00  0.00     0.004 A 
ATOM     88  C   UNL A   1      41.517  29.589  34.124  1.00  0.00     0.004 A 
ATOM     89  C   UNL A   1      39.671  28.219  32.541  1.00  0.00     0.000 A 
ATOM     90  C   UNL A   1      41.865  28.370  33.533  1.00  0.00     0.000 A 
ATOM     91  C   UNL A   1      40.940  27.685  32.747  1.00  0.00     0.000 A 
ENDBRANCH  85  86
ENDBRANCH  84  85
ENDBRANCH  73  77
ENDBRANCH  69  71
ENDBRANCH  68  69
ENDBRANCH  67  68
ENDBRANCH   1  67
TORSDOF 17
ENDMDL
MODEL 2
REMARK VINA RESULT:     -10.1      4.866     11.509
REMARK SMILES O=C(OCCOC(=O)c1cnccc1C(=O)N1CCC(Cc2ccccc2)CC1)c1ccc(-c2c3nc(c(-c4ccc(S(=O)(=O)[O-])cc4)c4ccc([nH]4)c(-c4ccc(S(=O)(=O)[O-])cc4)c4nc(c(-c5ccc(S(=O)(=O)[O-])cc5)c5ccc2[nH]5)C=C4)C=C3)cc1
REMARK SMILES IDX 4 1 3 2 2 3 1 4 30 5 31 6 89 7 32 8 88 9 33 10 34 11 35 12
REMARK SMILES IDX 82 13 36 14 87 15 81 16 83 17 37 18 86 19 80 20 79 21 38 23
REMARK SMILES IDX 68 24 49 25 67 26 50 27 53 28 66 29 84 30 51 31 52 32 65 34
REMARK SMILES IDX 85 35 54 36 39 37 40 38 48 39 41 40 47 41 42 42 43 43 44 44
REMARK SMILES IDX 45 45 46 46 69 47 70 48 78 49 71 50 77 51 72 52 73 53 74 54
REMARK SMILES IDX 75 55 76 56 55 57 56 58 64 59 57 60 63 61 58 62 59 63 60 64
REMARK SMILES IDX 61 65 62 66 5 67 6 68 7 69 8 70 9 71 10 72 14 73 11 74 13 75
REMARK SMILES IDX 12 76 15 77 16 78 17 79 18 80 29 81 19 82 28 83 20 84 21 85
REMARK SMILES IDX 22 86 23 87 27 88 24 89 26 90 25 91
REMARK H PARENT 83 22 53 33
REMARK Flexibility Score: inf
ROOT
ATOM      1  C   UNL A   1      38.196  24.024  26.203  1.00  0.00     0.275 C 
ENDROOT
BRANCH   1   2
ATOM      2  O   UNL A   1      39.594  24.299  26.405  1.00  0.00    -0.458 OA
BRANCH   2   3
ATOM      3  C   UNL A   1      40.248  25.480  26.495  1.00  0.00     0.338 C 
ATOM      4  O   UNL A   1      40.894  25.852  25.516  1.00  0.00    -0.246 OA
BRANCH   3   5
ATOM      5  C   UNL A   1      40.262  26.359  27.716  1.00  0.00     0.060 A 
ATOM      6  C   UNL A   1      39.357  26.304  28.779  1.00  0.00     0.016 A 
ATOM      7  C   UNL A   1      41.297  27.313  27.792  1.00  0.00     0.016 A 
ATOM      8  C   UNL A   1      39.517  27.108  29.909  1.00  0.00     0.010 A 
ATOM      9  C   UNL A   1      41.451  28.138  28.912  1.00  0.00     0.010 A 
ATOM     10  C   UNL A   1      40.556  28.036  29.978  1.00  0.00    -0.014 A 
BRANCH  10  11
ATOM     11  C   UNL A   1      40.569  29.000  31.099  1.00  0.00     0.031 A 
ATOM     12  C   UNL A   1      39.622  30.153  31.038  1.00  0.00     0.074 A 
ATOM     13  C   UNL A   1      41.319  28.782  32.193  1.00  0.00     0.049 A 
ATOM     14  N   UNL A   1      39.362  31.042  31.956  1.00  0.00    -0.248 NA
ATOM     15  C   UNL A   1      38.826  30.293  29.808  1.00  0.00     0.031 C 
ATOM     16  C   UNL A   1      42.173  27.621  32.382  1.00  0.00     0.029 A 
ATOM     17  N   UNL A   1      41.478  29.491  33.354  1.00  0.00    -0.354 N 
ATOM     18  C   UNL A   1      38.339  31.818  31.436  1.00  0.00     0.074 A 
ATOM     19  C   UNL A   1      38.058  31.331  30.104  1.00  0.00     0.031 C 
ATOM     20  C   UNL A   1      42.804  27.702  33.565  1.00  0.00     0.029 A 
ATOM     21  C   UNL A   1      42.387  28.931  34.225  1.00  0.00     0.049 A 
ATOM     22  H   UNL A   1      40.988  30.324  33.547  1.00  0.00     0.167 HD
ATOM     23  C   UNL A   1      37.678  32.833  32.034  1.00  0.00     0.031 A 
ATOM     24  C   UNL A   1      42.830  29.364  35.421  1.00  0.00     0.031 A 
ATOM     25  C   UNL A   1      38.022  33.347  33.330  1.00  0.00     0.049 A 
ATOM     26  C   UNL A   1      42.195  30.606  35.986  1.00  0.00     0.074 A 
ATOM     27  C   UNL A   1      37.477  34.425  34.001  1.00  0.00     0.029 A 
ATOM     28  N   UNL A   1      39.019  32.825  34.144  1.00  0.00    -0.354 N 
ATOM     29  N   UNL A   1      41.218  31.327  35.485  1.00  0.00    -0.248 NA
ATOM     30  C   UNL A   1      42.693  31.080  37.283  1.00  0.00     0.031 C 
ATOM     31  C   UNL A   1      38.185  34.592  35.196  1.00  0.00     0.029 A 
ATOM     32  C   UNL A   1      39.127  33.579  35.299  1.00  0.00     0.049 A 
ATOM     33  H   UNL A   1      39.568  32.038  33.930  1.00  0.00     0.167 HD
ATOM     34  C   UNL A   1      40.961  32.319  36.420  1.00  0.00     0.074 A 
ATOM     35  C   UNL A   1      41.872  32.092  37.526  1.00  0.00     0.031 C 
ATOM     36  C   UNL A   1      40.054  33.327  36.374  1.00  0.00     0.031 A 
BRANCH  23  37
ATOM     37  C   UNL A   1      36.561  33.463  31.256  1.00  0.00    -0.014 A 
ATOM     38  C   UNL A   1      36.784  33.978  29.964  1.00  0.00     0.010 A 
ATOM     39  C   UNL A   1      35.280  33.556  31.824  1.00  0.00     0.010 A 
ATOM     40  C   UNL A   1      35.747  34.600  29.266  1.00  0.00     0.020 A 
ATOM     41  C   UNL A   1      34.235  34.158  31.118  1.00  0.00     0.020 A 
ATOM     42  C   UNL A   1      34.479  34.686  29.848  1.00  0.00     0.054 A 
BRANCH  42  43
ATOM     43  S   UNL A   1      33.145  35.475  28.907  1.00  0.00     0.124 S 
ATOM     44  O   UNL A   1      33.885  36.403  28.055  1.00  0.00    -0.237 OA
ATOM     45  O   UNL A   1      32.530  34.343  28.218  1.00  0.00    -0.237 OA
ATOM     46  O   UNL A   1      32.317  36.098  29.936  1.00  0.00    -0.744 OA
ENDBRANCH  42  43
ENDBRANCH  23  37
BRANCH  24  47
ATOM     47  C   UNL A   1      43.922  28.651  36.146  1.00  0.00    -0.014 A 
ATOM     48  C   UNL A   1      43.654  27.576  37.012  1.00  0.00     0.010 A 
ATOM     49  C   UNL A   1      45.254  29.090  36.013  1.00  0.00     0.010 A 
ATOM     50  C   UNL A   1      44.680  26.991  37.765  1.00  0.00     0.020 A 
ATOM     51  C   UNL A   1      46.288  28.490  36.740  1.00  0.00     0.020 A 
ATOM     52  C   UNL A   1      45.990  27.459  37.631  1.00  0.00     0.054 A 
BRANCH  52  53
ATOM     53  S   UNL A   1      47.301  26.705  38.636  1.00  0.00     0.124 S 
ATOM     54  O   UNL A   1      46.532  25.896  39.578  1.00  0.00    -0.237 OA
ATOM     55  O   UNL A   1      48.073  25.959  37.646  1.00  0.00    -0.237 OA
ATOM     56  O   UNL A   1      47.991  27.854  39.220  1.00  0.00    -0.744 OA
ENDBRANCH  52  53
ENDBRANCH  24  47
BRANCH  36  57
ATOM     57  C   UNL A   1      39.997  34.239  37.568  1.00  0.00    -0.014 A 
ATOM     58  C   UNL A   1      40.777  35.406  37.628  1.00  0.00     0.010 A 
ATOM     59  C   UNL A   1      39.122  33.936  38.627  1.00  0.00     0.010 A 
ATOM     60  C   UNL A   1      40.714  36.235  38.749  1.00  0.00     0.020 A 
ATOM     61  C   UNL A   1      39.032  34.781  39.734  1.00  0.00     0.020 A 
ATOM     62  C   UNL A   1      39.844  35.915  39.796  1.00  0.00     0.054 A 
BRANCH  62  63
ATOM     63  S   UNL A   1      39.756  37.025  41.225  1.00  0.00     0.124 S 
ATOM     64  O   UNL A   1      41.167  37.300  41.481  1.00  0.00    -0.237 OA
ATOM     65  O   UNL A   1      38.979  38.150  40.712  1.00  0.00    -0.237 OA
ATOM     66  O   UNL A   1      39.083  36.223  42.245  1.00  0.00    -0.744 OA
ENDBRANCH  62  63
ENDBRANCH  36  57
ENDBRANCH  10  11
ENDBRANCH   3   5
ENDBRANCH   2   3
ENDBRANCH   1   2
BRANCH   1  67
ATOM     67  C   UNL A   1      37.908  22.635  25.644  1.00  0.00     0.275 C 
BRANCH  67  68
ATOM     68  O   UNL A   1      36.507  22.319  25.672  1.00  0.00    -0.458 OA
BRANCH  68  69
ATOM     69  C   UNL A   1      35.852  22.347  24.491  1.00  0.00     0.340 C 
ATOM     70  O   UNL A   1      36.228  22.879  23.450  1.00  0.00    -0.246 OA
BRANCH  69  71
ATOM     71  C   UNL A   1      34.626  21.566  24.573  1.00  0.00     0.091 A 
ATOM     72  C   UNL A   1      34.801  20.215  24.856  1.00  0.00     0.127 A 
ATOM     73  C   UNL A   1      33.333  22.034  24.330  1.00  0.00     0.057 A 
ATOM     74  N   UNL A   1      33.791  19.320  24.972  1.00  0.00    -0.264 NA
ATOM     75  C   UNL A   1      32.279  21.103  24.414  1.00  0.00     0.035 A 
ATOM     76  C   UNL A   1      32.547  19.789  24.756  1.00  0.00     0.112 A 
BRANCH  73  77
ATOM     77  C   UNL A   1      32.927  23.448  24.031  1.00  0.00     0.254 C 
ATOM     78  O   UNL A   1      32.566  23.751  22.899  1.00  0.00    -0.269 OA
ATOM     79  N   UNL A   1      32.835  24.351  25.073  1.00  0.00    -0.339 N 
ATOM     80  C   UNL A   1      31.510  24.823  25.480  1.00  0.00     0.120 C 
ATOM     81  C   UNL A   1      34.004  25.149  25.413  1.00  0.00     0.120 C 
ATOM     82  C   UNL A   1      31.321  26.339  25.397  1.00  0.00     0.025 C 
ATOM     83  C   UNL A   1      33.776  26.643  25.277  1.00  0.00     0.025 C 
ATOM     84  C   UNL A   1      32.508  27.071  26.034  1.00  0.00    -0.003 C 
BRANCH  84  85
ATOM     85  C   UNL A   1      32.400  28.603  25.988  1.00  0.00     0.039 C 
BRANCH  85  86
ATOM     86  C   UNL A   1      33.408  29.372  26.803  1.00  0.00    -0.048 A 
ATOM     87  C   UNL A   1      33.124  30.692  27.180  1.00  0.00     0.004 A 
ATOM     88  C   UNL A   1      34.654  28.826  27.141  1.00  0.00     0.004 A 
ATOM     89  C   UNL A   1      34.067  31.456  27.867  1.00  0.00     0.000 A 
ATOM     90  C   UNL A   1      35.598  29.592  27.833  1.00  0.00     0.000 A 
ATOM     91  C   UNL A   1      35.305  30.907  28.190  1.00  0.00     0.000 A 
ENDBRANCH  85  86
ENDBRANCH  84  85
ENDBRANCH  73  77
ENDBRANCH  69  71
ENDBRANCH  68  69
ENDBRANCH  67  68
ENDBRANCH   1  67
TORSDOF 17
ENDMDL
MODEL 3
REMARK VINA RESULT:     -10.0      4.366     11.394
REMARK SMILES O=C(OCCOC(=O)c1cnccc1C(=O)N1CCC(Cc2ccccc2)CC1)c1ccc(-c2c3nc(c(-c4ccc(S(=O)(=O)[O-])cc4)c4ccc([nH]4)c(-c4ccc(S(=O)(=O)[O-])cc4)c4nc(c(-c5ccc(S(=O)(=O)[O-])cc5)c5ccc2[nH]5)C=C4)C=C3)cc1
REMARK SMILES IDX 4 1 3 2 2 3 1 4 30 5 31 6 89 7 32 8 88 9 33 10 34 11 35 12
REMARK SMILES IDX 82 13 36 14 87 15 81 16 83 17 37 18 86 19 80 20 79 21 38 23
REMARK SMILES IDX 68 24 49 25 67 26 50 27 53 28 66 29 84 30 51 31 52 32 65 34
REMARK SMILES IDX 85 35 54 36 39 37 40 38 48 39 41 40 47 41 42 42 43 43 44 44
REMARK SMILES IDX 45 45 46 46 69 47 70 48 78 49 71 50 77 51 72 52 73 53 74 54
REMARK SMILES IDX 75 55 76 56 55 57 56 58 64 59 57 60 63 61 58 62 59 63 60 64
REMARK SMILES IDX 61 65 62 66 5 67 6 68 7 69 8 70 9 71 10 72 14 73 11 74 13 75
REMARK SMILES IDX 12 76 15 77 16 78 17 79 18 80 29 81 19 82 28 83 20 84 21 85
REMARK SMILES IDX 22 86 23 87 27 88 24 89 26 90 25 91
REMARK H PARENT 83 22 53 33
REMARK Flexibility Score: inf
ROOT
ATOM      1  C   UNL A   1      36.656  22.039  25.370  1.00  0.00     0.275 C 
ENDROOT
BRANCH   1   2
ATOM      2  O   UNL A   1      37.762  22.956  25.309  1.00  0.00    -0.458 OA
BRANCH   2   3
ATOM      3  C   UNL A   1      38.871  23.041  26.079  1.00  0.00     0.338 C 
ATOM      4  O   UNL A   1      39.594  22.047  26.151  1.00  0.00    -0.246 OA
BRANCH   3   5
ATOM      5  C   UNL A   1      39.270  24.254  26.874  1.00  0.00     0.060 A 
ATOM      6  C   UNL A   1      38.888  24.539  28.187  1.00  0.00     0.016 A 
ATOM      7  C   UNL A   1      40.122  25.174  26.230  1.00  0.00     0.016 A 
ATOM      8  C   UNL A   1      39.392  25.653  28.863  1.00  0.00     0.010 A 
ATOM      9  C   UNL A   1      40.614  26.305  26.894  1.00  0.00     0.010 A 
ATOM     10  C   UNL A   1      40.247  26.546  28.219  1.00  0.00    -0.014 A 
BRANCH  10  11
ATOM     11  C   UNL A   1      40.595  27.809  28.903  1.00  0.00     0.031 A 
ATOM     12  C   UNL A   1      41.971  27.939  29.470  1.00  0.00     0.074 A 
ATOM     13  C   UNL A   1      39.748  28.853  28.907  1.00  0.00     0.049 A 
ATOM     14  N   UNL A   1      42.541  28.990  29.990  1.00  0.00    -0.248 NA
ATOM     15  C   UNL A   1      42.834  26.748  29.395  1.00  0.00     0.031 C 
ATOM     16  C   UNL A   1      38.440  28.849  28.271  1.00  0.00     0.029 A 
ATOM     17  N   UNL A   1      39.846  30.114  29.433  1.00  0.00    -0.354 N 
ATOM     18  C   UNL A   1      43.844  28.604  30.259  1.00  0.00     0.074 A 
ATOM     19  C   UNL A   1      43.970  27.211  29.895  1.00  0.00     0.031 C 
ATOM     20  C   UNL A   1      37.830  30.029  28.468  1.00  0.00     0.029 A 
ATOM     21  C   UNL A   1      38.717  30.881  29.247  1.00  0.00     0.049 A 
ATOM     22  H   UNL A   1      40.649  30.441  29.900  1.00  0.00     0.167 HD
ATOM     23  C   UNL A   1      44.852  29.361  30.747  1.00  0.00     0.031 A 
ATOM     24  C   UNL A   1      38.434  32.132  29.659  1.00  0.00     0.031 A 
ATOM     25  C   UNL A   1      44.687  30.724  31.169  1.00  0.00     0.049 A 
ATOM     26  C   UNL A   1      39.527  32.892  30.361  1.00  0.00     0.074 A 
ATOM     27  C   UNL A   1      45.615  31.562  31.755  1.00  0.00     0.029 A 
ATOM     28  N   UNL A   1      43.502  31.441  31.066  1.00  0.00    -0.354 N 
ATOM     29  N   UNL A   1      40.762  32.517  30.602  1.00  0.00    -0.248 NA
ATOM     30  C   UNL A   1      39.207  34.250  30.822  1.00  0.00     0.031 C 
ATOM     31  C   UNL A   1      44.975  32.767  32.061  1.00  0.00     0.029 A 
ATOM     32  C   UNL A   1      43.666  32.703  31.607  1.00  0.00     0.049 A 
ATOM     33  H   UNL A   1      42.668  31.100  30.669  1.00  0.00     0.167 HD
ATOM     34  C   UNL A   1      41.377  33.602  31.210  1.00  0.00     0.074 A 
ATOM     35  C   UNL A   1      40.382  34.655  31.281  1.00  0.00     0.031 C 
ATOM     36  C   UNL A   1      42.648  33.722  31.669  1.00  0.00     0.031 A 
BRANCH  23  37
ATOM     37  C   UNL A   1      46.190  28.697  30.882  1.00  0.00    -0.014 A 
ATOM     38  C   UNL A   1      46.533  27.999  32.056  1.00  0.00     0.010 A 
ATOM     39  C   UNL A   1      47.122  28.783  29.834  1.00  0.00     0.010 A 
ATOM     40  C   UNL A   1      47.796  27.420  32.188  1.00  0.00     0.020 A 
ATOM     41  C   UNL A   1      48.380  28.187  29.955  1.00  0.00     0.020 A 
ATOM     42  C   UNL A   1      48.712  27.519  31.136  1.00  0.00     0.054 A 
BRANCH  42  43
ATOM     43  S   UNL A   1      50.336  26.735  31.325  1.00  0.00     0.124 S 
ATOM     44  O   UNL A   1      51.171  27.558  30.453  1.00  0.00    -0.237 OA
ATOM     45  O   UNL A   1      50.593  26.877  32.756  1.00  0.00    -0.237 OA
ATOM     46  O   UNL A   1      50.116  25.366  30.867  1.00  0.00    -0.744 OA
ENDBRANCH  42  43
ENDBRANCH  23  37
BRANCH  24  47
ATOM     47  C   UNL A   1      37.083  32.730  29.448  1.00  0.00    -0.014 A 
ATOM     48  C   UNL A   1      36.676  33.203  28.188  1.00  0.00     0.010 A 
ATOM     49  C   UNL A   1      36.205  32.881  30.539  1.00  0.00     0.010 A 
ATOM     50  C   UNL A   1      35.447  33.858  28.035  1.00  0.00     0.020 A 
ATOM     51  C   UNL A   1      34.963  33.507  30.385  1.00  0.00     0.020 A 
ATOM     52  C   UNL A   1      34.602  34.014  29.137  1.00  0.00     0.054 A 
BRANCH  52  53
ATOM     53  S   UNL A   1      33.027  34.891  28.922  1.00  0.00     0.124 S 
ATOM     54  O   UNL A   1      33.467  36.179  28.395  1.00  0.00    -0.237 OA
ATOM     55  O   UNL A   1      32.312  34.034  27.979  1.00  0.00    -0.237 OA
ATOM     56  O   UNL A   1      32.466  34.928  30.271  1.00  0.00    -0.744 OA
ENDBRANCH  52  53
ENDBRANCH  24  47
BRANCH  36  57
ATOM     57  C   UNL A   1      43.029  35.049  32.263  1.00  0.00    -0.014 A 
ATOM     58  C   UNL A   1      43.736  36.004  31.514  1.00  0.00     0.010 A 
ATOM     59  C   UNL A   1      42.641  35.353  33.581  1.00  0.00     0.010 A 
ATOM     60  C   UNL A   1      44.087  37.227  32.087  1.00  0.00     0.020 A 
ATOM     61  C   UNL A   1      42.960  36.588  34.145  1.00  0.00     0.020 A 
ATOM     62  C   UNL A   1      43.698  37.510  33.400  1.00  0.00     0.054 A 
BRANCH  62  63
ATOM     63  S   UNL A   1      44.137  39.118  34.111  1.00  0.00     0.124 S 
ATOM     64  O   UNL A   1      42.952  39.916  33.808  1.00  0.00    -0.237 OA
ATOM     65  O   UNL A   1      44.337  38.801  35.523  1.00  0.00    -0.237 OA
ATOM     66  O   UNL A   1      45.346  39.498  33.386  1.00  0.00    -0.744 OA
ENDBRANCH  62  63
ENDBRANCH  36  57
ENDBRANCH  10  11
ENDBRANCH   3   5
ENDBRANCH   2   3
ENDBRANCH   1   2
BRANCH   1  67
ATOM     67  C   UNL A   1      35.466  22.547  26.178  1.00  0.00     0.275 C 
BRANCH  67  68
ATOM     68  O   UNL A   1      34.747  21.480  26.816  1.00  0.00    -0.458 OA
BRANCH  68  69
ATOM     69  C   UNL A   1      33.404  21.485  26.681  1.00  0.00     0.340 C 
ATOM     70  O   UNL A   1      32.584  21.965  27.460  1.00  0.00    -0.246 OA
BRANCH  69  71
ATOM     71  C   UNL A   1      33.020  20.900  25.405  1.00  0.00     0.091 A 
ATOM     72  C   UNL A   1      33.378  19.566  25.232  1.00  0.00     0.127 A 
ATOM     73  C   UNL A   1      32.405  21.567  24.344  1.00  0.00     0.057 A 
ATOM     74  N   UNL A   1      33.115  18.842  24.119  1.00  0.00    -0.264 NA
ATOM     75  C   UNL A   1      32.160  20.832  23.168  1.00  0.00     0.035 A 
ATOM     76  C   UNL A   1      32.502  19.491  23.111  1.00  0.00     0.112 A 
BRANCH  73  77
ATOM     77  C   UNL A   1      31.924  22.989  24.330  1.00  0.00     0.254 C 
ATOM     78  O   UNL A   1      30.720  23.225  24.338  1.00  0.00    -0.269 OA
ATOM     79  N   UNL A   1      32.849  24.009  24.450  1.00  0.00    -0.339 N 
ATOM     80  C   UNL A   1      32.876  24.793  25.687  1.00  0.00     0.120 C 
ATOM     81  C   UNL A   1      33.422  24.580  23.239  1.00  0.00     0.120 C 
ATOM     82  C   UNL A   1      32.651  26.294  25.494  1.00  0.00     0.025 C 
ATOM     83  C   UNL A   1      33.138  26.061  23.077  1.00  0.00     0.025 C 
ATOM     84  C   UNL A   1      33.520  26.832  24.351  1.00  0.00    -0.003 C 
BRANCH  84  85
ATOM     85  C   UNL A   1      33.351  28.336  24.087  1.00  0.00     0.039 C 
BRANCH  85  86
ATOM     86  C   UNL A   1      33.364  29.235  25.297  1.00  0.00    -0.048 A 
ATOM     87  C   UNL A   1      34.462  29.200  26.168  1.00  0.00     0.004 A 
ATOM     88  C   UNL A   1      32.277  30.062  25.613  1.00  0.00     0.004 A 
ATOM     89  C   UNL A   1      34.471  29.961  27.336  1.00  0.00     0.000 A 
ATOM     90  C   UNL A   1      32.288  30.827  26.783  1.00  0.00     0.000 A 
ATOM     91  C   UNL A   1      33.382  30.772  27.645  1.00  0.00     0.000 A 
ENDBRANCH  85  86
ENDBRANCH  84  85
ENDBRANCH  73  77
ENDBRANCH  69  71
ENDBRANCH  68  69
ENDBRANCH  67  68
ENDBRANCH   1  67
TORSDOF 17
ENDMDL
