MODEL 1
REMARK VINA RESULT:     -10.2      0.000      0.000
REMARK SMILES Cc1cscc1C(=O)Nc1cc(Br)ccc1C(=O)OCCOC(=O)c1ccc(-c2c3nc(c(-c4ccc(S(=O)(=O)[O-])cc4)c4ccc([nH]4)c(-c4ccc(S(=O)(=O)[O-])cc4)c4nc(c(-c5ccc(S(=O)(=O)[O-])cc5)c5ccc2[nH]5)C=C4)C=C3)cc1
REMARK SMILES IDX 21 1 20 2 19 3 17 4 18 5 16 6 10 7 11 8 12 9 15 10 13 11
REMARK SMILES IDX 14 12 9 13 7 14 8 15 6 17 1 18 2 19 3 20 4 21 5 22 22 23
REMARK SMILES IDX 23 24 24 25 25 26 26 27 84 28 27 29 83 30 28 31 29 32 30 33
REMARK SMILES IDX 77 34 31 35 82 36 76 37 78 38 32 39 81 40 75 41 74 42 33 44
REMARK SMILES IDX 63 45 44 46 62 47 45 48 48 49 61 50 79 51 46 52 47 53 60 55
REMARK SMILES IDX 80 56 49 57 34 58 35 59 43 60 36 61 42 62 37 63 38 64 39 65
REMARK SMILES IDX 40 66 41 67 64 68 65 69 73 70 66 71 72 72 67 73 68 74 69 75
REMARK SMILES IDX 70 76 71 77 50 78 51 79 59 80 52 81 58 82 53 83 54 84 55 85
REMARK SMILES IDX 56 86 57 87
REMARK H PARENT 9 16 78 43 48 54
REMARK Flexibility Score: inf
ROOT
ATOM      1  C   UNL A   1      38.698  23.436  26.222  1.00  0.00     0.275 C 
ENDROOT
BRANCH   1   2
ATOM      2  C   UNL A   1      37.529  22.983  25.341  1.00  0.00     0.275 C 
BRANCH   2   3
ATOM      3  O   UNL A   1      36.573  24.038  25.101  1.00  0.00    -0.458 OA
BRANCH   3   4
ATOM      4  C   UNL A   1      35.748  23.871  24.031  1.00  0.00     0.340 C 
ATOM      5  O   UNL A   1      35.996  23.188  23.058  1.00  0.00    -0.246 OA
BRANCH   4   6
ATOM      6  C   UNL A   1      34.455  24.621  24.167  1.00  0.00     0.083 A 
ATOM      7  C   UNL A   1      33.710  24.758  25.357  1.00  0.00     0.057 A 
ATOM      8  C   UNL A   1      32.605  25.623  25.377  1.00  0.00     0.042 A 
ATOM      9  C   UNL A   1      32.147  26.213  24.197  1.00  0.00     0.020 A 
ATOM     10  C   UNL A   1      33.967  25.218  22.988  1.00  0.00     0.019 A 
ATOM     11  Br  UNL A   1      30.612  27.314  24.233  1.00  0.00    -0.051 Br
ATOM     12  C   UNL A   1      32.795  25.974  22.992  1.00  0.00     0.017 A 
BRANCH   7  13
ATOM     13  N   UNL A   1      34.084  24.042  26.502  1.00  0.00    -0.321 N 
ATOM     14  C   UNL A   1      33.836  22.766  26.942  1.00  0.00     0.256 C 
ATOM     15  O   UNL A   1      34.064  22.544  28.135  1.00  0.00    -0.269 OA
ATOM     16  H   UNL A   1      34.643  24.564  27.122  1.00  0.00     0.170 HD
BRANCH  14  17
ATOM     17  C   UNL A   1      33.378  21.680  26.058  1.00  0.00     0.053 A 
ATOM     18  C   UNL A   1      30.874  22.284  25.377  1.00  0.00     0.046 C 
ATOM     19  C   UNL A   1      32.111  21.438  25.376  1.00  0.00    -0.028 A 
ATOM     20  C   UNL A   1      32.159  20.270  24.631  1.00  0.00     0.069 A 
ATOM     21  S   UNL A   1      33.690  19.532  24.626  1.00  0.00    -0.151 S 
ATOM     22  C   UNL A   1      34.314  20.736  25.652  1.00  0.00     0.079 A 
ENDBRANCH  14  17
ENDBRANCH   7  13
ENDBRANCH   4   6
ENDBRANCH   3   4
ENDBRANCH   2   3
ENDBRANCH   1   2
BRANCH   1  23
ATOM     23  O   UNL A   1      38.480  24.756  26.750  1.00  0.00    -0.458 OA
BRANCH  23  24
ATOM     24  C   UNL A   1      39.599  25.503  26.882  1.00  0.00     0.338 C 
ATOM     25  O   UNL A   1      40.558  25.539  26.127  1.00  0.00    -0.246 OA
BRANCH  24  26
ATOM     26  C   UNL A   1      39.455  26.433  28.009  1.00  0.00     0.060 A 
ATOM     27  C   UNL A   1      40.109  27.656  27.898  1.00  0.00     0.016 A 
ATOM     28  C   UNL A   1      38.851  26.065  29.210  1.00  0.00     0.016 A 
ATOM     29  C   UNL A   1      40.224  28.496  28.996  1.00  0.00     0.010 A 
ATOM     30  C   UNL A   1      38.910  26.944  30.302  1.00  0.00     0.010 A 
ATOM     31  C   UNL A   1      39.622  28.158  30.216  1.00  0.00    -0.014 A 
BRANCH  31  32
ATOM     32  C   UNL A   1      39.792  29.060  31.390  1.00  0.00     0.031 A 
ATOM     33  C   UNL A   1      40.969  28.897  32.316  1.00  0.00     0.074 A 
ATOM     34  C   UNL A   1      38.913  30.062  31.605  1.00  0.00     0.049 A 
ATOM     35  N   UNL A   1      41.224  29.508  33.445  1.00  0.00    -0.248 NA
ATOM     36  C   UNL A   1      41.989  27.910  31.928  1.00  0.00     0.031 C 
ATOM     37  C   UNL A   1      37.756  30.370  30.758  1.00  0.00     0.029 A 
ATOM     38  N   UNL A   1      38.860  31.016  32.591  1.00  0.00    -0.354 N 
ATOM     39  C   UNL A   1      42.396  28.940  33.931  1.00  0.00     0.074 A 
ATOM     40  C   UNL A   1      42.802  27.932  32.976  1.00  0.00     0.031 C 
ATOM     41  C   UNL A   1      37.137  31.459  31.235  1.00  0.00     0.029 A 
ATOM     42  C   UNL A   1      37.789  31.871  32.473  1.00  0.00     0.049 A 
ATOM     43  H   UNL A   1      39.526  31.082  33.312  1.00  0.00     0.167 HD
ATOM     44  C   UNL A   1      43.068  29.227  35.073  1.00  0.00     0.031 A 
ATOM     45  C   UNL A   1      37.343  32.847  33.288  1.00  0.00     0.031 A 
ATOM     46  C   UNL A   1      42.676  30.255  36.004  1.00  0.00     0.049 A 
ATOM     47  C   UNL A   1      38.081  33.121  34.568  1.00  0.00     0.074 A 
ATOM     48  C   UNL A   1      43.303  30.637  37.177  1.00  0.00     0.029 A 
ATOM     49  N   UNL A   1      41.561  31.068  35.865  1.00  0.00    -0.354 N 
ATOM     50  N   UNL A   1      39.167  32.549  35.029  1.00  0.00    -0.248 NA
ATOM     51  C   UNL A   1      37.525  34.162  35.443  1.00  0.00     0.031 C 
ATOM     52  C   UNL A   1      42.535  31.643  37.777  1.00  0.00     0.029 A 
ATOM     53  C   UNL A   1      41.466  31.933  36.944  1.00  0.00     0.049 A 
ATOM     54  H   UNL A   1      40.929  31.037  35.110  1.00  0.00     0.167 HD
ATOM     55  C   UNL A   1      39.433  33.169  36.244  1.00  0.00     0.074 A 
ATOM     56  C   UNL A   1      38.406  34.174  36.434  1.00  0.00     0.031 C 
ATOM     57  C   UNL A   1      40.434  32.923  37.124  1.00  0.00     0.031 A 
BRANCH  44  58
ATOM     58  C   UNL A   1      44.265  28.375  35.414  1.00  0.00    -0.014 A 
ATOM     59  C   UNL A   1      45.564  28.713  34.991  1.00  0.00     0.010 A 
ATOM     60  C   UNL A   1      44.085  27.221  36.201  1.00  0.00     0.010 A 
ATOM     61  C   UNL A   1      46.648  27.887  35.307  1.00  0.00     0.020 A 
ATOM     62  C   UNL A   1      45.170  26.410  36.544  1.00  0.00     0.020 A 
ATOM     63  C   UNL A   1      46.443  26.737  36.075  1.00  0.00     0.054 A 
BRANCH  63  64
ATOM     64  S   UNL A   1      47.867  25.682  36.470  1.00  0.00     0.124 S 
ATOM     65  O   UNL A   1      47.620  24.517  35.624  1.00  0.00    -0.237 OA
ATOM     66  O   UNL A   1      49.001  26.515  36.076  1.00  0.00    -0.237 OA
ATOM     67  O   UNL A   1      47.738  25.449  37.905  1.00  0.00    -0.744 OA
ENDBRANCH  63  64
ENDBRANCH  44  58
BRANCH  45  68
ATOM     68  C   UNL A   1      36.101  33.590  32.936  1.00  0.00    -0.014 A 
ATOM     69  C   UNL A   1      34.837  33.092  33.293  1.00  0.00     0.010 A 
ATOM     70  C   UNL A   1      36.186  34.830  32.274  1.00  0.00     0.010 A 
ATOM     71  C   UNL A   1      33.681  33.824  32.999  1.00  0.00     0.020 A 
ATOM     72  C   UNL A   1      35.038  35.579  32.008  1.00  0.00     0.020 A 
ATOM     73  C   UNL A   1      33.790  35.067  32.367  1.00  0.00     0.054 A 
BRANCH  73  74
ATOM     74  S   UNL A   1      32.285  36.036  32.072  1.00  0.00     0.124 S 
ATOM     75  O   UNL A   1      32.503  37.203  32.921  1.00  0.00    -0.237 OA
ATOM     76  O   UNL A   1      32.344  36.279  30.632  1.00  0.00    -0.237 OA
ATOM     77  O   UNL A   1      31.213  35.141  32.502  1.00  0.00    -0.744 OA
ENDBRANCH  73  74
ENDBRANCH  45  68
BRANCH  57  78
ATOM     78  C   UNL A   1      40.488  33.778  38.362  1.00  0.00    -0.014 A 
ATOM     79  C   UNL A   1      39.830  33.397  39.544  1.00  0.00     0.010 A 
ATOM     80  C   UNL A   1      41.249  34.963  38.351  1.00  0.00     0.010 A 
ATOM     81  C   UNL A   1      39.905  34.201  40.685  1.00  0.00     0.020 A 
ATOM     82  C   UNL A   1      41.349  35.754  39.498  1.00  0.00     0.020 A 
ATOM     83  C   UNL A   1      40.663  35.375  40.654  1.00  0.00     0.054 A 
BRANCH  83  84
ATOM     84  S   UNL A   1      40.776  36.381  42.158  1.00  0.00     0.124 S 
ATOM     85  O   UNL A   1      41.279  35.416  43.132  1.00  0.00    -0.237 OA
ATOM     86  O   UNL A   1      41.716  37.431  41.771  1.00  0.00    -0.237 OA
ATOM     87  O   UNL A   1      39.404  36.832  42.379  1.00  0.00    -0.744 OA
ENDBRANCH  83  84
ENDBRANCH  57  78
ENDBRANCH  31  32
ENDBRANCH  24  26
ENDBRANCH  23  24
ENDBRANCH   1  23
TORSDOF 16
ENDMDL
MODEL 2
REMARK VINA RESULT:     -10.2      5.580     10.227
REMARK SMILES Cc1cscc1C(=O)Nc1cc(Br)ccc1C(=O)OCCOC(=O)c1ccc(-c2c3nc(c(-c4ccc(S(=O)(=O)[O-])cc4)c4ccc([nH]4)c(-c4ccc(S(=O)(=O)[O-])cc4)c4nc(c(-c5ccc(S(=O)(=O)[O-])cc5)c5ccc2[nH]5)C=C4)C=C3)cc1
REMARK SMILES IDX 21 1 20 2 19 3 17 4 18 5 16 6 10 7 11 8 12 9 15 10 13 11
REMARK SMILES IDX 14 12 9 13 7 14 8 15 6 17 1 18 2 19 3 20 4 21 5 22 22 23
REMARK SMILES IDX 23 24 24 25 25 26 26 27 84 28 27 29 83 30 28 31 29 32 30 33
REMARK SMILES IDX 77 34 31 35 82 36 76 37 78 38 32 39 81 40 75 41 74 42 33 44
REMARK SMILES IDX 63 45 44 46 62 47 45 48 48 49 61 50 79 51 46 52 47 53 60 55
REMARK SMILES IDX 80 56 49 57 34 58 35 59 43 60 36 61 42 62 37 63 38 64 39 65
REMARK SMILES IDX 40 66 41 67 64 68 65 69 73 70 66 71 72 72 67 73 68 74 69 75
REMARK SMILES IDX 70 76 71 77 50 78 51 79 59 80 52 81 58 82 53 83 54 84 55 85
REMARK SMILES IDX 56 86 57 87
REMARK H PARENT 9 16 78 43 48 54
REMARK Flexibility Score: inf
ROOT
ATOM      1  C   UNL A   1      37.060  21.559  25.293  1.00  0.00     0.275 C 
ENDROOT
BRANCH   1   2
ATOM      2  C   UNL A   1      35.569  21.661  25.628  1.00  0.00     0.275 C 
BRANCH   2   3
ATOM      3  O   UNL A   1      35.051  22.998  25.457  1.00  0.00    -0.458 OA
BRANCH   3   4
ATOM      4  C   UNL A   1      34.276  23.477  26.468  1.00  0.00     0.340 C 
ATOM      5  O   UNL A   1      34.140  22.950  27.554  1.00  0.00    -0.246 OA
BRANCH   4   6
ATOM      6  C   UNL A   1      33.587  24.764  26.118  1.00  0.00     0.083 A 
ATOM      7  C   UNL A   1      32.231  25.059  26.368  1.00  0.00     0.057 A 
ATOM      8  C   UNL A   1      31.759  26.360  26.136  1.00  0.00     0.042 A 
ATOM      9  C   UNL A   1      32.574  27.307  25.511  1.00  0.00     0.020 A 
ATOM     10  C   UNL A   1      34.387  25.732  25.479  1.00  0.00     0.019 A 
ATOM     11  Br  UNL A   1      31.896  29.031  25.140  1.00  0.00    -0.051 Br
ATOM     12  C   UNL A   1      33.872  26.983  25.137  1.00  0.00     0.017 A 
BRANCH   7  13
ATOM     13  N   UNL A   1      31.375  24.060  26.852  1.00  0.00    -0.321 N 
ATOM     14  C   UNL A   1      30.816  22.941  26.288  1.00  0.00     0.256 C 
ATOM     15  O   UNL A   1      29.871  22.434  26.900  1.00  0.00    -0.269 OA
ATOM     16  H   UNL A   1      31.122  24.188  27.794  1.00  0.00     0.170 HD
BRANCH  14  17
ATOM     17  C   UNL A   1      31.325  22.314  25.056  1.00  0.00     0.053 A 
ATOM     18  C   UNL A   1      31.115  24.158  23.145  1.00  0.00     0.046 C 
ATOM     19  C   UNL A   1      31.460  22.806  23.689  1.00  0.00    -0.028 A 
ATOM     20  C   UNL A   1      32.016  21.841  22.863  1.00  0.00     0.069 A 
ATOM     21  S   UNL A   1      32.486  20.432  23.689  1.00  0.00    -0.151 S 
ATOM     22  C   UNL A   1      31.921  21.063  25.163  1.00  0.00     0.079 A 
ENDBRANCH  14  17
ENDBRANCH   7  13
ENDBRANCH   4   6
ENDBRANCH   3   4
ENDBRANCH   2   3
ENDBRANCH   1   2
BRANCH   1  23
ATOM     23  O   UNL A   1      37.795  22.684  25.806  1.00  0.00    -0.458 OA
BRANCH  23  24
ATOM     24  C   UNL A   1      39.009  22.381  26.318  1.00  0.00     0.338 C 
ATOM     25  O   UNL A   1      39.640  21.347  26.161  1.00  0.00    -0.246 OA
BRANCH  24  26
ATOM     26  C   UNL A   1      39.584  23.555  26.985  1.00  0.00     0.060 A 
ATOM     27  C   UNL A   1      39.198  24.801  26.500  1.00  0.00     0.016 A 
ATOM     28  C   UNL A   1      40.599  23.453  27.934  1.00  0.00     0.016 A 
ATOM     29  C   UNL A   1      39.859  25.951  26.907  1.00  0.00     0.010 A 
ATOM     30  C   UNL A   1      41.223  24.623  28.395  1.00  0.00     0.010 A 
ATOM     31  C   UNL A   1      40.879  25.883  27.865  1.00  0.00    -0.014 A 
BRANCH  31  32
ATOM     32  C   UNL A   1      41.598  27.128  28.258  1.00  0.00     0.031 A 
ATOM     33  C   UNL A   1      40.847  28.285  28.865  1.00  0.00     0.074 A 
ATOM     34  C   UNL A   1      42.938  27.209  28.114  1.00  0.00     0.049 A 
ATOM     35  N   UNL A   1      41.277  29.484  29.164  1.00  0.00    -0.248 NA
ATOM     36  C   UNL A   1      39.423  28.069  29.167  1.00  0.00     0.031 C 
ATOM     37  C   UNL A   1      43.800  26.145  27.590  1.00  0.00     0.029 A 
ATOM     38  N   UNL A   1      43.814  28.225  28.409  1.00  0.00    -0.354 N 
ATOM     39  C   UNL A   1      40.170  30.183  29.630  1.00  0.00     0.074 A 
ATOM     40  C   UNL A   1      39.045  29.275  29.571  1.00  0.00     0.031 C 
ATOM     41  C   UNL A   1      45.077  26.547  27.640  1.00  0.00     0.029 A 
ATOM     42  C   UNL A   1      45.123  27.928  28.105  1.00  0.00     0.049 A 
ATOM     43  H   UNL A   1      43.532  29.083  28.800  1.00  0.00     0.167 HD
ATOM     44  C   UNL A   1      40.094  31.467  30.059  1.00  0.00     0.031 A 
ATOM     45  C   UNL A   1      46.234  28.690  28.146  1.00  0.00     0.031 A 
ATOM     46  C   UNL A   1      41.225  32.356  30.146  1.00  0.00     0.049 A 
ATOM     47  C   UNL A   1      46.121  30.121  28.587  1.00  0.00     0.074 A 
ATOM     48  C   UNL A   1      41.256  33.667  30.589  1.00  0.00     0.029 A 
ATOM     49  N   UNL A   1      42.524  32.026  29.788  1.00  0.00    -0.354 N 
ATOM     50  N   UNL A   1      45.058  30.775  28.989  1.00  0.00    -0.248 NA
ATOM     51  C   UNL A   1      47.353  30.920  28.567  1.00  0.00     0.031 C 
ATOM     52  C   UNL A   1      42.563  34.147  30.445  1.00  0.00     0.029 A 
ATOM     53  C   UNL A   1      43.360  33.116  29.976  1.00  0.00     0.049 A 
ATOM     54  H   UNL A   1      42.811  31.147  29.452  1.00  0.00     0.167 HD
ATOM     55  C   UNL A   1      45.495  32.062  29.282  1.00  0.00     0.074 A 
ATOM     56  C   UNL A   1      46.923  32.085  29.032  1.00  0.00     0.031 C 
ATOM     57  C   UNL A   1      44.778  33.128  29.715  1.00  0.00     0.031 A 
BRANCH  44  58
ATOM     58  C   UNL A   1      38.732  32.009  30.411  1.00  0.00    -0.014 A 
ATOM     59  C   UNL A   1      37.904  32.624  29.453  1.00  0.00     0.010 A 
ATOM     60  C   UNL A   1      38.260  31.875  31.731  1.00  0.00     0.010 A 
ATOM     61  C   UNL A   1      36.656  33.136  29.821  1.00  0.00     0.020 A 
ATOM     62  C   UNL A   1      37.000  32.358  32.095  1.00  0.00     0.020 A 
ATOM     63  C   UNL A   1      36.215  33.007  31.141  1.00  0.00     0.054 A 
BRANCH  63  64
ATOM     64  S   UNL A   1      34.590  33.680  31.591  1.00  0.00     0.124 S 
ATOM     65  O   UNL A   1      34.957  34.932  32.249  1.00  0.00    -0.237 OA
ATOM     66  O   UNL A   1      33.932  33.822  30.295  1.00  0.00    -0.237 OA
ATOM     67  O   UNL A   1      34.023  32.659  32.468  1.00  0.00    -0.744 OA
ENDBRANCH  63  64
ENDBRANCH  44  58
BRANCH  45  68
ATOM     68  C   UNL A   1      47.534  28.118  27.698  1.00  0.00    -0.014 A 
ATOM     69  C   UNL A   1      48.362  27.419  28.592  1.00  0.00     0.010 A 
ATOM     70  C   UNL A   1      47.927  28.234  26.351  1.00  0.00     0.010 A 
ATOM     71  C   UNL A   1      49.557  26.844  28.147  1.00  0.00     0.020 A 
ATOM     72  C   UNL A   1      49.103  27.634  25.894  1.00  0.00     0.020 A 
ATOM     73  C   UNL A   1      49.915  26.948  26.798  1.00  0.00     0.054 A 
BRANCH  73  74
ATOM     74  S   UNL A   1      51.426  26.123  26.226  1.00  0.00     0.124 S 
ATOM     75  O   UNL A   1      52.469  26.980  26.780  1.00  0.00    -0.237 OA
ATOM     76  O   UNL A   1      51.308  24.797  26.827  1.00  0.00    -0.237 OA
ATOM     77  O   UNL A   1      51.300  26.152  24.770  1.00  0.00    -0.744 OA
ENDBRANCH  73  74
ENDBRANCH  45  68
BRANCH  57  78
ATOM     78  C   UNL A   1      45.531  34.404  29.976  1.00  0.00    -0.014 A 
ATOM     79  C   UNL A   1      46.120  34.663  31.226  1.00  0.00     0.010 A 
ATOM     80  C   UNL A   1      45.688  35.339  28.936  1.00  0.00     0.010 A 
ATOM     81  C   UNL A   1      46.826  35.850  31.441  1.00  0.00     0.020 A 
ATOM     82  C   UNL A   1      46.418  36.513  29.139  1.00  0.00     0.020 A 
ATOM     83  C   UNL A   1      46.970  36.768  30.396  1.00  0.00     0.054 A 
BRANCH  83  84
ATOM     84  S   UNL A   1      47.923  38.282  30.688  1.00  0.00     0.124 S 
ATOM     85  O   UNL A   1      48.800  37.882  31.785  1.00  0.00    -0.237 OA
ATOM     86  O   UNL A   1      48.583  38.498  29.402  1.00  0.00    -0.237 OA
ATOM     87  O   UNL A   1      46.905  39.272  31.034  1.00  0.00    -0.744 OA
ENDBRANCH  83  84
ENDBRANCH  57  78
ENDBRANCH  31  32
ENDBRANCH  24  26
ENDBRANCH  23  24
ENDBRANCH   1  23
TORSDOF 16
ENDMDL
MODEL 3
REMARK VINA RESULT:     -10.1      3.479      7.958
REMARK SMILES Cc1cscc1C(=O)Nc1cc(Br)ccc1C(=O)OCCOC(=O)c1ccc(-c2c3nc(c(-c4ccc(S(=O)(=O)[O-])cc4)c4ccc([nH]4)c(-c4ccc(S(=O)(=O)[O-])cc4)c4nc(c(-c5ccc(S(=O)(=O)[O-])cc5)c5ccc2[nH]5)C=C4)C=C3)cc1
REMARK SMILES IDX 21 1 20 2 19 3 17 4 18 5 16 6 10 7 11 8 12 9 15 10 13 11
REMARK SMILES IDX 14 12 9 13 7 14 8 15 6 17 1 18 2 19 3 20 4 21 5 22 22 23
REMARK SMILES IDX 23 24 24 25 25 26 26 27 84 28 27 29 83 30 28 31 29 32 30 33
REMARK SMILES IDX 77 34 31 35 82 36 76 37 78 38 32 39 81 40 75 41 74 42 33 44
REMARK SMILES IDX 63 45 44 46 62 47 45 48 48 49 61 50 79 51 46 52 47 53 60 55
REMARK SMILES IDX 80 56 49 57 34 58 35 59 43 60 36 61 42 62 37 63 38 64 39 65
REMARK SMILES IDX 40 66 41 67 64 68 65 69 73 70 66 71 72 72 67 73 68 74 69 75
REMARK SMILES IDX 70 76 71 77 50 78 51 79 59 80 52 81 58 82 53 83 54 84 55 85
REMARK SMILES IDX 56 86 57 87
REMARK H PARENT 9 16 78 43 48 54
REMARK Flexibility Score: inf
ROOT
ATOM      1  C   UNL A   1      32.547  30.348  26.263  1.00  0.00     0.275 C 
ENDROOT
BRANCH   1   2
ATOM      2  C   UNL A   1      32.400  29.193  25.268  1.00  0.00     0.275 C 
BRANCH   2   3
ATOM      3  O   UNL A   1      33.524  28.287  25.298  1.00  0.00    -0.458 OA
BRANCH   3   4
ATOM      4  C   UNL A   1      33.828  27.665  24.126  1.00  0.00     0.340 C 
ATOM      5  O   UNL A   1      33.985  28.224  23.059  1.00  0.00    -0.246 OA
BRANCH   4   6
ATOM      6  C   UNL A   1      33.964  26.178  24.271  1.00  0.00     0.083 A 
ATOM      7  C   UNL A   1      33.791  25.236  23.236  1.00  0.00     0.057 A 
ATOM      8  C   UNL A   1      34.109  23.890  23.474  1.00  0.00     0.042 A 
ATOM      9  C   UNL A   1      34.433  23.457  24.762  1.00  0.00     0.020 A 
ATOM     10  C   UNL A   1      34.283  25.716  25.563  1.00  0.00     0.019 A 
ATOM     11  Br  UNL A   1      34.785  21.628  25.077  1.00  0.00    -0.051 Br
ATOM     12  C   UNL A   1      34.474  24.358  25.819  1.00  0.00     0.017 A 
BRANCH   7  13
ATOM     13  N   UNL A   1      33.315  25.651  21.984  1.00  0.00    -0.321 N 
ATOM     14  C   UNL A   1      32.074  25.994  21.512  1.00  0.00     0.256 C 
ATOM     15  O   UNL A   1      31.945  26.027  20.284  1.00  0.00    -0.269 OA
ATOM     16  H   UNL A   1      34.021  25.710  21.301  1.00  0.00     0.170 HD
BRANCH  14  17
ATOM     17  C   UNL A   1      30.948  26.365  22.387  1.00  0.00     0.053 A 
ATOM     18  C   UNL A   1      30.498  24.255  23.949  1.00  0.00     0.046 C 
ATOM     19  C   UNL A   1      30.242  25.640  23.438  1.00  0.00    -0.028 A 
ATOM     20  C   UNL A   1      29.244  26.421  24.000  1.00  0.00     0.069 A 
ATOM     21  S   UNL A   1      29.209  28.010  23.401  1.00  0.00    -0.151 S 
ATOM     22  C   UNL A   1      30.502  27.681  22.347  1.00  0.00     0.079 A 
ENDBRANCH  14  17
ENDBRANCH   7  13
ENDBRANCH   4   6
ENDBRANCH   3   4
ENDBRANCH   2   3
ENDBRANCH   1   2
BRANCH   1  23
ATOM     23  O   UNL A   1      33.593  30.093  27.218  1.00  0.00    -0.458 OA
BRANCH  23  24
ATOM     24  C   UNL A   1      34.229  31.198  27.668  1.00  0.00     0.338 C 
ATOM     25  O   UNL A   1      33.754  32.311  27.828  1.00  0.00    -0.246 OA
BRANCH  24  26
ATOM     26  C   UNL A   1      35.584  30.852  28.116  1.00  0.00     0.060 A 
ATOM     27  C   UNL A   1      35.744  29.611  28.723  1.00  0.00     0.016 A 
ATOM     28  C   UNL A   1      36.631  31.772  28.108  1.00  0.00     0.016 A 
ATOM     29  C   UNL A   1      36.924  29.296  29.382  1.00  0.00     0.010 A 
ATOM     30  C   UNL A   1      37.847  31.427  28.718  1.00  0.00     0.010 A 
ATOM     31  C   UNL A   1      37.997  30.196  29.387  1.00  0.00    -0.014 A 
BRANCH  31  32
ATOM     32  C   UNL A   1      39.240  29.848  30.133  1.00  0.00     0.031 A 
ATOM     33  C   UNL A   1      40.161  28.769  29.623  1.00  0.00     0.074 A 
ATOM     34  C   UNL A   1      39.572  30.532  31.248  1.00  0.00     0.049 A 
ATOM     35  N   UNL A   1      41.221  28.252  30.190  1.00  0.00    -0.248 NA
ATOM     36  C   UNL A   1      39.842  28.188  28.309  1.00  0.00     0.031 C 
ATOM     37  C   UNL A   1      38.802  31.637  31.825  1.00  0.00     0.029 A 
ATOM     38  N   UNL A   1      40.652  30.411  32.089  1.00  0.00    -0.354 N 
ATOM     39  C   UNL A   1      41.660  27.247  29.335  1.00  0.00     0.074 A 
ATOM     40  C   UNL A   1      40.749  27.225  28.211  1.00  0.00     0.031 C 
ATOM     41  C   UNL A   1      39.452  32.117  32.895  1.00  0.00     0.029 A 
ATOM     42  C   UNL A   1      40.632  31.297  33.141  1.00  0.00     0.049 A 
ATOM     43  H   UNL A   1      41.371  29.753  31.951  1.00  0.00     0.167 HD
ATOM     44  C   UNL A   1      42.721  26.414  29.477  1.00  0.00     0.031 A 
ATOM     45  C   UNL A   1      41.439  31.413  34.214  1.00  0.00     0.031 A 
ATOM     46  C   UNL A   1      43.643  26.465  30.583  1.00  0.00     0.049 A 
ATOM     47  C   UNL A   1      42.584  30.455  34.372  1.00  0.00     0.074 A 
ATOM     48  C   UNL A   1      44.761  25.680  30.806  1.00  0.00     0.029 A 
ATOM     49  N   UNL A   1      43.560  27.351  31.647  1.00  0.00    -0.354 N 
ATOM     50  N   UNL A   1      42.962  29.487  33.571  1.00  0.00    -0.248 NA
ATOM     51  C   UNL A   1      43.403  30.594  35.583  1.00  0.00     0.031 C 
ATOM     52  C   UNL A   1      45.321  26.054  32.033  1.00  0.00     0.029 A 
ATOM     53  C   UNL A   1      44.591  27.115  32.542  1.00  0.00     0.049 A 
ATOM     54  H   UNL A   1      42.871  28.046  31.750  1.00  0.00     0.167 HD
ATOM     55  C   UNL A   1      44.071  28.908  34.176  1.00  0.00     0.074 A 
ATOM     56  C   UNL A   1      44.315  29.650  35.398  1.00  0.00     0.031 C 
ATOM     57  C   UNL A   1      44.817  27.856  33.759  1.00  0.00     0.031 A 
BRANCH  44  58
ATOM     58  C   UNL A   1      42.907  25.334  28.441  1.00  0.00    -0.014 A 
ATOM     59  C   UNL A   1      42.245  24.096  28.529  1.00  0.00     0.010 A 
ATOM     60  C   UNL A   1      43.747  25.579  27.338  1.00  0.00     0.010 A 
ATOM     61  C   UNL A   1      42.459  23.109  27.561  1.00  0.00     0.020 A 
ATOM     62  C   UNL A   1      43.940  24.606  26.353  1.00  0.00     0.020 A 
ATOM     63  C   UNL A   1      43.311  23.367  26.484  1.00  0.00     0.054 A 
BRANCH  63  64
ATOM     64  S   UNL A   1      43.572  22.069  25.243  1.00  0.00     0.124 S 
ATOM     65  O   UNL A   1      42.487  21.140  25.549  1.00  0.00    -0.237 OA
ATOM     66  O   UNL A   1      43.437  22.798  23.983  1.00  0.00    -0.237 OA
ATOM     67  O   UNL A   1      44.915  21.575  25.533  1.00  0.00    -0.744 OA
ENDBRANCH  63  64
ENDBRANCH  44  58
BRANCH  45  68
ATOM     68  C   UNL A   1      41.144  32.444  35.247  1.00  0.00    -0.014 A 
ATOM     69  C   UNL A   1      41.785  33.695  35.221  1.00  0.00     0.010 A 
ATOM     70  C   UNL A   1      40.180  32.190  36.241  1.00  0.00     0.010 A 
ATOM     71  C   UNL A   1      41.463  34.673  36.169  1.00  0.00     0.020 A 
ATOM     72  C   UNL A   1      39.831  33.175  37.168  1.00  0.00     0.020 A 
ATOM     73  C   UNL A   1      40.481  34.410  37.130  1.00  0.00     0.054 A 
BRANCH  73  74
ATOM     74  S   UNL A   1      40.020  35.722  38.295  1.00  0.00     0.124 S 
ATOM     75  O   UNL A   1      41.269  35.941  39.016  1.00  0.00    -0.237 OA
ATOM     76  O   UNL A   1      39.604  36.802  37.404  1.00  0.00    -0.237 OA
ATOM     77  O   UNL A   1      38.942  35.120  39.078  1.00  0.00    -0.744 OA
ENDBRANCH  73  74
ENDBRANCH  45  68
BRANCH  57  78
ATOM     78  C   UNL A   1      45.990  27.460  34.615  1.00  0.00    -0.014 A 
ATOM     79  C   UNL A   1      45.861  26.497  35.632  1.00  0.00     0.010 A 
ATOM     80  C   UNL A   1      47.252  28.032  34.367  1.00  0.00     0.010 A 
ATOM     81  C   UNL A   1      46.967  26.137  36.407  1.00  0.00     0.020 A 
ATOM     82  C   UNL A   1      48.366  27.652  35.120  1.00  0.00     0.020 A 
ATOM     83  C   UNL A   1      48.212  26.717  36.146  1.00  0.00     0.054 A 
BRANCH  83  84
ATOM     84  S   UNL A   1      49.640  26.205  37.139  1.00  0.00     0.124 S 
ATOM     85  O   UNL A   1      49.022  25.326  38.128  1.00  0.00    -0.237 OA
ATOM     86  O   UNL A   1      50.493  25.541  36.155  1.00  0.00    -0.237 OA
ATOM     87  O   UNL A   1      50.167  27.461  37.665  1.00  0.00    -0.744 OA
ENDBRANCH  83  84
ENDBRANCH  57  78
ENDBRANCH  31  32
ENDBRANCH  24  26
ENDBRANCH  23  24
ENDBRANCH   1  23
TORSDOF 16
ENDMDL
