MODEL 1
REMARK VINA RESULT:     -10.7      0.000      0.000
REMARK SMILES COc1cc(-c2ccc(NC(=O)CCC(=O)OCCOC(=O)c3ccc(-c4c5nc(c(-c6ccc(S(=O)(=O)[O-])cc6)c6ccc([nH]6)c(-c6ccc(S(=O)(=O)[O-])cc6)c6nc(c(-c7ccc(S(=O)(=O)[O-])cc7)c7ccc4[nH]7)C=C6)C=C5)cc3)c(OC)c2)ccc1N
REMARK SMILES IDX 18 1 17 2 15 3 16 4 14 5 13 6 11 7 10 8 12 10 9 11 6 12 7 13
REMARK SMILES IDX 86 14 8 15 83 16 5 17 3 18 4 19 89 20 88 21 87 22 2 23 1 24
REMARK SMILES IDX 90 25 84 28 85 29 19 30 20 31 21 32 22 33 23 34 24 35 82 36
REMARK SMILES IDX 25 37 81 38 26 39 27 40 28 41 75 42 29 43 80 44 74 45 76 46
REMARK SMILES IDX 30 47 79 48 73 49 72 50 31 52 61 53 42 54 60 55 43 56 46 57
REMARK SMILES IDX 59 58 77 59 44 60 45 61 58 63 78 64 47 65 32 66 33 67 41 68
REMARK SMILES IDX 34 69 40 70 35 71 36 72 37 73 38 74 39 75 62 76 63 77 71 78
REMARK SMILES IDX 64 79 70 80 65 81 66 82 67 83 68 84 69 85 48 86 49 87 57 88
REMARK SMILES IDX 50 89 56 90 51 91 52 92 53 93 54 94 55 95
REMARK H PARENT 10 9 90 26 90 27 76 51 46 62
REMARK Flexibility Score: inf
ROOT
ATOM      1  C   UNL A   1      38.274  22.114  25.953  1.00  0.00     0.274 C 
ENDROOT
BRANCH   1   2
ATOM      2  O   UNL A   1      37.768  21.382  24.806  1.00  0.00    -0.462 OA
BRANCH   2   3
ATOM      3  C   UNL A   1      36.453  21.471  24.478  1.00  0.00     0.306 C 
ATOM      4  O   UNL A   1      35.946  22.474  23.990  1.00  0.00    -0.252 OA
BRANCH   3   5
ATOM      5  C   UNL A   1      35.644  20.234  24.891  1.00  0.00     0.132 C 
BRANCH   5   6
ATOM      6  C   UNL A   1      34.158  20.106  24.486  1.00  0.00     0.112 C 
BRANCH   6   7
ATOM      7  C   UNL A   1      33.169  19.862  25.647  1.00  0.00     0.225 C 
ATOM      8  N   UNL A   1      32.656  20.880  26.437  1.00  0.00    -0.323 N 
ATOM      9  H   UNL A   1      32.343  20.604  27.329  1.00  0.00     0.170 HD
ATOM     10  O   UNL A   1      32.908  18.699  25.984  1.00  0.00    -0.275 OA
BRANCH   8  11
ATOM     11  C   UNL A   1      32.515  22.257  26.150  1.00  0.00     0.083 A 
ATOM     12  C   UNL A   1      32.281  24.870  24.996  1.00  0.00    -0.014 A 
ATOM     13  C   UNL A   1      33.406  24.508  25.755  1.00  0.00     0.011 A 
ATOM     14  C   UNL A   1      31.239  23.958  25.059  1.00  0.00     0.057 A 
ATOM     15  C   UNL A   1      33.539  23.194  26.301  1.00  0.00     0.031 A 
ATOM     16  C   UNL A   1      31.305  22.772  25.770  1.00  0.00     0.142 A 
BRANCH  12  17
ATOM     17  C   UNL A   1      32.107  26.085  24.142  1.00  0.00    -0.014 A 
ATOM     18  C   UNL A   1      32.363  28.539  23.872  1.00  0.00     0.142 A 
ATOM     19  C   UNL A   1      32.672  27.333  24.515  1.00  0.00     0.057 A 
ATOM     20  C   UNL A   1      31.576  28.530  22.721  1.00  0.00     0.074 A 
ATOM     21  C   UNL A   1      31.021  27.307  22.323  1.00  0.00     0.030 A 
ATOM     22  C   UNL A   1      31.280  26.106  23.015  1.00  0.00     0.011 A 
BRANCH  18  23
ATOM     23  O   UNL A   1      32.942  29.663  24.410  1.00  0.00    -0.495 OA
ATOM     24  C   UNL A   1      33.206  29.575  25.814  1.00  0.00     0.278 C 
ENDBRANCH  18  23
BRANCH  20  25
ATOM     25  N   UNL A   1      31.263  29.692  22.029  1.00  0.00    -0.396 N 
ATOM     26  H   UNL A   1      31.982  30.269  21.686  1.00  0.00     0.156 HD
ATOM     27  H   UNL A   1      30.321  29.938  21.883  1.00  0.00     0.156 HD
ENDBRANCH  20  25
ENDBRANCH  12  17
BRANCH  16  28
ATOM     28  O   UNL A   1      30.120  22.185  26.069  1.00  0.00    -0.495 OA
ATOM     29  C   UNL A   1      29.464  22.724  27.213  1.00  0.00     0.278 C 
ENDBRANCH  16  28
ENDBRANCH   8  11
ENDBRANCH   6   7
ENDBRANCH   5   6
ENDBRANCH   3   5
ENDBRANCH   2   3
ENDBRANCH   1   2
BRANCH   1  30
ATOM     30  C   UNL A   1      39.776  21.908  26.209  1.00  0.00     0.275 C 
BRANCH  30  31
ATOM     31  O   UNL A   1      40.174  20.525  26.198  1.00  0.00    -0.458 OA
BRANCH  31  32
ATOM     32  C   UNL A   1      41.494  20.313  26.144  1.00  0.00     0.338 C 
ATOM     33  O   UNL A   1      42.088  19.297  25.803  1.00  0.00    -0.246 OA
BRANCH  32  34
ATOM     34  C   UNL A   1      42.286  21.457  26.492  1.00  0.00     0.060 A 
ATOM     35  C   UNL A   1      42.855  22.165  25.435  1.00  0.00     0.016 A 
ATOM     36  C   UNL A   1      42.639  21.670  27.827  1.00  0.00     0.016 A 
ATOM     37  C   UNL A   1      43.744  23.175  25.723  1.00  0.00     0.010 A 
ATOM     38  C   UNL A   1      43.498  22.714  28.121  1.00  0.00     0.010 A 
ATOM     39  C   UNL A   1      44.001  23.490  27.067  1.00  0.00    -0.014 A 
BRANCH  39  40
ATOM     40  C   UNL A   1      44.523  24.833  27.330  1.00  0.00     0.031 A 
ATOM     41  C   UNL A   1      45.949  25.165  27.087  1.00  0.00     0.074 A 
ATOM     42  C   UNL A   1      43.591  25.731  27.700  1.00  0.00     0.049 A 
ATOM     43  N   UNL A   1      46.520  26.335  27.129  1.00  0.00    -0.248 NA
ATOM     44  C   UNL A   1      46.851  24.051  26.759  1.00  0.00     0.031 C 
ATOM     45  C   UNL A   1      42.170  25.416  27.925  1.00  0.00     0.029 A 
ATOM     46  N   UNL A   1      43.662  27.078  27.896  1.00  0.00    -0.354 N 
ATOM     47  C   UNL A   1      47.856  26.107  26.837  1.00  0.00     0.074 A 
ATOM     48  C   UNL A   1      48.012  24.683  26.632  1.00  0.00     0.031 C 
ATOM     49  C   UNL A   1      41.497  26.547  28.162  1.00  0.00     0.029 A 
ATOM     50  C   UNL A   1      42.441  27.651  28.157  1.00  0.00     0.049 A 
ATOM     51  H   UNL A   1      44.503  27.587  27.855  1.00  0.00     0.167 HD
ATOM     52  C   UNL A   1      48.846  27.026  26.765  1.00  0.00     0.031 A 
ATOM     53  C   UNL A   1      42.123  28.939  28.362  1.00  0.00     0.031 A 
ATOM     54  C   UNL A   1      48.622  28.427  27.019  1.00  0.00     0.049 A 
ATOM     55  C   UNL A   1      43.240  29.929  28.269  1.00  0.00     0.074 A 
ATOM     56  C   UNL A   1      49.534  29.465  27.019  1.00  0.00     0.029 A 
ATOM     57  N   UNL A   1      47.383  28.982  27.325  1.00  0.00    -0.354 N 
ATOM     58  N   UNL A   1      44.505  29.706  27.989  1.00  0.00    -0.248 NA
ATOM     59  C   UNL A   1      42.905  31.332  28.514  1.00  0.00     0.031 C 
ATOM     60  C   UNL A   1      48.853  30.639  27.365  1.00  0.00     0.029 A 
ATOM     61  C   UNL A   1      47.507  30.343  27.532  1.00  0.00     0.049 A 
ATOM     62  H   UNL A   1      46.539  28.477  27.385  1.00  0.00     0.167 HD
ATOM     63  C   UNL A   1      45.124  30.943  28.027  1.00  0.00     0.074 A 
ATOM     64  C   UNL A   1      44.083  31.912  28.326  1.00  0.00     0.031 C 
ATOM     65  C   UNL A   1      46.431  31.254  27.845  1.00  0.00     0.031 A 
BRANCH  52  66
ATOM     66  C   UNL A   1      50.233  26.530  26.464  1.00  0.00    -0.014 A 
ATOM     67  C   UNL A   1      51.126  26.179  27.494  1.00  0.00     0.010 A 
ATOM     68  C   UNL A   1      50.657  26.415  25.128  1.00  0.00     0.010 A 
ATOM     69  C   UNL A   1      52.427  25.760  27.194  1.00  0.00     0.020 A 
ATOM     70  C   UNL A   1      51.949  25.977  24.823  1.00  0.00     0.020 A 
ATOM     71  C   UNL A   1      52.833  25.670  25.860  1.00  0.00     0.054 A 
BRANCH  71  72
ATOM     72  S   UNL A   1      54.526  25.123  25.494  1.00  0.00     0.124 S 
ATOM     73  O   UNL A   1      54.922  26.055  24.441  1.00  0.00    -0.237 OA
ATOM     74  O   UNL A   1      55.205  25.299  26.775  1.00  0.00    -0.237 OA
ATOM     75  O   UNL A   1      54.358  23.736  25.067  1.00  0.00    -0.744 OA
ENDBRANCH  71  72
ENDBRANCH  52  66
BRANCH  53  76
ATOM     76  C   UNL A   1      40.717  29.312  28.669  1.00  0.00    -0.014 A 
ATOM     77  C   UNL A   1      39.758  29.429  27.650  1.00  0.00     0.010 A 
ATOM     78  C   UNL A   1      40.310  29.462  30.009  1.00  0.00     0.010 A 
ATOM     79  C   UNL A   1      38.421  29.698  27.965  1.00  0.00     0.020 A 
ATOM     80  C   UNL A   1      38.972  29.702  30.329  1.00  0.00     0.020 A 
ATOM     81  C   UNL A   1      38.036  29.831  29.303  1.00  0.00     0.054 A 
BRANCH  81  82
ATOM     82  S   UNL A   1      36.288  30.116  29.697  1.00  0.00     0.124 S 
ATOM     83  O   UNL A   1      35.615  29.437  28.594  1.00  0.00    -0.237 OA
ATOM     84  O   UNL A   1      36.149  29.486  31.008  1.00  0.00    -0.237 OA
ATOM     85  O   UNL A   1      36.172  31.572  29.701  1.00  0.00    -0.744 OA
ENDBRANCH  81  82
ENDBRANCH  53  76
BRANCH  65  86
ATOM     86  C   UNL A   1      46.779  32.706  27.971  1.00  0.00    -0.014 A 
ATOM     87  C   UNL A   1      47.260  33.225  29.185  1.00  0.00     0.010 A 
ATOM     88  C   UNL A   1      46.654  33.547  26.852  1.00  0.00     0.010 A 
ATOM     89  C   UNL A   1      47.585  34.576  29.286  1.00  0.00     0.020 A 
ATOM     90  C   UNL A   1      47.000  34.893  26.944  1.00  0.00     0.020 A 
ATOM     91  C   UNL A   1      47.451  35.402  28.165  1.00  0.00     0.054 A 
BRANCH  91  92
ATOM     92  S   UNL A   1      47.920  37.146  28.307  1.00  0.00     0.124 S 
ATOM     93  O   UNL A   1      46.832  37.810  27.594  1.00  0.00    -0.237 OA
ATOM     94  O   UNL A   1      47.945  37.356  29.753  1.00  0.00    -0.237 OA
ATOM     95  O   UNL A   1      49.224  37.206  27.652  1.00  0.00    -0.744 OA
ENDBRANCH  91  92
ENDBRANCH  65  86
ENDBRANCH  39  40
ENDBRANCH  32  34
ENDBRANCH  31  32
ENDBRANCH  30  31
ENDBRANCH   1  30
TORSDOF 21
ENDMDL
MODEL 2
REMARK VINA RESULT:     -10.5      2.342      8.892
REMARK SMILES COc1cc(-c2ccc(NC(=O)CCC(=O)OCCOC(=O)c3ccc(-c4c5nc(c(-c6ccc(S(=O)(=O)[O-])cc6)c6ccc([nH]6)c(-c6ccc(S(=O)(=O)[O-])cc6)c6nc(c(-c7ccc(S(=O)(=O)[O-])cc7)c7ccc4[nH]7)C=C6)C=C5)cc3)c(OC)c2)ccc1N
REMARK SMILES IDX 18 1 17 2 15 3 16 4 14 5 13 6 11 7 10 8 12 10 9 11 6 12 7 13
REMARK SMILES IDX 86 14 8 15 83 16 5 17 3 18 4 19 89 20 88 21 87 22 2 23 1 24
REMARK SMILES IDX 90 25 84 28 85 29 19 30 20 31 21 32 22 33 23 34 24 35 82 36
REMARK SMILES IDX 25 37 81 38 26 39 27 40 28 41 75 42 29 43 80 44 74 45 76 46
REMARK SMILES IDX 30 47 79 48 73 49 72 50 31 52 61 53 42 54 60 55 43 56 46 57
REMARK SMILES IDX 59 58 77 59 44 60 45 61 58 63 78 64 47 65 32 66 33 67 41 68
REMARK SMILES IDX 34 69 40 70 35 71 36 72 37 73 38 74 39 75 62 76 63 77 71 78
REMARK SMILES IDX 64 79 70 80 65 81 66 82 67 83 68 84 69 85 48 86 49 87 57 88
REMARK SMILES IDX 50 89 56 90 51 91 52 92 53 93 54 94 55 95
REMARK H PARENT 10 9 90 26 90 27 76 51 46 62
REMARK Flexibility Score: inf
ROOT
ATOM      1  C   UNL A   1      34.646  29.826  27.286  1.00  0.00     0.274 C 
ENDROOT
BRANCH   1   2
ATOM      2  O   UNL A   1      33.196  29.817  27.343  1.00  0.00    -0.462 OA
BRANCH   2   3
ATOM      3  C   UNL A   1      32.478  29.621  26.207  1.00  0.00     0.306 C 
ATOM      4  O   UNL A   1      31.731  30.466  25.728  1.00  0.00    -0.252 OA
BRANCH   3   5
ATOM      5  C   UNL A   1      32.601  28.196  25.655  1.00  0.00     0.132 C 
BRANCH   5   6
ATOM      6  C   UNL A   1      32.287  27.908  24.169  1.00  0.00     0.112 C 
BRANCH   6   7
ATOM      7  C   UNL A   1      31.037  27.040  23.907  1.00  0.00     0.225 C 
ATOM      8  N   UNL A   1      31.100  25.691  23.585  1.00  0.00    -0.323 N 
ATOM      9  H   UNL A   1      30.318  25.337  23.104  1.00  0.00     0.170 HD
ATOM     10  O   UNL A   1      29.925  27.583  23.853  1.00  0.00    -0.275 OA
BRANCH   8  11
ATOM     11  C   UNL A   1      32.122  24.751  23.848  1.00  0.00     0.083 A 
ATOM     12  C   UNL A   1      34.518  23.331  24.524  1.00  0.00    -0.014 A 
ATOM     13  C   UNL A   1      34.056  23.389  23.199  1.00  0.00     0.011 A 
ATOM     14  C   UNL A   1      33.614  23.807  25.460  1.00  0.00     0.057 A 
ATOM     15  C   UNL A   1      32.881  24.127  22.856  1.00  0.00     0.031 A 
ATOM     16  C   UNL A   1      32.377  24.335  25.127  1.00  0.00     0.142 A 
BRANCH  12  17
ATOM     17  C   UNL A   1      35.847  22.845  25.008  1.00  0.00    -0.014 A 
ATOM     18  C   UNL A   1      38.135  23.380  25.805  1.00  0.00     0.142 A 
ATOM     19  C   UNL A   1      36.809  23.744  25.540  1.00  0.00     0.057 A 
ATOM     20  C   UNL A   1      38.527  22.048  25.684  1.00  0.00     0.074 A 
ATOM     21  C   UNL A   1      37.590  21.138  25.177  1.00  0.00     0.030 A 
ATOM     22  C   UNL A   1      36.275  21.525  24.847  1.00  0.00     0.011 A 
BRANCH  18  23
ATOM     23  O   UNL A   1      38.952  24.395  26.246  1.00  0.00    -0.495 OA
ATOM     24  C   UNL A   1      38.958  24.569  27.666  1.00  0.00     0.278 C 
ENDBRANCH  18  23
BRANCH  20  25
ATOM     25  N   UNL A   1      39.821  21.629  25.962  1.00  0.00    -0.396 N 
ATOM     26  H   UNL A   1      40.098  21.468  26.892  1.00  0.00     0.156 HD
ATOM     27  H   UNL A   1      40.462  21.493  25.226  1.00  0.00     0.156 HD
ENDBRANCH  20  25
ENDBRANCH  12  17
BRANCH  16  28
ATOM     28  O   UNL A   1      31.460  24.389  26.123  1.00  0.00    -0.495 OA
ATOM     29  C   UNL A   1      30.754  23.171  26.346  1.00  0.00     0.278 C 
ENDBRANCH  16  28
ENDBRANCH   8  11
ENDBRANCH   6   7
ENDBRANCH   5   6
ENDBRANCH   3   5
ENDBRANCH   2   3
ENDBRANCH   1   2
BRANCH   1  30
ATOM     30  C   UNL A   1      35.302  30.810  28.269  1.00  0.00     0.275 C 
BRANCH  30  31
ATOM     31  O   UNL A   1      36.740  30.753  28.260  1.00  0.00    -0.458 OA
BRANCH  31  32
ATOM     32  C   UNL A   1      37.277  29.809  29.041  1.00  0.00     0.338 C 
ATOM     33  O   UNL A   1      36.749  29.186  29.953  1.00  0.00    -0.246 OA
BRANCH  32  34
ATOM     34  C   UNL A   1      38.634  29.478  28.712  1.00  0.00     0.060 A 
ATOM     35  C   UNL A   1      38.945  29.401  27.357  1.00  0.00     0.016 A 
ATOM     36  C   UNL A   1      39.496  29.030  29.717  1.00  0.00     0.016 A 
ATOM     37  C   UNL A   1      40.189  28.940  26.992  1.00  0.00     0.010 A 
ATOM     38  C   UNL A   1      40.763  28.608  29.354  1.00  0.00     0.010 A 
ATOM     39  C   UNL A   1      41.114  28.617  27.997  1.00  0.00    -0.014 A 
BRANCH  39  40
ATOM     40  C   UNL A   1      42.526  28.621  27.605  1.00  0.00     0.031 A 
ATOM     41  C   UNL A   1      43.400  29.784  27.896  1.00  0.00     0.074 A 
ATOM     42  C   UNL A   1      42.959  27.465  27.069  1.00  0.00     0.049 A 
ATOM     43  N   UNL A   1      44.691  29.875  27.748  1.00  0.00    -0.248 NA
ATOM     44  C   UNL A   1      42.754  30.998  28.416  1.00  0.00     0.031 C 
ATOM     45  C   UNL A   1      42.103  26.299  26.794  1.00  0.00     0.029 A 
ATOM     46  N   UNL A   1      44.206  27.046  26.715  1.00  0.00    -0.354 N 
ATOM     47  C   UNL A   1      45.022  31.160  28.151  1.00  0.00     0.074 A 
ATOM     48  C   UNL A   1      43.792  31.817  28.538  1.00  0.00     0.031 C 
ATOM     49  C   UNL A   1      42.862  25.280  26.378  1.00  0.00     0.029 A 
ATOM     50  C   UNL A   1      44.240  25.734  26.308  1.00  0.00     0.049 A 
ATOM     51  H   UNL A   1      45.001  27.625  26.747  1.00  0.00     0.167 HD
ATOM     52  C   UNL A   1      46.254  31.719  28.174  1.00  0.00     0.031 A 
ATOM     53  C   UNL A   1      45.283  24.979  25.927  1.00  0.00     0.031 A 
ATOM     54  C   UNL A   1      47.432  31.014  27.736  1.00  0.00     0.049 A 
ATOM     55  C   UNL A   1      46.631  25.627  25.970  1.00  0.00     0.074 A 
ATOM     56  C   UNL A   1      48.737  31.464  27.667  1.00  0.00     0.029 A 
ATOM     57  N   UNL A   1      47.438  29.696  27.286  1.00  0.00    -0.354 N 
ATOM     58  N   UNL A   1      46.937  26.845  26.355  1.00  0.00    -0.248 NA
ATOM     59  C   UNL A   1      47.769  24.817  25.534  1.00  0.00     0.031 C 
ATOM     60  C   UNL A   1      49.522  30.433  27.137  1.00  0.00     0.029 A 
ATOM     61  C   UNL A   1      48.718  29.322  26.922  1.00  0.00     0.049 A 
ATOM     62  H   UNL A   1      46.645  29.116  27.234  1.00  0.00     0.167 HD
ATOM     63  C   UNL A   1      48.308  26.955  26.206  1.00  0.00     0.074 A 
ATOM     64  C   UNL A   1      48.772  25.664  25.724  1.00  0.00     0.031 C 
ATOM     65  C   UNL A   1      49.113  28.023  26.431  1.00  0.00     0.031 A 
BRANCH  52  66
ATOM     66  C   UNL A   1      46.359  33.150  28.621  1.00  0.00    -0.014 A 
ATOM     67  C   UNL A   1      46.548  33.483  29.975  1.00  0.00     0.010 A 
ATOM     68  C   UNL A   1      46.265  34.185  27.673  1.00  0.00     0.010 A 
ATOM     69  C   UNL A   1      46.601  34.823  30.376  1.00  0.00     0.020 A 
ATOM     70  C   UNL A   1      46.338  35.525  28.067  1.00  0.00     0.020 A 
ATOM     71  C   UNL A   1      46.487  35.835  29.420  1.00  0.00     0.054 A 
BRANCH  71  72
ATOM     72  S   UNL A   1      46.560  37.567  29.963  1.00  0.00     0.124 S 
ATOM     73  O   UNL A   1      45.318  38.107  29.414  1.00  0.00    -0.237 OA
ATOM     74  O   UNL A   1      46.602  37.447  31.418  1.00  0.00    -0.237 OA
ATOM     75  O   UNL A   1      47.785  38.073  29.348  1.00  0.00    -0.744 OA
ENDBRANCH  71  72
ENDBRANCH  52  66
BRANCH  53  76
ATOM     76  C   UNL A   1      45.057  23.578  25.487  1.00  0.00    -0.014 A 
ATOM     77  C   UNL A   1      44.722  23.279  24.157  1.00  0.00     0.010 A 
ATOM     78  C   UNL A   1      45.270  22.518  26.391  1.00  0.00     0.010 A 
ATOM     79  C   UNL A   1      44.596  21.948  23.740  1.00  0.00     0.020 A 
ATOM     80  C   UNL A   1      45.172  21.189  25.973  1.00  0.00     0.020 A 
ATOM     81  C   UNL A   1      44.823  20.912  24.651  1.00  0.00     0.054 A 
BRANCH  81  82
ATOM     82  S   UNL A   1      44.718  19.193  24.080  1.00  0.00     0.124 S 
ATOM     83  O   UNL A   1      44.492  19.363  22.648  1.00  0.00    -0.237 OA
ATOM     84  O   UNL A   1      46.021  18.650  24.456  1.00  0.00    -0.237 OA
ATOM     85  O   UNL A   1      43.589  18.652  24.833  1.00  0.00    -0.744 OA
ENDBRANCH  81  82
ENDBRANCH  53  76
BRANCH  65  86
ATOM     86  C   UNL A   1      50.570  27.811  26.152  1.00  0.00    -0.014 A 
ATOM     87  C   UNL A   1      51.114  28.140  24.898  1.00  0.00     0.010 A 
ATOM     88  C   UNL A   1      51.404  27.311  27.167  1.00  0.00     0.010 A 
ATOM     89  C   UNL A   1      52.471  27.943  24.653  1.00  0.00     0.020 A 
ATOM     90  C   UNL A   1      52.766  27.136  26.932  1.00  0.00     0.020 A 
ATOM     91  C   UNL A   1      53.289  27.440  25.672  1.00  0.00     0.054 A 
BRANCH  91  92
ATOM     92  S   UNL A   1      55.058  27.233  25.346  1.00  0.00     0.124 S 
ATOM     93  O   UNL A   1      55.384  28.475  24.649  1.00  0.00    -0.237 OA
ATOM     94  O   UNL A   1      55.620  27.100  26.688  1.00  0.00    -0.237 OA
ATOM     95  O   UNL A   1      55.118  26.024  24.529  1.00  0.00    -0.744 OA
ENDBRANCH  91  92
ENDBRANCH  65  86
ENDBRANCH  39  40
ENDBRANCH  32  34
ENDBRANCH  31  32
ENDBRANCH  30  31
ENDBRANCH   1  30
TORSDOF 21
ENDMDL
MODEL 3
REMARK VINA RESULT:     -10.3      4.927     10.956
REMARK SMILES COc1cc(-c2ccc(NC(=O)CCC(=O)OCCOC(=O)c3ccc(-c4c5nc(c(-c6ccc(S(=O)(=O)[O-])cc6)c6ccc([nH]6)c(-c6ccc(S(=O)(=O)[O-])cc6)c6nc(c(-c7ccc(S(=O)(=O)[O-])cc7)c7ccc4[nH]7)C=C6)C=C5)cc3)c(OC)c2)ccc1N
REMARK SMILES IDX 18 1 17 2 15 3 16 4 14 5 13 6 11 7 10 8 12 10 9 11 6 12 7 13
REMARK SMILES IDX 86 14 8 15 83 16 5 17 3 18 4 19 89 20 88 21 87 22 2 23 1 24
REMARK SMILES IDX 90 25 84 28 85 29 19 30 20 31 21 32 22 33 23 34 24 35 82 36
REMARK SMILES IDX 25 37 81 38 26 39 27 40 28 41 75 42 29 43 80 44 74 45 76 46
REMARK SMILES IDX 30 47 79 48 73 49 72 50 31 52 61 53 42 54 60 55 43 56 46 57
REMARK SMILES IDX 59 58 77 59 44 60 45 61 58 63 78 64 47 65 32 66 33 67 41 68
REMARK SMILES IDX 34 69 40 70 35 71 36 72 37 73 38 74 39 75 62 76 63 77 71 78
REMARK SMILES IDX 64 79 70 80 65 81 66 82 67 83 68 84 69 85 48 86 49 87 57 88
REMARK SMILES IDX 50 89 56 90 51 91 52 92 53 93 54 94 55 95
REMARK H PARENT 10 9 90 26 90 27 76 51 46 62
REMARK Flexibility Score: inf
ROOT
ATOM      1  C   UNL A   1      34.798  32.846  28.042  1.00  0.00     0.274 C 
ENDROOT
BRANCH   1   2
ATOM      2  O   UNL A   1      35.470  32.643  29.312  1.00  0.00    -0.462 OA
BRANCH   2   3
ATOM      3  C   UNL A   1      36.721  33.137  29.499  1.00  0.00     0.306 C 
ATOM      4  O   UNL A   1      37.654  32.919  28.735  1.00  0.00    -0.252 OA
BRANCH   3   5
ATOM      5  C   UNL A   1      36.879  33.892  30.825  1.00  0.00     0.132 C 
BRANCH   5   6
ATOM      6  C   UNL A   1      35.872  33.662  31.975  1.00  0.00     0.112 C 
BRANCH   6   7
ATOM      7  C   UNL A   1      35.980  34.643  33.163  1.00  0.00     0.225 C 
ATOM      8  N   UNL A   1      36.657  34.346  34.337  1.00  0.00    -0.323 N 
ATOM      9  H   UNL A   1      36.373  34.858  35.127  1.00  0.00     0.170 HD
ATOM     10  O   UNL A   1      35.333  35.699  33.136  1.00  0.00    -0.275 OA
BRANCH   8  11
ATOM     11  C   UNL A   1      37.697  33.415  34.564  1.00  0.00     0.083 A 
ATOM     12  C   UNL A   1      39.644  31.313  34.486  1.00  0.00    -0.014 A 
ATOM     13  C   UNL A   1      38.575  31.281  35.395  1.00  0.00     0.011 A 
ATOM     14  C   UNL A   1      39.788  32.523  33.825  1.00  0.00     0.057 A 
ATOM     15  C   UNL A   1      37.583  32.311  35.410  1.00  0.00     0.031 A 
ATOM     16  C   UNL A   1      38.933  33.598  34.006  1.00  0.00     0.142 A 
BRANCH  12  17
ATOM     17  C   UNL A   1      40.597  30.210  34.154  1.00  0.00    -0.014 A 
ATOM     18  C   UNL A   1      42.940  29.405  34.017  1.00  0.00     0.142 A 
ATOM     19  C   UNL A   1      41.974  30.301  34.490  1.00  0.00     0.057 A 
ATOM     20  C   UNL A   1      42.548  28.278  33.296  1.00  0.00     0.074 A 
ATOM     21  C   UNL A   1      41.192  28.156  32.967  1.00  0.00     0.030 A 
ATOM     22  C   UNL A   1      40.232  29.099  33.387  1.00  0.00     0.011 A 
BRANCH  18  23
ATOM     23  O   UNL A   1      44.237  29.685  34.379  1.00  0.00    -0.495 OA
ATOM     24  C   UNL A   1      44.727  28.895  35.466  1.00  0.00     0.278 C 
ENDBRANCH  18  23
BRANCH  20  25
ATOM     25  N   UNL A   1      43.462  27.343  32.829  1.00  0.00    -0.396 N 
ATOM     26  H   UNL A   1      44.293  27.174  33.328  1.00  0.00     0.156 HD
ATOM     27  H   UNL A   1      43.278  26.849  31.996  1.00  0.00     0.156 HD
ENDBRANCH  20  25
ENDBRANCH  12  17
BRANCH  16  28
ATOM     28  O   UNL A   1      39.403  34.809  33.619  1.00  0.00    -0.495 OA
ATOM     29  C   UNL A   1      40.398  34.761  32.601  1.00  0.00     0.278 C 
ENDBRANCH  16  28
ENDBRANCH   8  11
ENDBRANCH   6   7
ENDBRANCH   5   6
ENDBRANCH   3   5
ENDBRANCH   2   3
ENDBRANCH   1   2
BRANCH   1  30
ATOM     30  C   UNL A   1      33.920  31.663  27.604  1.00  0.00     0.275 C 
BRANCH  30  31
ATOM     31  O   UNL A   1      34.178  30.455  28.345  1.00  0.00    -0.458 OA
BRANCH  31  32
ATOM     32  C   UNL A   1      34.860  29.515  27.680  1.00  0.00     0.338 C 
ATOM     33  O   UNL A   1      34.461  28.767  26.797  1.00  0.00    -0.246 OA
BRANCH  32  34
ATOM     34  C   UNL A   1      36.246  29.429  28.043  1.00  0.00     0.060 A 
ATOM     35  C   UNL A   1      36.528  29.317  29.403  1.00  0.00     0.016 A 
ATOM     36  C   UNL A   1      37.226  29.688  27.082  1.00  0.00     0.016 A 
ATOM     37  C   UNL A   1      37.840  29.385  29.810  1.00  0.00     0.010 A 
ATOM     38  C   UNL A   1      38.550  29.712  27.484  1.00  0.00     0.010 A 
ATOM     39  C   UNL A   1      38.847  29.507  28.840  1.00  0.00    -0.014 A 
BRANCH  39  40
ATOM     40  C   UNL A   1      40.189  29.079  29.239  1.00  0.00     0.031 A 
ATOM     41  C   UNL A   1      40.717  27.747  28.855  1.00  0.00     0.074 A 
ATOM     42  C   UNL A   1      40.908  30.023  29.876  1.00  0.00     0.049 A 
ATOM     43  N   UNL A   1      41.928  27.289  29.004  1.00  0.00    -0.248 NA
ATOM     44  C   UNL A   1      39.777  26.807  28.228  1.00  0.00     0.031 C 
ATOM     45  C   UNL A   1      40.399  31.355  30.244  1.00  0.00     0.029 A 
ATOM     46  N   UNL A   1      42.211  30.049  30.273  1.00  0.00    -0.354 N 
ATOM     47  C   UNL A   1      41.904  26.000  28.494  1.00  0.00     0.074 A 
ATOM     48  C   UNL A   1      40.552  25.744  28.043  1.00  0.00     0.031 C 
ATOM     49  C   UNL A   1      41.397  32.086  30.752  1.00  0.00     0.029 A 
ATOM     50  C   UNL A   1      42.593  31.263  30.792  1.00  0.00     0.049 A 
ATOM     51  H   UNL A   1      42.816  29.277  30.198  1.00  0.00     0.167 HD
ATOM     52  C   UNL A   1      42.933  25.126  28.432  1.00  0.00     0.031 A 
ATOM     53  C   UNL A   1      43.792  31.665  31.244  1.00  0.00     0.031 A 
ATOM     54  C   UNL A   1      44.247  25.438  28.937  1.00  0.00     0.049 A 
ATOM     55  C   UNL A   1      44.909  30.675  31.155  1.00  0.00     0.074 A 
ATOM     56  C   UNL A   1      45.374  24.639  28.976  1.00  0.00     0.029 A 
ATOM     57  N   UNL A   1      44.602  26.661  29.499  1.00  0.00    -0.354 N 
ATOM     58  N   UNL A   1      44.879  29.455  30.668  1.00  0.00    -0.248 NA
ATOM     59  C   UNL A   1      46.213  31.099  31.667  1.00  0.00     0.031 C 
ATOM     60  C   UNL A   1      46.397  25.366  29.598  1.00  0.00     0.029 A 
ATOM     61  C   UNL A   1      45.924  26.635  29.903  1.00  0.00     0.049 A 
ATOM     62  H   UNL A   1      43.999  27.433  29.595  1.00  0.00     0.167 HD
ATOM     63  C   UNL A   1      46.161  28.957  30.817  1.00  0.00     0.074 A 
ATOM     64  C   UNL A   1      46.948  30.025  31.411  1.00  0.00     0.031 C 
ATOM     65  C   UNL A   1      46.647  27.730  30.506  1.00  0.00     0.031 A 
BRANCH  52  66
ATOM     66  C   UNL A   1      42.653  23.762  27.864  1.00  0.00    -0.014 A 
ATOM     67  C   UNL A   1      42.075  22.746  28.647  1.00  0.00     0.010 A 
ATOM     68  C   UNL A   1      42.975  23.487  26.523  1.00  0.00     0.010 A 
ATOM     69  C   UNL A   1      41.861  21.471  28.111  1.00  0.00     0.020 A 
ATOM     70  C   UNL A   1      42.744  22.220  25.977  1.00  0.00     0.020 A 
ATOM     71  C   UNL A   1      42.205  21.214  26.781  1.00  0.00     0.054 A 
BRANCH  71  72
ATOM     72  S   UNL A   1      41.918  19.553  26.107  1.00  0.00     0.124 S 
ATOM     73  O   UNL A   1      42.353  18.701  27.210  1.00  0.00    -0.237 OA
ATOM     74  O   UNL A   1      40.481  19.555  25.844  1.00  0.00    -0.237 OA
ATOM     75  O   UNL A   1      42.765  19.510  24.917  1.00  0.00    -0.744 OA
ENDBRANCH  71  72
ENDBRANCH  52  66
BRANCH  53  76
ATOM     76  C   UNL A   1      43.948  33.034  31.801  1.00  0.00    -0.014 A 
ATOM     77  C   UNL A   1      44.175  34.138  30.963  1.00  0.00     0.010 A 
ATOM     78  C   UNL A   1      43.777  33.251  33.182  1.00  0.00     0.010 A 
ATOM     79  C   UNL A   1      44.236  35.431  31.496  1.00  0.00     0.020 A 
ATOM     80  C   UNL A   1      43.808  34.542  33.714  1.00  0.00     0.020 A 
ATOM     81  C   UNL A   1      44.051  35.625  32.869  1.00  0.00     0.054 A 
BRANCH  81  82
ATOM     82  S   UNL A   1      44.068  37.312  33.535  1.00  0.00     0.124 S 
ATOM     83  O   UNL A   1      42.804  37.363  34.262  1.00  0.00    -0.237 OA
ATOM     84  O   UNL A   1      45.275  37.319  34.359  1.00  0.00    -0.237 OA
ATOM     85  O   UNL A   1      44.138  38.150  32.340  1.00  0.00    -0.744 OA
ENDBRANCH  81  82
ENDBRANCH  53  76
BRANCH  65  86
ATOM     86  C   UNL A   1      48.096  27.506  30.813  1.00  0.00    -0.014 A 
ATOM     87  C   UNL A   1      49.082  27.760  29.844  1.00  0.00     0.010 A 
ATOM     88  C   UNL A   1      48.473  27.070  32.096  1.00  0.00     0.010 A 
ATOM     89  C   UNL A   1      50.427  27.553  30.145  1.00  0.00     0.020 A 
ATOM     90  C   UNL A   1      49.818  26.885  32.406  1.00  0.00     0.020 A 
ATOM     91  C   UNL A   1      50.786  27.115  31.425  1.00  0.00     0.054 A 
BRANCH  91  92
ATOM     92  S   UNL A   1      52.542  26.894  31.808  1.00  0.00     0.124 S 
ATOM     93  O   UNL A   1      52.897  28.199  32.359  1.00  0.00    -0.237 OA
ATOM     94  O   UNL A   1      52.527  25.791  32.766  1.00  0.00    -0.237 OA
ATOM     95  O   UNL A   1      53.140  26.579  30.513  1.00  0.00    -0.744 OA
ENDBRANCH  91  92
ENDBRANCH  65  86
ENDBRANCH  39  40
ENDBRANCH  32  34
ENDBRANCH  31  32
ENDBRANCH  30  31
ENDBRANCH   1  30
TORSDOF 21
ENDMDL
