MODEL 1
REMARK VINA RESULT:     -10.8      0.000      0.000
REMARK SMILES Cc1nc(=O)[nH]c(C)c1CC(=O)N1CC[C@H](C(=O)OCCOC(=O)c2ccc(-c3c4nc(c(-c5ccc(S(=O)(=O)[O-])cc5)c5ccc([nH]5)c(-c5ccc(S(=O)(=O)[O-])cc5)c5nc(c(-c6ccc(S(=O)(=O)[O-])cc6)c6ccc3[nH]6)C=C5)C=C4)cc2)[C@@H]1C
REMARK SMILES IDX 20 1 19 2 17 3 18 4 16 5 13 6 14 7 85 8 15 9 86 10 11 11
REMARK SMILES IDX 12 12 10 13 9 14 1 15 2 16 3 17 4 18 7 19 5 20 6 21 8 22
REMARK SMILES IDX 21 24 22 25 23 26 24 27 25 28 26 29 84 30 27 31 83 32 28 33
REMARK SMILES IDX 29 34 30 35 77 36 31 37 82 38 76 39 78 40 32 41 81 42 75 43
REMARK SMILES IDX 74 44 33 46 63 47 44 48 62 49 45 50 48 51 61 52 79 53 46 54
REMARK SMILES IDX 47 55 60 57 80 58 49 59 34 60 35 61 43 62 36 63 42 64 37 65
REMARK SMILES IDX 38 66 39 67 40 68 41 69 64 70 65 71 73 72 66 73 72 74 67 75
REMARK SMILES IDX 68 76 69 77 70 78 71 79 50 80 51 81 59 82 52 83 58 84 53 85
REMARK SMILES IDX 54 86 55 87 56 88 57 89
REMARK H PARENT 6 23 78 45 48 56
REMARK Flexibility Score: inf
ROOT
ATOM      1  C   UNL A   1      31.907  29.997  25.812  1.00  0.00     0.274 C 
ENDROOT
BRANCH   1   2
ATOM      2  O   UNL A   1      32.886  29.594  24.832  1.00  0.00    -0.462 OA
BRANCH   2   3
ATOM      3  C   UNL A   1      32.693  28.392  24.234  1.00  0.00     0.311 C 
ATOM      4  O   UNL A   1      33.263  28.024  23.214  1.00  0.00    -0.252 OA
BRANCH   3   5
ATOM      5  C   UNL A   1      31.665  27.528  24.944  1.00  0.00     0.123 C 
ATOM      6  N   UNL A   1      31.451  25.201  25.405  1.00  0.00    -0.339 N 
ATOM      7  C   UNL A   1      30.916  25.398  24.076  1.00  0.00     0.121 C 
ATOM      8  C   UNL A   1      32.228  26.385  25.803  1.00  0.00     0.096 C 
ATOM      9  C   UNL A   1      30.599  26.875  24.057  1.00  0.00     0.039 C 
ATOM     10  C   UNL A   1      33.727  26.140  25.614  1.00  0.00     0.032 C 
BRANCH   6  11
ATOM     11  C   UNL A   1      31.244  23.998  26.037  1.00  0.00     0.227 C 
ATOM     12  O   UNL A   1      30.670  23.951  27.131  1.00  0.00    -0.275 OA
BRANCH  11  13
ATOM     13  C   UNL A   1      31.896  22.714  25.513  1.00  0.00     0.139 C 
BRANCH  13  14
ATOM     14  C   UNL A   1      33.387  22.623  25.539  1.00  0.00     0.002 A 
ATOM     15  C   UNL A   1      33.586  23.044  22.945  1.00  0.00     0.067 C 
ATOM     16  C   UNL A   1      34.212  22.692  24.285  1.00  0.00     0.049 A 
ATOM     17  N   UNL A   1      35.482  22.438  24.234  1.00  0.00    -0.198 NA
ATOM     18  C   UNL A   1      36.144  22.115  25.378  1.00  0.00     0.345 A 
ATOM     19  C   UNL A   1      34.104  22.413  26.660  1.00  0.00     0.022 A 
ATOM     20  O   UNL A   1      37.327  21.775  25.400  1.00  0.00    -0.246 OA
ATOM     21  N   UNL A   1      35.450  22.169  26.556  1.00  0.00    -0.310 N 
ATOM     22  C   UNL A   1      33.542  22.279  28.051  1.00  0.00     0.065 C 
ATOM     23  H   UNL A   1      35.952  22.024  27.389  1.00  0.00     0.171 HD
ENDBRANCH  13  14
ENDBRANCH  11  13
ENDBRANCH   6  11
ENDBRANCH   3   5
ENDBRANCH   2   3
ENDBRANCH   1   2
BRANCH   1  24
ATOM     24  C   UNL A   1      32.581  30.728  26.969  1.00  0.00     0.275 C 
BRANCH  24  25
ATOM     25  O   UNL A   1      33.737  29.995  27.407  1.00  0.00    -0.458 OA
BRANCH  25  26
ATOM     26  C   UNL A   1      34.607  30.734  28.130  1.00  0.00     0.338 C 
ATOM     27  O   UNL A   1      34.387  31.792  28.696  1.00  0.00    -0.246 OA
BRANCH  26  28
ATOM     28  C   UNL A   1      35.883  30.026  28.272  1.00  0.00     0.060 A 
ATOM     29  C   UNL A   1      36.192  29.461  29.508  1.00  0.00     0.016 A 
ATOM     30  C   UNL A   1      36.846  30.108  27.273  1.00  0.00     0.016 A 
ATOM     31  C   UNL A   1      37.498  29.122  29.813  1.00  0.00     0.010 A 
ATOM     32  C   UNL A   1      38.138  29.645  27.540  1.00  0.00     0.010 A 
ATOM     33  C   UNL A   1      38.485  29.196  28.827  1.00  0.00    -0.014 A 
BRANCH  33  34
ATOM     34  C   UNL A   1      39.876  28.819  29.179  1.00  0.00     0.031 A 
ATOM     35  C   UNL A   1      40.746  29.770  29.955  1.00  0.00     0.074 A 
ATOM     36  C   UNL A   1      40.331  27.596  28.837  1.00  0.00     0.049 A 
ATOM     37  N   UNL A   1      42.001  29.641  30.297  1.00  0.00    -0.248 NA
ATOM     38  C   UNL A   1      40.134  31.035  30.396  1.00  0.00     0.031 C 
ATOM     39  C   UNL A   1      39.559  26.570  28.125  1.00  0.00     0.029 A 
ATOM     40  N   UNL A   1      41.543  26.997  29.056  1.00  0.00    -0.354 N 
ATOM     41  C   UNL A   1      42.343  30.824  30.944  1.00  0.00     0.074 A 
ATOM     42  C   UNL A   1      41.166  31.663  30.941  1.00  0.00     0.031 C 
ATOM     43  C   UNL A   1      40.298  25.458  28.011  1.00  0.00     0.029 A 
ATOM     44  C   UNL A   1      41.623  25.718  28.557  1.00  0.00     0.049 A 
ATOM     45  H   UNL A   1      42.286  27.440  29.527  1.00  0.00     0.167 HD
ATOM     46  C   UNL A   1      43.534  31.174  31.485  1.00  0.00     0.031 A 
ATOM     47  C   UNL A   1      42.658  24.860  28.512  1.00  0.00     0.031 A 
ATOM     48  C   UNL A   1      44.689  30.313  31.506  1.00  0.00     0.049 A 
ATOM     49  C   UNL A   1      43.976  25.298  29.084  1.00  0.00     0.074 A 
ATOM     50  C   UNL A   1      45.932  30.559  32.061  1.00  0.00     0.029 A 
ATOM     51  N   UNL A   1      44.743  29.043  30.951  1.00  0.00    -0.354 N 
ATOM     52  N   UNL A   1      44.280  26.421  29.692  1.00  0.00    -0.248 NA
ATOM     53  C   UNL A   1      45.091  24.352  28.963  1.00  0.00     0.031 C 
ATOM     54  C   UNL A   1      46.759  29.466  31.781  1.00  0.00     0.029 A 
ATOM     55  C   UNL A   1      46.009  28.507  31.120  1.00  0.00     0.049 A 
ATOM     56  H   UNL A   1      43.994  28.590  30.503  1.00  0.00     0.167 HD
ATOM     57  C   UNL A   1      45.618  26.302  30.052  1.00  0.00     0.074 A 
ATOM     58  C   UNL A   1      46.049  24.988  29.621  1.00  0.00     0.031 C 
ATOM     59  C   UNL A   1      46.421  27.200  30.676  1.00  0.00     0.031 A 
BRANCH  46  60
ATOM     60  C   UNL A   1      43.673  32.562  32.057  1.00  0.00    -0.014 A 
ATOM     61  C   UNL A   1      43.437  32.833  33.416  1.00  0.00     0.010 A 
ATOM     62  C   UNL A   1      44.125  33.602  31.221  1.00  0.00     0.010 A 
ATOM     63  C   UNL A   1      43.632  34.121  33.923  1.00  0.00     0.020 A 
ATOM     64  C   UNL A   1      44.348  34.884  31.731  1.00  0.00     0.020 A 
ATOM     65  C   UNL A   1      44.091  35.138  33.079  1.00  0.00     0.054 A 
BRANCH  65  66
ATOM     66  S   UNL A   1      44.395  36.783  33.780  1.00  0.00     0.124 S 
ATOM     67  O   UNL A   1      45.722  37.095  33.254  1.00  0.00    -0.237 OA
ATOM     68  O   UNL A   1      43.299  37.572  33.224  1.00  0.00    -0.237 OA
ATOM     69  O   UNL A   1      44.334  36.564  35.223  1.00  0.00    -0.744 OA
ENDBRANCH  65  66
ENDBRANCH  46  60
BRANCH  47  70
ATOM     70  C   UNL A   1      42.507  23.525  27.869  1.00  0.00    -0.014 A 
ATOM     71  C   UNL A   1      41.905  22.460  28.561  1.00  0.00     0.010 A 
ATOM     72  C   UNL A   1      42.995  23.303  26.568  1.00  0.00     0.010 A 
ATOM     73  C   UNL A   1      41.833  21.189  27.982  1.00  0.00     0.020 A 
ATOM     74  C   UNL A   1      42.889  22.046  25.970  1.00  0.00     0.020 A 
ATOM     75  C   UNL A   1      42.329  20.991  26.691  1.00  0.00     0.054 A 
BRANCH  75  76
ATOM     76  S   UNL A   1      42.224  19.335  25.958  1.00  0.00     0.124 S 
ATOM     77  O   UNL A   1      40.787  19.193  25.739  1.00  0.00    -0.237 OA
ATOM     78  O   UNL A   1      43.039  19.471  24.753  1.00  0.00    -0.237 OA
ATOM     79  O   UNL A   1      42.789  18.468  26.989  1.00  0.00    -0.744 OA
ENDBRANCH  75  76
ENDBRANCH  47  70
BRANCH  59  80
ATOM     80  C   UNL A   1      47.830  26.759  30.966  1.00  0.00    -0.014 A 
ATOM     81  C   UNL A   1      48.165  26.113  32.171  1.00  0.00     0.010 A 
ATOM     82  C   UNL A   1      48.840  27.009  30.019  1.00  0.00     0.010 A 
ATOM     83  C   UNL A   1      49.495  25.792  32.453  1.00  0.00     0.020 A 
ATOM     84  C   UNL A   1      50.165  26.653  30.281  1.00  0.00     0.020 A 
ATOM     85  C   UNL A   1      50.488  26.073  31.510  1.00  0.00     0.054 A 
BRANCH  85  86
ATOM     86  S   UNL A   1      52.208  25.664  31.905  1.00  0.00     0.124 S 
ATOM     87  O   UNL A   1      52.123  24.232  32.179  1.00  0.00    -0.237 OA
ATOM     88  O   UNL A   1      52.915  26.029  30.679  1.00  0.00    -0.237 OA
ATOM     89  O   UNL A   1      52.507  26.505  33.062  1.00  0.00    -0.744 OA
ENDBRANCH  85  86
ENDBRANCH  59  80
ENDBRANCH  33  34
ENDBRANCH  26  28
ENDBRANCH  25  26
ENDBRANCH  24  25
ENDBRANCH   1  24
TORSDOF 17
ENDMDL
MODEL 2
REMARK VINA RESULT:     -10.7      3.060      7.766
REMARK SMILES Cc1nc(=O)[nH]c(C)c1CC(=O)N1CC[C@H](C(=O)OCCOC(=O)c2ccc(-c3c4nc(c(-c5ccc(S(=O)(=O)[O-])cc5)c5ccc([nH]5)c(-c5ccc(S(=O)(=O)[O-])cc5)c5nc(c(-c6ccc(S(=O)(=O)[O-])cc6)c6ccc3[nH]6)C=C5)C=C4)cc2)[C@@H]1C
REMARK SMILES IDX 20 1 19 2 17 3 18 4 16 5 13 6 14 7 85 8 15 9 86 10 11 11
REMARK SMILES IDX 12 12 10 13 9 14 1 15 2 16 3 17 4 18 7 19 5 20 6 21 8 22
REMARK SMILES IDX 21 24 22 25 23 26 24 27 25 28 26 29 84 30 27 31 83 32 28 33
REMARK SMILES IDX 29 34 30 35 77 36 31 37 82 38 76 39 78 40 32 41 81 42 75 43
REMARK SMILES IDX 74 44 33 46 63 47 44 48 62 49 45 50 48 51 61 52 79 53 46 54
REMARK SMILES IDX 47 55 60 57 80 58 49 59 34 60 35 61 43 62 36 63 42 64 37 65
REMARK SMILES IDX 38 66 39 67 40 68 41 69 64 70 65 71 73 72 66 73 72 74 67 75
REMARK SMILES IDX 68 76 69 77 70 78 71 79 50 80 51 81 59 82 52 83 58 84 53 85
REMARK SMILES IDX 54 86 55 87 56 88 57 89
REMARK H PARENT 6 23 78 45 48 56
REMARK Flexibility Score: inf
ROOT
ATOM      1  C   UNL A   1      36.204  20.696  25.098  1.00  0.00     0.274 C 
ENDROOT
BRANCH   1   2
ATOM      2  O   UNL A   1      35.494  21.487  26.074  1.00  0.00    -0.462 OA
BRANCH   2   3
ATOM      3  C   UNL A   1      34.211  21.811  25.781  1.00  0.00     0.311 C 
ATOM      4  O   UNL A   1      33.275  21.723  26.568  1.00  0.00    -0.252 OA
BRANCH   3   5
ATOM      5  C   UNL A   1      34.024  22.283  24.350  1.00  0.00     0.123 C 
ATOM      6  N   UNL A   1      33.110  24.230  23.325  1.00  0.00    -0.339 N 
ATOM      7  C   UNL A   1      31.993  23.344  23.572  1.00  0.00     0.121 C 
ATOM      8  C   UNL A   1      34.277  23.779  24.098  1.00  0.00     0.096 C 
ATOM      9  C   UNL A   1      32.659  21.996  23.714  1.00  0.00     0.039 C 
ATOM     10  C   UNL A   1      34.438  24.609  25.374  1.00  0.00     0.032 C 
BRANCH   6  11
ATOM     11  C   UNL A   1      32.923  25.332  22.525  1.00  0.00     0.227 C 
ATOM     12  O   UNL A   1      33.642  25.522  21.536  1.00  0.00    -0.275 OA
BRANCH  11  13
ATOM     13  C   UNL A   1      31.970  26.456  22.947  1.00  0.00     0.139 C 
BRANCH  13  14
ATOM     14  C   UNL A   1      32.451  27.440  23.961  1.00  0.00     0.002 A 
ATOM     15  C   UNL A   1      30.936  26.417  25.860  1.00  0.00     0.067 C 
ATOM     16  C   UNL A   1      31.890  27.487  25.355  1.00  0.00     0.049 A 
ATOM     17  N   UNL A   1      32.140  28.430  26.209  1.00  0.00    -0.198 NA
ATOM     18  C   UNL A   1      32.985  29.439  25.861  1.00  0.00     0.345 A 
ATOM     19  C   UNL A   1      33.368  28.393  23.704  1.00  0.00     0.022 A 
ATOM     20  O   UNL A   1      33.203  30.414  26.580  1.00  0.00    -0.246 OA
ATOM     21  N   UNL A   1      33.613  29.357  24.648  1.00  0.00    -0.310 N 
ATOM     22  C   UNL A   1      34.078  28.597  22.391  1.00  0.00     0.065 C 
ATOM     23  H   UNL A   1      34.290  30.039  24.438  1.00  0.00     0.171 HD
ENDBRANCH  13  14
ENDBRANCH  11  13
ENDBRANCH   6  11
ENDBRANCH   3   5
ENDBRANCH   2   3
ENDBRANCH   1   2
BRANCH   1  24
ATOM     24  C   UNL A   1      37.586  21.285  24.837  1.00  0.00     0.275 C 
BRANCH  24  25
ATOM     25  O   UNL A   1      37.939  22.199  25.889  1.00  0.00    -0.458 OA
BRANCH  25  26
ATOM     26  C   UNL A   1      39.208  22.058  26.329  1.00  0.00     0.338 C 
ATOM     27  O   UNL A   1      39.957  21.114  26.138  1.00  0.00    -0.246 OA
BRANCH  26  28
ATOM     28  C   UNL A   1      39.656  23.284  26.996  1.00  0.00     0.060 A 
ATOM     29  C   UNL A   1      39.214  24.508  26.497  1.00  0.00     0.016 A 
ATOM     30  C   UNL A   1      40.663  23.235  27.953  1.00  0.00     0.016 A 
ATOM     31  C   UNL A   1      39.877  25.676  26.826  1.00  0.00     0.010 A 
ATOM     32  C   UNL A   1      41.246  24.431  28.382  1.00  0.00     0.010 A 
ATOM     33  C   UNL A   1      40.893  25.655  27.785  1.00  0.00    -0.014 A 
BRANCH  33  34
ATOM     34  C   UNL A   1      41.581  26.923  28.125  1.00  0.00     0.031 A 
ATOM     35  C   UNL A   1      40.810  28.065  28.730  1.00  0.00     0.074 A 
ATOM     36  C   UNL A   1      42.912  27.020  27.930  1.00  0.00     0.049 A 
ATOM     37  N   UNL A   1      41.227  29.267  29.034  1.00  0.00    -0.248 NA
ATOM     38  C   UNL A   1      39.386  27.835  29.024  1.00  0.00     0.031 C 
ATOM     39  C   UNL A   1      43.773  25.958  27.394  1.00  0.00     0.029 A 
ATOM     40  N   UNL A   1      43.781  28.050  28.176  1.00  0.00    -0.354 N 
ATOM     41  C   UNL A   1      40.110  29.950  29.503  1.00  0.00     0.074 A 
ATOM     42  C   UNL A   1      38.995  29.033  29.437  1.00  0.00     0.031 C 
ATOM     43  C   UNL A   1      45.047  26.375  27.398  1.00  0.00     0.029 A 
ATOM     44  C   UNL A   1      45.086  27.759  27.849  1.00  0.00     0.049 A 
ATOM     45  H   UNL A   1      43.499  28.915  28.552  1.00  0.00     0.167 HD
ATOM     46  C   UNL A   1      40.028  31.228  29.942  1.00  0.00     0.031 A 
ATOM     47  C   UNL A   1      46.186  28.532  27.875  1.00  0.00     0.031 A 
ATOM     48  C   UNL A   1      41.155  32.120  30.029  1.00  0.00     0.049 A 
ATOM     49  C   UNL A   1      46.050  29.958  28.328  1.00  0.00     0.074 A 
ATOM     50  C   UNL A   1      41.185  33.423  30.493  1.00  0.00     0.029 A 
ATOM     51  N   UNL A   1      42.451  31.803  29.646  1.00  0.00    -0.354 N 
ATOM     52  N   UNL A   1      44.985  30.586  28.768  1.00  0.00    -0.248 NA
ATOM     53  C   UNL A   1      47.265  30.778  28.287  1.00  0.00     0.031 C 
ATOM     54  C   UNL A   1      42.483  33.917  30.328  1.00  0.00     0.029 A 
ATOM     55  C   UNL A   1      43.280  32.897  29.832  1.00  0.00     0.049 A 
ATOM     56  H   UNL A   1      42.738  30.931  29.294  1.00  0.00     0.167 HD
ATOM     57  C   UNL A   1      45.411  31.871  29.084  1.00  0.00     0.074 A 
ATOM     58  C   UNL A   1      46.834  31.914  28.814  1.00  0.00     0.031 C 
ATOM     59  C   UNL A   1      44.692  32.923  29.549  1.00  0.00     0.031 A 
BRANCH  46  60
ATOM     60  C   UNL A   1      38.669  31.763  30.317  1.00  0.00    -0.014 A 
ATOM     61  C   UNL A   1      38.169  31.668  31.628  1.00  0.00     0.010 A 
ATOM     62  C   UNL A   1      37.911  32.445  29.345  1.00  0.00     0.010 A 
ATOM     63  C   UNL A   1      36.929  32.228  31.953  1.00  0.00     0.020 A 
ATOM     64  C   UNL A   1      36.685  33.029  29.673  1.00  0.00     0.020 A 
ATOM     65  C   UNL A   1      36.198  32.909  30.975  1.00  0.00     0.054 A 
BRANCH  65  66
ATOM     66  S   UNL A   1      34.623  33.678  31.442  1.00  0.00     0.124 S 
ATOM     67  O   UNL A   1      35.066  34.931  32.049  1.00  0.00    -0.237 OA
ATOM     68  O   UNL A   1      33.940  33.810  30.157  1.00  0.00    -0.237 OA
ATOM     69  O   UNL A   1      34.026  32.716  32.366  1.00  0.00    -0.744 OA
ENDBRANCH  65  66
ENDBRANCH  46  60
BRANCH  47  70
ATOM     70  C   UNL A   1      47.499  27.993  27.423  1.00  0.00    -0.014 A 
ATOM     71  C   UNL A   1      47.898  28.108  26.080  1.00  0.00     0.010 A 
ATOM     72  C   UNL A   1      48.347  27.333  28.332  1.00  0.00     0.010 A 
ATOM     73  C   UNL A   1      49.097  27.536  25.646  1.00  0.00     0.020 A 
ATOM     74  C   UNL A   1      49.565  26.794  27.911  1.00  0.00     0.020 A 
ATOM     75  C   UNL A   1      49.921  26.879  26.564  1.00  0.00     0.054 A 
BRANCH  75  76
ATOM     76  S   UNL A   1      51.473  26.145  25.979  1.00  0.00     0.124 S 
ATOM     77  O   UNL A   1      52.464  27.088  26.490  1.00  0.00    -0.237 OA
ATOM     78  O   UNL A   1      51.460  24.831  26.618  1.00  0.00    -0.237 OA
ATOM     79  O   UNL A   1      51.316  26.126  24.527  1.00  0.00    -0.744 OA
ENDBRANCH  75  76
ENDBRANCH  47  70
BRANCH  59  80
ATOM     80  C   UNL A   1      45.454  34.189  29.836  1.00  0.00    -0.014 A 
ATOM     81  C   UNL A   1      45.660  35.163  28.842  1.00  0.00     0.010 A 
ATOM     82  C   UNL A   1      45.986  34.398  31.121  1.00  0.00     0.010 A 
ATOM     83  C   UNL A   1      46.444  36.288  29.108  1.00  0.00     0.020 A 
ATOM     84  C   UNL A   1      46.737  35.542  31.403  1.00  0.00     0.020 A 
ATOM     85  C   UNL A   1      46.986  36.464  30.386  1.00  0.00     0.054 A 
BRANCH  85  86
ATOM     86  S   UNL A   1      48.014  37.922  30.704  1.00  0.00     0.124 S 
ATOM     87  O   UNL A   1      47.075  39.014  30.462  1.00  0.00    -0.237 OA
ATOM     88  O   UNL A   1      48.416  37.734  32.096  1.00  0.00    -0.237 OA
ATOM     89  O   UNL A   1      49.096  37.802  29.728  1.00  0.00    -0.744 OA
ENDBRANCH  85  86
ENDBRANCH  59  80
ENDBRANCH  33  34
ENDBRANCH  26  28
ENDBRANCH  25  26
ENDBRANCH  24  25
ENDBRANCH   1  24
TORSDOF 17
ENDMDL
MODEL 3
REMARK VINA RESULT:     -10.7      2.503      9.350
REMARK SMILES Cc1nc(=O)[nH]c(C)c1CC(=O)N1CC[C@H](C(=O)OCCOC(=O)c2ccc(-c3c4nc(c(-c5ccc(S(=O)(=O)[O-])cc5)c5ccc([nH]5)c(-c5ccc(S(=O)(=O)[O-])cc5)c5nc(c(-c6ccc(S(=O)(=O)[O-])cc6)c6ccc3[nH]6)C=C5)C=C4)cc2)[C@@H]1C
REMARK SMILES IDX 20 1 19 2 17 3 18 4 16 5 13 6 14 7 85 8 15 9 86 10 11 11
REMARK SMILES IDX 12 12 10 13 9 14 1 15 2 16 3 17 4 18 7 19 5 20 6 21 8 22
REMARK SMILES IDX 21 24 22 25 23 26 24 27 25 28 26 29 84 30 27 31 83 32 28 33
REMARK SMILES IDX 29 34 30 35 77 36 31 37 82 38 76 39 78 40 32 41 81 42 75 43
REMARK SMILES IDX 74 44 33 46 63 47 44 48 62 49 45 50 48 51 61 52 79 53 46 54
REMARK SMILES IDX 47 55 60 57 80 58 49 59 34 60 35 61 43 62 36 63 42 64 37 65
REMARK SMILES IDX 38 66 39 67 40 68 41 69 64 70 65 71 73 72 66 73 72 74 67 75
REMARK SMILES IDX 68 76 69 77 70 78 71 79 50 80 51 81 59 82 52 83 58 84 53 85
REMARK SMILES IDX 54 86 55 87 56 88 57 89
REMARK H PARENT 6 23 78 45 48 56
REMARK Flexibility Score: inf
ROOT
ATOM      1  C   UNL A   1      36.177  21.164  24.904  1.00  0.00     0.274 C 
ENDROOT
BRANCH   1   2
ATOM      2  O   UNL A   1      35.505  22.060  25.813  1.00  0.00    -0.462 OA
BRANCH   2   3
ATOM      3  C   UNL A   1      34.195  22.310  25.567  1.00  0.00     0.311 C 
ATOM      4  O   UNL A   1      33.308  22.257  26.410  1.00  0.00    -0.252 OA
BRANCH   3   5
ATOM      5  C   UNL A   1      33.912  22.647  24.114  1.00  0.00     0.123 C 
ATOM      6  N   UNL A   1      32.958  24.508  22.972  1.00  0.00    -0.339 N 
ATOM      7  C   UNL A   1      31.848  23.676  23.383  1.00  0.00     0.121 C 
ATOM      8  C   UNL A   1      34.170  24.106  23.701  1.00  0.00     0.096 C 
ATOM      9  C   UNL A   1      32.500  22.333  23.607  1.00  0.00     0.039 C 
ATOM     10  C   UNL A   1      34.437  25.051  24.875  1.00  0.00     0.032 C 
BRANCH   6  11
ATOM     11  C   UNL A   1      32.732  25.533  22.084  1.00  0.00     0.227 C 
ATOM     12  O   UNL A   1      33.343  25.582  21.010  1.00  0.00    -0.275 OA
BRANCH  11  13
ATOM     13  C   UNL A   1      31.882  26.744  22.483  1.00  0.00     0.139 C 
BRANCH  13  14
ATOM     14  C   UNL A   1      32.327  27.558  23.653  1.00  0.00     0.002 A 
ATOM     15  C   UNL A   1      30.464  26.555  25.224  1.00  0.00     0.067 C 
ATOM     16  C   UNL A   1      31.590  27.541  24.963  1.00  0.00     0.049 A 
ATOM     17  N   UNL A   1      31.825  28.359  25.942  1.00  0.00    -0.198 NA
ATOM     18  C   UNL A   1      32.817  29.282  25.816  1.00  0.00     0.345 A 
ATOM     19  C   UNL A   1      33.371  28.409  23.620  1.00  0.00     0.022 A 
ATOM     20  O   UNL A   1      33.042  30.149  26.660  1.00  0.00    -0.246 OA
ATOM     21  N   UNL A   1      33.591  29.240  24.688  1.00  0.00    -0.310 N 
ATOM     22  C   UNL A   1      34.272  28.648  22.436  1.00  0.00     0.065 C 
ATOM     23  H   UNL A   1      34.362  29.849  24.642  1.00  0.00     0.171 HD
ENDBRANCH  13  14
ENDBRANCH  11  13
ENDBRANCH   6  11
ENDBRANCH   3   5
ENDBRANCH   2   3
ENDBRANCH   1   2
BRANCH   1  24
ATOM     24  C   UNL A   1      37.687  21.375  24.966  1.00  0.00     0.275 C 
BRANCH  24  25
ATOM     25  O   UNL A   1      37.979  22.703  25.433  1.00  0.00    -0.458 OA
BRANCH  25  26
ATOM     26  C   UNL A   1      39.080  22.775  26.212  1.00  0.00     0.338 C 
ATOM     27  O   UNL A   1      39.943  21.924  26.356  1.00  0.00    -0.246 OA
BRANCH  26  28
ATOM     28  C   UNL A   1      39.198  24.110  26.807  1.00  0.00     0.060 A 
ATOM     29  C   UNL A   1      39.889  25.091  26.099  1.00  0.00     0.016 A 
ATOM     30  C   UNL A   1      38.826  24.325  28.129  1.00  0.00     0.016 A 
ATOM     31  C   UNL A   1      40.352  26.222  26.745  1.00  0.00     0.010 A 
ATOM     32  C   UNL A   1      39.184  25.528  28.745  1.00  0.00     0.010 A 
ATOM     33  C   UNL A   1      39.993  26.463  28.073  1.00  0.00    -0.014 A 
BRANCH  33  34
ATOM     34  C   UNL A   1      40.498  27.688  28.740  1.00  0.00     0.031 A 
ATOM     35  C   UNL A   1      41.930  27.768  29.195  1.00  0.00     0.074 A 
ATOM     36  C   UNL A   1      39.670  28.742  28.888  1.00  0.00     0.049 A 
ATOM     37  N   UNL A   1      42.531  28.727  29.850  1.00  0.00    -0.248 NA
ATOM     38  C   UNL A   1      42.800  26.620  28.887  1.00  0.00     0.031 C 
ATOM     39  C   UNL A   1      38.273  28.797  28.440  1.00  0.00     0.029 A 
ATOM     40  N   UNL A   1      39.884  29.979  29.435  1.00  0.00    -0.354 N 
ATOM     41  C   UNL A   1      43.827  28.279  30.077  1.00  0.00     0.074 A 
ATOM     42  C   UNL A   1      43.926  26.958  29.498  1.00  0.00     0.031 C 
ATOM     43  C   UNL A   1      37.775  30.016  28.687  1.00  0.00     0.029 A 
ATOM     44  C   UNL A   1      38.781  30.799  29.391  1.00  0.00     0.049 A 
ATOM     45  H   UNL A   1      40.746  30.255  29.824  1.00  0.00     0.167 HD
ATOM     46  C   UNL A   1      44.838  28.915  30.716  1.00  0.00     0.031 A 
ATOM     47  C   UNL A   1      38.587  32.033  29.891  1.00  0.00     0.031 A 
ATOM     48  C   UNL A   1      44.731  30.244  31.261  1.00  0.00     0.049 A 
ATOM     49  C   UNL A   1      39.717  32.690  30.631  1.00  0.00     0.074 A 
ATOM     50  C   UNL A   1      45.707  30.992  31.896  1.00  0.00     0.029 A 
ATOM     51  N   UNL A   1      43.584  31.024  31.235  1.00  0.00    -0.354 N 
ATOM     52  N   UNL A   1      40.937  32.251  30.836  1.00  0.00    -0.248 NA
ATOM     53  C   UNL A   1      39.443  34.012  31.207  1.00  0.00     0.031 C 
ATOM     54  C   UNL A   1      45.132  32.195  32.315  1.00  0.00     0.029 A 
ATOM     55  C   UNL A   1      43.819  32.231  31.873  1.00  0.00     0.049 A 
ATOM     56  H   UNL A   1      42.730  30.759  30.825  1.00  0.00     0.167 HD
ATOM     57  C   UNL A   1      41.585  33.258  31.542  1.00  0.00     0.074 A 
ATOM     58  C   UNL A   1      40.630  34.337  31.697  1.00  0.00     0.031 C 
ATOM     59  C   UNL A   1      42.852  33.288  32.025  1.00  0.00     0.031 A 
BRANCH  46  60
ATOM     60  C   UNL A   1      46.134  28.170  30.909  1.00  0.00    -0.014 A 
ATOM     61  C   UNL A   1      46.337  27.299  31.993  1.00  0.00     0.010 A 
ATOM     62  C   UNL A   1      47.143  28.293  29.934  1.00  0.00     0.010 A 
ATOM     63  C   UNL A   1      47.531  26.580  32.109  1.00  0.00     0.020 A 
ATOM     64  C   UNL A   1      48.326  27.556  30.031  1.00  0.00     0.020 A 
ATOM     65  C   UNL A   1      48.516  26.709  31.124  1.00  0.00     0.054 A 
BRANCH  65  66
ATOM     66  S   UNL A   1      50.028  25.717  31.267  1.00  0.00     0.124 S 
ATOM     67  O   UNL A   1      51.037  26.740  31.528  1.00  0.00    -0.237 OA
ATOM     68  O   UNL A   1      49.724  24.835  32.392  1.00  0.00    -0.237 OA
ATOM     69  O   UNL A   1      50.135  25.054  29.970  1.00  0.00    -0.744 OA
ENDBRANCH  65  66
ENDBRANCH  46  60
BRANCH  47  70
ATOM     70  C   UNL A   1      37.267  32.708  29.750  1.00  0.00    -0.014 A 
ATOM     71  C   UNL A   1      37.042  33.633  28.716  1.00  0.00     0.010 A 
ATOM     72  C   UNL A   1      36.236  32.452  30.672  1.00  0.00     0.010 A 
ATOM     73  C   UNL A   1      35.827  34.320  28.632  1.00  0.00     0.020 A 
ATOM     74  C   UNL A   1      35.006  33.106  30.569  1.00  0.00     0.020 A 
ATOM     75  C   UNL A   1      34.818  34.054  29.562  1.00  0.00     0.054 A 
BRANCH  75  76
ATOM     76  S   UNL A   1      33.249  34.954  29.433  1.00  0.00     0.124 S 
ATOM     77  O   UNL A   1      32.469  34.079  28.565  1.00  0.00    -0.237 OA
ATOM     78  O   UNL A   1      32.810  35.022  30.825  1.00  0.00    -0.237 OA
ATOM     79  O   UNL A   1      33.637  36.235  28.847  1.00  0.00    -0.744 OA
ENDBRANCH  75  76
ENDBRANCH  47  70
BRANCH  59  80
ATOM     80  C   UNL A   1      43.280  34.551  32.723  1.00  0.00    -0.014 A 
ATOM     81  C   UNL A   1      43.220  34.673  34.124  1.00  0.00     0.010 A 
ATOM     82  C   UNL A   1      43.737  35.641  31.960  1.00  0.00     0.010 A 
ATOM     83  C   UNL A   1      43.540  35.884  34.741  1.00  0.00     0.020 A 
ATOM     84  C   UNL A   1      44.096  36.841  32.577  1.00  0.00     0.020 A 
ATOM     85  C   UNL A   1      43.967  36.964  33.961  1.00  0.00     0.054 A 
BRANCH  85  86
ATOM     86  S   UNL A   1      44.360  38.531  34.782  1.00  0.00     0.124 S 
ATOM     87  O   UNL A   1      43.902  38.281  36.146  1.00  0.00    -0.237 OA
ATOM     88  O   UNL A   1      45.809  38.628  34.613  1.00  0.00    -0.237 OA
ATOM     89  O   UNL A   1      43.585  39.518  34.034  1.00  0.00    -0.744 OA
ENDBRANCH  85  86
ENDBRANCH  59  80
ENDBRANCH  33  34
ENDBRANCH  26  28
ENDBRANCH  25  26
ENDBRANCH  24  25
ENDBRANCH   1  24
TORSDOF 17
ENDMDL
