MODEL 1
REMARK VINA RESULT:     -10.5      0.000      0.000
REMARK SMILES Cc1cc(C(=O)N2C[C@@H](C(=O)OCCOC(=O)c3ccc(-c4c5nc(c(-c6ccc(S(=O)(=O)[O-])cc6)c6ccc([nH]6)c(-c6ccc(S(=O)(=O)[O-])cc6)c6nc(c(-c7ccc(S(=O)(=O)[O-])cc7)c7ccc4[nH]7)C=C6)C=C5)cc3)[C@H](C(C)C)C2)cs1
REMARK SMILES IDX 14 1 13 2 12 3 10 4 11 5 9 6 7 7 8 8 82 9 78 10 5 11 6 12
REMARK SMILES IDX 4 13 1 14 2 15 3 16 84 17 83 18 79 19 80 20 81 21 15 22
REMARK SMILES IDX 16 23 17 24 18 25 19 26 77 27 20 28 76 29 21 30 22 31 23 32
REMARK SMILES IDX 70 33 24 34 75 35 69 36 71 37 25 38 74 39 68 40 67 41 26 43
REMARK SMILES IDX 56 44 37 45 55 46 38 47 41 48 54 49 72 50 39 51 40 52 53 54
REMARK SMILES IDX 73 55 42 56 27 57 28 58 36 59 29 60 35 61 30 62 31 63 32 64
REMARK SMILES IDX 33 65 34 66 57 67 58 68 66 69 59 70 65 71 60 72 61 73 62 74
REMARK SMILES IDX 63 75 64 76 43 77 44 78 52 79 45 80 51 81 46 82 47 83 48 84
REMARK SMILES IDX 49 85 50 86
REMARK H PARENT 71 42 41 53
REMARK Flexibility Score: inf
ROOT
ATOM      1  C   UNL A   1      37.834  20.823  25.013  1.00  0.00     0.275 C 
ENDROOT
BRANCH   1   2
ATOM      2  C   UNL A   1      36.653  21.427  24.257  1.00  0.00     0.274 C 
BRANCH   2   3
ATOM      3  O   UNL A   1      35.564  21.729  25.164  1.00  0.00    -0.462 OA
BRANCH   3   4
ATOM      4  C   UNL A   1      34.306  21.566  24.680  1.00  0.00     0.311 C 
ATOM      5  O   UNL A   1      33.748  20.481  24.569  1.00  0.00    -0.252 OA
BRANCH   4   6
ATOM      6  C   UNL A   1      33.633  22.865  24.277  1.00  0.00     0.124 C 
ATOM      7  N   UNL A   1      33.500  24.590  22.741  1.00  0.00    -0.337 N 
ATOM      8  C   UNL A   1      33.649  23.152  22.783  1.00  0.00     0.135 C 
ATOM      9  C   UNL A   1      34.307  25.180  23.781  1.00  0.00     0.124 C 
ATOM     10  C   UNL A   1      34.249  24.141  24.926  1.00  0.00     0.027 C 
BRANCH   7  11
ATOM     11  C   UNL A   1      32.703  25.381  21.941  1.00  0.00     0.254 C 
ATOM     12  O   UNL A   1      32.982  25.576  20.760  1.00  0.00    -0.269 OA
BRANCH  11  13
ATOM     13  C   UNL A   1      31.579  26.082  22.570  1.00  0.00     0.050 A 
ATOM     14  C   UNL A   1      29.267  29.063  23.031  1.00  0.00     0.056 C 
ATOM     15  C   UNL A   1      29.994  27.763  23.033  1.00  0.00     0.002 A 
ATOM     16  C   UNL A   1      31.166  27.446  22.380  1.00  0.00     0.029 A 
ATOM     17  S   UNL A   1      29.365  26.417  23.871  1.00  0.00    -0.148 S 
ATOM     18  C   UNL A   1      30.644  25.414  23.343  1.00  0.00     0.079 A 
ENDBRANCH  11  13
ENDBRANCH   7  11
BRANCH  10  19
ATOM     19  C   UNL A   1      33.438  24.693  26.137  1.00  0.00    -0.012 C 
ATOM     20  C   UNL A   1      33.135  26.193  26.056  1.00  0.00     0.008 C 
ATOM     21  C   UNL A   1      32.137  23.893  26.327  1.00  0.00     0.008 C 
ENDBRANCH  10  19
ENDBRANCH   4   6
ENDBRANCH   3   4
ENDBRANCH   2   3
ENDBRANCH   1   2
BRANCH   1  22
ATOM     22  O   UNL A   1      38.329  21.806  25.933  1.00  0.00    -0.458 OA
BRANCH  22  23
ATOM     23  C   UNL A   1      39.612  21.659  26.341  1.00  0.00     0.338 C 
ATOM     24  O   UNL A   1      40.348  20.712  26.131  1.00  0.00    -0.246 OA
BRANCH  23  25
ATOM     25  C   UNL A   1      40.027  22.894  27.039  1.00  0.00     0.060 A 
ATOM     26  C   UNL A   1      39.412  24.090  26.691  1.00  0.00     0.016 A 
ATOM     27  C   UNL A   1      41.091  22.905  27.939  1.00  0.00     0.016 A 
ATOM     28  C   UNL A   1      39.923  25.300  27.145  1.00  0.00     0.010 A 
ATOM     29  C   UNL A   1      41.543  24.126  28.471  1.00  0.00     0.010 A 
ATOM     30  C   UNL A   1      41.000  25.348  28.033  1.00  0.00    -0.014 A 
BRANCH  30  31
ATOM     31  C   UNL A   1      41.598  26.679  28.363  1.00  0.00     0.031 A 
ATOM     32  C   UNL A   1      43.052  26.948  28.057  1.00  0.00     0.074 A 
ATOM     33  C   UNL A   1      40.834  27.706  28.796  1.00  0.00     0.049 A 
ATOM     34  N   UNL A   1      43.771  28.010  28.320  1.00  0.00    -0.248 NA
ATOM     35  C   UNL A   1      43.791  25.886  27.357  1.00  0.00     0.031 C 
ATOM     36  C   UNL A   1      39.389  27.653  29.031  1.00  0.00     0.029 A 
ATOM     37  N   UNL A   1      41.162  29.013  29.071  1.00  0.00    -0.354 N 
ATOM     38  C   UNL A   1      45.056  27.723  27.870  1.00  0.00     0.074 A 
ATOM     39  C   UNL A   1      45.017  26.384  27.321  1.00  0.00     0.031 C 
ATOM     40  C   UNL A   1      38.948  28.881  29.343  1.00  0.00     0.029 A 
ATOM     41  C   UNL A   1      40.087  29.790  29.436  1.00  0.00     0.049 A 
ATOM     42  H   UNL A   1      42.081  29.362  29.012  1.00  0.00     0.167 HD
ATOM     43  C   UNL A   1      46.171  28.492  27.915  1.00  0.00     0.031 A 
ATOM     44  C   UNL A   1      40.015  31.076  29.839  1.00  0.00     0.031 A 
ATOM     45  C   UNL A   1      46.219  29.832  28.433  1.00  0.00     0.049 A 
ATOM     46  C   UNL A   1      41.273  31.892  29.950  1.00  0.00     0.074 A 
ATOM     47  C   UNL A   1      47.319  30.662  28.573  1.00  0.00     0.029 A 
ATOM     48  N   UNL A   1      45.120  30.548  28.880  1.00  0.00    -0.354 N 
ATOM     49  N   UNL A   1      42.500  31.559  29.632  1.00  0.00    -0.248 NA
ATOM     50  C   UNL A   1      41.138  33.250  30.495  1.00  0.00     0.031 C 
ATOM     51  C   UNL A   1      46.891  31.865  29.144  1.00  0.00     0.029 A 
ATOM     52  C   UNL A   1      45.516  31.806  29.308  1.00  0.00     0.049 A 
ATOM     53  H   UNL A   1      44.195  30.214  28.892  1.00  0.00     0.167 HD
ATOM     54  C   UNL A   1      43.283  32.668  29.936  1.00  0.00     0.074 A 
ATOM     55  C   UNL A   1      42.389  33.690  30.438  1.00  0.00     0.031 C 
ATOM     56  C   UNL A   1      44.625  32.819  29.815  1.00  0.00     0.031 A 
BRANCH  43  57
ATOM     57  C   UNL A   1      47.452  27.848  27.458  1.00  0.00    -0.014 A 
ATOM     58  C   UNL A   1      48.271  27.117  28.338  1.00  0.00     0.010 A 
ATOM     59  C   UNL A   1      47.856  28.012  26.120  1.00  0.00     0.010 A 
ATOM     60  C   UNL A   1      49.503  26.619  27.902  1.00  0.00     0.020 A 
ATOM     61  C   UNL A   1      49.072  27.492  25.675  1.00  0.00     0.020 A 
ATOM     62  C   UNL A   1      49.902  26.824  26.577  1.00  0.00     0.054 A 
BRANCH  62  63
ATOM     63  S   UNL A   1      51.522  26.207  26.043  1.00  0.00     0.124 S 
ATOM     64  O   UNL A   1      52.431  27.112  26.744  1.00  0.00    -0.237 OA
ATOM     65  O   UNL A   1      51.517  24.827  26.521  1.00  0.00    -0.237 OA
ATOM     66  O   UNL A   1      51.488  26.360  24.590  1.00  0.00    -0.744 OA
ENDBRANCH  62  63
ENDBRANCH  43  57
BRANCH  44  67
ATOM     67  C   UNL A   1      38.697  31.649  30.238  1.00  0.00    -0.014 A 
ATOM     68  C   UNL A   1      38.226  31.534  31.557  1.00  0.00     0.010 A 
ATOM     69  C   UNL A   1      37.917  32.338  29.291  1.00  0.00     0.010 A 
ATOM     70  C   UNL A   1      37.000  32.103  31.921  1.00  0.00     0.020 A 
ATOM     71  C   UNL A   1      36.708  32.934  29.658  1.00  0.00     0.020 A 
ATOM     72  C   UNL A   1      36.253  32.806  30.970  1.00  0.00     0.054 A 
BRANCH  72  73
ATOM     73  S   UNL A   1      34.708  33.611  31.478  1.00  0.00     0.124 S 
ATOM     74  O   UNL A   1      35.196  34.825  32.125  1.00  0.00    -0.237 OA
ATOM     75  O   UNL A   1      34.017  33.804  30.206  1.00  0.00    -0.237 OA
ATOM     76  O   UNL A   1      34.091  32.630  32.368  1.00  0.00    -0.744 OA
ENDBRANCH  72  73
ENDBRANCH  44  67
BRANCH  56  77
ATOM     77  C   UNL A   1      45.217  34.146  30.210  1.00  0.00    -0.014 A 
ATOM     78  C   UNL A   1      45.406  35.171  29.266  1.00  0.00     0.010 A 
ATOM     79  C   UNL A   1      45.538  34.390  31.558  1.00  0.00     0.010 A 
ATOM     80  C   UNL A   1      45.935  36.405  29.657  1.00  0.00     0.020 A 
ATOM     81  C   UNL A   1      46.044  35.630  31.957  1.00  0.00     0.020 A 
ATOM     82  C   UNL A   1      46.253  36.626  31.001  1.00  0.00     0.054 A 
BRANCH  82  83
ATOM     83  S   UNL A   1      46.899  38.250  31.493  1.00  0.00     0.124 S 
ATOM     84  O   UNL A   1      47.813  37.897  32.575  1.00  0.00    -0.237 OA
ATOM     85  O   UNL A   1      47.530  38.730  30.267  1.00  0.00    -0.237 OA
ATOM     86  O   UNL A   1      45.705  38.987  31.901  1.00  0.00    -0.744 OA
ENDBRANCH  82  83
ENDBRANCH  56  77
ENDBRANCH  30  31
ENDBRANCH  23  25
ENDBRANCH  22  23
ENDBRANCH   1  22
TORSDOF 17
ENDMDL
MODEL 2
REMARK VINA RESULT:     -10.5      3.143      9.578
REMARK SMILES Cc1cc(C(=O)N2C[C@@H](C(=O)OCCOC(=O)c3ccc(-c4c5nc(c(-c6ccc(S(=O)(=O)[O-])cc6)c6ccc([nH]6)c(-c6ccc(S(=O)(=O)[O-])cc6)c6nc(c(-c7ccc(S(=O)(=O)[O-])cc7)c7ccc4[nH]7)C=C6)C=C5)cc3)[C@H](C(C)C)C2)cs1
REMARK SMILES IDX 14 1 13 2 12 3 10 4 11 5 9 6 7 7 8 8 82 9 78 10 5 11 6 12
REMARK SMILES IDX 4 13 1 14 2 15 3 16 84 17 83 18 79 19 80 20 81 21 15 22
REMARK SMILES IDX 16 23 17 24 18 25 19 26 77 27 20 28 76 29 21 30 22 31 23 32
REMARK SMILES IDX 70 33 24 34 75 35 69 36 71 37 25 38 74 39 68 40 67 41 26 43
REMARK SMILES IDX 56 44 37 45 55 46 38 47 41 48 54 49 72 50 39 51 40 52 53 54
REMARK SMILES IDX 73 55 42 56 27 57 28 58 36 59 29 60 35 61 30 62 31 63 32 64
REMARK SMILES IDX 33 65 34 66 57 67 58 68 66 69 59 70 65 71 60 72 61 73 62 74
REMARK SMILES IDX 63 75 64 76 43 77 44 78 52 79 45 80 51 81 46 82 47 83 48 84
REMARK SMILES IDX 49 85 50 86
REMARK H PARENT 71 42 41 53
REMARK Flexibility Score: inf
ROOT
ATOM      1  C   UNL A   1      35.255  30.961  28.168  1.00  0.00     0.275 C 
ENDROOT
BRANCH   1   2
ATOM      2  C   UNL A   1      33.817  30.820  27.675  1.00  0.00     0.274 C 
BRANCH   2   3
ATOM      3  O   UNL A   1      33.733  29.838  26.613  1.00  0.00    -0.462 OA
BRANCH   3   4
ATOM      4  C   UNL A   1      32.491  29.552  26.146  1.00  0.00     0.311 C 
ATOM      5  O   UNL A   1      31.581  30.369  26.065  1.00  0.00    -0.252 OA
BRANCH   4   6
ATOM      6  C   UNL A   1      32.315  28.105  25.723  1.00  0.00     0.124 C 
ATOM      7  N   UNL A   1      32.525  25.873  26.295  1.00  0.00    -0.337 N 
ATOM      8  C   UNL A   1      32.096  27.130  26.869  1.00  0.00     0.135 C 
ATOM      9  C   UNL A   1      33.717  26.092  25.512  1.00  0.00     0.124 C 
ATOM     10  C   UNL A   1      33.519  27.512  24.930  1.00  0.00     0.027 C 
BRANCH   7  11
ATOM     11  C   UNL A   1      31.946  24.624  26.351  1.00  0.00     0.254 C 
ATOM     12  O   UNL A   1      31.036  24.380  27.141  1.00  0.00    -0.269 OA
BRANCH  11  13
ATOM     13  C   UNL A   1      32.527  23.559  25.526  1.00  0.00     0.050 A 
ATOM     14  C   UNL A   1      34.892  20.649  24.912  1.00  0.00     0.056 C 
ATOM     15  C   UNL A   1      33.858  21.720  24.895  1.00  0.00     0.002 A 
ATOM     16  C   UNL A   1      33.636  22.700  25.839  1.00  0.00     0.029 A 
ATOM     17  S   UNL A   1      32.723  21.812  23.625  1.00  0.00    -0.148 S 
ATOM     18  C   UNL A   1      31.929  23.140  24.350  1.00  0.00     0.079 A 
ENDBRANCH  11  13
ENDBRANCH   7  11
BRANCH  10  19
ATOM     19  C   UNL A   1      33.298  27.454  23.388  1.00  0.00    -0.012 C 
ATOM     20  C   UNL A   1      34.028  28.554  22.610  1.00  0.00     0.008 C 
ATOM     21  C   UNL A   1      33.678  26.068  22.840  1.00  0.00     0.008 C 
ENDBRANCH  10  19
ENDBRANCH   4   6
ENDBRANCH   3   4
ENDBRANCH   2   3
ENDBRANCH   1   2
BRANCH   1  22
ATOM     22  O   UNL A   1      35.794  29.646  28.365  1.00  0.00    -0.458 OA
BRANCH  22  23
ATOM     23  C   UNL A   1      36.672  29.499  29.385  1.00  0.00     0.338 C 
ATOM     24  O   UNL A   1      36.445  29.623  30.575  1.00  0.00    -0.246 OA
BRANCH  23  25
ATOM     25  C   UNL A   1      37.974  29.079  28.828  1.00  0.00     0.060 A 
ATOM     26  C   UNL A   1      38.844  28.364  29.642  1.00  0.00     0.016 A 
ATOM     27  C   UNL A   1      38.393  29.481  27.561  1.00  0.00     0.016 A 
ATOM     28  C   UNL A   1      40.158  28.150  29.247  1.00  0.00     0.010 A 
ATOM     29  C   UNL A   1      39.696  29.177  27.127  1.00  0.00     0.010 A 
ATOM     30  C   UNL A   1      40.617  28.557  27.991  1.00  0.00    -0.014 A 
BRANCH  30  31
ATOM     31  C   UNL A   1      42.076  28.434  27.687  1.00  0.00     0.031 A 
ATOM     32  C   UNL A   1      43.025  29.539  28.089  1.00  0.00     0.074 A 
ATOM     33  C   UNL A   1      42.599  27.291  27.191  1.00  0.00     0.049 A 
ATOM     34  N   UNL A   1      44.310  29.650  27.863  1.00  0.00    -0.248 NA
ATOM     35  C   UNL A   1      42.453  30.660  28.850  1.00  0.00     0.031 C 
ATOM     36  C   UNL A   1      41.841  26.082  26.859  1.00  0.00     0.029 A 
ATOM     37  N   UNL A   1      43.903  26.943  26.924  1.00  0.00    -0.354 N 
ATOM     38  C   UNL A   1      44.687  30.876  28.402  1.00  0.00     0.074 A 
ATOM     39  C   UNL A   1      43.493  31.471  28.964  1.00  0.00     0.031 C 
ATOM     40  C   UNL A   1      42.695  25.110  26.503  1.00  0.00     0.029 A 
ATOM     41  C   UNL A   1      44.051  25.650  26.478  1.00  0.00     0.049 A 
ATOM     42  H   UNL A   1      44.660  27.561  27.042  1.00  0.00     0.167 HD
ATOM     43  C   UNL A   1      45.909  31.461  28.425  1.00  0.00     0.031 A 
ATOM     44  C   UNL A   1      45.141  24.975  26.056  1.00  0.00     0.031 A 
ATOM     45  C   UNL A   1      47.109  30.871  27.895  1.00  0.00     0.049 A 
ATOM     46  C   UNL A   1      46.476  25.665  26.021  1.00  0.00     0.074 A 
ATOM     47  C   UNL A   1      48.378  31.420  27.821  1.00  0.00     0.029 A 
ATOM     48  N   UNL A   1      47.195  29.593  27.366  1.00  0.00    -0.354 N 
ATOM     49  N   UNL A   1      46.789  26.872  26.426  1.00  0.00    -0.248 NA
ATOM     50  C   UNL A   1      47.601  24.909  25.452  1.00  0.00     0.031 C 
ATOM     51  C   UNL A   1      49.223  30.488  27.208  1.00  0.00     0.029 A 
ATOM     52  C   UNL A   1      48.493  29.339  26.952  1.00  0.00     0.049 A 
ATOM     53  H   UNL A   1      46.446  28.959  27.295  1.00  0.00     0.167 HD
ATOM     54  C   UNL A   1      48.148  27.019  26.163  1.00  0.00     0.074 A 
ATOM     55  C   UNL A   1      48.602  25.769  25.588  1.00  0.00     0.031 C 
ATOM     56  C   UNL A   1      48.941  28.097  26.373  1.00  0.00     0.031 A 
BRANCH  43  57
ATOM     57  C   UNL A   1      45.977  32.861  28.975  1.00  0.00    -0.014 A 
ATOM     58  C   UNL A   1      45.768  33.989  28.162  1.00  0.00     0.010 A 
ATOM     59  C   UNL A   1      46.289  33.042  30.335  1.00  0.00     0.010 A 
ATOM     60  C   UNL A   1      45.937  35.275  28.687  1.00  0.00     0.020 A 
ATOM     61  C   UNL A   1      46.430  34.324  30.868  1.00  0.00     0.020 A 
ATOM     62  C   UNL A   1      46.283  35.432  30.033  1.00  0.00     0.054 A 
BRANCH  62  63
ATOM     63  S   UNL A   1      46.539  37.106  30.683  1.00  0.00     0.124 S 
ATOM     64  O   UNL A   1      46.533  36.869  32.126  1.00  0.00    -0.237 OA
ATOM     65  O   UNL A   1      47.832  37.480  30.115  1.00  0.00    -0.237 OA
ATOM     66  O   UNL A   1      45.395  37.856  30.170  1.00  0.00    -0.744 OA
ENDBRANCH  62  63
ENDBRANCH  43  57
BRANCH  44  67
ATOM     67  C   UNL A   1      44.993  23.576  25.561  1.00  0.00    -0.014 A 
ATOM     68  C   UNL A   1      44.903  23.298  24.186  1.00  0.00     0.010 A 
ATOM     69  C   UNL A   1      44.966  22.508  26.477  1.00  0.00     0.010 A 
ATOM     70  C   UNL A   1      44.794  21.976  23.738  1.00  0.00     0.020 A 
ATOM     71  C   UNL A   1      44.889  21.187  26.033  1.00  0.00     0.020 A 
ATOM     72  C   UNL A   1      44.796  20.929  24.665  1.00  0.00     0.054 A 
BRANCH  72  73
ATOM     73  S   UNL A   1      44.741  19.217  24.064  1.00  0.00     0.124 S 
ATOM     74  O   UNL A   1      46.107  18.766  24.306  1.00  0.00    -0.237 OA
ATOM     75  O   UNL A   1      43.714  18.617  24.912  1.00  0.00    -0.237 OA
ATOM     76  O   UNL A   1      44.367  19.363  22.658  1.00  0.00    -0.744 OA
ENDBRANCH  72  73
ENDBRANCH  44  67
BRANCH  56  77
ATOM     77  C   UNL A   1      50.397  27.975  26.004  1.00  0.00    -0.014 A 
ATOM     78  C   UNL A   1      51.355  27.553  26.942  1.00  0.00     0.010 A 
ATOM     79  C   UNL A   1      50.802  28.236  24.682  1.00  0.00     0.010 A 
ATOM     80  C   UNL A   1      52.697  27.423  26.574  1.00  0.00     0.020 A 
ATOM     81  C   UNL A   1      52.139  28.084  24.303  1.00  0.00     0.020 A 
ATOM     82  C   UNL A   1      53.081  27.692  25.255  1.00  0.00     0.054 A 
BRANCH  82  83
ATOM     83  S   UNL A   1      54.822  27.476  24.789  1.00  0.00     0.124 S 
ATOM     84  O   UNL A   1      54.796  26.185  24.108  1.00  0.00    -0.237 OA
ATOM     85  O   UNL A   1      55.073  28.633  23.934  1.00  0.00    -0.237 OA
ATOM     86  O   UNL A   1      55.528  27.492  26.069  1.00  0.00    -0.744 OA
ENDBRANCH  82  83
ENDBRANCH  56  77
ENDBRANCH  30  31
ENDBRANCH  23  25
ENDBRANCH  22  23
ENDBRANCH   1  22
TORSDOF 17
ENDMDL
MODEL 3
REMARK VINA RESULT:     -10.4      4.905      7.559
REMARK SMILES Cc1cc(C(=O)N2C[C@@H](C(=O)OCCOC(=O)c3ccc(-c4c5nc(c(-c6ccc(S(=O)(=O)[O-])cc6)c6ccc([nH]6)c(-c6ccc(S(=O)(=O)[O-])cc6)c6nc(c(-c7ccc(S(=O)(=O)[O-])cc7)c7ccc4[nH]7)C=C6)C=C5)cc3)[C@H](C(C)C)C2)cs1
REMARK SMILES IDX 14 1 13 2 12 3 10 4 11 5 9 6 7 7 8 8 82 9 78 10 5 11 6 12
REMARK SMILES IDX 4 13 1 14 2 15 3 16 84 17 83 18 79 19 80 20 81 21 15 22
REMARK SMILES IDX 16 23 17 24 18 25 19 26 77 27 20 28 76 29 21 30 22 31 23 32
REMARK SMILES IDX 70 33 24 34 75 35 69 36 71 37 25 38 74 39 68 40 67 41 26 43
REMARK SMILES IDX 56 44 37 45 55 46 38 47 41 48 54 49 72 50 39 51 40 52 53 54
REMARK SMILES IDX 73 55 42 56 27 57 28 58 36 59 29 60 35 61 30 62 31 63 32 64
REMARK SMILES IDX 33 65 34 66 57 67 58 68 66 69 59 70 65 71 60 72 61 73 62 74
REMARK SMILES IDX 63 75 64 76 43 77 44 78 52 79 45 80 51 81 46 82 47 83 48 84
REMARK SMILES IDX 49 85 50 86
REMARK H PARENT 71 42 41 53
REMARK Flexibility Score: inf
ROOT
ATOM      1  C   UNL A   1      32.285  30.185  26.774  1.00  0.00     0.275 C 
ENDROOT
BRANCH   1   2
ATOM      2  C   UNL A   1      31.790  29.899  25.358  1.00  0.00     0.274 C 
BRANCH   2   3
ATOM      3  O   UNL A   1      32.796  29.187  24.597  1.00  0.00    -0.462 OA
BRANCH   3   4
ATOM      4  C   UNL A   1      32.373  28.550  23.475  1.00  0.00     0.311 C 
ATOM      5  O   UNL A   1      31.808  29.106  22.540  1.00  0.00    -0.252 OA
BRANCH   4   6
ATOM      6  C   UNL A   1      32.662  27.060  23.473  1.00  0.00     0.124 C 
ATOM      7  N   UNL A   1      32.679  25.085  22.268  1.00  0.00    -0.337 N 
ATOM      8  C   UNL A   1      33.016  26.483  22.111  1.00  0.00     0.135 C 
ATOM      9  C   UNL A   1      31.441  24.975  22.999  1.00  0.00     0.124 C 
ATOM     10  C   UNL A   1      31.485  26.173  23.978  1.00  0.00     0.027 C 
BRANCH   7  11
ATOM     11  C   UNL A   1      33.372  23.954  21.892  1.00  0.00     0.254 C 
ATOM     12  O   UNL A   1      33.320  23.531  20.739  1.00  0.00    -0.269 OA
BRANCH  11  13
ATOM     13  C   UNL A   1      34.075  23.201  22.935  1.00  0.00     0.050 A 
ATOM     14  C   UNL A   1      36.907  22.665  25.412  1.00  0.00     0.056 C 
ATOM     15  C   UNL A   1      35.682  22.642  24.565  1.00  0.00     0.002 A 
ATOM     16  C   UNL A   1      35.358  23.481  23.521  1.00  0.00     0.029 A 
ATOM     17  S   UNL A   1      34.439  21.513  24.866  1.00  0.00    -0.148 S 
ATOM     18  C   UNL A   1      33.466  22.162  23.620  1.00  0.00     0.079 A 
ENDBRANCH  11  13
ENDBRANCH   7  11
BRANCH  10  19
ATOM     19  C   UNL A   1      31.645  25.681  25.449  1.00  0.00    -0.012 C 
ATOM     20  C   UNL A   1      33.097  25.451  25.878  1.00  0.00     0.008 C 
ATOM     21  C   UNL A   1      30.946  26.648  26.421  1.00  0.00     0.008 C 
ENDBRANCH  10  19
ENDBRANCH   4   6
ENDBRANCH   3   4
ENDBRANCH   2   3
ENDBRANCH   1   2
BRANCH   1  22
ATOM     22  O   UNL A   1      33.678  30.523  26.703  1.00  0.00    -0.458 OA
BRANCH  22  23
ATOM     23  C   UNL A   1      34.131  31.413  27.617  1.00  0.00     0.338 C 
ATOM     24  O   UNL A   1      33.534  32.375  28.067  1.00  0.00    -0.246 OA
BRANCH  23  25
ATOM     25  C   UNL A   1      35.475  30.990  28.060  1.00  0.00     0.060 A 
ATOM     26  C   UNL A   1      35.639  29.693  28.532  1.00  0.00     0.016 A 
ATOM     27  C   UNL A   1      36.541  31.885  28.126  1.00  0.00     0.016 A 
ATOM     28  C   UNL A   1      36.816  29.324  29.170  1.00  0.00     0.010 A 
ATOM     29  C   UNL A   1      37.764  31.475  28.687  1.00  0.00     0.010 A 
ATOM     30  C   UNL A   1      37.898  30.202  29.271  1.00  0.00    -0.014 A 
BRANCH  30  31
ATOM     31  C   UNL A   1      39.075  29.798  30.100  1.00  0.00     0.031 A 
ATOM     32  C   UNL A   1      40.018  28.730  29.599  1.00  0.00     0.074 A 
ATOM     33  C   UNL A   1      39.406  30.467  31.227  1.00  0.00     0.049 A 
ATOM     34  N   UNL A   1      41.057  28.197  30.192  1.00  0.00    -0.248 NA
ATOM     35  C   UNL A   1      39.762  28.198  28.251  1.00  0.00     0.031 C 
ATOM     36  C   UNL A   1      38.672  31.602  31.790  1.00  0.00     0.029 A 
ATOM     37  N   UNL A   1      40.478  30.317  32.076  1.00  0.00    -0.354 N 
ATOM     38  C   UNL A   1      41.543  27.232  29.317  1.00  0.00     0.074 A 
ATOM     39  C   UNL A   1      40.682  27.250  28.153  1.00  0.00     0.031 C 
ATOM     40  C   UNL A   1      39.349  32.086  32.843  1.00  0.00     0.029 A 
ATOM     41  C   UNL A   1      40.508  31.237  33.099  1.00  0.00     0.049 A 
ATOM     42  H   UNL A   1      41.160  29.616  31.964  1.00  0.00     0.167 HD
ATOM     43  C   UNL A   1      42.600  26.397  29.463  1.00  0.00     0.031 A 
ATOM     44  C   UNL A   1      41.344  31.371  34.149  1.00  0.00     0.031 A 
ATOM     45  C   UNL A   1      43.480  26.385  30.601  1.00  0.00     0.049 A 
ATOM     46  C   UNL A   1      42.470  30.392  34.334  1.00  0.00     0.074 A 
ATOM     47  C   UNL A   1      44.540  25.532  30.860  1.00  0.00     0.029 A 
ATOM     48  N   UNL A   1      43.417  27.276  31.660  1.00  0.00    -0.354 N 
ATOM     49  N   UNL A   1      42.839  29.406  33.553  1.00  0.00    -0.248 NA
ATOM     50  C   UNL A   1      43.277  30.530  35.554  1.00  0.00     0.031 C 
ATOM     51  C   UNL A   1      45.092  25.882  32.097  1.00  0.00     0.029 A 
ATOM     52  C   UNL A   1      44.411  26.988  32.582  1.00  0.00     0.049 A 
ATOM     53  H   UNL A   1      42.764  28.007  31.745  1.00  0.00     0.167 HD
ATOM     54  C   UNL A   1      43.925  28.808  34.185  1.00  0.00     0.074 A 
ATOM     55  C   UNL A   1      44.168  29.558  35.400  1.00  0.00     0.031 C 
ATOM     56  C   UNL A   1      44.647  27.730  33.794  1.00  0.00     0.031 A 
BRANCH  43  57
ATOM     57  C   UNL A   1      42.801  25.366  28.386  1.00  0.00    -0.014 A 
ATOM     58  C   UNL A   1      42.144  24.123  28.415  1.00  0.00     0.010 A 
ATOM     59  C   UNL A   1      43.696  25.645  27.336  1.00  0.00     0.010 A 
ATOM     60  C   UNL A   1      42.431  23.152  27.450  1.00  0.00     0.020 A 
ATOM     61  C   UNL A   1      43.964  24.688  26.356  1.00  0.00     0.020 A 
ATOM     62  C   UNL A   1      43.352  23.437  26.436  1.00  0.00     0.054 A 
BRANCH  62  63
ATOM     63  S   UNL A   1      43.743  22.150  25.219  1.00  0.00     0.124 S 
ATOM     64  O   UNL A   1      42.690  21.169  25.474  1.00  0.00    -0.237 OA
ATOM     65  O   UNL A   1      43.642  22.864  23.949  1.00  0.00    -0.237 OA
ATOM     66  O   UNL A   1      45.092  21.725  25.586  1.00  0.00    -0.744 OA
ENDBRANCH  62  63
ENDBRANCH  43  57
BRANCH  44  67
ATOM     67  C   UNL A   1      41.096  32.445  35.153  1.00  0.00    -0.014 A 
ATOM     68  C   UNL A   1      40.188  32.256  36.210  1.00  0.00     0.010 A 
ATOM     69  C   UNL A   1      41.796  33.663  35.064  1.00  0.00     0.010 A 
ATOM     70  C   UNL A   1      39.990  33.265  37.160  1.00  0.00     0.020 A 
ATOM     71  C   UNL A   1      41.624  34.659  36.027  1.00  0.00     0.020 A 
ATOM     72  C   UNL A   1      40.716  34.456  37.067  1.00  0.00     0.054 A 
BRANCH  72  73
ATOM     73  S   UNL A   1      40.511  35.719  38.354  1.00  0.00     0.124 S 
ATOM     74  O   UNL A   1      39.691  35.020  39.337  1.00  0.00    -0.237 OA
ATOM     75  O   UNL A   1      41.889  35.990  38.754  1.00  0.00    -0.237 OA
ATOM     76  O   UNL A   1      39.850  36.817  37.650  1.00  0.00    -0.744 OA
ENDBRANCH  72  73
ENDBRANCH  44  67
BRANCH  56  77
ATOM     77  C   UNL A   1      45.791  27.300  34.674  1.00  0.00    -0.014 A 
ATOM     78  C   UNL A   1      47.074  27.858  34.528  1.00  0.00     0.010 A 
ATOM     79  C   UNL A   1      45.566  26.363  35.699  1.00  0.00     0.010 A 
ATOM     80  C   UNL A   1      48.118  27.464  35.370  1.00  0.00     0.020 A 
ATOM     81  C   UNL A   1      46.601  25.983  36.558  1.00  0.00     0.020 A 
ATOM     82  C   UNL A   1      47.875  26.526  36.380  1.00  0.00     0.054 A 
BRANCH  82  83
ATOM     83  S   UNL A   1      49.235  26.060  37.488  1.00  0.00     0.124 S 
ATOM     84  O   UNL A   1      49.311  24.616  37.284  1.00  0.00    -0.237 OA
ATOM     85  O   UNL A   1      50.358  26.830  36.962  1.00  0.00    -0.237 OA
ATOM     86  O   UNL A   1      48.765  26.479  38.807  1.00  0.00    -0.744 OA
ENDBRANCH  82  83
ENDBRANCH  56  77
ENDBRANCH  30  31
ENDBRANCH  23  25
ENDBRANCH  22  23
ENDBRANCH   1  22
TORSDOF 17
ENDMDL
