MODEL 1
REMARK VINA RESULT:      -9.8      0.000      0.000
REMARK SMILES CC(C)[C@H](CO)Nc1ccc(C(=O)OCCOC(=O)c2ccc(-c3c4nc(c(-c5ccc(S(=O)(=O)[O-])cc5)c5ccc([nH]5)c(-c5ccc(S(=O)(=O)[O-])cc5)c5nc(c(-c6ccc(S(=O)(=O)[O-])cc6)c6ccc3[nH]6)C=C5)C=C4)cc2)cc1
REMARK SMILES IDX 15 1 14 2 12 3 13 4 11 5 8 6 9 7 81 8 10 9 80 10 7 11 4 13
REMARK SMILES IDX 2 14 1 15 3 16 5 17 6 18 16 20 17 21 18 22 19 23 20 24 21 25
REMARK SMILES IDX 79 26 22 27 78 28 23 29 24 30 25 31 72 32 26 33 77 34 71 35
REMARK SMILES IDX 73 36 27 37 76 38 70 39 69 40 28 42 58 43 39 44 57 45 40 46
REMARK SMILES IDX 43 47 56 48 74 49 41 50 42 51 55 53 75 54 44 55 29 56 30 57
REMARK SMILES IDX 38 58 31 59 37 60 32 61 33 62 34 63 35 64 36 65 59 66 60 67
REMARK SMILES IDX 68 68 61 69 67 70 62 71 63 72 64 73 65 74 66 75 45 76 46 77
REMARK SMILES IDX 54 78 47 79 53 80 48 81 49 82 50 83 51 84 52 85
REMARK H PARENT 7 12 6 19 73 41 43 52
REMARK Flexibility Score: inf
ROOT
ATOM      1  C   UNL A   1      39.935  22.012  26.904  1.00  0.00     0.275 C 
ENDROOT
BRANCH   1   2
ATOM      2  O   UNL A   1      38.917  22.733  26.180  1.00  0.00    -0.458 OA
BRANCH   2   3
ATOM      3  C   UNL A   1      38.107  21.959  25.416  1.00  0.00     0.338 C 
ATOM      4  O   UNL A   1      38.186  20.751  25.263  1.00  0.00    -0.246 OA
BRANCH   3   5
ATOM      5  C   UNL A   1      37.018  22.761  24.822  1.00  0.00     0.060 A 
ATOM      6  C   UNL A   1      34.803  24.204  23.851  1.00  0.00     0.034 A 
ATOM      7  C   UNL A   1      35.266  24.397  25.153  1.00  0.00     0.026 A 
ATOM      8  C   UNL A   1      35.481  23.289  23.035  1.00  0.00     0.026 A 
ATOM      9  C   UNL A   1      36.336  23.659  25.646  1.00  0.00     0.018 A 
ATOM     10  C   UNL A   1      36.601  22.587  23.503  1.00  0.00     0.018 A 
BRANCH   6  11
ATOM     11  N   UNL A   1      33.643  24.848  23.476  1.00  0.00    -0.380 N 
ATOM     12  H   UNL A   1      32.785  24.477  23.785  1.00  0.00     0.160 HD
BRANCH  11  13
ATOM     13  C   UNL A   1      33.612  26.054  22.642  1.00  0.00     0.107 C 
BRANCH  13  14
ATOM     14  C   UNL A   1      32.988  27.220  23.444  1.00  0.00     0.007 C 
ATOM     15  C   UNL A   1      32.735  26.828  24.902  1.00  0.00     0.009 C 
ATOM     16  C   UNL A   1      33.807  28.514  23.391  1.00  0.00     0.009 C 
ENDBRANCH  13  14
BRANCH  13  17
ATOM     17  C   UNL A   1      32.872  25.711  21.328  1.00  0.00     0.181 C 
BRANCH  17  18
ATOM     18  O   UNL A   1      32.967  24.311  21.054  1.00  0.00    -0.394 OA
ATOM     19  H   UNL A   1      32.149  24.008  20.628  1.00  0.00     0.210 HD
ENDBRANCH  17  18
ENDBRANCH  13  17
ENDBRANCH  11  13
ENDBRANCH   6  11
ENDBRANCH   3   5
ENDBRANCH   2   3
ENDBRANCH   1   2
BRANCH   1  20
ATOM     20  C   UNL A   1      41.324  22.295  26.328  1.00  0.00     0.275 C 
BRANCH  20  21
ATOM     21  O   UNL A   1      41.946  23.366  27.058  1.00  0.00    -0.458 OA
BRANCH  21  22
ATOM     22  C   UNL A   1      42.018  24.556  26.414  1.00  0.00     0.338 C 
ATOM     23  O   UNL A   1      42.309  24.734  25.244  1.00  0.00    -0.246 OA
BRANCH  22  24
ATOM     24  C   UNL A   1      41.682  25.662  27.339  1.00  0.00     0.060 A 
ATOM     25  C   UNL A   1      42.336  26.888  27.251  1.00  0.00     0.016 A 
ATOM     26  C   UNL A   1      40.781  25.440  28.380  1.00  0.00     0.016 A 
ATOM     27  C   UNL A   1      42.189  27.843  28.260  1.00  0.00     0.010 A 
ATOM     28  C   UNL A   1      40.543  26.448  29.324  1.00  0.00     0.010 A 
ATOM     29  C   UNL A   1      41.280  27.646  29.310  1.00  0.00    -0.014 A 
BRANCH  29  30
ATOM     30  C   UNL A   1      41.127  28.656  30.407  1.00  0.00     0.031 A 
ATOM     31  C   UNL A   1      42.093  28.669  31.573  1.00  0.00     0.074 A 
ATOM     32  C   UNL A   1      40.130  29.565  30.386  1.00  0.00     0.049 A 
ATOM     33  N   UNL A   1      42.008  29.313  32.710  1.00  0.00    -0.248 NA
ATOM     34  C   UNL A   1      43.296  27.831  31.453  1.00  0.00     0.031 C 
ATOM     35  C   UNL A   1      39.128  29.711  29.328  1.00  0.00     0.029 A 
ATOM     36  N   UNL A   1      39.798  30.551  31.287  1.00  0.00    -0.354 N 
ATOM     37  C   UNL A   1      43.093  28.890  33.472  1.00  0.00     0.074 A 
ATOM     38  C   UNL A   1      43.829  27.944  32.661  1.00  0.00     0.031 C 
ATOM     39  C   UNL A   1      38.333  30.754  29.612  1.00  0.00     0.029 A 
ATOM     40  C   UNL A   1      38.700  31.292  30.917  1.00  0.00     0.049 A 
ATOM     41  H   UNL A   1      40.299  30.710  32.119  1.00  0.00     0.167 HD
ATOM     42  C   UNL A   1      43.443  29.245  34.733  1.00  0.00     0.031 A 
ATOM     43  C   UNL A   1      38.027  32.266  31.561  1.00  0.00     0.031 A 
ATOM     44  C   UNL A   1      42.760  30.242  35.516  1.00  0.00     0.049 A 
ATOM     45  C   UNL A   1      38.448  32.672  32.943  1.00  0.00     0.074 A 
ATOM     46  C   UNL A   1      43.064  30.690  36.792  1.00  0.00     0.029 A 
ATOM     47  N   UNL A   1      41.656  30.964  35.093  1.00  0.00    -0.354 N 
ATOM     48  N   UNL A   1      39.438  32.210  33.669  1.00  0.00    -0.248 NA
ATOM     49  C   UNL A   1      37.649  33.715  33.601  1.00  0.00     0.031 C 
ATOM     50  C   UNL A   1      42.125  31.664  37.150  1.00  0.00     0.029 A 
ATOM     51  C   UNL A   1      41.261  31.849  36.083  1.00  0.00     0.049 A 
ATOM     52  H   UNL A   1      41.216  30.862  34.218  1.00  0.00     0.167 HD
ATOM     53  C   UNL A   1      39.375  32.901  34.874  1.00  0.00     0.074 A 
ATOM     54  C   UNL A   1      38.271  33.833  34.768  1.00  0.00     0.031 C 
ATOM     55  C   UNL A   1      40.156  32.764  35.972  1.00  0.00     0.031 A 
BRANCH  42  56
ATOM     56  C   UNL A   1      44.595  28.512  35.368  1.00  0.00    -0.014 A 
ATOM     57  C   UNL A   1      44.411  27.311  36.073  1.00  0.00     0.010 A 
ATOM     58  C   UNL A   1      45.896  29.031  35.225  1.00  0.00     0.010 A 
ATOM     59  C   UNL A   1      45.503  26.665  36.664  1.00  0.00     0.020 A 
ATOM     60  C   UNL A   1      46.992  28.377  35.795  1.00  0.00     0.020 A 
ATOM     61  C   UNL A   1      46.784  27.208  36.528  1.00  0.00     0.054 A 
BRANCH  61  62
ATOM     62  S   UNL A   1      48.188  26.352  37.298  1.00  0.00     0.124 S 
ATOM     63  O   UNL A   1      49.310  26.836  36.497  1.00  0.00    -0.237 OA
ATOM     64  O   UNL A   1      48.147  26.835  38.676  1.00  0.00    -0.237 OA
ATOM     65  O   UNL A   1      47.865  24.938  37.129  1.00  0.00    -0.744 OA
ENDBRANCH  61  62
ENDBRANCH  42  56
BRANCH  43  66
ATOM     66  C   UNL A   1      36.840  32.886  30.911  1.00  0.00    -0.014 A 
ATOM     67  C   UNL A   1      35.551  32.681  31.430  1.00  0.00     0.010 A 
ATOM     68  C   UNL A   1      37.006  33.732  29.797  1.00  0.00     0.010 A 
ATOM     69  C   UNL A   1      34.448  33.316  30.853  1.00  0.00     0.020 A 
ATOM     70  C   UNL A   1      35.909  34.389  29.235  1.00  0.00     0.020 A 
ATOM     71  C   UNL A   1      34.635  34.173  29.764  1.00  0.00     0.054 A 
BRANCH  71  72
ATOM     72  S   UNL A   1      33.210  35.071  29.089  1.00  0.00     0.124 S 
ATOM     73  O   UNL A   1      33.826  36.303  28.610  1.00  0.00    -0.237 OA
ATOM     74  O   UNL A   1      32.721  34.164  28.052  1.00  0.00    -0.237 OA
ATOM     75  O   UNL A   1      32.325  35.216  30.242  1.00  0.00    -0.744 OA
ENDBRANCH  71  72
ENDBRANCH  43  66
BRANCH  55  76
ATOM     76  C   UNL A   1      39.850  33.652  37.146  1.00  0.00    -0.014 A 
ATOM     77  C   UNL A   1      40.362  34.959  37.215  1.00  0.00     0.010 A 
ATOM     78  C   UNL A   1      39.013  33.185  38.175  1.00  0.00     0.010 A 
ATOM     79  C   UNL A   1      40.071  35.775  38.311  1.00  0.00     0.020 A 
ATOM     80  C   UNL A   1      38.703  34.006  39.264  1.00  0.00     0.020 A 
ATOM     81  C   UNL A   1      39.247  35.291  39.332  1.00  0.00     0.054 A 
BRANCH  81  82
ATOM     82  S   UNL A   1      38.854  36.375  40.733  1.00  0.00     0.124 S 
ATOM     83  O   UNL A   1      38.457  37.609  40.059  1.00  0.00    -0.237 OA
ATOM     84  O   UNL A   1      37.777  35.655  41.408  1.00  0.00    -0.237 OA
ATOM     85  O   UNL A   1      40.109  36.446  41.477  1.00  0.00    -0.744 OA
ENDBRANCH  81  82
ENDBRANCH  55  76
ENDBRANCH  29  30
ENDBRANCH  22  24
ENDBRANCH  21  22
ENDBRANCH  20  21
ENDBRANCH   1  20
TORSDOF 19
ENDMDL
MODEL 2
REMARK VINA RESULT:      -9.7      1.093      8.522
REMARK SMILES CC(C)[C@H](CO)Nc1ccc(C(=O)OCCOC(=O)c2ccc(-c3c4nc(c(-c5ccc(S(=O)(=O)[O-])cc5)c5ccc([nH]5)c(-c5ccc(S(=O)(=O)[O-])cc5)c5nc(c(-c6ccc(S(=O)(=O)[O-])cc6)c6ccc3[nH]6)C=C5)C=C4)cc2)cc1
REMARK SMILES IDX 15 1 14 2 12 3 13 4 11 5 8 6 9 7 81 8 10 9 80 10 7 11 4 13
REMARK SMILES IDX 2 14 1 15 3 16 5 17 6 18 16 20 17 21 18 22 19 23 20 24 21 25
REMARK SMILES IDX 79 26 22 27 78 28 23 29 24 30 25 31 72 32 26 33 77 34 71 35
REMARK SMILES IDX 73 36 27 37 76 38 70 39 69 40 28 42 58 43 39 44 57 45 40 46
REMARK SMILES IDX 43 47 56 48 74 49 41 50 42 51 55 53 75 54 44 55 29 56 30 57
REMARK SMILES IDX 38 58 31 59 37 60 32 61 33 62 34 63 35 64 36 65 59 66 60 67
REMARK SMILES IDX 68 68 61 69 67 70 62 71 63 72 64 73 65 74 66 75 45 76 46 77
REMARK SMILES IDX 54 78 47 79 53 80 48 81 49 82 50 83 51 84 52 85
REMARK H PARENT 7 12 6 19 73 41 43 52
REMARK Flexibility Score: inf
ROOT
ATOM      1  C   UNL A   1      39.827  21.932  26.469  1.00  0.00     0.275 C 
ENDROOT
BRANCH   1   2
ATOM      2  O   UNL A   1      38.472  22.299  26.137  1.00  0.00    -0.458 OA
BRANCH   2   3
ATOM      3  C   UNL A   1      37.841  21.443  25.295  1.00  0.00     0.338 C 
ATOM      4  O   UNL A   1      38.197  20.313  25.004  1.00  0.00    -0.246 OA
BRANCH   3   5
ATOM      5  C   UNL A   1      36.574  22.023  24.805  1.00  0.00     0.060 A 
ATOM      6  C   UNL A   1      34.268  23.331  23.855  1.00  0.00     0.034 A 
ATOM      7  C   UNL A   1      35.429  23.278  23.082  1.00  0.00     0.026 A 
ATOM      8  C   UNL A   1      34.274  22.700  25.106  1.00  0.00     0.026 A 
ATOM      9  C   UNL A   1      36.579  22.665  23.565  1.00  0.00     0.018 A 
ATOM     10  C   UNL A   1      35.411  22.024  25.574  1.00  0.00     0.018 A 
BRANCH   6  11
ATOM     11  N   UNL A   1      33.215  24.090  23.388  1.00  0.00    -0.380 N 
ATOM     12  H   UNL A   1      32.306  23.724  23.472  1.00  0.00     0.160 HD
BRANCH  11  13
ATOM     13  C   UNL A   1      33.373  25.412  22.772  1.00  0.00     0.107 C 
BRANCH  13  14
ATOM     14  C   UNL A   1      32.960  26.505  23.784  1.00  0.00     0.007 C 
ATOM     15  C   UNL A   1      31.500  26.349  24.217  1.00  0.00     0.009 C 
ATOM     16  C   UNL A   1      33.861  26.574  25.022  1.00  0.00     0.009 C 
ENDBRANCH  13  14
BRANCH  13  17
ATOM     17  C   UNL A   1      32.569  25.424  21.450  1.00  0.00     0.181 C 
BRANCH  17  18
ATOM     18  O   UNL A   1      33.235  26.225  20.471  1.00  0.00    -0.394 OA
ATOM     19  H   UNL A   1      32.794  27.088  20.404  1.00  0.00     0.210 HD
ENDBRANCH  17  18
ENDBRANCH  13  17
ENDBRANCH  11  13
ENDBRANCH   6  11
ENDBRANCH   3   5
ENDBRANCH   2   3
ENDBRANCH   1   2
BRANCH   1  20
ATOM     20  C   UNL A   1      40.735  23.162  26.510  1.00  0.00     0.275 C 
BRANCH  20  21
ATOM     21  O   UNL A   1      39.941  24.357  26.419  1.00  0.00    -0.458 OA
BRANCH  21  22
ATOM     22  C   UNL A   1      40.632  25.518  26.315  1.00  0.00     0.338 C 
ATOM     23  O   UNL A   1      41.169  25.958  25.312  1.00  0.00    -0.246 OA
BRANCH  22  24
ATOM     24  C   UNL A   1      40.656  26.221  27.617  1.00  0.00     0.060 A 
ATOM     25  C   UNL A   1      39.703  25.944  28.593  1.00  0.00     0.016 A 
ATOM     26  C   UNL A   1      41.573  27.249  27.829  1.00  0.00     0.016 A 
ATOM     27  C   UNL A   1      39.583  26.763  29.719  1.00  0.00     0.010 A 
ATOM     28  C   UNL A   1      41.528  27.992  29.017  1.00  0.00     0.010 A 
ATOM     29  C   UNL A   1      40.501  27.796  29.958  1.00  0.00    -0.014 A 
BRANCH  29  30
ATOM     30  C   UNL A   1      40.372  28.692  31.152  1.00  0.00     0.031 A 
ATOM     31  C   UNL A   1      39.307  29.767  31.189  1.00  0.00     0.074 A 
ATOM     32  C   UNL A   1      41.199  28.569  32.212  1.00  0.00     0.049 A 
ATOM     33  N   UNL A   1      39.168  30.767  32.025  1.00  0.00    -0.248 NA
ATOM     34  C   UNL A   1      38.280  29.726  30.136  1.00  0.00     0.031 C 
ATOM     35  C   UNL A   1      42.263  27.572  32.355  1.00  0.00     0.029 A 
ATOM     36  N   UNL A   1      41.269  29.289  33.383  1.00  0.00    -0.354 N 
ATOM     37  C   UNL A   1      38.099  31.519  31.547  1.00  0.00     0.074 A 
ATOM     38  C   UNL A   1      37.617  30.853  30.357  1.00  0.00     0.031 C 
ATOM     39  C   UNL A   1      42.839  27.707  33.559  1.00  0.00     0.029 A 
ATOM     40  C   UNL A   1      42.258  28.861  34.237  1.00  0.00     0.049 A 
ATOM     41  H   UNL A   1      40.668  30.041  33.588  1.00  0.00     0.167 HD
ATOM     42  C   UNL A   1      37.571  32.665  32.044  1.00  0.00     0.031 A 
ATOM     43  C   UNL A   1      42.690  29.355  35.415  1.00  0.00     0.031 A 
ATOM     44  C   UNL A   1      37.995  33.291  33.269  1.00  0.00     0.049 A 
ATOM     45  C   UNL A   1      42.071  30.604  35.968  1.00  0.00     0.074 A 
ATOM     46  C   UNL A   1      37.494  34.437  33.867  1.00  0.00     0.029 A 
ATOM     47  N   UNL A   1      38.999  32.816  34.098  1.00  0.00    -0.354 N 
ATOM     48  N   UNL A   1      41.106  31.336  35.465  1.00  0.00    -0.248 NA
ATOM     49  C   UNL A   1      42.614  31.108  37.238  1.00  0.00     0.031 C 
ATOM     50  C   UNL A   1      38.216  34.669  35.044  1.00  0.00     0.029 A 
ATOM     51  C   UNL A   1      39.138  33.647  35.198  1.00  0.00     0.049 A 
ATOM     52  H   UNL A   1      39.534  32.008  33.929  1.00  0.00     0.167 HD
ATOM     53  C   UNL A   1      40.931  32.391  36.353  1.00  0.00     0.074 A 
ATOM     54  C   UNL A   1      41.868  32.187  37.439  1.00  0.00     0.031 C 
ATOM     55  C   UNL A   1      40.079  33.441  36.267  1.00  0.00     0.031 A 
BRANCH  42  56
ATOM     56  C   UNL A   1      36.502  33.347  31.233  1.00  0.00    -0.014 A 
ATOM     57  C   UNL A   1      36.755  33.850  29.946  1.00  0.00     0.010 A 
ATOM     58  C   UNL A   1      35.204  33.458  31.769  1.00  0.00     0.010 A 
ATOM     59  C   UNL A   1      35.741  34.493  29.227  1.00  0.00     0.020 A 
ATOM     60  C   UNL A   1      34.183  34.079  31.045  1.00  0.00     0.020 A 
ATOM     61  C   UNL A   1      34.464  34.611  29.785  1.00  0.00     0.054 A 
BRANCH  61  62
ATOM     62  S   UNL A   1      33.162  35.442  28.834  1.00  0.00     0.124 S 
ATOM     63  O   UNL A   1      32.378  36.079  29.891  1.00  0.00    -0.237 OA
ATOM     64  O   UNL A   1      33.916  36.354  27.978  1.00  0.00    -0.237 OA
ATOM     65  O   UNL A   1      32.493  34.349  28.135  1.00  0.00    -0.744 OA
ENDBRANCH  61  62
ENDBRANCH  42  56
BRANCH  43  66
ATOM     66  C   UNL A   1      43.814  28.682  36.120  1.00  0.00    -0.014 A 
ATOM     67  C   UNL A   1      43.581  27.555  36.926  1.00  0.00     0.010 A 
ATOM     68  C   UNL A   1      45.134  29.139  35.943  1.00  0.00     0.010 A 
ATOM     69  C   UNL A   1      44.649  26.890  37.537  1.00  0.00     0.020 A 
ATOM     70  C   UNL A   1      46.205  28.461  36.529  1.00  0.00     0.020 A 
ATOM     71  C   UNL A   1      45.955  27.343  37.327  1.00  0.00     0.054 A 
BRANCH  71  72
ATOM     72  S   UNL A   1      47.340  26.411  38.040  1.00  0.00     0.124 S 
ATOM     73  O   UNL A   1      48.359  26.541  37.005  1.00  0.00    -0.237 OA
ATOM     74  O   UNL A   1      47.605  27.132  39.284  1.00  0.00    -0.237 OA
ATOM     75  O   UNL A   1      46.789  25.069  38.216  1.00  0.00    -0.744 OA
ENDBRANCH  71  72
ENDBRANCH  43  66
BRANCH  55  76
ATOM     76  C   UNL A   1      40.113  34.445  37.384  1.00  0.00    -0.014 A 
ATOM     77  C   UNL A   1      39.246  34.329  38.486  1.00  0.00     0.010 A 
ATOM     78  C   UNL A   1      41.044  35.498  37.350  1.00  0.00     0.010 A 
ATOM     79  C   UNL A   1      39.287  35.269  39.519  1.00  0.00     0.020 A 
ATOM     80  C   UNL A   1      41.102  36.429  38.391  1.00  0.00     0.020 A 
ATOM     81  C   UNL A   1      40.212  36.316  39.462  1.00  0.00     0.054 A 
BRANCH  81  82
ATOM     82  S   UNL A   1      40.272  37.510  40.827  1.00  0.00     0.124 S 
ATOM     83  O   UNL A   1      41.695  37.519  41.159  1.00  0.00    -0.237 OA
ATOM     84  O   UNL A   1      39.764  38.734  40.212  1.00  0.00    -0.237 OA
ATOM     85  O   UNL A   1      39.398  36.921  41.840  1.00  0.00    -0.744 OA
ENDBRANCH  81  82
ENDBRANCH  55  76
ENDBRANCH  29  30
ENDBRANCH  22  24
ENDBRANCH  21  22
ENDBRANCH  20  21
ENDBRANCH   1  20
TORSDOF 19
ENDMDL
MODEL 3
REMARK VINA RESULT:      -9.7      5.087     10.961
REMARK SMILES CC(C)[C@H](CO)Nc1ccc(C(=O)OCCOC(=O)c2ccc(-c3c4nc(c(-c5ccc(S(=O)(=O)[O-])cc5)c5ccc([nH]5)c(-c5ccc(S(=O)(=O)[O-])cc5)c5nc(c(-c6ccc(S(=O)(=O)[O-])cc6)c6ccc3[nH]6)C=C5)C=C4)cc2)cc1
REMARK SMILES IDX 15 1 14 2 12 3 13 4 11 5 8 6 9 7 81 8 10 9 80 10 7 11 4 13
REMARK SMILES IDX 2 14 1 15 3 16 5 17 6 18 16 20 17 21 18 22 19 23 20 24 21 25
REMARK SMILES IDX 79 26 22 27 78 28 23 29 24 30 25 31 72 32 26 33 77 34 71 35
REMARK SMILES IDX 73 36 27 37 76 38 70 39 69 40 28 42 58 43 39 44 57 45 40 46
REMARK SMILES IDX 43 47 56 48 74 49 41 50 42 51 55 53 75 54 44 55 29 56 30 57
REMARK SMILES IDX 38 58 31 59 37 60 32 61 33 62 34 63 35 64 36 65 59 66 60 67
REMARK SMILES IDX 68 68 61 69 67 70 62 71 63 72 64 73 65 74 66 75 45 76 46 77
REMARK SMILES IDX 54 78 47 79 53 80 48 81 49 82 50 83 51 84 52 85
REMARK H PARENT 7 12 6 19 73 41 43 52
REMARK Flexibility Score: inf
ROOT
ATOM      1  C   UNL A   1      32.438  29.773  25.446  1.00  0.00     0.275 C 
ENDROOT
BRANCH   1   2
ATOM      2  O   UNL A   1      31.255  28.975  25.232  1.00  0.00    -0.458 OA
BRANCH   2   3
ATOM      3  C   UNL A   1      31.164  28.414  23.999  1.00  0.00     0.338 C 
ATOM      4  O   UNL A   1      30.666  28.917  23.006  1.00  0.00    -0.246 OA
BRANCH   3   5
ATOM      5  C   UNL A   1      31.835  27.098  23.968  1.00  0.00     0.060 A 
ATOM      6  C   UNL A   1      32.947  24.519  23.767  1.00  0.00     0.034 A 
ATOM      7  C   UNL A   1      32.798  25.323  22.635  1.00  0.00     0.026 A 
ATOM      8  C   UNL A   1      32.548  25.036  25.006  1.00  0.00     0.026 A 
ATOM      9  C   UNL A   1      32.216  26.582  22.727  1.00  0.00     0.018 A 
ATOM     10  C   UNL A   1      32.018  26.330  25.117  1.00  0.00     0.018 A 
BRANCH   6  11
ATOM     11  N   UNL A   1      33.383  23.223  23.584  1.00  0.00    -0.380 N 
ATOM     12  H   UNL A   1      33.674  22.954  22.683  1.00  0.00     0.160 HD
BRANCH  11  13
ATOM     13  C   UNL A   1      33.439  22.223  24.656  1.00  0.00     0.107 C 
BRANCH  13  14
ATOM     14  C   UNL A   1      34.838  21.566  24.676  1.00  0.00     0.007 C 
ATOM     15  C   UNL A   1      35.749  22.214  25.722  1.00  0.00     0.009 C 
ATOM     16  C   UNL A   1      34.805  20.049  24.890  1.00  0.00     0.009 C 
ENDBRANCH  13  14
BRANCH  13  17
ATOM     17  C   UNL A   1      32.268  21.233  24.449  1.00  0.00     0.181 C 
BRANCH  17  18
ATOM     18  O   UNL A   1      31.533  21.071  25.664  1.00  0.00    -0.394 OA
ATOM     19  H   UNL A   1      30.757  20.510  25.500  1.00  0.00     0.210 HD
ENDBRANCH  17  18
ENDBRANCH  13  17
ENDBRANCH  11  13
ENDBRANCH   6  11
ENDBRANCH   3   5
ENDBRANCH   2   3
ENDBRANCH   1   2
BRANCH   1  20
ATOM     20  C   UNL A   1      32.423  30.413  26.835  1.00  0.00     0.275 C 
BRANCH  20  21
ATOM     21  O   UNL A   1      33.477  29.858  27.640  1.00  0.00    -0.458 OA
BRANCH  21  22
ATOM     22  C   UNL A   1      34.323  30.753  28.205  1.00  0.00     0.338 C 
ATOM     23  O   UNL A   1      34.051  31.886  28.561  1.00  0.00    -0.246 OA
BRANCH  22  24
ATOM     24  C   UNL A   1      35.673  30.164  28.349  1.00  0.00     0.060 A 
ATOM     25  C   UNL A   1      36.104  29.660  29.573  1.00  0.00     0.016 A 
ATOM     26  C   UNL A   1      36.564  30.212  27.277  1.00  0.00     0.016 A 
ATOM     27  C   UNL A   1      37.446  29.322  29.767  1.00  0.00     0.010 A 
ATOM     28  C   UNL A   1      37.879  29.756  27.441  1.00  0.00     0.010 A 
ATOM     29  C   UNL A   1      38.356  29.352  28.701  1.00  0.00    -0.014 A 
BRANCH  29  30
ATOM     30  C   UNL A   1      39.801  29.008  28.900  1.00  0.00     0.031 A 
ATOM     31  C   UNL A   1      40.759  30.033  29.469  1.00  0.00     0.074 A 
ATOM     32  C   UNL A   1      40.281  27.789  28.575  1.00  0.00     0.049 A 
ATOM     33  N   UNL A   1      42.068  30.004  29.521  1.00  0.00    -0.248 NA
ATOM     34  C   UNL A   1      40.169  31.260  30.029  1.00  0.00     0.031 C 
ATOM     35  C   UNL A   1      39.495  26.675  28.042  1.00  0.00     0.029 A 
ATOM     36  N   UNL A   1      41.557  27.278  28.655  1.00  0.00    -0.354 N 
ATOM     37  C   UNL A   1      42.458  31.239  30.033  1.00  0.00     0.074 A 
ATOM     38  C   UNL A   1      41.247  31.987  30.288  1.00  0.00     0.031 C 
ATOM     39  C   UNL A   1      40.288  25.603  27.894  1.00  0.00     0.029 A 
ATOM     40  C   UNL A   1      41.659  25.975  28.227  1.00  0.00     0.049 A 
ATOM     41  H   UNL A   1      42.324  27.798  28.987  1.00  0.00     0.167 HD
ATOM     42  C   UNL A   1      43.708  31.712  30.260  1.00  0.00     0.031 A 
ATOM     43  C   UNL A   1      42.731  25.173  28.071  1.00  0.00     0.031 A 
ATOM     44  C   UNL A   1      44.913  30.946  30.082  1.00  0.00     0.049 A 
ATOM     45  C   UNL A   1      44.104  25.702  28.360  1.00  0.00     0.074 A 
ATOM     46  C   UNL A   1      46.222  31.334  30.319  1.00  0.00     0.029 A 
ATOM     47  N   UNL A   1      44.961  29.631  29.647  1.00  0.00    -0.354 N 
ATOM     48  N   UNL A   1      44.454  26.894  28.780  1.00  0.00    -0.248 NA
ATOM     49  C   UNL A   1      45.230  24.785  28.135  1.00  0.00     0.031 C 
ATOM     50  C   UNL A   1      47.063  30.262  30.001  1.00  0.00     0.029 A 
ATOM     51  C   UNL A   1      46.275  29.194  29.604  1.00  0.00     0.049 A 
ATOM     52  H   UNL A   1      44.177  29.088  29.405  1.00  0.00     0.167 HD
ATOM     53  C   UNL A   1      45.841  26.872  28.862  1.00  0.00     0.074 A 
ATOM     54  C   UNL A   1      46.265  25.542  28.478  1.00  0.00     0.031 C 
ATOM     55  C   UNL A   1      46.687  27.872  29.211  1.00  0.00     0.031 A 
BRANCH  42  56
ATOM     56  C   UNL A   1      43.839  33.151  30.685  1.00  0.00    -0.014 A 
ATOM     57  C   UNL A   1      43.836  33.528  32.038  1.00  0.00     0.010 A 
ATOM     58  C   UNL A   1      43.998  34.143  29.698  1.00  0.00     0.010 A 
ATOM     59  C   UNL A   1      43.944  34.876  32.397  1.00  0.00     0.020 A 
ATOM     60  C   UNL A   1      44.129  35.488  30.053  1.00  0.00     0.020 A 
ATOM     61  C   UNL A   1      44.081  35.848  31.400  1.00  0.00     0.054 A 
BRANCH  61  62
ATOM     62  S   UNL A   1      44.225  37.591  31.886  1.00  0.00     0.124 S 
ATOM     63  O   UNL A   1      43.357  37.647  33.060  1.00  0.00    -0.237 OA
ATOM     64  O   UNL A   1      45.653  37.736  32.154  1.00  0.00    -0.237 OA
ATOM     65  O   UNL A   1      43.738  38.316  30.716  1.00  0.00    -0.744 OA
ENDBRANCH  61  62
ENDBRANCH  42  56
BRANCH  43  66
ATOM     66  C   UNL A   1      42.537  23.788  27.559  1.00  0.00    -0.014 A 
ATOM     67  C   UNL A   1      42.757  23.489  26.205  1.00  0.00     0.010 A 
ATOM     68  C   UNL A   1      42.183  22.751  28.443  1.00  0.00     0.010 A 
ATOM     69  C   UNL A   1      42.634  22.175  25.743  1.00  0.00     0.020 A 
ATOM     70  C   UNL A   1      42.087  21.434  27.991  1.00  0.00     0.020 A 
ATOM     71  C   UNL A   1      42.308  21.154  26.641  1.00  0.00     0.054 A 
BRANCH  71  72
ATOM     72  S   UNL A   1      42.253  19.439  26.050  1.00  0.00     0.124 S 
ATOM     73  O   UNL A   1      43.177  19.477  24.922  1.00  0.00    -0.237 OA
ATOM     74  O   UNL A   1      42.708  18.683  27.215  1.00  0.00    -0.237 OA
ATOM     75  O   UNL A   1      40.846  19.246  25.706  1.00  0.00    -0.744 OA
ENDBRANCH  71  72
ENDBRANCH  43  66
BRANCH  55  76
ATOM     76  C   UNL A   1      48.157  27.560  29.205  1.00  0.00    -0.014 A 
ATOM     77  C   UNL A   1      48.959  27.884  28.097  1.00  0.00     0.010 A 
ATOM     78  C   UNL A   1      48.750  26.966  30.334  1.00  0.00     0.010 A 
ATOM     79  C   UNL A   1      50.325  27.589  28.103  1.00  0.00     0.020 A 
ATOM     80  C   UNL A   1      50.120  26.688  30.351  1.00  0.00     0.020 A 
ATOM     81  C   UNL A   1      50.896  26.987  29.229  1.00  0.00     0.054 A 
BRANCH  81  82
ATOM     82  S   UNL A   1      52.676  26.639  29.232  1.00  0.00     0.124 S 
ATOM     83  O   UNL A   1      52.840  25.912  30.488  1.00  0.00    -0.237 OA
ATOM     84  O   UNL A   1      52.854  25.844  28.019  1.00  0.00    -0.237 OA
ATOM     85  O   UNL A   1      53.287  27.966  29.194  1.00  0.00    -0.744 OA
ENDBRANCH  81  82
ENDBRANCH  55  76
ENDBRANCH  29  30
ENDBRANCH  22  24
ENDBRANCH  21  22
ENDBRANCH  20  21
ENDBRANCH   1  20
TORSDOF 19
ENDMDL
