MODEL 1
REMARK VINA RESULT:     -12.9      0.000      0.000
REMARK SMILES O=C(OCCOC(=O)[C@@H]1CCCC[C@@H]1C(=O)Nc1cccc(C(F)(F)F)c1)c1ccc(-c2c3nc(c(-c4ccc(S(=O)(=O)[O-])cc4)c4ccc([nH]4)c(-c4ccc(S(=O)(=O)[O-])cc4)c4nc(c(-c5ccc(S(=O)(=O)[O-])cc5)c5ccc2[nH]5)C=C4)C=C3)cc1
REMARK SMILES IDX 4 1 3 2 2 3 1 4 28 5 29 6 87 7 30 8 86 9 31 10 32 11 33 12
REMARK SMILES IDX 80 13 34 14 85 15 79 16 81 17 35 18 84 19 78 20 77 21 36 23
REMARK SMILES IDX 66 24 47 25 65 26 48 27 51 28 64 29 82 30 49 31 50 32 63 34
REMARK SMILES IDX 83 35 52 36 37 37 38 38 46 39 39 40 45 41 40 42 41 43 42 44
REMARK SMILES IDX 43 45 44 46 67 47 68 48 76 49 69 50 75 51 70 52 71 53 72 54
REMARK SMILES IDX 73 55 74 56 53 57 54 58 62 59 55 60 61 61 56 62 57 63 58 64
REMARK SMILES IDX 59 65 60 66 5 67 6 68 7 69 8 70 9 71 10 72 14 73 11 74 13 75
REMARK SMILES IDX 12 76 15 77 16 78 17 79 18 81 19 82 27 83 20 84 22 85 21 86
REMARK SMILES IDX 23 87 24 88 25 89 26 90
REMARK H PARENT 81 22 51 33 17 80
REMARK Flexibility Score: inf
ROOT
ATOM      1  C   UNL A   1      39.282  21.695  25.931  1.00  0.00     0.275 C 
ENDROOT
BRANCH   1   2
ATOM      2  O   UNL A   1      39.504  22.890  26.667  1.00  0.00    -0.458 OA
BRANCH   2   3
ATOM      3  C   UNL A   1      40.543  23.044  27.507  1.00  0.00     0.338 C 
ATOM      4  O   UNL A   1      41.216  22.064  27.817  1.00  0.00    -0.246 OA
BRANCH   3   5
ATOM      5  C   UNL A   1      40.803  24.337  28.229  1.00  0.00     0.060 A 
ATOM      6  C   UNL A   1      42.374  25.203  28.366  1.00  0.00     0.016 A 
ATOM      7  C   UNL A   1      39.310  25.286  28.325  1.00  0.00     0.016 A 
ATOM      8  C   UNL A   1      42.355  27.053  28.467  1.00  0.00     0.010 A 
ATOM      9  C   UNL A   1      39.332  27.007  28.600  1.00  0.00     0.010 A 
ATOM     10  C   UNL A   1      40.794  27.948  28.842  1.00  0.00    -0.014 A 
BRANCH  10  11
ATOM     11  C   UNL A   1      40.512  28.929  30.190  1.00  0.00     0.031 A 
ATOM     12  C   UNL A   1      39.329  29.903  30.332  1.00  0.00     0.074 A 
ATOM     13  C   UNL A   1      40.896  28.777  31.489  1.00  0.00     0.049 A 
ATOM     14  N   UNL A   1      39.302  30.895  31.202  1.00  0.00    -0.248 NA
ATOM     15  C   UNL A   1      38.121  29.868  29.504  1.00  0.00     0.031 C 
ATOM     16  C   UNL A   1      40.133  28.074  32.539  1.00  0.00     0.029 A 
ATOM     17  N   UNL A   1      42.073  29.146  32.129  1.00  0.00    -0.354 N 
ATOM     18  C   UNL A   1      38.148  31.611  30.961  1.00  0.00     0.074 A 
ATOM     19  C   UNL A   1      37.521  31.010  29.812  1.00  0.00     0.031 C 
ATOM     20  C   UNL A   1      40.941  27.849  33.594  1.00  0.00     0.029 A 
ATOM     21  C   UNL A   1      42.234  28.504  33.366  1.00  0.00     0.049 A 
ATOM     22  H   UNL A   1      42.721  29.786  31.757  1.00  0.00     0.167 HD
ATOM     23  C   UNL A   1      37.641  32.643  31.672  1.00  0.00     0.031 A 
ATOM     24  C   UNL A   1      42.989  28.893  34.416  1.00  0.00     0.031 A 
ATOM     25  C   UNL A   1      38.172  33.084  32.939  1.00  0.00     0.049 A 
ATOM     26  C   UNL A   1      42.389  30.030  35.173  1.00  0.00     0.074 A 
ATOM     27  C   UNL A   1      37.747  34.148  33.714  1.00  0.00     0.029 A 
ATOM     28  N   UNL A   1      39.181  32.443  33.658  1.00  0.00    -0.354 N 
ATOM     29  N   UNL A   1      41.441  30.834  34.766  1.00  0.00    -0.248 NA
ATOM     30  C   UNL A   1      42.887  30.283  36.525  1.00  0.00     0.031 C 
ATOM     31  C   UNL A   1      38.519  34.181  34.879  1.00  0.00     0.029 A 
ATOM     32  C   UNL A   1      39.395  33.108  34.860  1.00  0.00     0.049 A 
ATOM     33  H   UNL A   1      39.668  31.642  33.359  1.00  0.00     0.167 HD
ATOM     34  C   UNL A   1      41.197  31.683  35.824  1.00  0.00     0.074 A 
ATOM     35  C   UNL A   1      42.085  31.271  36.901  1.00  0.00     0.031 C 
ATOM     36  C   UNL A   1      40.330  32.721  35.888  1.00  0.00     0.031 A 
BRANCH  23  37
ATOM     37  C   UNL A   1      36.486  33.396  31.062  1.00  0.00    -0.014 A 
ATOM     38  C   UNL A   1      35.306  33.682  31.770  1.00  0.00     0.010 A 
ATOM     39  C   UNL A   1      36.605  33.834  29.729  1.00  0.00     0.010 A 
ATOM     40  C   UNL A   1      34.254  34.363  31.146  1.00  0.00     0.020 A 
ATOM     41  C   UNL A   1      35.572  34.544  29.113  1.00  0.00     0.020 A 
ATOM     42  C   UNL A   1      34.397  34.794  29.822  1.00  0.00     0.054 A 
BRANCH  42  43
ATOM     43  S   UNL A   1      33.040  35.719  29.052  1.00  0.00     0.124 S 
ATOM     44  O   UNL A   1      32.495  34.738  28.117  1.00  0.00    -0.237 OA
ATOM     45  O   UNL A   1      32.188  36.042  30.193  1.00  0.00    -0.237 OA
ATOM     46  O   UNL A   1      33.707  36.863  28.434  1.00  0.00    -0.744 OA
ENDBRANCH  42  43
ENDBRANCH  23  37
BRANCH  24  47
ATOM     47  C   UNL A   1      43.915  27.914  35.062  1.00  0.00    -0.014 A 
ATOM     48  C   UNL A   1      45.301  28.107  35.210  1.00  0.00     0.010 A 
ATOM     49  C   UNL A   1      43.367  26.703  35.524  1.00  0.00     0.010 A 
ATOM     50  C   UNL A   1      46.102  27.122  35.820  1.00  0.00     0.020 A 
ATOM     51  C   UNL A   1      44.147  25.743  36.179  1.00  0.00     0.020 A 
ATOM     52  C   UNL A   1      45.516  25.951  36.312  1.00  0.00     0.054 A 
BRANCH  52  53
ATOM     53  S   UNL A   1      46.541  24.711  37.157  1.00  0.00     0.124 S 
ATOM     54  O   UNL A   1      47.316  25.533  38.079  1.00  0.00    -0.237 OA
ATOM     55  O   UNL A   1      45.543  23.837  37.769  1.00  0.00    -0.237 OA
ATOM     56  O   UNL A   1      47.302  24.100  36.069  1.00  0.00    -0.744 OA
ENDBRANCH  52  53
ENDBRANCH  24  47
BRANCH  36  57
ATOM     57  C   UNL A   1      40.394  33.528  37.149  1.00  0.00    -0.014 A 
ATOM     58  C   UNL A   1      39.521  33.229  38.211  1.00  0.00     0.010 A 
ATOM     59  C   UNL A   1      41.295  34.598  37.270  1.00  0.00     0.010 A 
ATOM     60  C   UNL A   1      39.497  34.032  39.348  1.00  0.00     0.020 A 
ATOM     61  C   UNL A   1      41.298  35.383  38.424  1.00  0.00     0.020 A 
ATOM     62  C   UNL A   1      40.381  35.110  39.443  1.00  0.00     0.054 A 
BRANCH  62  63
ATOM     63  S   UNL A   1      40.318  36.143  40.928  1.00  0.00     0.124 S 
ATOM     64  O   UNL A   1      40.557  37.474  40.380  1.00  0.00    -0.237 OA
ATOM     65  O   UNL A   1      38.967  35.902  41.429  1.00  0.00    -0.237 OA
ATOM     66  O   UNL A   1      41.392  35.610  41.765  1.00  0.00    -0.744 OA
ENDBRANCH  62  63
ENDBRANCH  36  57
ENDBRANCH  10  11
ENDBRANCH   3   5
ENDBRANCH   2   3
ENDBRANCH   1   2
BRANCH   1  67
ATOM     67  C   UNL A   1      37.945  21.742  25.169  1.00  0.00     0.274 C 
BRANCH  67  68
ATOM     68  O   UNL A   1      37.414  23.078  24.936  1.00  0.00    -0.462 OA
BRANCH  68  69
ATOM     69  C   UNL A   1      36.347  23.239  24.097  1.00  0.00     0.309 C 
ATOM     70  O   UNL A   1      36.429  23.018  22.896  1.00  0.00    -0.252 OA
BRANCH  69  71
ATOM     71  C   UNL A   1      35.019  23.774  24.802  1.00  0.00     0.111 C 
ATOM     72  C   UNL A   1      34.159  22.553  25.214  1.00  0.00     0.016 C 
ATOM     73  C   UNL A   1      34.081  25.363  24.344  1.00  0.00     0.093 C 
ATOM     74  C   UNL A   1      33.166  22.843  26.333  1.00  0.00     0.001 C 
ATOM     75  C   UNL A   1      33.330  25.386  25.908  1.00  0.00     0.014 C 
ATOM     76  C   UNL A   1      32.454  24.191  26.302  1.00  0.00     0.001 C 
BRANCH  73  77
ATOM     77  C   UNL A   1      33.301  25.917  22.365  1.00  0.00     0.228 C 
ATOM     78  O   UNL A   1      33.367  25.361  21.218  1.00  0.00    -0.274 OA
ATOM     79  N   UNL A   1      32.167  27.113  21.998  1.00  0.00    -0.326 N 
ATOM     80  H   UNL A   1      31.817  27.001  21.086  1.00  0.00     0.169 HD
BRANCH  79  81
ATOM     81  C   UNL A   1      31.525  28.334  22.696  1.00  0.00     0.041 A 
ATOM     82  C   UNL A   1      30.345  28.891  22.237  1.00  0.00     0.026 A 
ATOM     83  C   UNL A   1      32.003  28.957  23.899  1.00  0.00     0.039 A 
ATOM     84  C   UNL A   1      29.660  29.862  23.032  1.00  0.00     0.003 A 
ATOM     85  C   UNL A   1      31.335  29.845  24.750  1.00  0.00     0.058 A 
ATOM     86  C   UNL A   1      30.129  30.311  24.288  1.00  0.00     0.013 A 
BRANCH  85  87
ATOM     87  C   UNL A   1      31.942  30.100  26.119  1.00  0.00     0.416 C 
ATOM     88  F   UNL A   1      33.289  30.243  26.132  1.00  0.00    -0.166 F 
ATOM     89  F   UNL A   1      31.425  31.168  26.779  1.00  0.00    -0.166 F 
ATOM     90  F   UNL A   1      31.723  29.039  26.958  1.00  0.00    -0.166 F 
ENDBRANCH  85  87
ENDBRANCH  79  81
ENDBRANCH  73  77
ENDBRANCH  69  71
ENDBRANCH  68  69
ENDBRANCH  67  68
ENDBRANCH   1  67
TORSDOF 17
ENDMDL
MODEL 2
REMARK VINA RESULT:     -12.7      6.500     11.201
REMARK SMILES O=C(OCCOC(=O)[C@@H]1CCCC[C@@H]1C(=O)Nc1cccc(C(F)(F)F)c1)c1ccc(-c2c3nc(c(-c4ccc(S(=O)(=O)[O-])cc4)c4ccc([nH]4)c(-c4ccc(S(=O)(=O)[O-])cc4)c4nc(c(-c5ccc(S(=O)(=O)[O-])cc5)c5ccc2[nH]5)C=C4)C=C3)cc1
REMARK SMILES IDX 4 1 3 2 2 3 1 4 28 5 29 6 87 7 30 8 86 9 31 10 32 11 33 12
REMARK SMILES IDX 80 13 34 14 85 15 79 16 81 17 35 18 84 19 78 20 77 21 36 23
REMARK SMILES IDX 66 24 47 25 65 26 48 27 51 28 64 29 82 30 49 31 50 32 63 34
REMARK SMILES IDX 83 35 52 36 37 37 38 38 46 39 39 40 45 41 40 42 41 43 42 44
REMARK SMILES IDX 43 45 44 46 67 47 68 48 76 49 69 50 75 51 70 52 71 53 72 54
REMARK SMILES IDX 73 55 74 56 53 57 54 58 62 59 55 60 61 61 56 62 57 63 58 64
REMARK SMILES IDX 59 65 60 66 5 67 6 68 7 69 8 70 9 71 10 72 14 73 11 74 13 75
REMARK SMILES IDX 12 76 15 77 16 78 17 79 18 81 19 82 27 83 20 84 22 85 21 86
REMARK SMILES IDX 23 87 24 88 25 89 26 90
REMARK H PARENT 81 22 51 33 17 80
REMARK Flexibility Score: inf
ROOT
ATOM      1  C   UNL A   1      34.175  30.971  27.664  1.00  0.00     0.275 C 
ENDROOT
BRANCH   1   2
ATOM      2  O   UNL A   1      35.093  30.076  28.278  1.00  0.00    -0.458 OA
BRANCH   2   3
ATOM      3  C   UNL A   1      36.072  30.491  29.100  1.00  0.00     0.338 C 
ATOM      4  O   UNL A   1      35.905  31.509  29.769  1.00  0.00    -0.246 OA
BRANCH   3   5
ATOM      5  C   UNL A   1      37.438  29.863  29.100  1.00  0.00     0.060 A 
ATOM      6  C   UNL A   1      38.034  28.567  30.195  1.00  0.00     0.016 A 
ATOM      7  C   UNL A   1      38.165  30.002  27.490  1.00  0.00     0.016 A 
ATOM      8  C   UNL A   1      39.282  27.363  29.540  1.00  0.00     0.010 A 
ATOM      9  C   UNL A   1      39.463  28.960  26.976  1.00  0.00     0.010 A 
ATOM     10  C   UNL A   1      40.193  27.722  27.985  1.00  0.00    -0.014 A 
BRANCH  10  11
ATOM     11  C   UNL A   1      41.866  27.911  27.837  1.00  0.00     0.031 A 
ATOM     12  C   UNL A   1      42.669  29.092  28.413  1.00  0.00     0.074 A 
ATOM     13  C   UNL A   1      42.847  26.983  27.649  1.00  0.00     0.049 A 
ATOM     14  N   UNL A   1      43.884  29.413  28.010  1.00  0.00    -0.248 NA
ATOM     15  C   UNL A   1      42.172  30.010  29.440  1.00  0.00     0.031 C 
ATOM     16  C   UNL A   1      43.583  26.274  28.714  1.00  0.00     0.029 A 
ATOM     17  N   UNL A   1      43.341  26.421  26.478  1.00  0.00    -0.354 N 
ATOM     18  C   UNL A   1      44.230  30.578  28.662  1.00  0.00     0.074 A 
ATOM     19  C   UNL A   1      43.081  30.976  29.434  1.00  0.00     0.031 C 
ATOM     20  C   UNL A   1      44.235  25.225  28.175  1.00  0.00     0.029 A 
ATOM     21  C   UNL A   1      44.086  25.256  26.716  1.00  0.00     0.049 A 
ATOM     22  H   UNL A   1      43.186  26.797  25.582  1.00  0.00     0.167 HD
ATOM     23  C   UNL A   1      45.419  31.221  28.651  1.00  0.00     0.031 A 
ATOM     24  C   UNL A   1      45.026  24.691  25.928  1.00  0.00     0.031 A 
ATOM     25  C   UNL A   1      46.615  30.686  28.047  1.00  0.00     0.049 A 
ATOM     26  C   UNL A   1      46.321  25.431  25.949  1.00  0.00     0.074 A 
ATOM     27  C   UNL A   1      47.860  31.285  27.952  1.00  0.00     0.029 A 
ATOM     28  N   UNL A   1      46.746  29.405  27.512  1.00  0.00    -0.354 N 
ATOM     29  N   UNL A   1      46.525  26.653  26.370  1.00  0.00    -0.248 NA
ATOM     30  C   UNL A   1      47.512  24.729  25.469  1.00  0.00     0.031 C 
ATOM     31  C   UNL A   1      48.732  30.390  27.326  1.00  0.00     0.029 A 
ATOM     32  C   UNL A   1      48.052  29.210  27.075  1.00  0.00     0.049 A 
ATOM     33  H   UNL A   1      46.024  28.739  27.453  1.00  0.00     0.167 HD
ATOM     34  C   UNL A   1      47.879  26.870  26.236  1.00  0.00     0.074 A 
ATOM     35  C   UNL A   1      48.449  25.635  25.719  1.00  0.00     0.031 C 
ATOM     36  C   UNL A   1      48.580  27.997  26.500  1.00  0.00     0.031 A 
BRANCH  23  37
ATOM     37  C   UNL A   1      45.463  32.596  29.266  1.00  0.00    -0.014 A 
ATOM     38  C   UNL A   1      45.754  32.814  30.624  1.00  0.00     0.010 A 
ATOM     39  C   UNL A   1      45.209  33.706  28.437  1.00  0.00     0.010 A 
ATOM     40  C   UNL A   1      45.756  34.112  31.147  1.00  0.00     0.020 A 
ATOM     41  C   UNL A   1      45.245  35.005  28.947  1.00  0.00     0.020 A 
ATOM     42  C   UNL A   1      45.506  35.199  30.303  1.00  0.00     0.054 A 
BRANCH  42  43
ATOM     43  S   UNL A   1      45.566  36.875  30.994  1.00  0.00     0.124 S 
ATOM     44  O   UNL A   1      45.591  37.701  29.790  1.00  0.00    -0.237 OA
ATOM     45  O   UNL A   1      44.333  36.941  31.775  1.00  0.00    -0.237 OA
ATOM     46  O   UNL A   1      46.798  36.884  31.780  1.00  0.00    -0.744 OA
ENDBRANCH  42  43
ENDBRANCH  23  37
BRANCH  24  47
ATOM     47  C   UNL A   1      44.955  23.230  25.624  1.00  0.00    -0.014 A 
ATOM     48  C   UNL A   1      46.048  22.449  25.205  1.00  0.00     0.010 A 
ATOM     49  C   UNL A   1      43.701  22.601  25.734  1.00  0.00     0.010 A 
ATOM     50  C   UNL A   1      45.885  21.078  24.926  1.00  0.00     0.020 A 
ATOM     51  C   UNL A   1      43.542  21.228  25.511  1.00  0.00     0.020 A 
ATOM     52  C   UNL A   1      44.635  20.474  25.093  1.00  0.00     0.054 A 
BRANCH  52  53
ATOM     53  S   UNL A   1      44.442  18.692  24.796  1.00  0.00     0.124 S 
ATOM     54  O   UNL A   1      44.628  18.601  23.353  1.00  0.00    -0.237 OA
ATOM     55  O   UNL A   1      45.508  18.116  25.612  1.00  0.00    -0.237 OA
ATOM     56  O   UNL A   1      43.089  18.413  25.274  1.00  0.00    -0.744 OA
ENDBRANCH  52  53
ENDBRANCH  24  47
BRANCH  36  57
ATOM     57  C   UNL A   1      50.032  27.945  26.129  1.00  0.00    -0.014 A 
ATOM     58  C   UNL A   1      50.418  28.188  24.798  1.00  0.00     0.010 A 
ATOM     59  C   UNL A   1      51.006  27.626  27.088  1.00  0.00     0.010 A 
ATOM     60  C   UNL A   1      51.749  28.044  24.416  1.00  0.00     0.020 A 
ATOM     61  C   UNL A   1      52.347  27.515  26.715  1.00  0.00     0.020 A 
ATOM     62  C   UNL A   1      52.704  27.699  25.376  1.00  0.00     0.054 A 
BRANCH  62  63
ATOM     63  S   UNL A   1      54.424  27.508  24.846  1.00  0.00     0.124 S 
ATOM     64  O   UNL A   1      55.106  27.276  26.116  1.00  0.00    -0.237 OA
ATOM     65  O   UNL A   1      54.356  26.356  23.949  1.00  0.00    -0.237 OA
ATOM     66  O   UNL A   1      54.729  28.781  24.196  1.00  0.00    -0.744 OA
ENDBRANCH  62  63
ENDBRANCH  36  57
ENDBRANCH  10  11
ENDBRANCH   3   5
ENDBRANCH   2   3
ENDBRANCH   1   2
BRANCH   1  67
ATOM     67  C   UNL A   1      32.895  30.243  27.212  1.00  0.00     0.274 C 
BRANCH  67  68
ATOM     68  O   UNL A   1      33.061  28.826  26.919  1.00  0.00    -0.462 OA
BRANCH  68  69
ATOM     69  C   UNL A   1      33.146  28.416  25.618  1.00  0.00     0.309 C 
ATOM     70  O   UNL A   1      34.094  28.718  24.905  1.00  0.00    -0.252 OA
BRANCH  69  71
ATOM     71  C   UNL A   1      31.900  27.561  25.105  1.00  0.00     0.111 C 
ATOM     72  C   UNL A   1      31.501  26.563  26.221  1.00  0.00     0.016 C 
ATOM     73  C   UNL A   1      31.596  27.006  23.313  1.00  0.00     0.093 C 
ATOM     74  C   UNL A   1      30.061  26.071  26.126  1.00  0.00     0.001 C 
ATOM     75  C   UNL A   1      29.907  26.794  23.651  1.00  0.00     0.014 C 
ATOM     76  C   UNL A   1      29.512  25.783  24.733  1.00  0.00     0.001 C 
BRANCH  73  77
ATOM     77  C   UNL A   1      32.962  25.853  22.034  1.00  0.00     0.228 C 
ATOM     78  O   UNL A   1      33.307  25.963  20.810  1.00  0.00    -0.274 OA
ATOM     79  N   UNL A   1      34.094  24.695  22.510  1.00  0.00    -0.326 N 
ATOM     80  H   UNL A   1      34.733  24.505  21.786  1.00  0.00     0.169 HD
BRANCH  79  81
ATOM     81  C   UNL A   1      34.409  23.850  23.766  1.00  0.00     0.041 A 
ATOM     82  C   UNL A   1      34.700  24.443  24.982  1.00  0.00     0.026 A 
ATOM     83  C   UNL A   1      34.355  22.417  23.845  1.00  0.00     0.039 A 
ATOM     84  C   UNL A   1      34.756  23.645  26.166  1.00  0.00     0.003 A 
ATOM     85  C   UNL A   1      34.321  21.603  24.984  1.00  0.00     0.058 A 
ATOM     86  C   UNL A   1      34.537  22.248  26.176  1.00  0.00     0.013 A 
BRANCH  85  87
ATOM     87  C   UNL A   1      33.937  20.146  24.797  1.00  0.00     0.416 C 
ATOM     88  F   UNL A   1      33.085  19.903  23.772  1.00  0.00    -0.166 F 
ATOM     89  F   UNL A   1      34.986  19.297  24.647  1.00  0.00    -0.166 F 
ATOM     90  F   UNL A   1      33.265  19.671  25.892  1.00  0.00    -0.166 F 
ENDBRANCH  85  87
ENDBRANCH  79  81
ENDBRANCH  73  77
ENDBRANCH  69  71
ENDBRANCH  68  69
ENDBRANCH  67  68
ENDBRANCH   1  67
TORSDOF 17
ENDMDL
MODEL 3
REMARK VINA RESULT:     -12.7      6.468     11.519
REMARK SMILES O=C(OCCOC(=O)[C@@H]1CCCC[C@@H]1C(=O)Nc1cccc(C(F)(F)F)c1)c1ccc(-c2c3nc(c(-c4ccc(S(=O)(=O)[O-])cc4)c4ccc([nH]4)c(-c4ccc(S(=O)(=O)[O-])cc4)c4nc(c(-c5ccc(S(=O)(=O)[O-])cc5)c5ccc2[nH]5)C=C4)C=C3)cc1
REMARK SMILES IDX 4 1 3 2 2 3 1 4 28 5 29 6 87 7 30 8 86 9 31 10 32 11 33 12
REMARK SMILES IDX 80 13 34 14 85 15 79 16 81 17 35 18 84 19 78 20 77 21 36 23
REMARK SMILES IDX 66 24 47 25 65 26 48 27 51 28 64 29 82 30 49 31 50 32 63 34
REMARK SMILES IDX 83 35 52 36 37 37 38 38 46 39 39 40 45 41 40 42 41 43 42 44
REMARK SMILES IDX 43 45 44 46 67 47 68 48 76 49 69 50 75 51 70 52 71 53 72 54
REMARK SMILES IDX 73 55 74 56 53 57 54 58 62 59 55 60 61 61 56 62 57 63 58 64
REMARK SMILES IDX 59 65 60 66 5 67 6 68 7 69 8 70 9 71 10 72 14 73 11 74 13 75
REMARK SMILES IDX 12 76 15 77 16 78 17 79 18 81 19 82 27 83 20 84 22 85 21 86
REMARK SMILES IDX 23 87 24 88 25 89 26 90
REMARK H PARENT 81 22 51 33 17 80
REMARK Flexibility Score: inf
ROOT
ATOM      1  C   UNL A   1      33.989  30.095  27.522  1.00  0.00     0.275 C 
ENDROOT
BRANCH   1   2
ATOM      2  O   UNL A   1      34.510  31.043  28.444  1.00  0.00    -0.458 OA
BRANCH   2   3
ATOM      3  C   UNL A   1      35.619  31.761  28.199  1.00  0.00     0.338 C 
ATOM      4  O   UNL A   1      35.529  32.808  27.560  1.00  0.00    -0.246 OA
BRANCH   3   5
ATOM      5  C   UNL A   1      36.995  31.243  28.515  1.00  0.00     0.060 A 
ATOM      6  C   UNL A   1      37.775  31.160  30.133  1.00  0.00     0.016 A 
ATOM      7  C   UNL A   1      37.500  30.079  27.278  1.00  0.00     0.016 A 
ATOM      8  C   UNL A   1      38.968  29.782  30.468  1.00  0.00     0.010 A 
ATOM      9  C   UNL A   1      38.756  28.909  27.577  1.00  0.00     0.010 A 
ATOM     10  C   UNL A   1      39.655  28.790  29.081  1.00  0.00    -0.014 A 
BRANCH  10  11
ATOM     11  C   UNL A   1      41.287  28.680  28.654  1.00  0.00     0.031 A 
ATOM     12  C   UNL A   1      42.339  29.770  28.927  1.00  0.00     0.074 A 
ATOM     13  C   UNL A   1      42.075  27.586  28.452  1.00  0.00     0.049 A 
ATOM     14  N   UNL A   1      43.499  29.835  28.302  1.00  0.00    -0.248 NA
ATOM     15  C   UNL A   1      42.166  30.871  29.876  1.00  0.00     0.031 C 
ATOM     16  C   UNL A   1      42.874  26.894  29.482  1.00  0.00     0.029 A 
ATOM     17  N   UNL A   1      42.272  26.817  27.312  1.00  0.00    -0.354 N 
ATOM     18  C   UNL A   1      44.118  30.995  28.720  1.00  0.00     0.074 A 
ATOM     19  C   UNL A   1      43.190  31.666  29.594  1.00  0.00     0.031 C 
ATOM     20  C   UNL A   1      43.264  25.695  29.005  1.00  0.00     0.029 A 
ATOM     21  C   UNL A   1      42.871  25.580  27.596  1.00  0.00     0.049 A 
ATOM     22  H   UNL A   1      42.021  27.107  26.406  1.00  0.00     0.167 HD
ATOM     23  C   UNL A   1      45.368  31.425  28.437  1.00  0.00     0.031 A 
ATOM     24  C   UNL A   1      43.569  24.780  26.763  1.00  0.00     0.031 A 
ATOM     25  C   UNL A   1      46.351  30.633  27.740  1.00  0.00     0.049 A 
ATOM     26  C   UNL A   1      44.941  25.291  26.481  1.00  0.00     0.074 A 
ATOM     27  C   UNL A   1      47.634  31.001  27.372  1.00  0.00     0.029 A 
ATOM     28  N   UNL A   1      46.201  29.294  27.379  1.00  0.00    -0.354 N 
ATOM     29  N   UNL A   1      45.389  26.503  26.688  1.00  0.00    -0.248 NA
ATOM     30  C   UNL A   1      45.917  24.350  25.930  1.00  0.00     0.031 C 
ATOM     31  C   UNL A   1      48.246  29.907  26.754  1.00  0.00     0.029 A 
ATOM     32  C   UNL A   1      47.369  28.835  26.780  1.00  0.00     0.049 A 
ATOM     33  H   UNL A   1      45.390  28.755  27.527  1.00  0.00     0.167 HD
ATOM     34  C   UNL A   1      46.716  26.475  26.319  1.00  0.00     0.074 A 
ATOM     35  C   UNL A   1      47.004  25.110  25.902  1.00  0.00     0.031 C 
ATOM     36  C   UNL A   1      47.609  27.493  26.310  1.00  0.00     0.031 A 
BRANCH  23  37
ATOM     37  C   UNL A   1      45.716  32.836  28.836  1.00  0.00    -0.014 A 
ATOM     38  C   UNL A   1      45.431  33.948  28.024  1.00  0.00     0.010 A 
ATOM     39  C   UNL A   1      46.345  33.043  30.079  1.00  0.00     0.010 A 
ATOM     40  C   UNL A   1      45.799  35.235  28.434  1.00  0.00     0.020 A 
ATOM     41  C   UNL A   1      46.683  34.328  30.507  1.00  0.00     0.020 A 
ATOM     42  C   UNL A   1      46.418  35.416  29.675  1.00  0.00     0.054 A 
BRANCH  42  43
ATOM     43  S   UNL A   1      46.840  37.099  30.206  1.00  0.00     0.124 S 
ATOM     44  O   UNL A   1      48.109  37.326  29.520  1.00  0.00    -0.237 OA
ATOM     45  O   UNL A   1      45.709  37.881  29.711  1.00  0.00    -0.237 OA
ATOM     46  O   UNL A   1      46.929  36.993  31.661  1.00  0.00    -0.744 OA
ENDBRANCH  42  43
ENDBRANCH  23  37
BRANCH  24  47
ATOM     47  C   UNL A   1      43.235  23.325  26.685  1.00  0.00    -0.014 A 
ATOM     48  C   UNL A   1      42.313  22.673  27.525  1.00  0.00     0.010 A 
ATOM     49  C   UNL A   1      43.913  22.550  25.727  1.00  0.00     0.010 A 
ATOM     50  C   UNL A   1      42.071  21.293  27.390  1.00  0.00     0.020 A 
ATOM     51  C   UNL A   1      43.639  21.189  25.550  1.00  0.00     0.020 A 
ATOM     52  C   UNL A   1      42.727  20.562  26.394  1.00  0.00     0.054 A 
BRANCH  52  53
ATOM     53  S   UNL A   1      42.363  18.795  26.178  1.00  0.00     0.124 S 
ATOM     54  O   UNL A   1      43.299  18.417  25.126  1.00  0.00    -0.237 OA
ATOM     55  O   UNL A   1      42.643  18.248  27.504  1.00  0.00    -0.237 OA
ATOM     56  O   UNL A   1      40.952  18.782  25.798  1.00  0.00    -0.744 OA
ENDBRANCH  52  53
ENDBRANCH  24  47
BRANCH  36  57
ATOM     57  C   UNL A   1      48.951  27.158  25.733  1.00  0.00    -0.014 A 
ATOM     58  C   UNL A   1      50.001  26.775  26.588  1.00  0.00     0.010 A 
ATOM     59  C   UNL A   1      49.180  27.252  24.351  1.00  0.00     0.010 A 
ATOM     60  C   UNL A   1      51.278  26.560  26.079  1.00  0.00     0.020 A 
ATOM     61  C   UNL A   1      50.452  27.003  23.833  1.00  0.00     0.020 A 
ATOM     62  C   UNL A   1      51.498  26.684  24.705  1.00  0.00     0.054 A 
BRANCH  62  63
ATOM     63  S   UNL A   1      53.172  26.410  24.074  1.00  0.00     0.124 S 
ATOM     64  O   UNL A   1      53.000  26.656  22.646  1.00  0.00    -0.237 OA
ATOM     65  O   UNL A   1      53.954  27.412  24.796  1.00  0.00    -0.237 OA
ATOM     66  O   UNL A   1      53.456  25.024  24.439  1.00  0.00    -0.744 OA
ENDBRANCH  62  63
ENDBRANCH  36  57
ENDBRANCH  10  11
ENDBRANCH   3   5
ENDBRANCH   2   3
ENDBRANCH   1   2
BRANCH   1  67
ATOM     67  C   UNL A   1      32.778  30.661  26.756  1.00  0.00     0.274 C 
BRANCH  67  68
ATOM     68  O   UNL A   1      31.585  29.826  26.785  1.00  0.00    -0.462 OA
BRANCH  68  69
ATOM     69  C   UNL A   1      31.715  28.477  26.960  1.00  0.00     0.309 C 
ATOM     70  O   UNL A   1      31.744  27.970  28.074  1.00  0.00    -0.252 OA
BRANCH  69  71
ATOM     71  C   UNL A   1      31.868  27.640  25.611  1.00  0.00     0.111 C 
ATOM     72  C   UNL A   1      30.813  28.150  24.597  1.00  0.00     0.016 C 
ATOM     73  C   UNL A   1      32.352  25.805  25.491  1.00  0.00     0.093 C 
ATOM     74  C   UNL A   1      31.158  27.856  23.142  1.00  0.00     0.001 C 
ATOM     75  C   UNL A   1      32.846  26.030  23.843  1.00  0.00     0.014 C 
ATOM     76  C   UNL A   1      31.793  26.504  22.835  1.00  0.00     0.001 C 
BRANCH  73  77
ATOM     77  C   UNL A   1      31.363  24.108  26.477  1.00  0.00     0.228 C 
ATOM     78  O   UNL A   1      30.318  24.013  27.203  1.00  0.00    -0.274 OA
ATOM     79  N   UNL A   1      31.651  22.462  26.236  1.00  0.00    -0.326 N 
ATOM     80  H   UNL A   1      30.925  21.916  26.615  1.00  0.00     0.169 HD
BRANCH  79  81
ATOM     81  C   UNL A   1      32.736  21.572  25.586  1.00  0.00     0.041 A 
ATOM     82  C   UNL A   1      34.082  21.781  25.828  1.00  0.00     0.026 A 
ATOM     83  C   UNL A   1      32.491  20.422  24.762  1.00  0.00     0.039 A 
ATOM     84  C   UNL A   1      35.040  20.808  25.404  1.00  0.00     0.003 A 
ATOM     85  C   UNL A   1      33.378  19.403  24.394  1.00  0.00     0.058 A 
ATOM     86  C   UNL A   1      34.693  19.618  24.725  1.00  0.00     0.013 A 
BRANCH  85  87
ATOM     87  C   UNL A   1      32.789  18.140  23.791  1.00  0.00     0.416 C 
ATOM     88  F   UNL A   1      31.733  18.337  22.964  1.00  0.00    -0.166 F 
ATOM     89  F   UNL A   1      33.677  17.365  23.117  1.00  0.00    -0.166 F 
ATOM     90  F   UNL A   1      32.285  17.319  24.764  1.00  0.00    -0.166 F 
ENDBRANCH  85  87
ENDBRANCH  79  81
ENDBRANCH  73  77
ENDBRANCH  69  71
ENDBRANCH  68  69
ENDBRANCH  67  68
ENDBRANCH   1  67
TORSDOF 17
ENDMDL
