MODEL 1
REMARK VINA RESULT:      -9.8      0.000      0.000
REMARK SMILES C[C@H](SC1CCOCC1)c1ccc(C(=O)OCCOC(=O)c2ccc(-c3c4nc(c(-c5ccc(S(=O)(=O)[O-])cc5)c5ccc([nH]5)c(-c5ccc(S(=O)(=O)[O-])cc5)c5nc(c(-c6ccc(S(=O)(=O)[O-])cc6)c6ccc3[nH]6)C=C5)C=C4)cc2)o1
REMARK SMILES IDX 17 1 16 2 14 3 15 4 13 5 10 6 11 7 82 8 12 9 2 10 1 11 3 12
REMARK SMILES IDX 4 13 5 14 9 15 6 16 8 17 7 18 18 19 19 20 20 21 21 22 22 23
REMARK SMILES IDX 23 24 81 25 24 26 80 27 25 28 26 29 27 30 74 31 28 32 79 33
REMARK SMILES IDX 73 34 75 35 29 36 78 37 72 38 71 39 30 41 60 42 41 43 59 44
REMARK SMILES IDX 42 45 45 46 58 47 76 48 43 49 44 50 57 52 77 53 46 54 31 55
REMARK SMILES IDX 32 56 40 57 33 58 39 59 34 60 35 61 36 62 37 63 38 64 61 65
REMARK SMILES IDX 62 66 70 67 63 68 69 69 64 70 65 71 66 72 67 73 68 74 47 75
REMARK SMILES IDX 48 76 56 77 49 78 55 79 50 80 51 81 52 82 53 83 54 84
REMARK H PARENT 75 40 45 51
REMARK Flexibility Score: inf
ROOT
ATOM      1  C   UNL A   1      33.486  33.610  28.021  1.00  0.00     0.275 C 
ENDROOT
BRANCH   1   2
ATOM      2  O   UNL A   1      34.053  34.665  28.821  1.00  0.00    -0.456 OA
BRANCH   2   3
ATOM      3  C   UNL A   1      33.151  35.518  29.395  1.00  0.00     0.374 C 
ATOM      4  O   UNL A   1      32.267  36.098  28.781  1.00  0.00    -0.242 OA
BRANCH   3   5
ATOM      5  C   UNL A   1      33.331  35.544  30.830  1.00  0.00     0.211 A 
ATOM      6  C   UNL A   1      34.052  34.648  32.728  1.00  0.00     0.117 A 
ATOM      7  C   UNL A   1      33.741  35.965  33.004  1.00  0.00     0.048 A 
ATOM      8  O   UNL A   1      33.730  34.380  31.428  1.00  0.00    -0.453 OA
ATOM      9  C   UNL A   1      33.280  36.539  31.788  1.00  0.00     0.058 A 
BRANCH   6  10
ATOM     10  C   UNL A   1      34.785  33.558  33.453  1.00  0.00     0.110 C 
ATOM     11  C   UNL A   1      35.530  34.036  34.694  1.00  0.00     0.028 C 
BRANCH  10  12
ATOM     12  S   UNL A   1      35.714  32.394  32.382  1.00  0.00    -0.147 SA
BRANCH  12  13
ATOM     13  C   UNL A   1      36.811  33.397  31.309  1.00  0.00     0.052 C 
ATOM     14  C   UNL A   1      37.053  32.892  29.889  1.00  0.00     0.043 C 
ATOM     15  C   UNL A   1      38.127  33.794  31.970  1.00  0.00     0.043 C 
ATOM     16  C   UNL A   1      37.828  33.943  29.102  1.00  0.00     0.161 C 
ATOM     17  C   UNL A   1      38.844  34.801  31.075  1.00  0.00     0.161 C 
ATOM     18  O   UNL A   1      39.051  34.269  29.767  1.00  0.00    -0.381 OA
ENDBRANCH  12  13
ENDBRANCH  10  12
ENDBRANCH   6  10
ENDBRANCH   3   5
ENDBRANCH   2   3
ENDBRANCH   1   2
BRANCH   1  19
ATOM     19  C   UNL A   1      33.965  32.227  28.484  1.00  0.00     0.275 C 
BRANCH  19  20
ATOM     20  O   UNL A   1      34.392  31.399  27.385  1.00  0.00    -0.458 OA
BRANCH  20  21
ATOM     21  C   UNL A   1      34.553  30.086  27.679  1.00  0.00     0.338 C 
ATOM     22  O   UNL A   1      33.735  29.197  27.506  1.00  0.00    -0.246 OA
BRANCH  21  23
ATOM     23  C   UNL A   1      35.934  29.835  28.129  1.00  0.00     0.060 A 
ATOM     24  C   UNL A   1      36.958  30.010  27.196  1.00  0.00     0.016 A 
ATOM     25  C   UNL A   1      36.226  29.370  29.414  1.00  0.00     0.016 A 
ATOM     26  C   UNL A   1      38.276  29.728  27.540  1.00  0.00     0.010 A 
ATOM     27  C   UNL A   1      37.555  29.084  29.758  1.00  0.00     0.010 A 
ATOM     28  C   UNL A   1      38.587  29.255  28.820  1.00  0.00    -0.014 A 
BRANCH  28  29
ATOM     29  C   UNL A   1      39.995  28.908  29.134  1.00  0.00     0.031 A 
ATOM     30  C   UNL A   1      40.866  29.890  29.863  1.00  0.00     0.074 A 
ATOM     31  C   UNL A   1      40.469  27.686  28.826  1.00  0.00     0.049 A 
ATOM     32  N   UNL A   1      42.114  29.768  30.235  1.00  0.00    -0.248 NA
ATOM     33  C   UNL A   1      40.250  31.175  30.226  1.00  0.00     0.031 C 
ATOM     34  C   UNL A   1      39.702  26.622  28.174  1.00  0.00     0.029 A 
ATOM     35  N   UNL A   1      41.704  27.128  29.036  1.00  0.00    -0.354 N 
ATOM     36  C   UNL A   1      42.440  30.963  30.864  1.00  0.00     0.074 A 
ATOM     37  C   UNL A   1      41.262  31.803  30.810  1.00  0.00     0.031 C 
ATOM     38  C   UNL A   1      40.482  25.536  28.050  1.00  0.00     0.029 A 
ATOM     39  C   UNL A   1      41.811  25.837  28.576  1.00  0.00     0.049 A 
ATOM     40  H   UNL A   1      42.445  27.606  29.474  1.00  0.00     0.167 HD
ATOM     41  C   UNL A   1      43.614  31.329  31.435  1.00  0.00     0.031 A 
ATOM     42  C   UNL A   1      42.864  24.997  28.563  1.00  0.00     0.031 A 
ATOM     43  C   UNL A   1      44.787  30.497  31.483  1.00  0.00     0.049 A 
ATOM     44  C   UNL A   1      44.176  25.449  29.140  1.00  0.00     0.074 A 
ATOM     45  C   UNL A   1      46.023  30.780  32.038  1.00  0.00     0.029 A 
ATOM     46  N   UNL A   1      44.874  29.220  30.949  1.00  0.00    -0.354 N 
ATOM     47  N   UNL A   1      44.469  26.586  29.724  1.00  0.00    -0.248 NA
ATOM     48  C   UNL A   1      45.300  24.506  29.054  1.00  0.00     0.031 C 
ATOM     49  C   UNL A   1      46.870  29.690  31.802  1.00  0.00     0.029 A 
ATOM     50  C   UNL A   1      46.148  28.710  31.141  1.00  0.00     0.049 A 
ATOM     51  H   UNL A   1      44.137  28.744  30.501  1.00  0.00     0.167 HD
ATOM     52  C   UNL A   1      45.808  26.492  30.088  1.00  0.00     0.074 A 
ATOM     53  C   UNL A   1      46.263  25.179  29.670  1.00  0.00     0.031 C 
ATOM     54  C   UNL A   1      46.589  27.408  30.710  1.00  0.00     0.031 A 
BRANCH  41  55
ATOM     55  C   UNL A   1      43.693  32.716  32.010  1.00  0.00    -0.014 A 
ATOM     56  C   UNL A   1      43.322  32.976  33.343  1.00  0.00     0.010 A 
ATOM     57  C   UNL A   1      44.151  33.774  31.206  1.00  0.00     0.010 A 
ATOM     58  C   UNL A   1      43.364  34.280  33.843  1.00  0.00     0.020 A 
ATOM     59  C   UNL A   1      44.214  35.076  31.711  1.00  0.00     0.020 A 
ATOM     60  C   UNL A   1      43.797  35.324  33.021  1.00  0.00     0.054 A 
BRANCH  60  61
ATOM     61  S   UNL A   1      43.832  37.011  33.688  1.00  0.00     0.124 S 
ATOM     62  O   UNL A   1      42.707  36.988  34.618  1.00  0.00    -0.237 OA
ATOM     63  O   UNL A   1      45.155  37.088  34.304  1.00  0.00    -0.237 OA
ATOM     64  O   UNL A   1      43.649  37.853  32.508  1.00  0.00    -0.744 OA
ENDBRANCH  60  61
ENDBRANCH  41  55
BRANCH  42  65
ATOM     65  C   UNL A   1      42.719  23.644  27.959  1.00  0.00    -0.014 A 
ATOM     66  C   UNL A   1      42.194  22.577  28.707  1.00  0.00     0.010 A 
ATOM     67  C   UNL A   1      43.086  23.428  26.618  1.00  0.00     0.010 A 
ATOM     68  C   UNL A   1      42.038  21.315  28.125  1.00  0.00     0.020 A 
ATOM     69  C   UNL A   1      42.911  22.174  26.026  1.00  0.00     0.020 A 
ATOM     70  C   UNL A   1      42.394  21.123  26.787  1.00  0.00     0.054 A 
BRANCH  70  71
ATOM     71  S   UNL A   1      42.118  19.498  26.027  1.00  0.00     0.124 S 
ATOM     72  O   UNL A   1      42.585  18.592  27.071  1.00  0.00    -0.237 OA
ATOM     73  O   UNL A   1      40.678  19.500  25.786  1.00  0.00    -0.237 OA
ATOM     74  O   UNL A   1      42.942  19.542  24.820  1.00  0.00    -0.744 OA
ENDBRANCH  70  71
ENDBRANCH  42  65
BRANCH  54  75
ATOM     75  C   UNL A   1      48.014  27.019  30.994  1.00  0.00    -0.014 A 
ATOM     76  C   UNL A   1      48.376  26.444  32.225  1.00  0.00     0.010 A 
ATOM     77  C   UNL A   1      48.995  27.186  30.000  1.00  0.00     0.010 A 
ATOM     78  C   UNL A   1      49.700  26.066  32.466  1.00  0.00     0.020 A 
ATOM     79  C   UNL A   1      50.315  26.791  30.229  1.00  0.00     0.020 A 
ATOM     80  C   UNL A   1      50.662  26.245  31.467  1.00  0.00     0.054 A 
BRANCH  80  81
ATOM     81  S   UNL A   1      52.367  25.708  31.784  1.00  0.00     0.124 S 
ATOM     82  O   UNL A   1      52.745  26.553  32.914  1.00  0.00    -0.237 OA
ATOM     83  O   UNL A   1      52.207  24.288  32.088  1.00  0.00    -0.237 OA
ATOM     84  O   UNL A   1      53.058  25.996  30.530  1.00  0.00    -0.744 OA
ENDBRANCH  80  81
ENDBRANCH  54  75
ENDBRANCH  28  29
ENDBRANCH  21  23
ENDBRANCH  20  21
ENDBRANCH  19  20
ENDBRANCH   1  19
TORSDOF 17
ENDMDL
MODEL 2
REMARK VINA RESULT:      -9.4      2.133      2.801
REMARK SMILES C[C@H](SC1CCOCC1)c1ccc(C(=O)OCCOC(=O)c2ccc(-c3c4nc(c(-c5ccc(S(=O)(=O)[O-])cc5)c5ccc([nH]5)c(-c5ccc(S(=O)(=O)[O-])cc5)c5nc(c(-c6ccc(S(=O)(=O)[O-])cc6)c6ccc3[nH]6)C=C5)C=C4)cc2)o1
REMARK SMILES IDX 17 1 16 2 14 3 15 4 13 5 10 6 11 7 82 8 12 9 2 10 1 11 3 12
REMARK SMILES IDX 4 13 5 14 9 15 6 16 8 17 7 18 18 19 19 20 20 21 21 22 22 23
REMARK SMILES IDX 23 24 81 25 24 26 80 27 25 28 26 29 27 30 74 31 28 32 79 33
REMARK SMILES IDX 73 34 75 35 29 36 78 37 72 38 71 39 30 41 60 42 41 43 59 44
REMARK SMILES IDX 42 45 45 46 58 47 76 48 43 49 44 50 57 52 77 53 46 54 31 55
REMARK SMILES IDX 32 56 40 57 33 58 39 59 34 60 35 61 36 62 37 63 38 64 61 65
REMARK SMILES IDX 62 66 70 67 63 68 69 69 64 70 65 71 66 72 67 73 68 74 47 75
REMARK SMILES IDX 48 76 56 77 49 78 55 79 50 80 51 81 52 82 53 83 54 84
REMARK H PARENT 75 40 45 51
REMARK Flexibility Score: inf
ROOT
ATOM      1  C   UNL A   1      33.171  33.773  28.009  1.00  0.00     0.275 C 
ENDROOT
BRANCH   1   2
ATOM      2  O   UNL A   1      33.855  34.800  28.753  1.00  0.00    -0.456 OA
BRANCH   2   3
ATOM      3  C   UNL A   1      33.050  35.741  29.334  1.00  0.00     0.374 C 
ATOM      4  O   UNL A   1      32.190  36.372  28.737  1.00  0.00    -0.242 OA
BRANCH   3   5
ATOM      5  C   UNL A   1      33.295  35.795  30.759  1.00  0.00     0.211 A 
ATOM      6  C   UNL A   1      33.939  34.869  32.670  1.00  0.00     0.117 A 
ATOM      7  C   UNL A   1      33.862  36.231  32.894  1.00  0.00     0.048 A 
ATOM      8  O   UNL A   1      33.521  34.606  31.397  1.00  0.00    -0.453 OA
ATOM      9  C   UNL A   1      33.449  36.823  31.670  1.00  0.00     0.058 A 
BRANCH   6  10
ATOM     10  C   UNL A   1      34.513  33.703  33.419  1.00  0.00     0.110 C 
ATOM     11  C   UNL A   1      35.319  34.098  34.651  1.00  0.00     0.028 C 
BRANCH  10  12
ATOM     12  S   UNL A   1      35.268  32.398  32.375  1.00  0.00    -0.147 SA
BRANCH  12  13
ATOM     13  C   UNL A   1      36.771  33.116  31.607  1.00  0.00     0.052 C 
ATOM     14  C   UNL A   1      37.414  34.308  32.309  1.00  0.00     0.043 C 
ATOM     15  C   UNL A   1      36.633  33.382  30.112  1.00  0.00     0.043 C 
ATOM     16  C   UNL A   1      38.740  34.641  31.633  1.00  0.00     0.161 C 
ATOM     17  C   UNL A   1      38.002  33.760  29.551  1.00  0.00     0.161 C 
ATOM     18  O   UNL A   1      38.546  34.885  30.238  1.00  0.00    -0.381 OA
ENDBRANCH  12  13
ENDBRANCH  10  12
ENDBRANCH   6  10
ENDBRANCH   3   5
ENDBRANCH   2   3
ENDBRANCH   1   2
BRANCH   1  19
ATOM     19  C   UNL A   1      33.647  32.370  28.409  1.00  0.00     0.275 C 
BRANCH  19  20
ATOM     20  O   UNL A   1      34.564  31.808  27.449  1.00  0.00    -0.458 OA
BRANCH  20  21
ATOM     21  C   UNL A   1      34.766  30.472  27.555  1.00  0.00     0.338 C 
ATOM     22  O   UNL A   1      34.099  29.593  27.034  1.00  0.00    -0.246 OA
BRANCH  21  23
ATOM     23  C   UNL A   1      36.011  30.207  28.297  1.00  0.00     0.060 A 
ATOM     24  C   UNL A   1      37.218  30.474  27.648  1.00  0.00     0.016 A 
ATOM     25  C   UNL A   1      36.011  29.645  29.576  1.00  0.00     0.016 A 
ATOM     26  C   UNL A   1      38.429  30.186  28.270  1.00  0.00     0.010 A 
ATOM     27  C   UNL A   1      37.233  29.352  30.201  1.00  0.00     0.010 A 
ATOM     28  C   UNL A   1      38.448  29.616  29.548  1.00  0.00    -0.014 A 
BRANCH  28  29
ATOM     29  C   UNL A   1      39.755  29.267  30.157  1.00  0.00     0.031 A 
ATOM     30  C   UNL A   1      40.233  29.997  31.379  1.00  0.00     0.074 A 
ATOM     31  C   UNL A   1      40.478  28.247  29.655  1.00  0.00     0.049 A 
ATOM     32  N   UNL A   1      41.338  29.831  32.059  1.00  0.00    -0.248 NA
ATOM     33  C   UNL A   1      39.350  31.049  31.906  1.00  0.00     0.031 C 
ATOM     34  C   UNL A   1      40.091  27.421  28.510  1.00  0.00     0.029 A 
ATOM     35  N   UNL A   1      41.682  27.725  30.054  1.00  0.00    -0.354 N 
ATOM     36  C   UNL A   1      41.292  30.763  33.088  1.00  0.00     0.074 A 
ATOM     37  C   UNL A   1      40.057  31.503  32.933  1.00  0.00     0.031 C 
ATOM     38  C   UNL A   1      41.034  26.486  28.309  1.00  0.00     0.029 A 
ATOM     39  C   UNL A   1      42.108  26.671  29.281  1.00  0.00     0.049 A 
ATOM     40  H   UNL A   1      42.193  28.071  30.821  1.00  0.00     0.167 HD
ATOM     41  C   UNL A   1      42.197  30.985  34.073  1.00  0.00     0.031 A 
ATOM     42  C   UNL A   1      43.243  25.946  29.338  1.00  0.00     0.031 A 
ATOM     43  C   UNL A   1      43.428  30.255  34.224  1.00  0.00     0.049 A 
ATOM     44  C   UNL A   1      44.263  26.256  30.398  1.00  0.00     0.074 A 
ATOM     45  C   UNL A   1      44.407  30.408  35.189  1.00  0.00     0.029 A 
ATOM     46  N   UNL A   1      43.852  29.237  33.383  1.00  0.00    -0.354 N 
ATOM     47  N   UNL A   1      44.207  27.147  31.358  1.00  0.00    -0.248 NA
ATOM     48  C   UNL A   1      45.501  25.464  30.379  1.00  0.00     0.031 C 
ATOM     49  C   UNL A   1      45.445  29.511  34.907  1.00  0.00     0.029 A 
ATOM     50  C   UNL A   1      45.090  28.769  33.792  1.00  0.00     0.049 A 
ATOM     51  H   UNL A   1      43.347  28.897  32.609  1.00  0.00     0.167 HD
ATOM     52  C   UNL A   1      45.396  27.014  32.067  1.00  0.00     0.074 A 
ATOM     53  C   UNL A   1      46.145  25.946  31.433  1.00  0.00     0.031 C 
ATOM     54  C   UNL A   1      45.828  27.713  33.145  1.00  0.00     0.031 A 
BRANCH  41  55
ATOM     55  C   UNL A   1      41.901  32.102  35.036  1.00  0.00    -0.014 A 
ATOM     56  C   UNL A   1      41.160  31.876  36.211  1.00  0.00     0.010 A 
ATOM     57  C   UNL A   1      42.378  33.396  34.763  1.00  0.00     0.010 A 
ATOM     58  C   UNL A   1      40.861  32.937  37.070  1.00  0.00     0.020 A 
ATOM     59  C   UNL A   1      42.098  34.455  35.631  1.00  0.00     0.020 A 
ATOM     60  C   UNL A   1      41.322  34.223  36.769  1.00  0.00     0.054 A 
BRANCH  60  61
ATOM     61  S   UNL A   1      40.912  35.588  37.891  1.00  0.00     0.124 S 
ATOM     62  O   UNL A   1      42.226  36.179  38.133  1.00  0.00    -0.237 OA
ATOM     63  O   UNL A   1      39.995  36.399  37.094  1.00  0.00    -0.237 OA
ATOM     64  O   UNL A   1      40.308  34.920  39.041  1.00  0.00    -0.744 OA
ENDBRANCH  60  61
ENDBRANCH  41  55
BRANCH  42  65
ATOM     65  C   UNL A   1      43.478  24.868  28.340  1.00  0.00    -0.014 A 
ATOM     66  C   UNL A   1      43.102  23.542  28.614  1.00  0.00     0.010 A 
ATOM     67  C   UNL A   1      44.059  25.173  27.096  1.00  0.00     0.010 A 
ATOM     68  C   UNL A   1      43.304  22.539  27.661  1.00  0.00     0.020 A 
ATOM     69  C   UNL A   1      44.243  24.178  26.132  1.00  0.00     0.020 A 
ATOM     70  C   UNL A   1      43.870  22.864  26.425  1.00  0.00     0.054 A 
BRANCH  70  71
ATOM     71  S   UNL A   1      44.059  21.563  25.174  1.00  0.00     0.124 S 
ATOM     72  O   UNL A   1      44.004  22.327  23.932  1.00  0.00    -0.237 OA
ATOM     73  O   UNL A   1      45.360  20.987  25.507  1.00  0.00    -0.237 OA
ATOM     74  O   UNL A   1      42.917  20.684  25.422  1.00  0.00    -0.744 OA
ENDBRANCH  70  71
ENDBRANCH  42  65
BRANCH  54  75
ATOM     75  C   UNL A   1      47.165  27.336  33.720  1.00  0.00    -0.014 A 
ATOM     76  C   UNL A   1      48.343  27.974  33.293  1.00  0.00     0.010 A 
ATOM     77  C   UNL A   1      47.240  26.366  34.737  1.00  0.00     0.010 A 
ATOM     78  C   UNL A   1      49.577  27.629  33.854  1.00  0.00     0.020 A 
ATOM     79  C   UNL A   1      48.467  26.033  35.315  1.00  0.00     0.020 A 
ATOM     80  C   UNL A   1      49.631  26.658  34.859  1.00  0.00     0.054 A 
BRANCH  80  81
ATOM     81  S   UNL A   1      51.236  26.256  35.606  1.00  0.00     0.124 S 
ATOM     82  O   UNL A   1      51.914  25.567  34.511  1.00  0.00    -0.237 OA
ATOM     83  O   UNL A   1      51.772  27.571  35.948  1.00  0.00    -0.237 OA
ATOM     84  O   UNL A   1      50.884  25.417  36.749  1.00  0.00    -0.744 OA
ENDBRANCH  80  81
ENDBRANCH  54  75
ENDBRANCH  28  29
ENDBRANCH  21  23
ENDBRANCH  20  21
ENDBRANCH  19  20
ENDBRANCH   1  19
TORSDOF 17
ENDMDL
MODEL 3
REMARK VINA RESULT:      -9.3      0.500      8.387
REMARK SMILES C[C@H](SC1CCOCC1)c1ccc(C(=O)OCCOC(=O)c2ccc(-c3c4nc(c(-c5ccc(S(=O)(=O)[O-])cc5)c5ccc([nH]5)c(-c5ccc(S(=O)(=O)[O-])cc5)c5nc(c(-c6ccc(S(=O)(=O)[O-])cc6)c6ccc3[nH]6)C=C5)C=C4)cc2)o1
REMARK SMILES IDX 17 1 16 2 14 3 15 4 13 5 10 6 11 7 82 8 12 9 2 10 1 11 3 12
REMARK SMILES IDX 4 13 5 14 9 15 6 16 8 17 7 18 18 19 19 20 20 21 21 22 22 23
REMARK SMILES IDX 23 24 81 25 24 26 80 27 25 28 26 29 27 30 74 31 28 32 79 33
REMARK SMILES IDX 73 34 75 35 29 36 78 37 72 38 71 39 30 41 60 42 41 43 59 44
REMARK SMILES IDX 42 45 45 46 58 47 76 48 43 49 44 50 57 52 77 53 46 54 31 55
REMARK SMILES IDX 32 56 40 57 33 58 39 59 34 60 35 61 36 62 37 63 38 64 61 65
REMARK SMILES IDX 62 66 70 67 63 68 69 69 64 70 65 71 66 72 67 73 68 74 47 75
REMARK SMILES IDX 48 76 56 77 49 78 55 79 50 80 51 81 52 82 53 83 54 84
REMARK H PARENT 75 40 45 51
REMARK Flexibility Score: inf
ROOT
ATOM      1  C   UNL A   1      33.555  33.489  28.010  1.00  0.00     0.275 C 
ENDROOT
BRANCH   1   2
ATOM      2  O   UNL A   1      34.103  34.581  28.774  1.00  0.00    -0.456 OA
BRANCH   2   3
ATOM      3  C   UNL A   1      33.185  35.430  29.330  1.00  0.00     0.374 C 
ATOM      4  O   UNL A   1      32.282  35.967  28.707  1.00  0.00    -0.242 OA
BRANCH   3   5
ATOM      5  C   UNL A   1      33.380  35.507  30.761  1.00  0.00     0.211 A 
ATOM      6  C   UNL A   1      34.081  34.659  32.688  1.00  0.00     0.117 A 
ATOM      7  C   UNL A   1      33.827  35.999  32.912  1.00  0.00     0.048 A 
ATOM      8  O   UNL A   1      33.736  34.352  31.403  1.00  0.00    -0.453 OA
ATOM      9  C   UNL A   1      33.378  36.541  31.678  1.00  0.00     0.058 A 
BRANCH   6  10
ATOM     10  C   UNL A   1      34.775  33.570  33.452  1.00  0.00     0.110 C 
ATOM     11  C   UNL A   1      35.445  34.048  34.735  1.00  0.00     0.028 C 
BRANCH  10  12
ATOM     12  S   UNL A   1      35.769  32.413  32.435  1.00  0.00    -0.147 SA
BRANCH  12  13
ATOM     13  C   UNL A   1      36.844  33.427  31.348  1.00  0.00     0.052 C 
ATOM     14  C   UNL A   1      37.066  32.929  29.923  1.00  0.00     0.043 C 
ATOM     15  C   UNL A   1      38.167  33.828  31.990  1.00  0.00     0.043 C 
ATOM     16  C   UNL A   1      37.823  33.987  29.127  1.00  0.00     0.161 C 
ATOM     17  C   UNL A   1      38.865  34.843  31.087  1.00  0.00     0.161 C 
ATOM     18  O   UNL A   1      39.054  34.318  29.774  1.00  0.00    -0.381 OA
ENDBRANCH  12  13
ENDBRANCH  10  12
ENDBRANCH   6  10
ENDBRANCH   3   5
ENDBRANCH   2   3
ENDBRANCH   1   2
BRANCH   1  19
ATOM     19  C   UNL A   1      34.067  32.132  28.512  1.00  0.00     0.275 C 
BRANCH  19  20
ATOM     20  O   UNL A   1      34.448  31.258  27.432  1.00  0.00    -0.458 OA
BRANCH  20  21
ATOM     21  C   UNL A   1      34.664  29.966  27.783  1.00  0.00     0.338 C 
ATOM     22  O   UNL A   1      33.882  29.038  27.654  1.00  0.00    -0.246 OA
BRANCH  21  23
ATOM     23  C   UNL A   1      36.056  29.792  28.234  1.00  0.00     0.060 A 
ATOM     24  C   UNL A   1      37.069  29.982  27.292  1.00  0.00     0.016 A 
ATOM     25  C   UNL A   1      36.372  29.382  29.532  1.00  0.00     0.016 A 
ATOM     26  C   UNL A   1      38.399  29.771  27.640  1.00  0.00     0.010 A 
ATOM     27  C   UNL A   1      37.714  29.166  29.880  1.00  0.00     0.010 A 
ATOM     28  C   UNL A   1      38.735  29.353  28.932  1.00  0.00    -0.014 A 
BRANCH  28  29
ATOM     29  C   UNL A   1      40.157  29.080  29.251  1.00  0.00     0.031 A 
ATOM     30  C   UNL A   1      40.769  27.758  28.883  1.00  0.00     0.074 A 
ATOM     31  C   UNL A   1      40.917  30.043  29.806  1.00  0.00     0.049 A 
ATOM     32  N   UNL A   1      41.993  27.337  29.068  1.00  0.00    -0.248 NA
ATOM     33  C   UNL A   1      39.889  26.788  28.214  1.00  0.00     0.031 C 
ATOM     34  C   UNL A   1      40.455  31.389  30.152  1.00  0.00     0.029 A 
ATOM     35  N   UNL A   1      42.242  30.042  30.162  1.00  0.00    -0.354 N 
ATOM     36  C   UNL A   1      42.031  26.047  28.552  1.00  0.00     0.074 A 
ATOM     37  C   UNL A   1      40.702  25.751  28.060  1.00  0.00     0.031 C 
ATOM     38  C   UNL A   1      41.485  32.086  30.658  1.00  0.00     0.029 A 
ATOM     39  C   UNL A   1      42.666  31.229  30.709  1.00  0.00     0.049 A 
ATOM     40  H   UNL A   1      42.833  29.264  30.038  1.00  0.00     0.167 HD
ATOM     41  C   UNL A   1      43.077  25.187  28.494  1.00  0.00     0.031 A 
ATOM     42  C   UNL A   1      43.866  31.582  31.211  1.00  0.00     0.031 A 
ATOM     43  C   UNL A   1      44.396  25.478  28.990  1.00  0.00     0.049 A 
ATOM     44  C   UNL A   1      44.993  30.587  31.198  1.00  0.00     0.074 A 
ATOM     45  C   UNL A   1      45.520  24.670  28.976  1.00  0.00     0.029 A 
ATOM     46  N   UNL A   1      44.769  26.669  29.594  1.00  0.00    -0.354 N 
ATOM     47  N   UNL A   1      45.009  29.369  30.714  1.00  0.00    -0.248 NA
ATOM     48  C   UNL A   1      46.262  31.015  31.802  1.00  0.00     0.031 C 
ATOM     49  C   UNL A   1      46.561  25.357  29.611  1.00  0.00     0.029 A 
ATOM     50  C   UNL A   1      46.098  26.611  29.979  1.00  0.00     0.049 A 
ATOM     51  H   UNL A   1      44.176  27.444  29.728  1.00  0.00     0.167 HD
ATOM     52  C   UNL A   1      46.293  28.887  30.942  1.00  0.00     0.074 A 
ATOM     53  C   UNL A   1      47.029  29.952  31.595  1.00  0.00     0.031 C 
ATOM     54  C   UNL A   1      46.814  27.674  30.638  1.00  0.00     0.031 A 
BRANCH  41  55
ATOM     55  C   UNL A   1      42.812  23.826  27.912  1.00  0.00    -0.014 A 
ATOM     56  C   UNL A   1      42.840  23.607  26.522  1.00  0.00     0.010 A 
ATOM     57  C   UNL A   1      42.538  22.747  28.772  1.00  0.00     0.010 A 
ATOM     58  C   UNL A   1      42.549  22.343  26.002  1.00  0.00     0.020 A 
ATOM     59  C   UNL A   1      42.268  21.477  28.255  1.00  0.00     0.020 A 
ATOM     60  C   UNL A   1      42.253  21.288  26.871  1.00  0.00     0.054 A 
BRANCH  60  61
ATOM     61  S   UNL A   1      41.868  19.658  26.174  1.00  0.00     0.124 S 
ATOM     62  O   UNL A   1      42.299  18.765  27.246  1.00  0.00    -0.237 OA
ATOM     63  O   UNL A   1      40.424  19.731  25.959  1.00  0.00    -0.237 OA
ATOM     64  O   UNL A   1      42.672  19.604  24.956  1.00  0.00    -0.744 OA
ENDBRANCH  60  61
ENDBRANCH  41  55
BRANCH  42  65
ATOM     65  C   UNL A   1      44.051  32.941  31.789  1.00  0.00    -0.014 A 
ATOM     66  C   UNL A   1      43.825  33.176  33.155  1.00  0.00     0.010 A 
ATOM     67  C   UNL A   1      44.481  34.002  30.972  1.00  0.00     0.010 A 
ATOM     68  C   UNL A   1      44.025  34.451  33.696  1.00  0.00     0.020 A 
ATOM     69  C   UNL A   1      44.703  35.272  31.511  1.00  0.00     0.020 A 
ATOM     70  C   UNL A   1      44.466  35.489  32.871  1.00  0.00     0.054 A 
BRANCH  70  71
ATOM     71  S   UNL A   1      44.789  37.119  33.603  1.00  0.00     0.124 S 
ATOM     72  O   UNL A   1      43.478  37.753  33.520  1.00  0.00    -0.237 OA
ATOM     73  O   UNL A   1      45.245  36.778  34.948  1.00  0.00    -0.237 OA
ATOM     74  O   UNL A   1      45.817  37.685  32.731  1.00  0.00    -0.744 OA
ENDBRANCH  70  71
ENDBRANCH  42  65
BRANCH  54  75
ATOM     75  C   UNL A   1      48.256  27.435  30.994  1.00  0.00    -0.014 A 
ATOM     76  C   UNL A   1      49.291  27.836  30.130  1.00  0.00     0.010 A 
ATOM     77  C   UNL A   1      48.583  26.847  32.229  1.00  0.00     0.010 A 
ATOM     78  C   UNL A   1      50.627  27.628  30.484  1.00  0.00     0.020 A 
ATOM     79  C   UNL A   1      49.917  26.656  32.596  1.00  0.00     0.020 A 
ATOM     80  C   UNL A   1      50.932  27.037  31.714  1.00  0.00     0.054 A 
BRANCH  80  81
ATOM     81  S   UNL A   1      52.673  26.816  32.175  1.00  0.00     0.124 S 
ATOM     82  O   UNL A   1      52.937  28.027  32.948  1.00  0.00    -0.237 OA
ATOM     83  O   UNL A   1      52.651  25.573  32.941  1.00  0.00    -0.237 OA
ATOM     84  O   UNL A   1      53.362  26.735  30.889  1.00  0.00    -0.744 OA
ENDBRANCH  80  81
ENDBRANCH  54  75
ENDBRANCH  28  29
ENDBRANCH  21  23
ENDBRANCH  20  21
ENDBRANCH  19  20
ENDBRANCH   1  19
TORSDOF 17
ENDMDL
