MODEL 1
REMARK VINA RESULT:     -11.2      0.000      0.000
REMARK SMILES O=C(OCCOC(=O)c1nccnc1C(=O)N1CCC(Cc2ccccc2)CC1)c1ccc(-c2c3nc(c(-c4ccc(S(=O)(=O)[O-])cc4)c4ccc([nH]4)c(-c4ccc(S(=O)(=O)[O-])cc4)c4nc(c(-c5ccc(S(=O)(=O)[O-])cc5)c5ccc2[nH]5)C=C4)C=C3)cc1
REMARK SMILES IDX 4 1 3 2 2 3 1 4 30 5 31 6 89 7 32 8 88 9 33 10 34 11 35 12
REMARK SMILES IDX 82 13 36 14 87 15 81 16 83 17 37 18 86 19 80 20 79 21 38 23
REMARK SMILES IDX 68 24 49 25 67 26 50 27 53 28 66 29 84 30 51 31 52 32 65 34
REMARK SMILES IDX 85 35 54 36 39 37 40 38 48 39 41 40 47 41 42 42 43 43 44 44
REMARK SMILES IDX 45 45 46 46 69 47 70 48 78 49 71 50 77 51 72 52 73 53 74 54
REMARK SMILES IDX 75 55 76 56 55 57 56 58 64 59 57 60 63 61 58 62 59 63 60 64
REMARK SMILES IDX 61 65 62 66 5 67 6 68 7 69 8 70 9 71 10 72 14 73 11 74 13 75
REMARK SMILES IDX 12 76 15 77 16 78 17 79 18 80 29 81 19 82 28 83 20 84 21 85
REMARK SMILES IDX 22 86 23 87 27 88 24 89 26 90 25 91
REMARK H PARENT 83 22 53 33
REMARK Flexibility Score: inf
ROOT
ATOM      1  C   UNL A   1      32.284  29.423  26.834  1.00  0.00     0.275 C 
ENDROOT
BRANCH   1   2
ATOM      2  O   UNL A   1      33.704  29.542  26.685  1.00  0.00    -0.458 OA
BRANCH   2   3
ATOM      3  C   UNL A   1      34.268  30.316  27.644  1.00  0.00     0.338 C 
ATOM      4  O   UNL A   1      33.867  31.408  28.004  1.00  0.00    -0.246 OA
BRANCH   3   5
ATOM      5  C   UNL A   1      35.620  29.811  27.949  1.00  0.00     0.060 A 
ATOM      6  C   UNL A   1      36.622  29.804  26.977  1.00  0.00     0.016 A 
ATOM      7  C   UNL A   1      35.926  29.535  29.287  1.00  0.00     0.016 A 
ATOM      8  C   UNL A   1      37.934  29.587  27.361  1.00  0.00     0.010 A 
ATOM      9  C   UNL A   1      37.238  29.344  29.681  1.00  0.00     0.010 A 
ATOM     10  C   UNL A   1      38.240  29.387  28.712  1.00  0.00    -0.014 A 
BRANCH  10  11
ATOM     11  C   UNL A   1      39.640  29.192  29.090  1.00  0.00     0.031 A 
ATOM     12  C   UNL A   1      40.247  27.854  28.846  1.00  0.00     0.074 A 
ATOM     13  C   UNL A   1      40.319  30.238  29.592  1.00  0.00     0.049 A 
ATOM     14  N   UNL A   1      41.502  27.516  28.877  1.00  0.00    -0.248 NA
ATOM     15  C   UNL A   1      39.327  26.755  28.492  1.00  0.00     0.031 C 
ATOM     16  C   UNL A   1      39.752  31.562  29.869  1.00  0.00     0.029 A 
ATOM     17  N   UNL A   1      41.627  30.354  29.962  1.00  0.00    -0.354 N 
ATOM     18  C   UNL A   1      41.533  26.186  28.485  1.00  0.00     0.074 A 
ATOM     19  C   UNL A   1      40.170  25.752  28.295  1.00  0.00     0.031 C 
ATOM     20  C   UNL A   1      40.702  32.344  30.411  1.00  0.00     0.029 A 
ATOM     21  C   UNL A   1      41.943  31.585  30.483  1.00  0.00     0.049 A 
ATOM     22  H   UNL A   1      42.282  29.624  29.867  1.00  0.00     0.167 HD
ATOM     23  C   UNL A   1      42.625  25.420  28.272  1.00  0.00     0.031 A 
ATOM     24  C   UNL A   1      43.120  32.034  30.955  1.00  0.00     0.031 A 
ATOM     25  C   UNL A   1      43.956  25.896  28.521  1.00  0.00     0.049 A 
ATOM     26  C   UNL A   1      44.310  31.128  30.796  1.00  0.00     0.074 A 
ATOM     27  C   UNL A   1      45.159  25.261  28.298  1.00  0.00     0.029 A 
ATOM     28  N   UNL A   1      44.245  27.134  29.085  1.00  0.00    -0.354 N 
ATOM     29  N   UNL A   1      44.354  29.924  30.266  1.00  0.00    -0.248 NA
ATOM     30  C   UNL A   1      45.606  31.639  31.252  1.00  0.00     0.031 C 
ATOM     31  C   UNL A   1      46.175  26.092  28.786  1.00  0.00     0.029 A 
ATOM     32  C   UNL A   1      45.605  27.263  29.268  1.00  0.00     0.049 A 
ATOM     33  H   UNL A   1      43.576  27.818  29.319  1.00  0.00     0.167 HD
ATOM     34  C   UNL A   1      45.687  29.545  30.297  1.00  0.00     0.074 A 
ATOM     35  C   UNL A   1      46.416  30.651  30.892  1.00  0.00     0.031 C 
ATOM     36  C   UNL A   1      46.266  28.395  29.871  1.00  0.00     0.031 A 
BRANCH  23  37
ATOM     37  C   UNL A   1      42.410  24.027  27.759  1.00  0.00    -0.014 A 
ATOM     38  C   UNL A   1      42.433  23.757  26.378  1.00  0.00     0.010 A 
ATOM     39  C   UNL A   1      42.206  22.968  28.659  1.00  0.00     0.010 A 
ATOM     40  C   UNL A   1      42.235  22.457  25.906  1.00  0.00     0.020 A 
ATOM     41  C   UNL A   1      42.024  21.663  28.192  1.00  0.00     0.020 A 
ATOM     42  C   UNL A   1      42.032  21.417  26.817  1.00  0.00     0.054 A 
BRANCH  42  43
ATOM     43  S   UNL A   1      41.819  19.732  26.178  1.00  0.00     0.124 S 
ATOM     44  O   UNL A   1      40.386  19.693  25.901  1.00  0.00    -0.237 OA
ATOM     45  O   UNL A   1      42.686  19.725  25.002  1.00  0.00    -0.237 OA
ATOM     46  O   UNL A   1      42.263  18.884  27.281  1.00  0.00    -0.744 OA
ENDBRANCH  42  43
ENDBRANCH  23  37
BRANCH  24  47
ATOM     47  C   UNL A   1      43.214  33.367  31.607  1.00  0.00    -0.014 A 
ATOM     48  C   UNL A   1      43.434  34.538  30.865  1.00  0.00     0.010 A 
ATOM     49  C   UNL A   1      43.075  33.464  33.006  1.00  0.00     0.010 A 
ATOM     50  C   UNL A   1      43.549  35.775  31.509  1.00  0.00     0.020 A 
ATOM     51  C   UNL A   1      43.167  34.700  33.652  1.00  0.00     0.020 A 
ATOM     52  C   UNL A   1      43.422  35.848  32.900  1.00  0.00     0.054 A 
BRANCH  52  53
ATOM     53  S   UNL A   1      43.573  37.462  33.717  1.00  0.00     0.124 S 
ATOM     54  O   UNL A   1      43.807  38.353  32.585  1.00  0.00    -0.237 OA
ATOM     55  O   UNL A   1      42.278  37.603  34.377  1.00  0.00    -0.237 OA
ATOM     56  O   UNL A   1      44.709  37.283  34.618  1.00  0.00    -0.744 OA
ENDBRANCH  52  53
ENDBRANCH  24  47
BRANCH  36  57
ATOM     57  C   UNL A   1      47.752  28.292  30.038  1.00  0.00    -0.014 A 
ATOM     58  C   UNL A   1      48.300  27.716  31.196  1.00  0.00     0.010 A 
ATOM     59  C   UNL A   1      48.597  28.690  28.988  1.00  0.00     0.010 A 
ATOM     60  C   UNL A   1      49.678  27.551  31.308  1.00  0.00     0.020 A 
ATOM     61  C   UNL A   1      49.974  28.502  29.086  1.00  0.00     0.020 A 
ATOM     62  C   UNL A   1      50.506  27.940  30.249  1.00  0.00     0.054 A 
BRANCH  62  63
ATOM     63  S   UNL A   1      52.287  27.638  30.384  1.00  0.00     0.124 S 
ATOM     64  O   UNL A   1      52.844  28.885  29.865  1.00  0.00    -0.237 OA
ATOM     65  O   UNL A   1      52.467  27.417  31.817  1.00  0.00    -0.237 OA
ATOM     66  O   UNL A   1      52.501  26.461  29.545  1.00  0.00    -0.744 OA
ENDBRANCH  62  63
ENDBRANCH  36  57
ENDBRANCH  10  11
ENDBRANCH   3   5
ENDBRANCH   2   3
ENDBRANCH   1   2
BRANCH   1  67
ATOM     67  C   UNL A   1      31.934  28.139  27.601  1.00  0.00     0.275 C 
BRANCH  67  68
ATOM     68  O   UNL A   1      30.850  27.396  27.006  1.00  0.00    -0.457 OA
BRANCH  68  69
ATOM     69  C   UNL A   1      31.117  26.231  26.350  1.00  0.00     0.359 C 
ATOM     70  O   UNL A   1      31.327  25.157  26.863  1.00  0.00    -0.244 OA
BRANCH  69  71
ATOM     71  C   UNL A   1      31.125  26.551  24.891  1.00  0.00     0.179 A 
ATOM     72  N   UNL A   1      30.001  27.204  24.439  1.00  0.00    -0.245 NA
ATOM     73  C   UNL A   1      32.177  26.242  24.035  1.00  0.00     0.161 A 
ATOM     74  C   UNL A   1      29.997  27.558  23.135  1.00  0.00     0.132 A 
ATOM     75  N   UNL A   1      32.128  26.550  22.697  1.00  0.00    -0.247 NA
ATOM     76  C   UNL A   1      31.027  27.221  22.279  1.00  0.00     0.132 A 
BRANCH  73  77
ATOM     77  C   UNL A   1      33.525  25.880  24.532  1.00  0.00     0.274 C 
ATOM     78  O   UNL A   1      34.227  26.807  24.945  1.00  0.00    -0.267 OA
ATOM     79  N   UNL A   1      33.940  24.543  24.593  1.00  0.00    -0.337 N 
ATOM     80  C   UNL A   1      34.757  24.227  25.756  1.00  0.00     0.120 C 
ATOM     81  C   UNL A   1      34.223  23.780  23.378  1.00  0.00     0.120 C 
ATOM     82  C   UNL A   1      35.624  22.986  25.609  1.00  0.00     0.025 C 
ATOM     83  C   UNL A   1      34.367  22.256  23.581  1.00  0.00     0.025 C 
ATOM     84  C   UNL A   1      34.808  21.845  25.005  1.00  0.00    -0.003 C 
BRANCH  84  85
ATOM     85  C   UNL A   1      35.548  20.489  25.000  1.00  0.00     0.039 C 
BRANCH  85  86
ATOM     86  C   UNL A   1      34.649  19.293  24.768  1.00  0.00    -0.048 A 
ATOM     87  C   UNL A   1      33.269  19.402  25.005  1.00  0.00     0.004 A 
ATOM     88  C   UNL A   1      35.154  18.092  24.251  1.00  0.00     0.004 A 
ATOM     89  C   UNL A   1      32.412  18.339  24.719  1.00  0.00     0.000 A 
ATOM     90  C   UNL A   1      34.292  17.027  23.970  1.00  0.00     0.000 A 
ATOM     91  C   UNL A   1      32.923  17.152  24.200  1.00  0.00     0.000 A 
ENDBRANCH  85  86
ENDBRANCH  84  85
ENDBRANCH  73  77
ENDBRANCH  69  71
ENDBRANCH  68  69
ENDBRANCH  67  68
ENDBRANCH   1  67
TORSDOF 17
ENDMDL
MODEL 2
REMARK VINA RESULT:     -11.1      2.521      8.326
REMARK SMILES O=C(OCCOC(=O)c1nccnc1C(=O)N1CCC(Cc2ccccc2)CC1)c1ccc(-c2c3nc(c(-c4ccc(S(=O)(=O)[O-])cc4)c4ccc([nH]4)c(-c4ccc(S(=O)(=O)[O-])cc4)c4nc(c(-c5ccc(S(=O)(=O)[O-])cc5)c5ccc2[nH]5)C=C4)C=C3)cc1
REMARK SMILES IDX 4 1 3 2 2 3 1 4 30 5 31 6 89 7 32 8 88 9 33 10 34 11 35 12
REMARK SMILES IDX 82 13 36 14 87 15 81 16 83 17 37 18 86 19 80 20 79 21 38 23
REMARK SMILES IDX 68 24 49 25 67 26 50 27 53 28 66 29 84 30 51 31 52 32 65 34
REMARK SMILES IDX 85 35 54 36 39 37 40 38 48 39 41 40 47 41 42 42 43 43 44 44
REMARK SMILES IDX 45 45 46 46 69 47 70 48 78 49 71 50 77 51 72 52 73 53 74 54
REMARK SMILES IDX 75 55 76 56 55 57 56 58 64 59 57 60 63 61 58 62 59 63 60 64
REMARK SMILES IDX 61 65 62 66 5 67 6 68 7 69 8 70 9 71 10 72 14 73 11 74 13 75
REMARK SMILES IDX 12 76 15 77 16 78 17 79 18 80 29 81 19 82 28 83 20 84 21 85
REMARK SMILES IDX 22 86 23 87 27 88 24 89 26 90 25 91
REMARK H PARENT 83 22 53 33
REMARK Flexibility Score: inf
ROOT
ATOM      1  C   UNL A   1      32.481  29.510  27.249  1.00  0.00     0.275 C 
ENDROOT
BRANCH   1   2
ATOM      2  O   UNL A   1      33.835  29.678  26.811  1.00  0.00    -0.458 OA
BRANCH   2   3
ATOM      3  C   UNL A   1      34.512  30.595  27.544  1.00  0.00     0.338 C 
ATOM      4  O   UNL A   1      34.268  31.788  27.590  1.00  0.00    -0.246 OA
BRANCH   3   5
ATOM      5  C   UNL A   1      35.787  30.013  28.004  1.00  0.00     0.060 A 
ATOM      6  C   UNL A   1      36.943  30.105  27.227  1.00  0.00     0.016 A 
ATOM      7  C   UNL A   1      35.852  29.550  29.323  1.00  0.00     0.016 A 
ATOM      8  C   UNL A   1      38.166  29.798  27.797  1.00  0.00     0.010 A 
ATOM      9  C   UNL A   1      37.074  29.266  29.907  1.00  0.00     0.010 A 
ATOM     10  C   UNL A   1      38.229  29.408  29.140  1.00  0.00    -0.014 A 
BRANCH  10  11
ATOM     11  C   UNL A   1      39.540  29.121  29.722  1.00  0.00     0.031 A 
ATOM     12  C   UNL A   1      40.021  30.002  30.823  1.00  0.00     0.074 A 
ATOM     13  C   UNL A   1      40.222  28.054  29.271  1.00  0.00     0.049 A 
ATOM     14  N   UNL A   1      41.017  29.812  31.637  1.00  0.00    -0.248 NA
ATOM     15  C   UNL A   1      39.267  31.248  31.062  1.00  0.00     0.031 C 
ATOM     16  C   UNL A   1      39.794  27.177  28.175  1.00  0.00     0.029 A 
ATOM     17  N   UNL A   1      41.416  27.527  29.671  1.00  0.00    -0.354 N 
ATOM     18  C   UNL A   1      40.974  30.877  32.524  1.00  0.00     0.074 A 
ATOM     19  C   UNL A   1      39.904  31.753  32.108  1.00  0.00     0.031 C 
ATOM     20  C   UNL A   1      40.741  26.247  27.961  1.00  0.00     0.029 A 
ATOM     21  C   UNL A   1      41.815  26.444  28.925  1.00  0.00     0.049 A 
ATOM     22  H   UNL A   1      41.941  27.889  30.421  1.00  0.00     0.167 HD
ATOM     23  C   UNL A   1      41.749  31.069  33.613  1.00  0.00     0.031 A 
ATOM     24  C   UNL A   1      42.930  25.701  29.033  1.00  0.00     0.031 A 
ATOM     25  C   UNL A   1      42.828  30.184  33.950  1.00  0.00     0.049 A 
ATOM     26  C   UNL A   1      43.835  25.991  30.199  1.00  0.00     0.074 A 
ATOM     27  C   UNL A   1      43.662  30.213  35.048  1.00  0.00     0.029 A 
ATOM     28  N   UNL A   1      43.235  29.117  33.157  1.00  0.00    -0.354 N 
ATOM     29  N   UNL A   1      43.692  26.904  31.135  1.00  0.00    -0.248 NA
ATOM     30  C   UNL A   1      45.018  25.140  30.356  1.00  0.00     0.031 C 
ATOM     31  C   UNL A   1      44.613  29.199  34.887  1.00  0.00     0.029 A 
ATOM     32  C   UNL A   1      44.342  28.510  33.712  1.00  0.00     0.049 A 
ATOM     33  H   UNL A   1      42.796  28.835  32.321  1.00  0.00     0.167 HD
ATOM     34  C   UNL A   1      44.751  26.720  32.010  1.00  0.00     0.074 A 
ATOM     35  C   UNL A   1      45.522  25.603  31.493  1.00  0.00     0.031 C 
ATOM     36  C   UNL A   1      45.064  27.400  33.140  1.00  0.00     0.031 A 
BRANCH  23  37
ATOM     37  C   UNL A   1      41.454  32.256  34.481  1.00  0.00    -0.014 A 
ATOM     38  C   UNL A   1      42.138  33.472  34.294  1.00  0.00     0.010 A 
ATOM     39  C   UNL A   1      40.470  32.171  35.480  1.00  0.00     0.010 A 
ATOM     40  C   UNL A   1      41.856  34.575  35.104  1.00  0.00     0.020 A 
ATOM     41  C   UNL A   1      40.174  33.277  36.282  1.00  0.00     0.020 A 
ATOM     42  C   UNL A   1      40.875  34.471  36.094  1.00  0.00     0.054 A 
BRANCH  42  43
ATOM     43  S   UNL A   1      40.501  35.931  37.104  1.00  0.00     0.124 S 
ATOM     44  O   UNL A   1      41.837  36.419  37.435  1.00  0.00    -0.237 OA
ATOM     45  O   UNL A   1      39.738  36.769  36.182  1.00  0.00    -0.237 OA
ATOM     46  O   UNL A   1      39.740  35.391  38.227  1.00  0.00    -0.744 OA
ENDBRANCH  42  43
ENDBRANCH  23  37
BRANCH  24  47
ATOM     47  C   UNL A   1      43.237  24.649  28.027  1.00  0.00    -0.014 A 
ATOM     48  C   UNL A   1      42.796  23.325  28.186  1.00  0.00     0.010 A 
ATOM     49  C   UNL A   1      43.985  24.984  26.882  1.00  0.00     0.010 A 
ATOM     50  C   UNL A   1      43.127  22.349  27.238  1.00  0.00     0.020 A 
ATOM     51  C   UNL A   1      44.299  24.018  25.922  1.00  0.00     0.020 A 
ATOM     52  C   UNL A   1      43.883  22.700  26.115  1.00  0.00     0.054 A 
BRANCH  52  53
ATOM     53  S   UNL A   1      44.301  21.421  24.898  1.00  0.00     0.124 S 
ATOM     54  O   UNL A   1      45.661  21.064  25.288  1.00  0.00    -0.237 OA
ATOM     55  O   UNL A   1      43.283  20.403  25.149  1.00  0.00    -0.237 OA
ATOM     56  O   UNL A   1      44.177  22.113  23.617  1.00  0.00    -0.744 OA
ENDBRANCH  52  53
ENDBRANCH  24  47
BRANCH  36  57
ATOM     57  C   UNL A   1      46.286  26.945  33.879  1.00  0.00    -0.014 A 
ATOM     58  C   UNL A   1      47.500  27.639  33.742  1.00  0.00     0.010 A 
ATOM     59  C   UNL A   1      46.191  25.874  34.784  1.00  0.00     0.010 A 
ATOM     60  C   UNL A   1      48.609  27.258  34.493  1.00  0.00     0.020 A 
ATOM     61  C   UNL A   1      47.292  25.508  35.556  1.00  0.00     0.020 A 
ATOM     62  C   UNL A   1      48.496  26.199  35.400  1.00  0.00     0.054 A 
BRANCH  62  63
ATOM     63  S   UNL A   1      49.928  25.777  36.426  1.00  0.00     0.124 S 
ATOM     64  O   UNL A   1      50.844  25.206  35.442  1.00  0.00    -0.237 OA
ATOM     65  O   UNL A   1      50.322  27.072  36.974  1.00  0.00    -0.237 OA
ATOM     66  O   UNL A   1      49.388  24.832  37.400  1.00  0.00    -0.744 OA
ENDBRANCH  62  63
ENDBRANCH  36  57
ENDBRANCH  10  11
ENDBRANCH   3   5
ENDBRANCH   2   3
ENDBRANCH   1   2
BRANCH   1  67
ATOM     67  C   UNL A   1      32.208  28.036  27.587  1.00  0.00     0.275 C 
BRANCH  67  68
ATOM     68  O   UNL A   1      31.022  27.516  26.953  1.00  0.00    -0.457 OA
BRANCH  68  69
ATOM     69  C   UNL A   1      31.086  26.330  26.282  1.00  0.00     0.359 C 
ATOM     70  O   UNL A   1      31.153  25.232  26.782  1.00  0.00    -0.244 OA
BRANCH  69  71
ATOM     71  C   UNL A   1      31.087  26.660  24.826  1.00  0.00     0.179 A 
ATOM     72  N   UNL A   1      29.960  27.315  24.383  1.00  0.00    -0.245 NA
ATOM     73  C   UNL A   1      32.134  26.356  23.962  1.00  0.00     0.161 A 
ATOM     74  C   UNL A   1      29.950  27.679  23.082  1.00  0.00     0.132 A 
ATOM     75  N   UNL A   1      32.078  26.672  22.626  1.00  0.00    -0.247 NA
ATOM     76  C   UNL A   1      30.975  27.346  22.218  1.00  0.00     0.132 A 
BRANCH  73  77
ATOM     77  C   UNL A   1      33.485  25.991  24.449  1.00  0.00     0.274 C 
ATOM     78  O   UNL A   1      34.200  26.917  24.837  1.00  0.00    -0.267 OA
ATOM     79  N   UNL A   1      33.888  24.651  24.529  1.00  0.00    -0.337 N 
ATOM     80  C   UNL A   1      34.717  24.348  25.688  1.00  0.00     0.120 C 
ATOM     81  C   UNL A   1      34.149  23.864  23.324  1.00  0.00     0.120 C 
ATOM     82  C   UNL A   1      35.570  23.097  25.553  1.00  0.00     0.025 C 
ATOM     83  C   UNL A   1      34.282  22.342  23.553  1.00  0.00     0.025 C 
ATOM     84  C   UNL A   1      34.736  21.952  24.978  1.00  0.00    -0.003 C 
BRANCH  84  85
ATOM     85  C   UNL A   1      35.465  20.589  24.989  1.00  0.00     0.039 C 
BRANCH  85  86
ATOM     86  C   UNL A   1      34.546  19.395  24.842  1.00  0.00    -0.048 A 
ATOM     87  C   UNL A   1      35.035  18.204  24.280  1.00  0.00     0.004 A 
ATOM     88  C   UNL A   1      33.229  19.426  25.319  1.00  0.00     0.004 A 
ATOM     89  C   UNL A   1      34.231  17.067  24.210  1.00  0.00     0.000 A 
ATOM     90  C   UNL A   1      32.423  18.285  25.244  1.00  0.00     0.000 A 
ATOM     91  C   UNL A   1      32.925  17.106  24.694  1.00  0.00     0.000 A 
ENDBRANCH  85  86
ENDBRANCH  84  85
ENDBRANCH  73  77
ENDBRANCH  69  71
ENDBRANCH  68  69
ENDBRANCH  67  68
ENDBRANCH   1  67
TORSDOF 17
ENDMDL
MODEL 3
REMARK VINA RESULT:     -11.1      2.928      8.458
REMARK SMILES O=C(OCCOC(=O)c1nccnc1C(=O)N1CCC(Cc2ccccc2)CC1)c1ccc(-c2c3nc(c(-c4ccc(S(=O)(=O)[O-])cc4)c4ccc([nH]4)c(-c4ccc(S(=O)(=O)[O-])cc4)c4nc(c(-c5ccc(S(=O)(=O)[O-])cc5)c5ccc2[nH]5)C=C4)C=C3)cc1
REMARK SMILES IDX 4 1 3 2 2 3 1 4 30 5 31 6 89 7 32 8 88 9 33 10 34 11 35 12
REMARK SMILES IDX 82 13 36 14 87 15 81 16 83 17 37 18 86 19 80 20 79 21 38 23
REMARK SMILES IDX 68 24 49 25 67 26 50 27 53 28 66 29 84 30 51 31 52 32 65 34
REMARK SMILES IDX 85 35 54 36 39 37 40 38 48 39 41 40 47 41 42 42 43 43 44 44
REMARK SMILES IDX 45 45 46 46 69 47 70 48 78 49 71 50 77 51 72 52 73 53 74 54
REMARK SMILES IDX 75 55 76 56 55 57 56 58 64 59 57 60 63 61 58 62 59 63 60 64
REMARK SMILES IDX 61 65 62 66 5 67 6 68 7 69 8 70 9 71 10 72 14 73 11 74 13 75
REMARK SMILES IDX 12 76 15 77 16 78 17 79 18 80 29 81 19 82 28 83 20 84 21 85
REMARK SMILES IDX 22 86 23 87 27 88 24 89 26 90 25 91
REMARK H PARENT 83 22 53 33
REMARK Flexibility Score: inf
ROOT
ATOM      1  C   UNL A   1      33.529  28.925  25.522  1.00  0.00     0.275 C 
ENDROOT
BRANCH   1   2
ATOM      2  O   UNL A   1      34.700  28.945  26.347  1.00  0.00    -0.458 OA
BRANCH   2   3
ATOM      3  C   UNL A   1      34.649  29.901  27.307  1.00  0.00     0.338 C 
ATOM      4  O   UNL A   1      33.833  30.803  27.368  1.00  0.00    -0.246 OA
BRANCH   3   5
ATOM      5  C   UNL A   1      35.912  29.900  28.068  1.00  0.00     0.060 A 
ATOM      6  C   UNL A   1      35.965  29.417  29.376  1.00  0.00     0.016 A 
ATOM      7  C   UNL A   1      37.090  30.205  27.375  1.00  0.00     0.016 A 
ATOM      8  C   UNL A   1      37.198  29.177  29.958  1.00  0.00     0.010 A 
ATOM      9  C   UNL A   1      38.324  29.943  27.942  1.00  0.00     0.010 A 
ATOM     10  C   UNL A   1      38.369  29.413  29.230  1.00  0.00    -0.014 A 
BRANCH  10  11
ATOM     11  C   UNL A   1      39.655  29.120  29.862  1.00  0.00     0.031 A 
ATOM     12  C   UNL A   1      40.061  29.947  31.033  1.00  0.00     0.074 A 
ATOM     13  C   UNL A   1      40.382  28.093  29.389  1.00  0.00     0.049 A 
ATOM     14  N   UNL A   1      41.019  29.731  31.885  1.00  0.00    -0.248 NA
ATOM     15  C   UNL A   1      39.269  31.164  31.300  1.00  0.00     0.031 C 
ATOM     16  C   UNL A   1      40.029  27.271  28.226  1.00  0.00     0.029 A 
ATOM     17  N   UNL A   1      41.566  27.567  29.819  1.00  0.00    -0.354 N 
ATOM     18  C   UNL A   1      40.908  30.744  32.826  1.00  0.00     0.074 A 
ATOM     19  C   UNL A   1      39.841  31.621  32.404  1.00  0.00     0.031 C 
ATOM     20  C   UNL A   1      41.006  26.372  28.010  1.00  0.00     0.029 A 
ATOM     21  C   UNL A   1      42.026  26.536  29.037  1.00  0.00     0.049 A 
ATOM     22  H   UNL A   1      42.045  27.897  30.614  1.00  0.00     0.167 HD
ATOM     23  C   UNL A   1      41.625  30.890  33.961  1.00  0.00     0.031 A 
ATOM     24  C   UNL A   1      43.150  25.809  29.161  1.00  0.00     0.031 A 
ATOM     25  C   UNL A   1      42.704  30.009  34.304  1.00  0.00     0.049 A 
ATOM     26  C   UNL A   1      43.989  26.051  30.385  1.00  0.00     0.074 A 
ATOM     27  C   UNL A   1      43.482  29.993  35.443  1.00  0.00     0.029 A 
ATOM     28  N   UNL A   1      43.173  28.996  33.475  1.00  0.00    -0.354 N 
ATOM     29  N   UNL A   1      43.779  26.908  31.361  1.00  0.00    -0.248 NA
ATOM     30  C   UNL A   1      45.182  25.217  30.555  1.00  0.00     0.031 C 
ATOM     31  C   UNL A   1      44.462  29.008  35.275  1.00  0.00     0.029 A 
ATOM     32  C   UNL A   1      44.265  28.381  34.051  1.00  0.00     0.049 A 
ATOM     33  H   UNL A   1      42.784  28.753  32.603  1.00  0.00     0.167 HD
ATOM     34  C   UNL A   1      44.798  26.696  32.277  1.00  0.00     0.074 A 
ATOM     35  C   UNL A   1      45.618  25.625  31.740  1.00  0.00     0.031 C 
ATOM     36  C   UNL A   1      45.039  27.318  33.458  1.00  0.00     0.031 A 
BRANCH  23  37
ATOM     37  C   UNL A   1      41.260  32.021  34.876  1.00  0.00    -0.014 A 
ATOM     38  C   UNL A   1      40.291  31.849  35.883  1.00  0.00     0.010 A 
ATOM     39  C   UNL A   1      41.902  33.264  34.750  1.00  0.00     0.010 A 
ATOM     40  C   UNL A   1      39.958  32.905  36.734  1.00  0.00     0.020 A 
ATOM     41  C   UNL A   1      41.583  34.319  35.611  1.00  0.00     0.020 A 
ATOM     42  C   UNL A   1      40.606  34.135  36.592  1.00  0.00     0.054 A 
BRANCH  42  43
ATOM     43  S   UNL A   1      40.183  35.478  37.738  1.00  0.00     0.124 S 
ATOM     44  O   UNL A   1      39.043  34.914  38.455  1.00  0.00    -0.237 OA
ATOM     45  O   UNL A   1      41.407  35.625  38.522  1.00  0.00    -0.237 OA
ATOM     46  O   UNL A   1      39.871  36.600  36.857  1.00  0.00    -0.744 OA
ENDBRANCH  42  43
ENDBRANCH  23  37
BRANCH  24  47
ATOM     47  C   UNL A   1      43.530  24.821  28.116  1.00  0.00    -0.014 A 
ATOM     48  C   UNL A   1      44.433  25.143  27.090  1.00  0.00     0.010 A 
ATOM     49  C   UNL A   1      42.975  23.527  28.153  1.00  0.00     0.010 A 
ATOM     50  C   UNL A   1      44.748  24.202  26.102  1.00  0.00     0.020 A 
ATOM     51  C   UNL A   1      43.304  22.577  27.182  1.00  0.00     0.020 A 
ATOM     52  C   UNL A   1      44.176  22.927  26.150  1.00  0.00     0.054 A 
BRANCH  52  53
ATOM     53  S   UNL A   1      44.597  21.722  24.860  1.00  0.00     0.124 S 
ATOM     54  O   UNL A   1      46.018  21.497  25.108  1.00  0.00    -0.237 OA
ATOM     55  O   UNL A   1      43.715  20.601  25.175  1.00  0.00    -0.237 OA
ATOM     56  O   UNL A   1      44.282  22.425  23.619  1.00  0.00    -0.744 OA
ENDBRANCH  52  53
ENDBRANCH  24  47
BRANCH  36  57
ATOM     57  C   UNL A   1      46.232  26.847  34.232  1.00  0.00    -0.014 A 
ATOM     58  C   UNL A   1      46.118  25.777  35.134  1.00  0.00     0.010 A 
ATOM     59  C   UNL A   1      47.491  27.421  33.982  1.00  0.00     0.010 A 
ATOM     60  C   UNL A   1      47.248  25.294  35.789  1.00  0.00     0.020 A 
ATOM     61  C   UNL A   1      48.628  26.921  34.616  1.00  0.00     0.020 A 
ATOM     62  C   UNL A   1      48.497  25.865  35.520  1.00  0.00     0.054 A 
BRANCH  62  63
ATOM     63  S   UNL A   1      49.963  25.164  36.321  1.00  0.00     0.124 S 
ATOM     64  O   UNL A   1      50.930  26.250  36.183  1.00  0.00    -0.237 OA
ATOM     65  O   UNL A   1      49.494  24.909  37.681  1.00  0.00    -0.237 OA
ATOM     66  O   UNL A   1      50.249  23.969  35.531  1.00  0.00    -0.744 OA
ENDBRANCH  62  63
ENDBRANCH  36  57
ENDBRANCH  10  11
ENDBRANCH   3   5
ENDBRANCH   2   3
ENDBRANCH   1   2
BRANCH   1  67
ATOM     67  C   UNL A   1      33.908  28.619  24.065  1.00  0.00     0.275 C 
BRANCH  67  68
ATOM     68  O   UNL A   1      34.104  27.214  23.809  1.00  0.00    -0.457 OA
BRANCH  68  69
ATOM     69  C   UNL A   1      33.308  26.580  22.901  1.00  0.00     0.359 C 
ATOM     70  O   UNL A   1      33.601  26.320  21.757  1.00  0.00    -0.244 OA
BRANCH  69  71
ATOM     71  C   UNL A   1      32.010  26.304  23.585  1.00  0.00     0.179 A 
ATOM     72  N   UNL A   1      30.958  27.084  23.163  1.00  0.00    -0.245 NA
ATOM     73  C   UNL A   1      31.841  25.330  24.565  1.00  0.00     0.161 A 
ATOM     74  C   UNL A   1      29.756  26.825  23.720  1.00  0.00     0.132 A 
ATOM     75  N   UNL A   1      30.625  25.125  25.171  1.00  0.00    -0.247 NA
ATOM     76  C   UNL A   1      29.597  25.882  24.717  1.00  0.00     0.132 A 
BRANCH  73  77
ATOM     77  C   UNL A   1      32.827  24.246  24.787  1.00  0.00     0.274 C 
ATOM     78  O   UNL A   1      33.776  24.509  25.529  1.00  0.00    -0.267 OA
ATOM     79  N   UNL A   1      32.637  22.971  24.237  1.00  0.00    -0.337 N 
ATOM     80  C   UNL A   1      33.063  21.881  25.102  1.00  0.00     0.120 C 
ATOM     81  C   UNL A   1      32.761  22.741  22.798  1.00  0.00     0.120 C 
ATOM     82  C   UNL A   1      33.352  20.572  24.385  1.00  0.00     0.025 C 
ATOM     83  C   UNL A   1      32.229  21.377  22.306  1.00  0.00     0.025 C 
ATOM     84  C   UNL A   1      32.239  20.267  23.383  1.00  0.00    -0.003 C 
BRANCH  84  85
ATOM     85  C   UNL A   1      32.344  18.862  22.749  1.00  0.00     0.039 C 
BRANCH  85  86
ATOM     86  C   UNL A   1      32.879  17.799  23.685  1.00  0.00    -0.048 A 
ATOM     87  C   UNL A   1      34.107  17.177  23.406  1.00  0.00     0.004 A 
ATOM     88  C   UNL A   1      32.208  17.467  24.870  1.00  0.00     0.004 A 
ATOM     89  C   UNL A   1      34.658  16.256  24.297  1.00  0.00     0.000 A 
ATOM     90  C   UNL A   1      32.760  16.540  25.759  1.00  0.00     0.000 A 
ATOM     91  C   UNL A   1      33.985  15.938  25.475  1.00  0.00     0.000 A 
ENDBRANCH  85  86
ENDBRANCH  84  85
ENDBRANCH  73  77
ENDBRANCH  69  71
ENDBRANCH  68  69
ENDBRANCH  67  68
ENDBRANCH   1  67
TORSDOF 17
ENDMDL
