MODEL 1
REMARK VINA RESULT:     -10.5      0.000      0.000
REMARK SMILES Cc1cc(C)cc(C2(C(=O)OCCOC(=O)c3ccc(-c4c5nc(c(-c6ccc(S(=O)(=O)[O-])cc6)c6ccc([nH]6)c(-c6ccc(S(=O)(=O)[O-])cc6)c6nc(c(-c7ccc(S(=O)(=O)[O-])cc7)c7ccc4[nH]7)C=C6)C=C5)cc3)CCOCC2)c1
REMARK SMILES IDX 13 1 12 2 11 3 9 4 10 5 8 6 77 7 81 8 78 9 80 10 79 11 7 12
REMARK SMILES IDX 1 13 2 14 3 15 82 16 4 17 5 18 6 19 14 20 15 21 16 22 17 23
REMARK SMILES IDX 18 24 76 25 19 26 75 27 20 28 21 29 22 30 69 31 23 32 74 33
REMARK SMILES IDX 68 34 70 35 24 36 73 37 67 38 66 39 25 41 55 42 36 43 54 44
REMARK SMILES IDX 37 45 40 46 53 47 71 48 38 49 39 50 52 52 72 53 41 54 26 55
REMARK SMILES IDX 27 56 35 57 28 58 34 59 29 60 30 61 31 62 32 63 33 64 56 65
REMARK SMILES IDX 57 66 65 67 58 68 64 69 59 70 60 71 61 72 62 73 63 74 42 75
REMARK SMILES IDX 43 76 51 77 44 78 50 79 45 80 46 81 47 82 48 83 49 84
REMARK H PARENT 70 40 40 51
REMARK Flexibility Score: inf
ROOT
ATOM      1  C   UNL A   1      32.395  29.659  27.001  1.00  0.00     0.275 C 
ENDROOT
BRANCH   1   2
ATOM      2  C   UNL A   1      32.140  28.963  25.665  1.00  0.00     0.274 C 
BRANCH   2   3
ATOM      3  O   UNL A   1      32.806  27.693  25.675  1.00  0.00    -0.461 OA
BRANCH   3   4
ATOM      4  C   UNL A   1      33.427  27.341  24.519  1.00  0.00     0.316 C 
ATOM      5  O   UNL A   1      34.250  28.051  23.949  1.00  0.00    -0.251 OA
BRANCH   4   6
ATOM      6  C   UNL A   1      33.065  25.891  24.096  1.00  0.00     0.097 C 
ATOM      7  C   UNL A   1      31.529  25.694  24.091  1.00  0.00     0.052 C 
ATOM      8  C   UNL A   1      33.567  25.710  22.648  1.00  0.00     0.052 C 
ATOM      9  C   UNL A   1      30.862  26.610  23.073  1.00  0.00     0.161 C 
ATOM     10  C   UNL A   1      32.817  26.652  21.710  1.00  0.00     0.161 C 
ATOM     11  O   UNL A   1      31.412  26.407  21.771  1.00  0.00    -0.381 OA
BRANCH   6  12
ATOM     12  C   UNL A   1      33.739  24.869  25.031  1.00  0.00    -0.030 A 
ATOM     13  C   UNL A   1      32.861  22.430  27.848  1.00  0.00     0.044 C 
ATOM     14  C   UNL A   1      33.643  23.177  26.802  1.00  0.00    -0.051 A 
ATOM     15  C   UNL A   1      35.038  23.050  26.750  1.00  0.00     0.006 A 
ATOM     16  C   UNL A   1      33.005  24.076  25.933  1.00  0.00     0.008 A 
ATOM     17  C   UNL A   1      35.793  23.822  25.862  1.00  0.00    -0.051 A 
ATOM     18  C   UNL A   1      37.293  23.813  25.829  1.00  0.00     0.044 C 
ATOM     19  C   UNL A   1      35.134  24.720  25.026  1.00  0.00     0.008 A 
ENDBRANCH   6  12
ENDBRANCH   4   6
ENDBRANCH   3   4
ENDBRANCH   2   3
ENDBRANCH   1   2
BRANCH   1  20
ATOM     20  O   UNL A   1      33.712  29.337  27.494  1.00  0.00    -0.458 OA
BRANCH  20  21
ATOM     21  C   UNL A   1      34.444  30.396  27.940  1.00  0.00     0.338 C 
ATOM     22  O   UNL A   1      34.029  31.508  28.190  1.00  0.00    -0.246 OA
BRANCH  21  23
ATOM     23  C   UNL A   1      35.848  29.969  28.172  1.00  0.00     0.060 A 
ATOM     24  C   UNL A   1      36.199  29.509  29.444  1.00  0.00     0.016 A 
ATOM     25  C   UNL A   1      36.815  30.025  27.164  1.00  0.00     0.016 A 
ATOM     26  C   UNL A   1      37.501  29.061  29.694  1.00  0.00     0.010 A 
ATOM     27  C   UNL A   1      38.125  29.597  27.422  1.00  0.00     0.010 A 
ATOM     28  C   UNL A   1      38.476  29.095  28.684  1.00  0.00    -0.014 A 
BRANCH  28  29
ATOM     29  C   UNL A   1      39.884  28.724  28.999  1.00  0.00     0.031 A 
ATOM     30  C   UNL A   1      40.738  29.722  29.714  1.00  0.00     0.074 A 
ATOM     31  C   UNL A   1      40.402  27.520  28.685  1.00  0.00     0.049 A 
ATOM     32  N   UNL A   1      41.966  29.594  30.136  1.00  0.00    -0.248 NA
ATOM     33  C   UNL A   1      40.129  31.034  29.986  1.00  0.00     0.031 C 
ATOM     34  C   UNL A   1      39.670  26.464  28.010  1.00  0.00     0.029 A 
ATOM     35  N   UNL A   1      41.640  26.960  28.894  1.00  0.00    -0.354 N 
ATOM     36  C   UNL A   1      42.277  30.802  30.738  1.00  0.00     0.074 A 
ATOM     37  C   UNL A   1      41.114  31.655  30.617  1.00  0.00     0.031 C 
ATOM     38  C   UNL A   1      40.429  25.366  27.900  1.00  0.00     0.029 A 
ATOM     39  C   UNL A   1      41.751  25.665  28.429  1.00  0.00     0.049 A 
ATOM     40  H   UNL A   1      42.378  27.438  29.335  1.00  0.00     0.167 HD
ATOM     41  C   UNL A   1      43.440  31.174  31.320  1.00  0.00     0.031 A 
ATOM     42  C   UNL A   1      42.800  24.818  28.403  1.00  0.00     0.031 A 
ATOM     43  C   UNL A   1      44.625  30.362  31.345  1.00  0.00     0.049 A 
ATOM     44  C   UNL A   1      44.108  25.297  28.961  1.00  0.00     0.074 A 
ATOM     45  C   UNL A   1      45.868  30.675  31.860  1.00  0.00     0.029 A 
ATOM     46  N   UNL A   1      44.723  29.088  30.802  1.00  0.00    -0.354 N 
ATOM     47  N   UNL A   1      44.374  26.439  29.551  1.00  0.00    -0.248 NA
ATOM     48  C   UNL A   1      45.259  24.393  28.841  1.00  0.00     0.031 C 
ATOM     49  C   UNL A   1      46.737  29.617  31.571  1.00  0.00     0.029 A 
ATOM     50  C   UNL A   1      46.017  28.615  30.937  1.00  0.00     0.049 A 
ATOM     51  H   UNL A   1      43.982  28.594  30.382  1.00  0.00     0.167 HD
ATOM     52  C   UNL A   1      45.721  26.385  29.884  1.00  0.00     0.074 A 
ATOM     53  C   UNL A   1      46.206  25.088  29.454  1.00  0.00     0.031 C 
ATOM     54  C   UNL A   1      46.485  27.327  30.488  1.00  0.00     0.031 A 
BRANCH  41  55
ATOM     55  C   UNL A   1      43.483  32.560  31.895  1.00  0.00    -0.014 A 
ATOM     56  C   UNL A   1      43.861  33.660  31.106  1.00  0.00     0.010 A 
ATOM     57  C   UNL A   1      43.173  32.756  33.251  1.00  0.00     0.010 A 
ATOM     58  C   UNL A   1      43.968  34.930  31.675  1.00  0.00     0.020 A 
ATOM     59  C   UNL A   1      43.257  34.028  33.820  1.00  0.00     0.020 A 
ATOM     60  C   UNL A   1      43.672  35.104  33.031  1.00  0.00     0.054 A 
BRANCH  60  61
ATOM     61  S   UNL A   1      43.822  36.762  33.748  1.00  0.00     0.124 S 
ATOM     62  O   UNL A   1      44.902  36.576  34.714  1.00  0.00    -0.237 OA
ATOM     63  O   UNL A   1      44.152  37.584  32.587  1.00  0.00    -0.237 OA
ATOM     64  O   UNL A   1      42.505  37.010  34.328  1.00  0.00    -0.744 OA
ENDBRANCH  60  61
ENDBRANCH  41  55
BRANCH  42  65
ATOM     65  C   UNL A   1      42.671  23.461  27.792  1.00  0.00    -0.014 A 
ATOM     66  C   UNL A   1      43.043  23.229  26.455  1.00  0.00     0.010 A 
ATOM     67  C   UNL A   1      42.169  22.384  28.548  1.00  0.00     0.010 A 
ATOM     68  C   UNL A   1      42.903  21.957  25.885  1.00  0.00     0.020 A 
ATOM     69  C   UNL A   1      42.057  21.105  27.993  1.00  0.00     0.020 A 
ATOM     70  C   UNL A   1      42.413  20.902  26.659  1.00  0.00     0.054 A 
BRANCH  70  71
ATOM     71  S   UNL A   1      42.282  19.251  25.915  1.00  0.00     0.124 S 
ATOM     72  O   UNL A   1      40.846  19.136  25.680  1.00  0.00    -0.237 OA
ATOM     73  O   UNL A   1      43.113  19.376  24.720  1.00  0.00    -0.237 OA
ATOM     74  O   UNL A   1      42.820  18.368  26.948  1.00  0.00    -0.744 OA
ENDBRANCH  70  71
ENDBRANCH  42  65
BRANCH  54  75
ATOM     75  C   UNL A   1      47.926  26.981  30.734  1.00  0.00    -0.014 A 
ATOM     76  C   UNL A   1      48.912  27.239  29.764  1.00  0.00     0.010 A 
ATOM     77  C   UNL A   1      48.304  26.438  31.974  1.00  0.00     0.010 A 
ATOM     78  C   UNL A   1      50.249  26.932  30.022  1.00  0.00     0.020 A 
ATOM     79  C   UNL A   1      49.644  26.157  32.246  1.00  0.00     0.020 A 
ATOM     80  C   UNL A   1      50.606  26.395  31.263  1.00  0.00     0.054 A 
BRANCH  80  81
ATOM     81  S   UNL A   1      52.356  26.053  31.592  1.00  0.00     0.124 S 
ATOM     82  O   UNL A   1      52.313  24.673  32.068  1.00  0.00    -0.237 OA
ATOM     83  O   UNL A   1      52.973  26.249  30.283  1.00  0.00    -0.237 OA
ATOM     84  O   UNL A   1      52.719  27.049  32.599  1.00  0.00    -0.744 OA
ENDBRANCH  80  81
ENDBRANCH  54  75
ENDBRANCH  28  29
ENDBRANCH  21  23
ENDBRANCH  20  21
ENDBRANCH   1  20
TORSDOF 15
ENDMDL
MODEL 2
REMARK VINA RESULT:     -10.4      1.681      3.319
REMARK SMILES Cc1cc(C)cc(C2(C(=O)OCCOC(=O)c3ccc(-c4c5nc(c(-c6ccc(S(=O)(=O)[O-])cc6)c6ccc([nH]6)c(-c6ccc(S(=O)(=O)[O-])cc6)c6nc(c(-c7ccc(S(=O)(=O)[O-])cc7)c7ccc4[nH]7)C=C6)C=C5)cc3)CCOCC2)c1
REMARK SMILES IDX 13 1 12 2 11 3 9 4 10 5 8 6 77 7 81 8 78 9 80 10 79 11 7 12
REMARK SMILES IDX 1 13 2 14 3 15 82 16 4 17 5 18 6 19 14 20 15 21 16 22 17 23
REMARK SMILES IDX 18 24 76 25 19 26 75 27 20 28 21 29 22 30 69 31 23 32 74 33
REMARK SMILES IDX 68 34 70 35 24 36 73 37 67 38 66 39 25 41 55 42 36 43 54 44
REMARK SMILES IDX 37 45 40 46 53 47 71 48 38 49 39 50 52 52 72 53 41 54 26 55
REMARK SMILES IDX 27 56 35 57 28 58 34 59 29 60 30 61 31 62 32 63 33 64 56 65
REMARK SMILES IDX 57 66 65 67 58 68 64 69 59 70 60 71 61 72 62 73 63 74 42 75
REMARK SMILES IDX 43 76 51 77 44 78 50 79 45 80 46 81 47 82 48 83 49 84
REMARK H PARENT 70 40 40 51
REMARK Flexibility Score: inf
ROOT
ATOM      1  C   UNL A   1      32.549  29.754  27.013  1.00  0.00     0.275 C 
ENDROOT
BRANCH   1   2
ATOM      2  C   UNL A   1      32.028  28.411  26.505  1.00  0.00     0.274 C 
BRANCH   2   3
ATOM      3  O   UNL A   1      31.432  28.608  25.215  1.00  0.00    -0.461 OA
BRANCH   3   4
ATOM      4  C   UNL A   1      31.518  27.560  24.355  1.00  0.00     0.316 C 
ATOM      5  O   UNL A   1      31.608  26.392  24.719  1.00  0.00    -0.251 OA
BRANCH   4   6
ATOM      6  C   UNL A   1      31.355  28.018  22.880  1.00  0.00     0.097 C 
ATOM      7  C   UNL A   1      32.505  28.973  22.477  1.00  0.00     0.052 C 
ATOM      8  C   UNL A   1      31.467  26.751  22.005  1.00  0.00     0.052 C 
ATOM      9  C   UNL A   1      33.854  28.270  22.555  1.00  0.00     0.161 C 
ATOM     10  C   UNL A   1      32.862  26.144  22.135  1.00  0.00     0.161 C 
ATOM     11  O   UNL A   1      33.858  27.090  21.750  1.00  0.00    -0.381 OA
BRANCH   6  12
ATOM     12  C   UNL A   1      29.987  28.697  22.671  1.00  0.00    -0.030 A 
ATOM     13  C   UNL A   1      28.488  31.910  21.229  1.00  0.00     0.044 C 
ATOM     14  C   UNL A   1      28.602  30.541  21.843  1.00  0.00    -0.051 A 
ATOM     15  C   UNL A   1      27.462  29.913  22.363  1.00  0.00     0.006 A 
ATOM     16  C   UNL A   1      29.853  29.922  21.991  1.00  0.00     0.008 A 
ATOM     17  C   UNL A   1      27.566  28.694  23.040  1.00  0.00    -0.051 A 
ATOM     18  C   UNL A   1      26.404  28.021  23.711  1.00  0.00     0.044 C 
ATOM     19  C   UNL A   1      28.822  28.112  23.189  1.00  0.00     0.008 A 
ENDBRANCH   6  12
ENDBRANCH   4   6
ENDBRANCH   3   4
ENDBRANCH   2   3
ENDBRANCH   1   2
BRANCH   1  20
ATOM     20  O   UNL A   1      33.991  29.773  27.000  1.00  0.00    -0.458 OA
BRANCH  20  21
ATOM     21  C   UNL A   1      34.572  30.617  27.899  1.00  0.00     0.338 C 
ATOM     22  O   UNL A   1      34.041  31.551  28.463  1.00  0.00    -0.246 OA
BRANCH  21  23
ATOM     23  C   UNL A   1      35.962  30.171  28.175  1.00  0.00     0.060 A 
ATOM     24  C   UNL A   1      36.244  29.612  29.424  1.00  0.00     0.016 A 
ATOM     25  C   UNL A   1      36.983  30.304  27.228  1.00  0.00     0.016 A 
ATOM     26  C   UNL A   1      37.531  29.145  29.709  1.00  0.00     0.010 A 
ATOM     27  C   UNL A   1      38.278  29.855  27.523  1.00  0.00     0.010 A 
ATOM     28  C   UNL A   1      38.561  29.256  28.760  1.00  0.00    -0.014 A 
BRANCH  28  29
ATOM     29  C   UNL A   1      39.950  28.859  29.122  1.00  0.00     0.031 A 
ATOM     30  C   UNL A   1      40.784  29.827  29.900  1.00  0.00     0.074 A 
ATOM     31  C   UNL A   1      40.467  27.658  28.795  1.00  0.00     0.049 A 
ATOM     32  N   UNL A   1      41.992  29.672  30.368  1.00  0.00    -0.248 NA
ATOM     33  C   UNL A   1      40.180  31.137  30.183  1.00  0.00     0.031 C 
ATOM     34  C   UNL A   1      39.753  26.630  28.062  1.00  0.00     0.029 A 
ATOM     35  N   UNL A   1      41.689  27.077  29.039  1.00  0.00    -0.354 N 
ATOM     36  C   UNL A   1      42.291  30.858  31.016  1.00  0.00     0.074 A 
ATOM     37  C   UNL A   1      41.143  31.729  30.872  1.00  0.00     0.031 C 
ATOM     38  C   UNL A   1      40.503  25.527  27.952  1.00  0.00     0.029 A 
ATOM     39  C   UNL A   1      41.805  25.794  28.543  1.00  0.00     0.049 A 
ATOM     40  H   UNL A   1      42.414  27.534  29.524  1.00  0.00     0.167 HD
ATOM     41  C   UNL A   1      43.433  31.201  31.655  1.00  0.00     0.031 A 
ATOM     42  C   UNL A   1      42.845  24.936  28.536  1.00  0.00     0.031 A 
ATOM     43  C   UNL A   1      44.607  30.374  31.706  1.00  0.00     0.049 A 
ATOM     44  C   UNL A   1      44.134  25.384  29.161  1.00  0.00     0.074 A 
ATOM     45  C   UNL A   1      45.831  30.657  32.280  1.00  0.00     0.029 A 
ATOM     46  N   UNL A   1      44.714  29.114  31.132  1.00  0.00    -0.354 N 
ATOM     47  N   UNL A   1      44.388  26.505  29.793  1.00  0.00    -0.248 NA
ATOM     48  C   UNL A   1      45.279  24.469  29.063  1.00  0.00     0.031 C 
ATOM     49  C   UNL A   1      46.700  29.597  31.997  1.00  0.00     0.029 A 
ATOM     50  C   UNL A   1      45.996  28.622  31.306  1.00  0.00     0.049 A 
ATOM     51  H   UNL A   1      43.986  28.641  30.668  1.00  0.00     0.167 HD
ATOM     52  C   UNL A   1      45.719  26.426  30.180  1.00  0.00     0.074 A 
ATOM     53  C   UNL A   1      46.208  25.136  29.734  1.00  0.00     0.031 C 
ATOM     54  C   UNL A   1      46.468  27.342  30.841  1.00  0.00     0.031 A 
BRANCH  41  55
ATOM     55  C   UNL A   1      43.468  32.569  32.270  1.00  0.00    -0.014 A 
ATOM     56  C   UNL A   1      43.881  33.688  31.526  1.00  0.00     0.010 A 
ATOM     57  C   UNL A   1      43.114  32.730  33.621  1.00  0.00     0.010 A 
ATOM     58  C   UNL A   1      43.979  34.940  32.134  1.00  0.00     0.020 A 
ATOM     59  C   UNL A   1      43.188  33.985  34.227  1.00  0.00     0.020 A 
ATOM     60  C   UNL A   1      43.638  35.079  33.484  1.00  0.00     0.054 A 
BRANCH  60  61
ATOM     61  S   UNL A   1      43.777  36.715  34.252  1.00  0.00     0.124 S 
ATOM     62  O   UNL A   1      42.759  36.643  35.298  1.00  0.00    -0.237 OA
ATOM     63  O   UNL A   1      45.159  36.731  34.722  1.00  0.00    -0.237 OA
ATOM     64  O   UNL A   1      43.482  37.637  33.159  1.00  0.00    -0.744 OA
ENDBRANCH  60  61
ENDBRANCH  41  55
BRANCH  42  65
ATOM     65  C   UNL A   1      42.727  23.598  27.883  1.00  0.00    -0.014 A 
ATOM     66  C   UNL A   1      42.295  22.473  28.609  1.00  0.00     0.010 A 
ATOM     67  C   UNL A   1      43.051  23.438  26.522  1.00  0.00     0.010 A 
ATOM     68  C   UNL A   1      42.204  21.218  27.993  1.00  0.00     0.020 A 
ATOM     69  C   UNL A   1      42.932  22.193  25.895  1.00  0.00     0.020 A 
ATOM     70  C   UNL A   1      42.521  21.087  26.639  1.00  0.00     0.054 A 
BRANCH  70  71
ATOM     71  S   UNL A   1      42.352  19.461  25.848  1.00  0.00     0.124 S 
ATOM     72  O   UNL A   1      40.948  19.460  25.451  1.00  0.00    -0.237 OA
ATOM     73  O   UNL A   1      43.320  19.537  24.757  1.00  0.00    -0.237 OA
ATOM     74  O   UNL A   1      42.701  18.525  26.916  1.00  0.00    -0.744 OA
ENDBRANCH  70  71
ENDBRANCH  42  65
BRANCH  54  75
ATOM     75  C   UNL A   1      47.894  26.972  31.136  1.00  0.00    -0.014 A 
ATOM     76  C   UNL A   1      48.229  26.214  32.272  1.00  0.00     0.010 A 
ATOM     77  C   UNL A   1      48.905  27.346  30.234  1.00  0.00     0.010 A 
ATOM     78  C   UNL A   1      49.558  25.860  32.514  1.00  0.00     0.020 A 
ATOM     79  C   UNL A   1      50.231  26.970  30.457  1.00  0.00     0.020 A 
ATOM     80  C   UNL A   1      50.550  26.239  31.604  1.00  0.00     0.054 A 
BRANCH  80  81
ATOM     81  S   UNL A   1      52.260  25.724  31.914  1.00  0.00     0.124 S 
ATOM     82  O   UNL A   1      52.099  24.304  32.216  1.00  0.00    -0.237 OA
ATOM     83  O   UNL A   1      52.921  26.028  30.648  1.00  0.00    -0.237 OA
ATOM     84  O   UNL A   1      52.673  26.559  33.041  1.00  0.00    -0.744 OA
ENDBRANCH  80  81
ENDBRANCH  54  75
ENDBRANCH  28  29
ENDBRANCH  21  23
ENDBRANCH  20  21
ENDBRANCH   1  20
TORSDOF 15
ENDMDL
MODEL 3
REMARK VINA RESULT:     -10.2      3.745     10.713
REMARK SMILES Cc1cc(C)cc(C2(C(=O)OCCOC(=O)c3ccc(-c4c5nc(c(-c6ccc(S(=O)(=O)[O-])cc6)c6ccc([nH]6)c(-c6ccc(S(=O)(=O)[O-])cc6)c6nc(c(-c7ccc(S(=O)(=O)[O-])cc7)c7ccc4[nH]7)C=C6)C=C5)cc3)CCOCC2)c1
REMARK SMILES IDX 13 1 12 2 11 3 9 4 10 5 8 6 77 7 81 8 78 9 80 10 79 11 7 12
REMARK SMILES IDX 1 13 2 14 3 15 82 16 4 17 5 18 6 19 14 20 15 21 16 22 17 23
REMARK SMILES IDX 18 24 76 25 19 26 75 27 20 28 21 29 22 30 69 31 23 32 74 33
REMARK SMILES IDX 68 34 70 35 24 36 73 37 67 38 66 39 25 41 55 42 36 43 54 44
REMARK SMILES IDX 37 45 40 46 53 47 71 48 38 49 39 50 52 52 72 53 41 54 26 55
REMARK SMILES IDX 27 56 35 57 28 58 34 59 29 60 30 61 31 62 32 63 33 64 56 65
REMARK SMILES IDX 57 66 65 67 58 68 64 69 59 70 60 71 61 72 62 73 63 74 42 75
REMARK SMILES IDX 43 76 51 77 44 78 50 79 45 80 46 81 47 82 48 83 49 84
REMARK H PARENT 70 40 40 51
REMARK Flexibility Score: inf
ROOT
ATOM      1  C   UNL A   1      39.921  20.757  25.745  1.00  0.00     0.275 C 
ENDROOT
BRANCH   1   2
ATOM      2  C   UNL A   1      40.944  19.744  26.258  1.00  0.00     0.274 C 
BRANCH   2   3
ATOM      3  O   UNL A   1      41.960  19.573  25.261  1.00  0.00    -0.461 OA
BRANCH   3   4
ATOM      4  C   UNL A   1      43.201  19.276  25.724  1.00  0.00     0.316 C 
ATOM      5  O   UNL A   1      43.481  18.221  26.285  1.00  0.00    -0.251 OA
BRANCH   4   6
ATOM      6  C   UNL A   1      44.232  20.372  25.337  1.00  0.00     0.097 C 
ATOM      7  C   UNL A   1      45.650  19.979  25.817  1.00  0.00     0.052 C 
ATOM      8  C   UNL A   1      44.258  20.436  23.795  1.00  0.00     0.052 C 
ATOM      9  C   UNL A   1      46.122  18.698  25.141  1.00  0.00     0.161 C 
ATOM     10  C   UNL A   1      44.771  19.117  23.223  1.00  0.00     0.161 C 
ATOM     11  O   UNL A   1      46.077  18.830  23.720  1.00  0.00    -0.381 OA
BRANCH   6  12
ATOM     12  C   UNL A   1      43.819  21.736  25.925  1.00  0.00    -0.030 A 
ATOM     13  C   UNL A   1      43.743  25.445  24.984  1.00  0.00     0.044 C 
ATOM     14  C   UNL A   1      43.542  24.164  25.747  1.00  0.00    -0.051 A 
ATOM     15  C   UNL A   1      43.094  24.206  27.075  1.00  0.00     0.006 A 
ATOM     16  C   UNL A   1      43.889  22.928  25.180  1.00  0.00     0.008 A 
ATOM     17  C   UNL A   1      43.011  23.037  27.837  1.00  0.00    -0.051 A 
ATOM     18  C   UNL A   1      42.641  23.025  29.292  1.00  0.00     0.044 C 
ATOM     19  C   UNL A   1      43.380  21.828  27.255  1.00  0.00     0.008 A 
ENDBRANCH   6  12
ENDBRANCH   4   6
ENDBRANCH   3   4
ENDBRANCH   2   3
ENDBRANCH   1   2
BRANCH   1  20
ATOM     20  O   UNL A   1      39.843  21.889  26.635  1.00  0.00    -0.458 OA
BRANCH  20  21
ATOM     21  C   UNL A   1      38.976  22.870  26.257  1.00  0.00     0.338 C 
ATOM     22  O   UNL A   1      38.003  22.741  25.543  1.00  0.00    -0.246 OA
BRANCH  21  23
ATOM     23  C   UNL A   1      39.340  24.144  26.930  1.00  0.00     0.060 A 
ATOM     24  C   UNL A   1      39.991  25.128  26.182  1.00  0.00     0.016 A 
ATOM     25  C   UNL A   1      39.056  24.374  28.280  1.00  0.00     0.016 A 
ATOM     26  C   UNL A   1      40.316  26.356  26.768  1.00  0.00     0.010 A 
ATOM     27  C   UNL A   1      39.402  25.598  28.872  1.00  0.00     0.010 A 
ATOM     28  C   UNL A   1      40.020  26.606  28.118  1.00  0.00    -0.014 A 
BRANCH  28  29
ATOM     29  C   UNL A   1      40.476  27.873  28.755  1.00  0.00     0.031 A 
ATOM     30  C   UNL A   1      41.893  27.961  29.225  1.00  0.00     0.074 A 
ATOM     31  C   UNL A   1      39.667  28.941  28.899  1.00  0.00     0.049 A 
ATOM     32  N   UNL A   1      42.517  28.977  29.753  1.00  0.00    -0.248 NA
ATOM     33  C   UNL A   1      42.710  26.746  29.082  1.00  0.00     0.031 C 
ATOM     34  C   UNL A   1      38.282  28.985  28.468  1.00  0.00     0.029 A 
ATOM     35  N   UNL A   1      39.872  30.195  29.424  1.00  0.00    -0.354 N 
ATOM     36  C   UNL A   1      43.806  28.533  29.995  1.00  0.00     0.074 A 
ATOM     37  C   UNL A   1      43.874  27.152  29.566  1.00  0.00     0.031 C 
ATOM     38  C   UNL A   1      37.763  30.201  28.684  1.00  0.00     0.029 A 
ATOM     39  C   UNL A   1      38.764  31.016  29.354  1.00  0.00     0.049 A 
ATOM     40  H   UNL A   1      40.731  30.482  29.812  1.00  0.00     0.167 HD
ATOM     41  C   UNL A   1      44.838  29.211  30.548  1.00  0.00     0.031 A 
ATOM     42  C   UNL A   1      38.561  32.272  29.801  1.00  0.00     0.031 A 
ATOM     43  C   UNL A   1      44.737  30.548  31.067  1.00  0.00     0.049 A 
ATOM     44  C   UNL A   1      39.692  32.962  30.506  1.00  0.00     0.074 A 
ATOM     45  C   UNL A   1      45.711  31.298  31.698  1.00  0.00     0.029 A 
ATOM     46  N   UNL A   1      43.584  31.321  31.046  1.00  0.00    -0.354 N 
ATOM     47  N   UNL A   1      40.916  32.532  30.701  1.00  0.00    -0.248 NA
ATOM     48  C   UNL A   1      39.420  34.294  31.062  1.00  0.00     0.031 C 
ATOM     49  C   UNL A   1      45.130  32.500  32.117  1.00  0.00     0.029 A 
ATOM     50  C   UNL A   1      43.812  32.527  31.686  1.00  0.00     0.049 A 
ATOM     51  H   UNL A   1      42.730  31.051  30.637  1.00  0.00     0.167 HD
ATOM     52  C   UNL A   1      41.565  33.545  31.393  1.00  0.00     0.074 A 
ATOM     53  C   UNL A   1      40.606  34.620  31.558  1.00  0.00     0.031 C 
ATOM     54  C   UNL A   1      42.839  33.578  31.853  1.00  0.00     0.031 A 
BRANCH  41  55
ATOM     55  C   UNL A   1      46.131  28.463  30.683  1.00  0.00    -0.014 A 
ATOM     56  C   UNL A   1      47.124  28.547  29.690  1.00  0.00     0.010 A 
ATOM     57  C   UNL A   1      46.340  27.639  31.802  1.00  0.00     0.010 A 
ATOM     58  C   UNL A   1      48.289  27.786  29.796  1.00  0.00     0.020 A 
ATOM     59  C   UNL A   1      47.515  26.895  31.922  1.00  0.00     0.020 A 
ATOM     60  C   UNL A   1      48.474  26.959  30.909  1.00  0.00     0.054 A 
BRANCH  60  61
ATOM     61  S   UNL A   1      49.994  25.979  31.020  1.00  0.00     0.124 S 
ATOM     62  O   UNL A   1      49.741  25.165  32.207  1.00  0.00    -0.237 OA
ATOM     63  O   UNL A   1      50.002  25.255  29.752  1.00  0.00    -0.237 OA
ATOM     64  O   UNL A   1      51.045  26.983  31.167  1.00  0.00    -0.744 OA
ENDBRANCH  60  61
ENDBRANCH  41  55
BRANCH  42  65
ATOM     65  C   UNL A   1      37.232  32.935  29.639  1.00  0.00    -0.014 A 
ATOM     66  C   UNL A   1      36.344  33.052  30.724  1.00  0.00     0.010 A 
ATOM     67  C   UNL A   1      36.841  33.453  28.390  1.00  0.00     0.010 A 
ATOM     68  C   UNL A   1      35.092  33.660  30.559  1.00  0.00     0.020 A 
ATOM     69  C   UNL A   1      35.606  34.088  28.228  1.00  0.00     0.020 A 
ATOM     70  C   UNL A   1      34.732  34.176  29.312  1.00  0.00     0.054 A 
BRANCH  70  71
ATOM     71  S   UNL A   1      33.124  35.000  29.131  1.00  0.00     0.124 S 
ATOM     72  O   UNL A   1      32.588  34.922  30.487  1.00  0.00    -0.237 OA
ATOM     73  O   UNL A   1      33.503  36.335  28.675  1.00  0.00    -0.237 OA
ATOM     74  O   UNL A   1      32.433  34.184  28.136  1.00  0.00    -0.744 OA
ENDBRANCH  70  71
ENDBRANCH  42  65
BRANCH  54  75
ATOM     75  C   UNL A   1      43.274  34.827  32.567  1.00  0.00    -0.014 A 
ATOM     76  C   UNL A   1      43.952  35.855  31.888  1.00  0.00     0.010 A 
ATOM     77  C   UNL A   1      42.953  34.993  33.926  1.00  0.00     0.010 A 
ATOM     78  C   UNL A   1      44.325  37.017  32.565  1.00  0.00     0.020 A 
ATOM     79  C   UNL A   1      43.299  36.166  34.598  1.00  0.00     0.020 A 
ATOM     80  C   UNL A   1      43.995  37.166  33.916  1.00  0.00     0.054 A 
BRANCH  80  81
ATOM     81  S   UNL A   1      44.446  38.707  34.758  1.00  0.00     0.124 S 
ATOM     82  O   UNL A   1      43.419  39.627  34.278  1.00  0.00    -0.237 OA
ATOM     83  O   UNL A   1      44.353  38.339  36.169  1.00  0.00    -0.237 OA
ATOM     84  O   UNL A   1      45.801  38.978  34.280  1.00  0.00    -0.744 OA
ENDBRANCH  80  81
ENDBRANCH  54  75
ENDBRANCH  28  29
ENDBRANCH  21  23
ENDBRANCH  20  21
ENDBRANCH   1  20
TORSDOF 15
ENDMDL
