MODEL 1
REMARK VINA RESULT:     -11.8      0.000      0.000
REMARK SMILES Cc1nn(-c2ccccc2)c(C)c1CNC(=O)[C@@H]1[C@@H](C(=O)OCCOC(=O)c2ccc(-c3c4nc(c(-c5ccc(S(=O)(=O)[O-])cc5)c5ccc([nH]5)c(-c5ccc(S(=O)(=O)[O-])cc5)c5nc(c(-c6ccc(S(=O)(=O)[O-])cc6)c6ccc3[nH]6)C=C5)C=C4)cc2)[C@@H]2C=C[C@H]1C2
REMARK SMILES IDX 23 1 22 2 20 3 21 4 19 5 18 6 91 7 88 8 90 9 92 10 89 11
REMARK SMILES IDX 16 12 15 13 17 15 14 16 13 17 1 18 2 19 3 20 4 21 11 22
REMARK SMILES IDX 12 23 5 24 6 25 10 26 7 27 9 28 8 29 24 30 25 31 26 32 27 33
REMARK SMILES IDX 28 34 29 35 87 36 30 37 86 38 31 39 32 40 33 41 80 42 34 43
REMARK SMILES IDX 85 44 79 45 81 46 35 47 84 48 78 49 77 50 36 52 66 53 47 54
REMARK SMILES IDX 65 55 48 56 51 57 64 58 82 59 49 60 50 61 63 63 83 64 52 65
REMARK SMILES IDX 37 66 38 67 46 68 39 69 45 70 40 71 41 72 42 73 43 74 44 75
REMARK SMILES IDX 67 76 68 77 76 78 69 79 75 80 70 81 71 82 72 83 73 84 74 85
REMARK SMILES IDX 53 86 54 87 62 88 55 89 61 90 56 91 57 92 58 93 59 94 60 95
REMARK H PARENT 15 14 81 51 51 62
REMARK Flexibility Score: inf
ROOT
ATOM      1  C   UNL A   1      33.336  28.364  27.039  1.00  0.00     0.274 C 
ENDROOT
BRANCH   1   2
ATOM      2  O   UNL A   1      33.781  27.684  25.846  1.00  0.00    -0.462 OA
BRANCH   2   3
ATOM      3  C   UNL A   1      33.352  26.406  25.662  1.00  0.00     0.310 C 
ATOM      4  O   UNL A   1      34.068  25.418  25.754  1.00  0.00    -0.252 OA
BRANCH   3   5
ATOM      5  C   UNL A   1      31.866  26.307  25.348  1.00  0.00     0.119 C 
ATOM      6  C   UNL A   1      31.443  24.911  24.834  1.00  0.00     0.100 C 
ATOM      7  C   UNL A   1      30.626  25.234  23.548  1.00  0.00     0.025 C 
ATOM      8  C   UNL A   1      31.426  27.220  24.180  1.00  0.00     0.027 C 
ATOM      9  C   UNL A   1      29.453  26.154  23.772  1.00  0.00    -0.027 C 
ATOM     10  C   UNL A   1      31.548  26.307  22.951  1.00  0.00     0.017 C 
ATOM     11  C   UNL A   1      29.925  27.330  24.205  1.00  0.00    -0.027 C 
BRANCH   6  12
ATOM     12  C   UNL A   1      30.991  23.967  25.942  1.00  0.00     0.224 C 
ATOM     13  N   UNL A   1      31.227  22.645  26.034  1.00  0.00    -0.352 N 
ATOM     14  H   UNL A   1      30.885  22.244  26.865  1.00  0.00     0.163 HD
ATOM     15  O   UNL A   1      30.313  24.441  26.868  1.00  0.00    -0.275 OA
BRANCH  13  16
ATOM     16  C   UNL A   1      31.876  21.695  25.169  1.00  0.00     0.155 C 
BRANCH  16  17
ATOM     17  C   UNL A   1      33.328  21.995  24.958  1.00  0.00     0.016 A 
ATOM     18  C   UNL A   1      33.130  22.739  22.452  1.00  0.00     0.069 C 
ATOM     19  C   UNL A   1      33.860  22.475  23.722  1.00  0.00     0.065 A 
ATOM     20  N   UNL A   1      35.152  22.785  23.813  1.00  0.00    -0.173 NA
ATOM     21  N   UNL A   1      35.514  22.442  25.068  1.00  0.00    -0.237 N 
ATOM     22  C   UNL A   1      34.422  22.025  25.824  1.00  0.00     0.046 A 
ATOM     23  C   UNL A   1      34.520  21.840  27.300  1.00  0.00     0.067 C 
BRANCH  21  24
ATOM     24  C   UNL A   1      36.862  22.610  25.491  1.00  0.00     0.065 A 
ATOM     25  C   UNL A   1      37.263  23.838  26.029  1.00  0.00     0.028 A 
ATOM     26  C   UNL A   1      37.775  21.550  25.421  1.00  0.00     0.028 A 
ATOM     27  C   UNL A   1      38.544  23.969  26.573  1.00  0.00     0.002 A 
ATOM     28  C   UNL A   1      39.056  21.690  25.954  1.00  0.00     0.002 A 
ATOM     29  C   UNL A   1      39.433  22.892  26.546  1.00  0.00     0.000 A 
ENDBRANCH  21  24
ENDBRANCH  16  17
ENDBRANCH  13  16
ENDBRANCH   6  12
ENDBRANCH   3   5
ENDBRANCH   2   3
ENDBRANCH   1   2
BRANCH   1  30
ATOM     30  C   UNL A   1      33.407  29.888  26.917  1.00  0.00     0.275 C 
BRANCH  30  31
ATOM     31  O   UNL A   1      34.752  30.368  27.051  1.00  0.00    -0.458 OA
BRANCH  31  32
ATOM     32  C   UNL A   1      34.866  31.293  28.023  1.00  0.00     0.338 C 
ATOM     33  O   UNL A   1      34.254  32.353  28.096  1.00  0.00    -0.246 OA
BRANCH  32  34
ATOM     34  C   UNL A   1      35.878  30.937  29.013  1.00  0.00     0.060 A 
ATOM     35  C   UNL A   1      36.823  31.906  29.358  1.00  0.00     0.016 A 
ATOM     36  C   UNL A   1      36.119  29.578  29.203  1.00  0.00     0.016 A 
ATOM     37  C   UNL A   1      38.109  31.507  29.662  1.00  0.00     0.010 A 
ATOM     38  C   UNL A   1      37.394  29.180  29.565  1.00  0.00     0.010 A 
ATOM     39  C   UNL A   1      38.407  30.142  29.676  1.00  0.00    -0.014 A 
BRANCH  39  40
ATOM     40  C   UNL A   1      39.814  29.763  29.775  1.00  0.00     0.031 A 
ATOM     41  C   UNL A   1      40.390  29.718  31.142  1.00  0.00     0.074 A 
ATOM     42  C   UNL A   1      40.525  29.344  28.710  1.00  0.00     0.049 A 
ATOM     43  N   UNL A   1      41.458  30.293  31.591  1.00  0.00    -0.248 NA
ATOM     44  C   UNL A   1      39.630  28.968  32.153  1.00  0.00     0.031 C 
ATOM     45  C   UNL A   1      40.016  29.058  27.364  1.00  0.00     0.029 A 
ATOM     46  N   UNL A   1      41.823  28.925  28.652  1.00  0.00    -0.354 N 
ATOM     47  C   UNL A   1      41.607  29.839  32.897  1.00  0.00     0.074 A 
ATOM     48  C   UNL A   1      40.395  29.129  33.230  1.00  0.00     0.031 C 
ATOM     49  C   UNL A   1      40.902  28.267  26.724  1.00  0.00     0.029 A 
ATOM     50  C   UNL A   1      42.078  28.101  27.564  1.00  0.00     0.049 A 
ATOM     51  H   UNL A   1      42.506  29.181  29.312  1.00  0.00     0.167 HD
ATOM     52  C   UNL A   1      42.785  29.889  33.576  1.00  0.00     0.031 A 
ATOM     53  C   UNL A   1      43.120  27.249  27.417  1.00  0.00     0.031 A 
ATOM     54  C   UNL A   1      43.743  30.781  32.988  1.00  0.00     0.049 A 
ATOM     55  C   UNL A   1      44.193  27.659  28.351  1.00  0.00     0.074 A 
ATOM     56  C   UNL A   1      43.789  32.135  32.726  1.00  0.00     0.029 A 
ATOM     57  N   UNL A   1      44.789  30.224  32.294  1.00  0.00    -0.354 N 
ATOM     58  N   UNL A   1      44.886  28.756  28.235  1.00  0.00    -0.248 NA
ATOM     59  C   UNL A   1      44.295  26.997  29.644  1.00  0.00     0.031 C 
ATOM     60  C   UNL A   1      44.594  32.269  31.559  1.00  0.00     0.029 A 
ATOM     61  C   UNL A   1      44.990  30.988  31.172  1.00  0.00     0.049 A 
ATOM     62  H   UNL A   1      45.301  29.425  32.554  1.00  0.00     0.167 HD
ATOM     63  C   UNL A   1      45.181  29.135  29.534  1.00  0.00     0.074 A 
ATOM     64  C   UNL A   1      44.920  27.949  30.341  1.00  0.00     0.031 C 
ATOM     65  C   UNL A   1      45.333  30.451  29.870  1.00  0.00     0.031 A 
BRANCH  52  66
ATOM     66  C   UNL A   1      43.173  28.849  34.592  1.00  0.00    -0.014 A 
ATOM     67  C   UNL A   1      43.533  29.243  35.894  1.00  0.00     0.010 A 
ATOM     68  C   UNL A   1      43.447  27.514  34.221  1.00  0.00     0.010 A 
ATOM     69  C   UNL A   1      44.171  28.351  36.769  1.00  0.00     0.020 A 
ATOM     70  C   UNL A   1      44.038  26.606  35.098  1.00  0.00     0.020 A 
ATOM     71  C   UNL A   1      44.431  27.042  36.356  1.00  0.00     0.054 A 
BRANCH  71  72
ATOM     72  S   UNL A   1      45.356  25.929  37.442  1.00  0.00     0.124 S 
ATOM     73  O   UNL A   1      44.571  25.996  38.671  1.00  0.00    -0.237 OA
ATOM     74  O   UNL A   1      45.298  24.661  36.721  1.00  0.00    -0.237 OA
ATOM     75  O   UNL A   1      46.681  26.541  37.508  1.00  0.00    -0.744 OA
ENDBRANCH  71  72
ENDBRANCH  52  66
BRANCH  53  76
ATOM     76  C   UNL A   1      43.102  25.930  26.739  1.00  0.00    -0.014 A 
ATOM     77  C   UNL A   1      43.597  25.781  25.433  1.00  0.00     0.010 A 
ATOM     78  C   UNL A   1      42.821  24.756  27.471  1.00  0.00     0.010 A 
ATOM     79  C   UNL A   1      43.849  24.506  24.898  1.00  0.00     0.020 A 
ATOM     80  C   UNL A   1      43.050  23.483  26.939  1.00  0.00     0.020 A 
ATOM     81  C   UNL A   1      43.586  23.366  25.662  1.00  0.00     0.054 A 
BRANCH  81  82
ATOM     82  S   UNL A   1      44.066  21.733  25.030  1.00  0.00     0.124 S 
ATOM     83  O   UNL A   1      44.164  21.973  23.594  1.00  0.00    -0.237 OA
ATOM     84  O   UNL A   1      45.330  21.485  25.719  1.00  0.00    -0.237 OA
ATOM     85  O   UNL A   1      42.961  20.867  25.441  1.00  0.00    -0.744 OA
ENDBRANCH  81  82
ENDBRANCH  53  76
BRANCH  65  86
ATOM     86  C   UNL A   1      45.543  31.453  28.758  1.00  0.00    -0.014 A 
ATOM     87  C   UNL A   1      44.484  32.160  28.156  1.00  0.00     0.010 A 
ATOM     88  C   UNL A   1      46.861  31.802  28.413  1.00  0.00     0.010 A 
ATOM     89  C   UNL A   1      44.734  33.164  27.212  1.00  0.00     0.020 A 
ATOM     90  C   UNL A   1      47.118  32.816  27.485  1.00  0.00     0.020 A 
ATOM     91  C   UNL A   1      46.052  33.487  26.882  1.00  0.00     0.054 A 
BRANCH  91  92
ATOM     92  S   UNL A   1      46.366  34.839  25.713  1.00  0.00     0.124 S 
ATOM     93  O   UNL A   1      47.819  34.811  25.578  1.00  0.00    -0.237 OA
ATOM     94  O   UNL A   1      45.617  34.429  24.528  1.00  0.00    -0.237 OA
ATOM     95  O   UNL A   1      45.830  36.018  26.393  1.00  0.00    -0.744 OA
ENDBRANCH  91  92
ENDBRANCH  65  86
ENDBRANCH  39  40
ENDBRANCH  32  34
ENDBRANCH  31  32
ENDBRANCH  30  31
ENDBRANCH   1  30
TORSDOF 18
ENDMDL
MODEL 2
REMARK VINA RESULT:     -11.7      1.525      2.598
REMARK SMILES Cc1nn(-c2ccccc2)c(C)c1CNC(=O)[C@@H]1[C@@H](C(=O)OCCOC(=O)c2ccc(-c3c4nc(c(-c5ccc(S(=O)(=O)[O-])cc5)c5ccc([nH]5)c(-c5ccc(S(=O)(=O)[O-])cc5)c5nc(c(-c6ccc(S(=O)(=O)[O-])cc6)c6ccc3[nH]6)C=C5)C=C4)cc2)[C@@H]2C=C[C@H]1C2
REMARK SMILES IDX 23 1 22 2 20 3 21 4 19 5 18 6 91 7 88 8 90 9 92 10 89 11
REMARK SMILES IDX 16 12 15 13 17 15 14 16 13 17 1 18 2 19 3 20 4 21 11 22
REMARK SMILES IDX 12 23 5 24 6 25 10 26 7 27 9 28 8 29 24 30 25 31 26 32 27 33
REMARK SMILES IDX 28 34 29 35 87 36 30 37 86 38 31 39 32 40 33 41 80 42 34 43
REMARK SMILES IDX 85 44 79 45 81 46 35 47 84 48 78 49 77 50 36 52 66 53 47 54
REMARK SMILES IDX 65 55 48 56 51 57 64 58 82 59 49 60 50 61 63 63 83 64 52 65
REMARK SMILES IDX 37 66 38 67 46 68 39 69 45 70 40 71 41 72 42 73 43 74 44 75
REMARK SMILES IDX 67 76 68 77 76 78 69 79 75 80 70 81 71 82 72 83 73 84 74 85
REMARK SMILES IDX 53 86 54 87 62 88 55 89 61 90 56 91 57 92 58 93 59 94 60 95
REMARK H PARENT 15 14 81 51 51 62
REMARK Flexibility Score: inf
ROOT
ATOM      1  C   UNL A   1      32.567  30.072  25.583  1.00  0.00     0.274 C 
ENDROOT
BRANCH   1   2
ATOM      2  O   UNL A   1      33.185  28.834  25.171  1.00  0.00    -0.462 OA
BRANCH   2   3
ATOM      3  C   UNL A   1      32.603  28.159  24.143  1.00  0.00     0.310 C 
ATOM      4  O   UNL A   1      32.359  28.646  23.048  1.00  0.00    -0.252 OA
BRANCH   3   5
ATOM      5  C   UNL A   1      32.297  26.705  24.473  1.00  0.00     0.119 C 
ATOM      6  C   UNL A   1      32.010  25.844  23.221  1.00  0.00     0.100 C 
ATOM      7  C   UNL A   1      30.683  25.115  23.583  1.00  0.00     0.025 C 
ATOM      8  C   UNL A   1      30.995  26.524  25.286  1.00  0.00     0.027 C 
ATOM      9  C   UNL A   1      30.746  24.300  24.850  1.00  0.00    -0.027 C 
ATOM     10  C   UNL A   1      29.929  26.300  24.203  1.00  0.00     0.017 C 
ATOM     11  C   UNL A   1      30.990  25.135  25.868  1.00  0.00    -0.027 C 
BRANCH   6  12
ATOM     12  C   UNL A   1      33.251  25.167  22.652  1.00  0.00     0.224 C 
ATOM     13  N   UNL A   1      34.057  24.285  23.274  1.00  0.00    -0.352 N 
ATOM     14  H   UNL A   1      34.772  23.935  22.695  1.00  0.00     0.163 HD
ATOM     15  O   UNL A   1      33.591  25.455  21.493  1.00  0.00    -0.275 OA
BRANCH  13  16
ATOM     16  C   UNL A   1      34.090  23.748  24.608  1.00  0.00     0.155 C 
BRANCH  16  17
ATOM     17  C   UNL A   1      34.311  22.267  24.637  1.00  0.00     0.016 A 
ATOM     18  C   UNL A   1      36.867  22.346  25.218  1.00  0.00     0.069 C 
ATOM     19  C   UNL A   1      35.574  21.667  24.926  1.00  0.00     0.065 A 
ATOM     20  N   UNL A   1      35.496  20.340  25.015  1.00  0.00    -0.173 NA
ATOM     21  N   UNL A   1      34.216  20.036  24.708  1.00  0.00    -0.237 N 
ATOM     22  C   UNL A   1      33.440  21.181  24.542  1.00  0.00     0.046 A 
ATOM     23  C   UNL A   1      31.954  21.109  24.453  1.00  0.00     0.067 C 
BRANCH  21  24
ATOM     24  C   UNL A   1      33.796  18.678  24.672  1.00  0.00     0.065 A 
ATOM     25  C   UNL A   1      34.318  17.824  23.694  1.00  0.00     0.028 A 
ATOM     26  C   UNL A   1      32.906  18.175  25.631  1.00  0.00     0.028 A 
ATOM     27  C   UNL A   1      34.018  16.460  23.736  1.00  0.00     0.002 A 
ATOM     28  C   UNL A   1      32.600  16.815  25.659  1.00  0.00     0.002 A 
ATOM     29  C   UNL A   1      33.171  15.956  24.724  1.00  0.00     0.000 A 
ENDBRANCH  21  24
ENDBRANCH  16  17
ENDBRANCH  13  16
ENDBRANCH   6  12
ENDBRANCH   3   5
ENDBRANCH   2   3
ENDBRANCH   1   2
BRANCH   1  30
ATOM     30  C   UNL A   1      33.013  30.525  26.975  1.00  0.00     0.275 C 
BRANCH  30  31
ATOM     31  O   UNL A   1      34.385  30.193  27.227  1.00  0.00    -0.458 OA
BRANCH  31  32
ATOM     32  C   UNL A   1      35.068  31.225  27.756  1.00  0.00     0.338 C 
ATOM     33  O   UNL A   1      34.962  32.406  27.443  1.00  0.00    -0.246 OA
BRANCH  32  34
ATOM     34  C   UNL A   1      36.044  30.794  28.752  1.00  0.00     0.060 A 
ATOM     35  C   UNL A   1      36.969  31.735  29.211  1.00  0.00     0.016 A 
ATOM     36  C   UNL A   1      36.286  29.424  28.841  1.00  0.00     0.016 A 
ATOM     37  C   UNL A   1      38.245  31.317  29.531  1.00  0.00     0.010 A 
ATOM     38  C   UNL A   1      37.549  29.003  29.219  1.00  0.00     0.010 A 
ATOM     39  C   UNL A   1      38.550  29.956  29.447  1.00  0.00    -0.014 A 
BRANCH  39  40
ATOM     40  C   UNL A   1      39.955  29.575  29.569  1.00  0.00     0.031 A 
ATOM     41  C   UNL A   1      40.503  29.512  30.946  1.00  0.00     0.074 A 
ATOM     42  C   UNL A   1      40.687  29.170  28.513  1.00  0.00     0.049 A 
ATOM     43  N   UNL A   1      41.563  30.080  31.425  1.00  0.00    -0.248 NA
ATOM     44  C   UNL A   1      39.722  28.749  31.932  1.00  0.00     0.031 C 
ATOM     45  C   UNL A   1      40.206  28.903  27.153  1.00  0.00     0.029 A 
ATOM     46  N   UNL A   1      41.987  28.751  28.476  1.00  0.00    -0.354 N 
ATOM     47  C   UNL A   1      41.684  29.608  32.728  1.00  0.00     0.074 A 
ATOM     48  C   UNL A   1      40.466  28.895  33.026  1.00  0.00     0.031 C 
ATOM     49  C   UNL A   1      41.105  28.119  26.521  1.00  0.00     0.029 A 
ATOM     50  C   UNL A   1      42.263  27.942  27.383  1.00  0.00     0.049 A 
ATOM     51  H   UNL A   1      42.656  28.998  29.153  1.00  0.00     0.167 HD
ATOM     52  C   UNL A   1      42.848  29.649  33.430  1.00  0.00     0.031 A 
ATOM     53  C   UNL A   1      43.307  27.091  27.245  1.00  0.00     0.031 A 
ATOM     54  C   UNL A   1      43.818  30.548  32.874  1.00  0.00     0.049 A 
ATOM     55  C   UNL A   1      44.362  27.488  28.206  1.00  0.00     0.074 A 
ATOM     56  C   UNL A   1      43.870  31.905  32.631  1.00  0.00     0.029 A 
ATOM     57  N   UNL A   1      44.878  30.000  32.194  1.00  0.00    -0.354 N 
ATOM     58  N   UNL A   1      45.057  28.586  28.118  1.00  0.00    -0.248 NA
ATOM     59  C   UNL A   1      44.437  26.808  29.492  1.00  0.00     0.031 C 
ATOM     60  C   UNL A   1      44.699  32.055  31.483  1.00  0.00     0.029 A 
ATOM     61  C   UNL A   1      45.103  30.778  31.087  1.00  0.00     0.049 A 
ATOM     62  H   UNL A   1      45.385  29.197  32.454  1.00  0.00     0.167 HD
ATOM     63  C   UNL A   1      45.326  28.948  29.429  1.00  0.00     0.074 A 
ATOM     64  C   UNL A   1      45.048  27.751  30.214  1.00  0.00     0.031 C 
ATOM     65  C   UNL A   1      45.471  30.258  29.785  1.00  0.00     0.031 A 
BRANCH  52  66
ATOM     66  C   UNL A   1      43.216  28.595  34.440  1.00  0.00    -0.014 A 
ATOM     67  C   UNL A   1      43.298  28.932  35.804  1.00  0.00     0.010 A 
ATOM     68  C   UNL A   1      43.739  27.343  34.050  1.00  0.00     0.010 A 
ATOM     69  C   UNL A   1      43.911  28.070  36.725  1.00  0.00     0.020 A 
ATOM     70  C   UNL A   1      44.307  26.458  34.965  1.00  0.00     0.020 A 
ATOM     71  C   UNL A   1      44.424  26.844  36.293  1.00  0.00     0.054 A 
BRANCH  71  72
ATOM     72  S   UNL A   1      45.314  25.785  37.460  1.00  0.00     0.124 S 
ATOM     73  O   UNL A   1      46.695  26.205  37.245  1.00  0.00    -0.237 OA
ATOM     74  O   UNL A   1      44.727  26.163  38.742  1.00  0.00    -0.237 OA
ATOM     75  O   UNL A   1      44.990  24.434  37.007  1.00  0.00    -0.744 OA
ENDBRANCH  71  72
ENDBRANCH  52  66
BRANCH  53  76
ATOM     76  C   UNL A   1      43.303  25.781  26.550  1.00  0.00    -0.014 A 
ATOM     77  C   UNL A   1      43.969  25.610  25.324  1.00  0.00     0.010 A 
ATOM     78  C   UNL A   1      42.847  24.622  27.215  1.00  0.00     0.010 A 
ATOM     79  C   UNL A   1      44.213  24.326  24.809  1.00  0.00     0.020 A 
ATOM     80  C   UNL A   1      43.069  23.341  26.699  1.00  0.00     0.020 A 
ATOM     81  C   UNL A   1      43.773  23.199  25.509  1.00  0.00     0.054 A 
BRANCH  81  82
ATOM     82  S   UNL A   1      44.234  21.543  24.924  1.00  0.00     0.124 S 
ATOM     83  O   UNL A   1      43.083  20.741  25.328  1.00  0.00    -0.237 OA
ATOM     84  O   UNL A   1      44.390  21.747  23.486  1.00  0.00    -0.237 OA
ATOM     85  O   UNL A   1      45.474  21.257  25.643  1.00  0.00    -0.744 OA
ENDBRANCH  81  82
ENDBRANCH  53  76
BRANCH  65  86
ATOM     86  C   UNL A   1      45.704  31.276  28.691  1.00  0.00    -0.014 A 
ATOM     87  C   UNL A   1      44.689  31.698  27.810  1.00  0.00     0.010 A 
ATOM     88  C   UNL A   1      46.946  31.934  28.645  1.00  0.00     0.010 A 
ATOM     89  C   UNL A   1      44.918  32.727  26.889  1.00  0.00     0.020 A 
ATOM     90  C   UNL A   1      47.176  32.976  27.740  1.00  0.00     0.020 A 
ATOM     91  C   UNL A   1      46.162  33.362  26.859  1.00  0.00     0.054 A 
BRANCH  91  92
ATOM     92  S   UNL A   1      46.424  34.743  25.712  1.00  0.00     0.124 S 
ATOM     93  O   UNL A   1      46.223  35.908  26.568  1.00  0.00    -0.237 OA
ATOM     94  O   UNL A   1      47.793  34.530  25.251  1.00  0.00    -0.237 OA
ATOM     95  O   UNL A   1      45.399  34.542  24.687  1.00  0.00    -0.744 OA
ENDBRANCH  91  92
ENDBRANCH  65  86
ENDBRANCH  39  40
ENDBRANCH  32  34
ENDBRANCH  31  32
ENDBRANCH  30  31
ENDBRANCH   1  30
TORSDOF 18
ENDMDL
MODEL 3
REMARK VINA RESULT:     -11.6      1.544      3.990
REMARK SMILES Cc1nn(-c2ccccc2)c(C)c1CNC(=O)[C@@H]1[C@@H](C(=O)OCCOC(=O)c2ccc(-c3c4nc(c(-c5ccc(S(=O)(=O)[O-])cc5)c5ccc([nH]5)c(-c5ccc(S(=O)(=O)[O-])cc5)c5nc(c(-c6ccc(S(=O)(=O)[O-])cc6)c6ccc3[nH]6)C=C5)C=C4)cc2)[C@@H]2C=C[C@H]1C2
REMARK SMILES IDX 23 1 22 2 20 3 21 4 19 5 18 6 91 7 88 8 90 9 92 10 89 11
REMARK SMILES IDX 16 12 15 13 17 15 14 16 13 17 1 18 2 19 3 20 4 21 11 22
REMARK SMILES IDX 12 23 5 24 6 25 10 26 7 27 9 28 8 29 24 30 25 31 26 32 27 33
REMARK SMILES IDX 28 34 29 35 87 36 30 37 86 38 31 39 32 40 33 41 80 42 34 43
REMARK SMILES IDX 85 44 79 45 81 46 35 47 84 48 78 49 77 50 36 52 66 53 47 54
REMARK SMILES IDX 65 55 48 56 51 57 64 58 82 59 49 60 50 61 63 63 83 64 52 65
REMARK SMILES IDX 37 66 38 67 46 68 39 69 45 70 40 71 41 72 42 73 43 74 44 75
REMARK SMILES IDX 67 76 68 77 76 78 69 79 75 80 70 81 71 82 72 83 73 84 74 85
REMARK SMILES IDX 53 86 54 87 62 88 55 89 61 90 56 91 57 92 58 93 59 94 60 95
REMARK H PARENT 15 14 81 51 51 62
REMARK Flexibility Score: inf
ROOT
ATOM      1  C   UNL A   1      32.524  29.432  26.069  1.00  0.00     0.274 C 
ENDROOT
BRANCH   1   2
ATOM      2  O   UNL A   1      32.605  28.166  25.381  1.00  0.00    -0.462 OA
BRANCH   2   3
ATOM      3  C   UNL A   1      32.571  27.040  26.144  1.00  0.00     0.310 C 
ATOM      4  O   UNL A   1      32.364  27.029  27.349  1.00  0.00    -0.252 OA
BRANCH   3   5
ATOM      5  C   UNL A   1      32.793  25.764  25.345  1.00  0.00     0.119 C 
ATOM      6  C   UNL A   1      32.450  24.481  26.138  1.00  0.00     0.100 C 
ATOM      7  C   UNL A   1      33.707  23.585  25.934  1.00  0.00     0.025 C 
ATOM      8  C   UNL A   1      34.276  25.521  24.980  1.00  0.00     0.027 C 
ATOM      9  C   UNL A   1      34.045  23.307  24.491  1.00  0.00    -0.027 C 
ATOM     10  C   UNL A   1      34.790  24.654  26.139  1.00  0.00     0.017 C 
ATOM     11  C   UNL A   1      34.332  24.474  23.900  1.00  0.00    -0.027 C 
BRANCH   6  12
ATOM     12  C   UNL A   1      31.009  24.020  25.952  1.00  0.00     0.224 C 
ATOM     13  N   UNL A   1      30.334  23.901  24.793  1.00  0.00    -0.352 N 
ATOM     14  H   UNL A   1      29.428  23.533  24.905  1.00  0.00     0.163 HD
ATOM     15  O   UNL A   1      30.355  23.731  26.967  1.00  0.00    -0.275 OA
BRANCH  13  16
ATOM     16  C   UNL A   1      30.661  24.201  23.424  1.00  0.00     0.155 C 
BRANCH  16  17
ATOM     17  C   UNL A   1      30.538  25.657  23.099  1.00  0.00     0.016 A 
ATOM     18  C   UNL A   1      32.426  25.732  21.282  1.00  0.00     0.069 C 
ATOM     19  C   UNL A   1      31.342  26.315  22.120  1.00  0.00     0.065 A 
ATOM     20  N   UNL A   1      30.966  27.578  21.921  1.00  0.00    -0.173 NA
ATOM     21  N   UNL A   1      29.976  27.800  22.811  1.00  0.00    -0.237 N 
ATOM     22  C   UNL A   1      29.631  26.640  23.500  1.00  0.00     0.046 A 
ATOM     23  C   UNL A   1      28.406  26.570  24.345  1.00  0.00     0.067 C 
BRANCH  21  24
ATOM     24  C   UNL A   1      29.367  29.083  22.892  1.00  0.00     0.065 A 
ATOM     25  C   UNL A   1      28.225  29.349  22.128  1.00  0.00     0.028 A 
ATOM     26  C   UNL A   1      29.866  30.063  23.761  1.00  0.00     0.028 A 
ATOM     27  C   UNL A   1      27.541  30.555  22.305  1.00  0.00     0.002 A 
ATOM     28  C   UNL A   1      29.186  31.269  23.923  1.00  0.00     0.002 A 
ATOM     29  C   UNL A   1      28.015  31.507  23.210  1.00  0.00     0.000 A 
ENDBRANCH  21  24
ENDBRANCH  16  17
ENDBRANCH  13  16
ENDBRANCH   6  12
ENDBRANCH   3   5
ENDBRANCH   2   3
ENDBRANCH   1   2
BRANCH   1  30
ATOM     30  C   UNL A   1      33.897  29.996  26.444  1.00  0.00     0.275 C 
BRANCH  30  31
ATOM     31  O   UNL A   1      33.891  30.576  27.756  1.00  0.00    -0.458 OA
BRANCH  31  32
ATOM     32  C   UNL A   1      34.940  31.397  27.951  1.00  0.00     0.338 C 
ATOM     33  O   UNL A   1      35.152  32.459  27.376  1.00  0.00    -0.246 OA
BRANCH  32  34
ATOM     34  C   UNL A   1      35.890  30.862  28.922  1.00  0.00     0.060 A 
ATOM     35  C   UNL A   1      36.772  31.757  29.534  1.00  0.00     0.016 A 
ATOM     36  C   UNL A   1      36.167  29.499  28.844  1.00  0.00     0.016 A 
ATOM     37  C   UNL A   1      38.046  31.330  29.848  1.00  0.00     0.010 A 
ATOM     38  C   UNL A   1      37.427  29.061  29.214  1.00  0.00     0.010 A 
ATOM     39  C   UNL A   1      38.392  29.999  29.602  1.00  0.00    -0.014 A 
BRANCH  39  40
ATOM     40  C   UNL A   1      39.802  29.637  29.730  1.00  0.00     0.031 A 
ATOM     41  C   UNL A   1      40.317  29.473  31.111  1.00  0.00     0.074 A 
ATOM     42  C   UNL A   1      40.568  29.334  28.664  1.00  0.00     0.049 A 
ATOM     43  N   UNL A   1      41.352  30.021  31.662  1.00  0.00    -0.248 NA
ATOM     44  C   UNL A   1      39.529  28.617  32.011  1.00  0.00     0.031 C 
ATOM     45  C   UNL A   1      40.127  29.169  27.275  1.00  0.00     0.029 A 
ATOM     46  N   UNL A   1      41.877  28.945  28.627  1.00  0.00    -0.354 N 
ATOM     47  C   UNL A   1      41.452  29.447  32.925  1.00  0.00     0.074 A 
ATOM     48  C   UNL A   1      40.242  28.688  33.133  1.00  0.00     0.031 C 
ATOM     49  C   UNL A   1      41.057  28.458  26.605  1.00  0.00     0.029 A 
ATOM     50  C   UNL A   1      42.198  28.234  27.479  1.00  0.00     0.049 A 
ATOM     51  H   UNL A   1      42.524  29.149  29.339  1.00  0.00     0.167 HD
ATOM     52  C   UNL A   1      42.597  29.454  33.659  1.00  0.00     0.031 A 
ATOM     53  C   UNL A   1      43.263  27.418  27.301  1.00  0.00     0.031 A 
ATOM     54  C   UNL A   1      43.560  30.415  33.202  1.00  0.00     0.049 A 
ATOM     55  C   UNL A   1      44.285  27.756  28.318  1.00  0.00     0.074 A 
ATOM     56  C   UNL A   1      43.588  31.787  33.072  1.00  0.00     0.029 A 
ATOM     57  N   UNL A   1      44.649  29.945  32.509  1.00  0.00    -0.354 N 
ATOM     58  N   UNL A   1      44.958  28.871  28.338  1.00  0.00    -0.248 NA
ATOM     59  C   UNL A   1      44.344  26.976  29.546  1.00  0.00     0.031 C 
ATOM     60  C   UNL A   1      44.441  32.047  31.962  1.00  0.00     0.029 A 
ATOM     61  C   UNL A   1      44.883  30.815  31.474  1.00  0.00     0.049 A 
ATOM     62  H   UNL A   1      45.166  29.133  32.716  1.00  0.00     0.167 HD
ATOM     63  C   UNL A   1      45.186  29.130  29.680  1.00  0.00     0.074 A 
ATOM     64  C   UNL A   1      44.916  27.869  30.358  1.00  0.00     0.031 C 
ATOM     65  C   UNL A   1      45.294  30.410  30.144  1.00  0.00     0.031 A 
BRANCH  52  66
ATOM     66  C   UNL A   1      42.963  28.329  34.589  1.00  0.00    -0.014 A 
ATOM     67  C   UNL A   1      43.316  28.610  35.922  1.00  0.00     0.010 A 
ATOM     68  C   UNL A   1      43.222  27.025  34.113  1.00  0.00     0.010 A 
ATOM     69  C   UNL A   1      43.935  27.641  36.725  1.00  0.00     0.020 A 
ATOM     70  C   UNL A   1      43.793  26.040  34.917  1.00  0.00     0.020 A 
ATOM     71  C   UNL A   1      44.181  26.367  36.209  1.00  0.00     0.054 A 
BRANCH  71  72
ATOM     72  S   UNL A   1      45.081  25.155  37.208  1.00  0.00     0.124 S 
ATOM     73  O   UNL A   1      44.731  23.905  36.541  1.00  0.00    -0.237 OA
ATOM     74  O   UNL A   1      46.467  25.587  37.057  1.00  0.00    -0.237 OA
ATOM     75  O   UNL A   1      44.520  25.333  38.545  1.00  0.00    -0.744 OA
ENDBRANCH  71  72
ENDBRANCH  52  66
BRANCH  53  76
ATOM     76  C   UNL A   1      43.305  26.169  26.502  1.00  0.00    -0.014 A 
ATOM     77  C   UNL A   1      44.296  25.966  25.526  1.00  0.00     0.010 A 
ATOM     78  C   UNL A   1      42.511  25.060  26.869  1.00  0.00     0.010 A 
ATOM     79  C   UNL A   1      44.517  24.693  24.977  1.00  0.00     0.020 A 
ATOM     80  C   UNL A   1      42.712  23.794  26.312  1.00  0.00     0.020 A 
ATOM     81  C   UNL A   1      43.732  23.612  25.385  1.00  0.00     0.054 A 
BRANCH  81  82
ATOM     82  S   UNL A   1      44.128  21.941  24.795  1.00  0.00     0.124 S 
ATOM     83  O   UNL A   1      42.973  21.171  25.248  1.00  0.00    -0.237 OA
ATOM     84  O   UNL A   1      44.236  22.132  23.351  1.00  0.00    -0.237 OA
ATOM     85  O   UNL A   1      45.386  21.627  25.471  1.00  0.00    -0.744 OA
ENDBRANCH  81  82
ENDBRANCH  53  76
BRANCH  65  86
ATOM     86  C   UNL A   1      45.532  31.518  29.143  1.00  0.00    -0.014 A 
ATOM     87  C   UNL A   1      46.801  31.799  28.601  1.00  0.00     0.010 A 
ATOM     88  C   UNL A   1      44.416  32.198  28.623  1.00  0.00     0.010 A 
ATOM     89  C   UNL A   1      46.955  32.756  27.590  1.00  0.00     0.020 A 
ATOM     90  C   UNL A   1      44.560  33.141  27.600  1.00  0.00     0.020 A 
ATOM     91  C   UNL A   1      45.832  33.422  27.094  1.00  0.00     0.054 A 
BRANCH  91  92
ATOM     92  S   UNL A   1      46.033  34.606  25.734  1.00  0.00     0.124 S 
ATOM     93  O   UNL A   1      47.455  34.493  25.424  1.00  0.00    -0.237 OA
ATOM     94  O   UNL A   1      45.125  34.089  24.713  1.00  0.00    -0.237 OA
ATOM     95  O   UNL A   1      45.626  35.882  26.320  1.00  0.00    -0.744 OA
ENDBRANCH  91  92
ENDBRANCH  65  86
ENDBRANCH  39  40
ENDBRANCH  32  34
ENDBRANCH  31  32
ENDBRANCH  30  31
ENDBRANCH   1  30
TORSDOF 18
ENDMDL
