MODEL 1
REMARK VINA RESULT:     -10.4      0.000      0.000
REMARK SMILES C[C@@H](C(=O)OCCOC(=O)c1ccc(-c2c3nc(c(-c4ccc(S(=O)(=O)[O-])cc4)c4ccc([nH]4)c(-c4ccc(S(=O)(=O)[O-])cc4)c4nc(c(-c5ccc(S(=O)(=O)[O-])cc5)c5ccc2[nH]5)C=C4)C=C3)cc1)c1cccc(C(=O)c2ccccc2)c1
REMARK SMILES IDX 6 1 5 2 3 3 4 4 2 5 1 6 71 7 72 8 84 9 73 10 75 11 74 12
REMARK SMILES IDX 76 13 77 14 78 15 79 16 83 17 80 18 82 19 81 20 7 21 8 22
REMARK SMILES IDX 9 23 10 24 11 25 12 26 70 27 13 28 69 29 14 30 15 31 16 32
REMARK SMILES IDX 63 33 17 34 68 35 62 36 64 37 18 38 67 39 61 40 60 41 19 43
REMARK SMILES IDX 49 44 30 45 48 46 31 47 34 48 47 49 65 50 32 51 33 52 46 54
REMARK SMILES IDX 66 55 35 56 20 57 21 58 29 59 22 60 28 61 23 62 24 63 25 64
REMARK SMILES IDX 26 65 27 66 50 67 51 68 59 69 52 70 58 71 53 72 54 73 55 74
REMARK SMILES IDX 56 75 57 76 36 77 37 78 45 79 38 80 44 81 39 82 40 83 41 84
REMARK SMILES IDX 42 85 43 86
REMARK H PARENT 64 42 34 53
REMARK Flexibility Score: inf
ROOT
ATOM      1  C   UNL A   1      37.045  21.888  24.676  1.00  0.00     0.274 C 
ENDROOT
BRANCH   1   2
ATOM      2  O   UNL A   1      35.954  21.472  25.523  1.00  0.00    -0.462 OA
BRANCH   2   3
ATOM      3  C   UNL A   1      34.772  22.133  25.378  1.00  0.00     0.313 C 
ATOM      4  O   UNL A   1      34.120  22.154  24.340  1.00  0.00    -0.252 OA
BRANCH   3   5
ATOM      5  C   UNL A   1      34.374  22.910  26.639  1.00  0.00     0.126 C 
ATOM      6  C   UNL A   1      33.882  22.013  27.782  1.00  0.00     0.025 C 
BRANCH   5   7
ATOM      7  C   UNL A   1      33.415  24.056  26.317  1.00  0.00    -0.033 A 
ATOM      8  C   UNL A   1      32.021  23.926  26.412  1.00  0.00     0.004 A 
ATOM      9  C   UNL A   1      33.943  25.285  25.870  1.00  0.00     0.016 A 
ATOM     10  C   UNL A   1      31.182  24.990  26.077  1.00  0.00     0.001 A 
ATOM     11  C   UNL A   1      33.104  26.351  25.514  1.00  0.00     0.023 A 
ATOM     12  C   UNL A   1      31.719  26.193  25.621  1.00  0.00     0.012 A 
BRANCH  11  13
ATOM     13  C   UNL A   1      33.617  27.676  25.054  1.00  0.00     0.193 C 
ATOM     14  O   UNL A   1      33.993  27.835  23.897  1.00  0.00    -0.289 OA
BRANCH  13  15
ATOM     15  C   UNL A   1      33.570  28.860  25.928  1.00  0.00     0.022 A 
ATOM     16  C   UNL A   1      34.650  29.071  26.792  1.00  0.00     0.012 A 
ATOM     17  C   UNL A   1      32.481  29.733  25.922  1.00  0.00     0.012 A 
ATOM     18  C   UNL A   1      34.661  30.192  27.621  1.00  0.00     0.001 A 
ATOM     19  C   UNL A   1      32.500  30.857  26.750  1.00  0.00     0.001 A 
ATOM     20  C   UNL A   1      33.592  31.089  27.591  1.00  0.00     0.000 A 
ENDBRANCH  13  15
ENDBRANCH  11  13
ENDBRANCH   5   7
ENDBRANCH   3   5
ENDBRANCH   2   3
ENDBRANCH   1   2
BRANCH   1  21
ATOM     21  C   UNL A   1      38.351  21.871  25.463  1.00  0.00     0.275 C 
BRANCH  21  22
ATOM     22  O   UNL A   1      38.538  23.155  26.083  1.00  0.00    -0.458 OA
BRANCH  22  23
ATOM     23  C   UNL A   1      39.800  23.459  26.458  1.00  0.00     0.338 C 
ATOM     24  O   UNL A   1      40.816  22.827  26.213  1.00  0.00    -0.246 OA
BRANCH  23  25
ATOM     25  C   UNL A   1      39.796  24.712  27.231  1.00  0.00     0.060 A 
ATOM     26  C   UNL A   1      40.598  25.781  26.835  1.00  0.00     0.016 A 
ATOM     27  C   UNL A   1      39.075  24.783  28.424  1.00  0.00     0.016 A 
ATOM     28  C   UNL A   1      40.754  26.878  27.682  1.00  0.00     0.010 A 
ATOM     29  C   UNL A   1      39.167  25.928  29.225  1.00  0.00     0.010 A 
ATOM     30  C   UNL A   1      40.048  26.972  28.890  1.00  0.00    -0.014 A 
BRANCH  30  31
ATOM     31  C   UNL A   1      40.278  28.113  29.828  1.00  0.00     0.031 A 
ATOM     32  C   UNL A   1      41.526  28.163  30.681  1.00  0.00     0.074 A 
ATOM     33  C   UNL A   1      39.399  29.133  29.910  1.00  0.00     0.049 A 
ATOM     34  N   UNL A   1      41.806  28.947  31.692  1.00  0.00    -0.248 NA
ATOM     35  C   UNL A   1      42.588  27.192  30.369  1.00  0.00     0.031 C 
ATOM     36  C   UNL A   1      38.175  29.273  29.119  1.00  0.00     0.029 A 
ATOM     37  N   UNL A   1      39.414  30.266  30.691  1.00  0.00    -0.354 N 
ATOM     38  C   UNL A   1      43.033  28.516  32.184  1.00  0.00     0.074 A 
ATOM     39  C   UNL A   1      43.452  27.407  31.352  1.00  0.00     0.031 C 
ATOM     40  C   UNL A   1      37.597  30.450  29.401  1.00  0.00     0.029 A 
ATOM     41  C   UNL A   1      38.349  31.105  30.465  1.00  0.00     0.049 A 
ATOM     42  H   UNL A   1      40.121  30.457  31.349  1.00  0.00     0.167 HD
ATOM     43  C   UNL A   1      43.741  28.989  33.238  1.00  0.00     0.031 A 
ATOM     44  C   UNL A   1      37.985  32.254  31.068  1.00  0.00     0.031 A 
ATOM     45  C   UNL A   1      43.362  30.133  34.025  1.00  0.00     0.049 A 
ATOM     46  C   UNL A   1      38.791  32.773  32.222  1.00  0.00     0.074 A 
ATOM     47  C   UNL A   1      44.009  30.676  35.123  1.00  0.00     0.029 A 
ATOM     48  N   UNL A   1      42.261  30.934  33.777  1.00  0.00    -0.354 N 
ATOM     49  N   UNL A   1      39.879  32.274  32.756  1.00  0.00    -0.248 NA
ATOM     50  C   UNL A   1      38.300  33.994  32.877  1.00  0.00     0.031 C 
ATOM     51  C   UNL A   1      43.284  31.795  35.552  1.00  0.00     0.029 A 
ATOM     52  C   UNL A   1      42.208  31.967  34.697  1.00  0.00     0.049 A 
ATOM     53  H   UNL A   1      41.610  30.791  33.051  1.00  0.00     0.167 HD
ATOM     54  C   UNL A   1      40.194  33.110  33.820  1.00  0.00     0.074 A 
ATOM     55  C   UNL A   1      39.202  34.166  33.834  1.00  0.00     0.031 C 
ATOM     56  C   UNL A   1      41.206  33.001  34.714  1.00  0.00     0.031 A 
BRANCH  43  57
ATOM     57  C   UNL A   1      44.982  28.236  33.638  1.00  0.00    -0.014 A 
ATOM     58  C   UNL A   1      44.935  27.166  34.546  1.00  0.00     0.010 A 
ATOM     59  C   UNL A   1      46.213  28.587  33.053  1.00  0.00     0.010 A 
ATOM     60  C   UNL A   1      46.105  26.480  34.889  1.00  0.00     0.020 A 
ATOM     61  C   UNL A   1      47.381  27.890  33.376  1.00  0.00     0.020 A 
ATOM     62  C   UNL A   1      47.322  26.851  34.306  1.00  0.00     0.054 A 
BRANCH  62  63
ATOM     63  S   UNL A   1      48.825  25.934  34.746  1.00  0.00     0.124 S 
ATOM     64  O   UNL A   1      48.324  25.008  35.759  1.00  0.00    -0.237 OA
ATOM     65  O   UNL A   1      49.218  25.324  33.479  1.00  0.00    -0.237 OA
ATOM     66  O   UNL A   1      49.728  26.970  35.242  1.00  0.00    -0.744 OA
ENDBRANCH  62  63
ENDBRANCH  43  57
BRANCH  44  67
ATOM     67  C   UNL A   1      36.751  32.954  30.622  1.00  0.00    -0.014 A 
ATOM     68  C   UNL A   1      35.639  33.060  31.474  1.00  0.00     0.010 A 
ATOM     69  C   UNL A   1      36.703  33.561  29.353  1.00  0.00     0.010 A 
ATOM     70  C   UNL A   1      34.502  33.766  31.069  1.00  0.00     0.020 A 
ATOM     71  C   UNL A   1      35.580  34.290  28.955  1.00  0.00     0.020 A 
ATOM     72  C   UNL A   1      34.483  34.382  29.813  1.00  0.00     0.054 A 
BRANCH  72  73
ATOM     73  S   UNL A   1      33.045  35.380  29.333  1.00  0.00     0.124 S 
ATOM     74  O   UNL A   1      32.444  34.561  28.285  1.00  0.00    -0.237 OA
ATOM     75  O   UNL A   1      32.283  35.478  30.576  1.00  0.00    -0.237 OA
ATOM     76  O   UNL A   1      33.644  36.636  28.883  1.00  0.00    -0.744 OA
ENDBRANCH  72  73
ENDBRANCH  44  67
BRANCH  56  77
ATOM     77  C   UNL A   1      41.288  34.050  35.788  1.00  0.00    -0.014 A 
ATOM     78  C   UNL A   1      40.709  33.830  37.050  1.00  0.00     0.010 A 
ATOM     79  C   UNL A   1      41.975  35.252  35.544  1.00  0.00     0.010 A 
ATOM     80  C   UNL A   1      40.791  34.809  38.043  1.00  0.00     0.020 A 
ATOM     81  C   UNL A   1      42.073  36.226  36.540  1.00  0.00     0.020 A 
ATOM     82  C   UNL A   1      41.468  36.005  37.780  1.00  0.00     0.054 A 
BRANCH  82  83
ATOM     83  S   UNL A   1      41.587  37.252  39.092  1.00  0.00     0.124 S 
ATOM     84  O   UNL A   1      42.739  38.039  38.659  1.00  0.00    -0.237 OA
ATOM     85  O   UNL A   1      40.296  37.933  39.012  1.00  0.00    -0.237 OA
ATOM     86  O   UNL A   1      41.791  36.460  40.302  1.00  0.00    -0.744 OA
ENDBRANCH  82  83
ENDBRANCH  56  77
ENDBRANCH  30  31
ENDBRANCH  23  25
ENDBRANCH  22  23
ENDBRANCH  21  22
ENDBRANCH   1  21
TORSDOF 17
ENDMDL
MODEL 2
REMARK VINA RESULT:     -10.4      1.497      2.170
REMARK SMILES C[C@@H](C(=O)OCCOC(=O)c1ccc(-c2c3nc(c(-c4ccc(S(=O)(=O)[O-])cc4)c4ccc([nH]4)c(-c4ccc(S(=O)(=O)[O-])cc4)c4nc(c(-c5ccc(S(=O)(=O)[O-])cc5)c5ccc2[nH]5)C=C4)C=C3)cc1)c1cccc(C(=O)c2ccccc2)c1
REMARK SMILES IDX 6 1 5 2 3 3 4 4 2 5 1 6 71 7 72 8 84 9 73 10 75 11 74 12
REMARK SMILES IDX 76 13 77 14 78 15 79 16 83 17 80 18 82 19 81 20 7 21 8 22
REMARK SMILES IDX 9 23 10 24 11 25 12 26 70 27 13 28 69 29 14 30 15 31 16 32
REMARK SMILES IDX 63 33 17 34 68 35 62 36 64 37 18 38 67 39 61 40 60 41 19 43
REMARK SMILES IDX 49 44 30 45 48 46 31 47 34 48 47 49 65 50 32 51 33 52 46 54
REMARK SMILES IDX 66 55 35 56 20 57 21 58 29 59 22 60 28 61 23 62 24 63 25 64
REMARK SMILES IDX 26 65 27 66 50 67 51 68 59 69 52 70 58 71 53 72 54 73 55 74
REMARK SMILES IDX 56 75 57 76 36 77 37 78 45 79 38 80 44 81 39 82 40 83 41 84
REMARK SMILES IDX 42 85 43 86
REMARK H PARENT 64 42 34 53
REMARK Flexibility Score: inf
ROOT
ATOM      1  C   UNL A   1      39.648  21.930  26.626  1.00  0.00     0.274 C 
ENDROOT
BRANCH   1   2
ATOM      2  O   UNL A   1      38.766  22.176  25.513  1.00  0.00    -0.462 OA
BRANCH   2   3
ATOM      3  C   UNL A   1      37.740  23.048  25.717  1.00  0.00     0.313 C 
ATOM      4  O   UNL A   1      37.790  23.996  26.493  1.00  0.00    -0.252 OA
BRANCH   3   5
ATOM      5  C   UNL A   1      36.484  22.676  24.919  1.00  0.00     0.126 C 
ATOM      6  C   UNL A   1      36.684  22.729  23.400  1.00  0.00     0.025 C 
BRANCH   5   7
ATOM      7  C   UNL A   1      35.261  23.462  25.392  1.00  0.00    -0.033 A 
ATOM      8  C   UNL A   1      34.345  22.948  26.323  1.00  0.00     0.004 A 
ATOM      9  C   UNL A   1      35.015  24.739  24.848  1.00  0.00     0.016 A 
ATOM     10  C   UNL A   1      33.224  23.688  26.703  1.00  0.00     0.001 A 
ATOM     11  C   UNL A   1      33.881  25.480  25.211  1.00  0.00     0.023 A 
ATOM     12  C   UNL A   1      32.987  24.943  26.143  1.00  0.00     0.012 A 
BRANCH  11  13
ATOM     13  C   UNL A   1      33.589  26.843  24.676  1.00  0.00     0.193 C 
ATOM     14  O   UNL A   1      33.498  27.037  23.468  1.00  0.00    -0.289 OA
BRANCH  13  15
ATOM     15  C   UNL A   1      33.277  27.967  25.575  1.00  0.00     0.022 A 
ATOM     16  C   UNL A   1      34.299  28.436  26.407  1.00  0.00     0.012 A 
ATOM     17  C   UNL A   1      32.002  28.534  25.624  1.00  0.00     0.012 A 
ATOM     18  C   UNL A   1      34.057  29.513  27.257  1.00  0.00     0.001 A 
ATOM     19  C   UNL A   1      31.767  29.617  26.473  1.00  0.00     0.001 A 
ATOM     20  C   UNL A   1      32.794  30.109  27.281  1.00  0.00     0.000 A 
ENDBRANCH  13  15
ENDBRANCH  11  13
ENDBRANCH   5   7
ENDBRANCH   3   5
ENDBRANCH   2   3
ENDBRANCH   1   2
BRANCH   1  21
ATOM     21  C   UNL A   1      41.101  22.002  26.167  1.00  0.00     0.275 C 
BRANCH  21  22
ATOM     22  O   UNL A   1      41.784  23.004  26.938  1.00  0.00    -0.458 OA
BRANCH  22  23
ATOM     23  C   UNL A   1      42.014  24.182  26.316  1.00  0.00     0.338 C 
ATOM     24  O   UNL A   1      42.443  24.349  25.185  1.00  0.00    -0.246 OA
BRANCH  23  25
ATOM     25  C   UNL A   1      41.658  25.292  27.217  1.00  0.00     0.060 A 
ATOM     26  C   UNL A   1      42.323  26.513  27.119  1.00  0.00     0.016 A 
ATOM     27  C   UNL A   1      40.737  25.077  28.243  1.00  0.00     0.016 A 
ATOM     28  C   UNL A   1      42.136  27.482  28.105  1.00  0.00     0.010 A 
ATOM     29  C   UNL A   1      40.488  26.090  29.177  1.00  0.00     0.010 A 
ATOM     30  C   UNL A   1      41.221  27.289  29.151  1.00  0.00    -0.014 A 
BRANCH  30  31
ATOM     31  C   UNL A   1      41.083  28.298  30.245  1.00  0.00     0.031 A 
ATOM     32  C   UNL A   1      42.073  28.328  31.388  1.00  0.00     0.074 A 
ATOM     33  C   UNL A   1      40.097  29.219  30.222  1.00  0.00     0.049 A 
ATOM     34  N   UNL A   1      42.007  28.979  32.523  1.00  0.00    -0.248 NA
ATOM     35  C   UNL A   1      43.285  27.505  31.245  1.00  0.00     0.031 C 
ATOM     36  C   UNL A   1      39.093  29.368  29.167  1.00  0.00     0.029 A 
ATOM     37  N   UNL A   1      39.790  30.224  31.109  1.00  0.00    -0.354 N 
ATOM     38  C   UNL A   1      43.120  28.585  33.257  1.00  0.00     0.074 A 
ATOM     39  C   UNL A   1      43.855  27.648  32.434  1.00  0.00     0.031 C 
ATOM     40  C   UNL A   1      38.330  30.440  29.430  1.00  0.00     0.029 A 
ATOM     41  C   UNL A   1      38.721  30.995  30.720  1.00  0.00     0.049 A 
ATOM     42  H   UNL A   1      40.290  30.376  31.944  1.00  0.00     0.167 HD
ATOM     43  C   UNL A   1      43.493  28.959  34.506  1.00  0.00     0.031 A 
ATOM     44  C   UNL A   1      38.090  32.010  31.342  1.00  0.00     0.031 A 
ATOM     45  C   UNL A   1      42.804  29.942  35.300  1.00  0.00     0.049 A 
ATOM     46  C   UNL A   1      38.526  32.423  32.718  1.00  0.00     0.074 A 
ATOM     47  C   UNL A   1      43.098  30.372  36.584  1.00  0.00     0.029 A 
ATOM     48  N   UNL A   1      41.708  30.675  34.876  1.00  0.00    -0.354 N 
ATOM     49  N   UNL A   1      39.504  31.944  33.448  1.00  0.00    -0.248 NA
ATOM     50  C   UNL A   1      37.753  33.491  33.366  1.00  0.00     0.031 C 
ATOM     51  C   UNL A   1      42.164  31.353  36.943  1.00  0.00     0.029 A 
ATOM     52  C   UNL A   1      41.314  31.556  35.869  1.00  0.00     0.049 A 
ATOM     53  H   UNL A   1      41.273  30.584  33.997  1.00  0.00     0.167 HD
ATOM     54  C   UNL A   1      39.453  32.641  34.649  1.00  0.00     0.074 A 
ATOM     55  C   UNL A   1      38.370  33.597  34.535  1.00  0.00     0.031 C 
ATOM     56  C   UNL A   1      40.225  32.490  35.752  1.00  0.00     0.031 A 
BRANCH  43  57
ATOM     57  C   UNL A   1      44.679  28.263  35.116  1.00  0.00    -0.014 A 
ATOM     58  C   UNL A   1      45.978  28.788  35.010  1.00  0.00     0.010 A 
ATOM     59  C   UNL A   1      44.476  27.078  35.849  1.00  0.00     0.010 A 
ATOM     60  C   UNL A   1      47.058  28.122  35.598  1.00  0.00     0.020 A 
ATOM     61  C   UNL A   1      45.550  26.421  36.456  1.00  0.00     0.020 A 
ATOM     62  C   UNL A   1      46.838  26.939  36.312  1.00  0.00     0.054 A 
BRANCH  62  63
ATOM     63  S   UNL A   1      48.250  26.102  37.086  1.00  0.00     0.124 S 
ATOM     64  O   UNL A   1      49.222  26.085  35.996  1.00  0.00    -0.237 OA
ATOM     65  O   UNL A   1      48.577  26.982  38.205  1.00  0.00    -0.237 OA
ATOM     66  O   UNL A   1      47.713  24.796  37.462  1.00  0.00    -0.744 OA
ENDBRANCH  62  63
ENDBRANCH  43  57
BRANCH  44  67
ATOM     67  C   UNL A   1      36.927  32.661  30.683  1.00  0.00    -0.014 A 
ATOM     68  C   UNL A   1      35.620  32.201  30.916  1.00  0.00     0.010 A 
ATOM     69  C   UNL A   1      37.122  33.780  29.853  1.00  0.00     0.010 A 
ATOM     70  C   UNL A   1      34.527  32.852  30.336  1.00  0.00     0.020 A 
ATOM     71  C   UNL A   1      36.031  34.450  29.293  1.00  0.00     0.020 A 
ATOM     72  C   UNL A   1      34.740  33.976  29.532  1.00  0.00     0.054 A 
BRANCH  72  73
ATOM     73  S   UNL A   1      33.313  34.877  28.863  1.00  0.00     0.124 S 
ATOM     74  O   UNL A   1      32.538  35.156  30.068  1.00  0.00    -0.237 OA
ATOM     75  O   UNL A   1      33.928  36.037  28.223  1.00  0.00    -0.237 OA
ATOM     76  O   UNL A   1      32.713  33.915  27.939  1.00  0.00    -0.744 OA
ENDBRANCH  72  73
ENDBRANCH  44  67
BRANCH  56  77
ATOM     77  C   UNL A   1      39.921  33.375  36.928  1.00  0.00    -0.014 A 
ATOM     78  C   UNL A   1      38.881  33.054  37.818  1.00  0.00     0.010 A 
ATOM     79  C   UNL A   1      40.700  34.521  37.163  1.00  0.00     0.010 A 
ATOM     80  C   UNL A   1      38.606  33.881  38.909  1.00  0.00     0.020 A 
ATOM     81  C   UNL A   1      40.439  35.342  38.263  1.00  0.00     0.020 A 
ATOM     82  C   UNL A   1      39.384  35.024  39.122  1.00  0.00     0.054 A 
BRANCH  82  83
ATOM     83  S   UNL A   1      39.030  36.071  40.561  1.00  0.00     0.124 S 
ATOM     84  O   UNL A   1      38.545  37.297  39.933  1.00  0.00    -0.237 OA
ATOM     85  O   UNL A   1      38.024  35.297  41.287  1.00  0.00    -0.237 OA
ATOM     86  O   UNL A   1      40.322  36.182  41.233  1.00  0.00    -0.744 OA
ENDBRANCH  82  83
ENDBRANCH  56  77
ENDBRANCH  30  31
ENDBRANCH  23  25
ENDBRANCH  22  23
ENDBRANCH  21  22
ENDBRANCH   1  21
TORSDOF 17
ENDMDL
MODEL 3
REMARK VINA RESULT:     -10.3      3.714     10.871
REMARK SMILES C[C@@H](C(=O)OCCOC(=O)c1ccc(-c2c3nc(c(-c4ccc(S(=O)(=O)[O-])cc4)c4ccc([nH]4)c(-c4ccc(S(=O)(=O)[O-])cc4)c4nc(c(-c5ccc(S(=O)(=O)[O-])cc5)c5ccc2[nH]5)C=C4)C=C3)cc1)c1cccc(C(=O)c2ccccc2)c1
REMARK SMILES IDX 6 1 5 2 3 3 4 4 2 5 1 6 71 7 72 8 84 9 73 10 75 11 74 12
REMARK SMILES IDX 76 13 77 14 78 15 79 16 83 17 80 18 82 19 81 20 7 21 8 22
REMARK SMILES IDX 9 23 10 24 11 25 12 26 70 27 13 28 69 29 14 30 15 31 16 32
REMARK SMILES IDX 63 33 17 34 68 35 62 36 64 37 18 38 67 39 61 40 60 41 19 43
REMARK SMILES IDX 49 44 30 45 48 46 31 47 34 48 47 49 65 50 32 51 33 52 46 54
REMARK SMILES IDX 66 55 35 56 20 57 21 58 29 59 22 60 28 61 23 62 24 63 25 64
REMARK SMILES IDX 26 65 27 66 50 67 51 68 59 69 52 70 58 71 53 72 54 73 55 74
REMARK SMILES IDX 56 75 57 76 36 77 37 78 45 79 38 80 44 81 39 82 40 83 41 84
REMARK SMILES IDX 42 85 43 86
REMARK H PARENT 64 42 34 53
REMARK Flexibility Score: inf
ROOT
ATOM      1  C   UNL A   1      42.179  22.491  27.879  1.00  0.00     0.274 C 
ENDROOT
BRANCH   1   2
ATOM      2  O   UNL A   1      42.637  23.144  29.080  1.00  0.00    -0.462 OA
BRANCH   2   3
ATOM      3  C   UNL A   1      43.912  23.624  29.076  1.00  0.00     0.313 C 
ATOM      4  O   UNL A   1      44.889  22.972  28.725  1.00  0.00    -0.252 OA
BRANCH   3   5
ATOM      5  C   UNL A   1      44.004  25.053  29.626  1.00  0.00     0.126 C 
ATOM      6  C   UNL A   1      44.670  26.040  28.660  1.00  0.00     0.025 C 
BRANCH   5   7
ATOM      7  C   UNL A   1      44.613  25.080  31.028  1.00  0.00    -0.033 A 
ATOM      8  C   UNL A   1      45.744  25.845  31.348  1.00  0.00     0.004 A 
ATOM      9  C   UNL A   1      44.043  24.276  32.038  1.00  0.00     0.016 A 
ATOM     10  C   UNL A   1      46.286  25.815  32.634  1.00  0.00     0.001 A 
ATOM     11  C   UNL A   1      44.594  24.226  33.327  1.00  0.00     0.023 A 
ATOM     12  C   UNL A   1      45.720  25.003  33.616  1.00  0.00     0.012 A 
BRANCH  11  13
ATOM     13  C   UNL A   1      44.014  23.407  34.432  1.00  0.00     0.193 C 
ATOM     14  O   UNL A   1      42.805  23.401  34.641  1.00  0.00    -0.289 OA
BRANCH  13  15
ATOM     15  C   UNL A   1      44.850  22.486  35.221  1.00  0.00     0.022 A 
ATOM     16  C   UNL A   1      45.146  22.847  36.539  1.00  0.00     0.012 A 
ATOM     17  C   UNL A   1      45.356  21.305  34.675  1.00  0.00     0.012 A 
ATOM     18  C   UNL A   1      45.914  21.995  37.332  1.00  0.00     0.001 A 
ATOM     19  C   UNL A   1      46.119  20.453  35.475  1.00  0.00     0.001 A 
ATOM     20  C   UNL A   1      46.390  20.794  36.802  1.00  0.00     0.000 A 
ENDBRANCH  13  15
ENDBRANCH  11  13
ENDBRANCH   5   7
ENDBRANCH   3   5
ENDBRANCH   2   3
ENDBRANCH   1   2
BRANCH   1  21
ATOM     21  C   UNL A   1      42.424  23.390  26.671  1.00  0.00     0.275 C 
BRANCH  21  22
ATOM     22  O   UNL A   1      41.277  24.234  26.478  1.00  0.00    -0.458 OA
BRANCH  22  23
ATOM     23  C   UNL A   1      41.529  25.508  26.103  1.00  0.00     0.338 C 
ATOM     24  O   UNL A   1      41.989  25.886  25.036  1.00  0.00    -0.246 OA
BRANCH  23  25
ATOM     25  C   UNL A   1      41.155  26.425  27.192  1.00  0.00     0.060 A 
ATOM     26  C   UNL A   1      41.703  27.705  27.248  1.00  0.00     0.016 A 
ATOM     27  C   UNL A   1      40.342  25.966  28.229  1.00  0.00     0.016 A 
ATOM     28  C   UNL A   1      41.515  28.487  28.388  1.00  0.00     0.010 A 
ATOM     29  C   UNL A   1      40.085  26.793  29.329  1.00  0.00     0.010 A 
ATOM     30  C   UNL A   1      40.709  28.048  29.448  1.00  0.00    -0.014 A 
BRANCH  30  31
ATOM     31  C   UNL A   1      40.575  28.858  30.698  1.00  0.00     0.031 A 
ATOM     32  C   UNL A   1      39.474  29.886  30.828  1.00  0.00     0.074 A 
ATOM     33  C   UNL A   1      41.408  28.669  31.741  1.00  0.00     0.049 A 
ATOM     34  N   UNL A   1      39.319  30.821  31.733  1.00  0.00    -0.248 NA
ATOM     35  C   UNL A   1      38.422  29.874  29.798  1.00  0.00     0.031 C 
ATOM     36  C   UNL A   1      42.487  27.680  31.805  1.00  0.00     0.029 A 
ATOM     37  N   UNL A   1      41.463  29.291  32.967  1.00  0.00    -0.354 N 
ATOM     38  C   UNL A   1      38.204  31.554  31.339  1.00  0.00     0.074 A 
ATOM     39  C   UNL A   1      37.712  30.947  30.120  1.00  0.00     0.031 C 
ATOM     40  C   UNL A   1      43.047  27.715  33.024  1.00  0.00     0.029 A 
ATOM     41  C   UNL A   1      42.440  28.794  33.795  1.00  0.00     0.049 A 
ATOM     42  H   UNL A   1      40.859  30.025  33.225  1.00  0.00     0.167 HD
ATOM     43  C   UNL A   1      37.647  32.639  31.930  1.00  0.00     0.031 A 
ATOM     44  C   UNL A   1      42.841  29.180  35.022  1.00  0.00     0.031 A 
ATOM     45  C   UNL A   1      38.091  33.204  33.178  1.00  0.00     0.049 A 
ATOM     46  C   UNL A   1      42.201  30.373  35.670  1.00  0.00     0.074 A 
ATOM     47  C   UNL A   1      37.598  34.314  33.845  1.00  0.00     0.029 A 
ATOM     48  N   UNL A   1      39.103  32.683  33.966  1.00  0.00    -0.354 N 
ATOM     49  N   UNL A   1      41.233  31.133  35.218  1.00  0.00    -0.248 NA
ATOM     50  C   UNL A   1      42.731  30.781  36.978  1.00  0.00     0.031 C 
ATOM     51  C   UNL A   1      38.330  34.475  35.028  1.00  0.00     0.029 A 
ATOM     52  C   UNL A   1      39.250  33.445  35.113  1.00  0.00     0.049 A 
ATOM     53  H   UNL A   1      39.639  31.887  33.745  1.00  0.00     0.167 HD
ATOM     54  C   UNL A   1      41.049  32.119  36.179  1.00  0.00     0.074 A 
ATOM     55  C   UNL A   1      41.982  31.840  37.253  1.00  0.00     0.031 C 
ATOM     56  C   UNL A   1      40.194  33.170  36.165  1.00  0.00     0.031 A 
BRANCH  43  57
ATOM     57  C   UNL A   1      36.519  33.324  31.206  1.00  0.00    -0.014 A 
ATOM     58  C   UNL A   1      35.242  33.445  31.776  1.00  0.00     0.010 A 
ATOM     59  C   UNL A   1      36.764  33.897  29.943  1.00  0.00     0.010 A 
ATOM     60  C   UNL A   1      34.217  34.097  31.082  1.00  0.00     0.020 A 
ATOM     61  C   UNL A   1      35.749  34.568  29.255  1.00  0.00     0.020 A 
ATOM     62  C   UNL A   1      34.476  34.649  29.822  1.00  0.00     0.054 A 
BRANCH  62  63
ATOM     63  S   UNL A   1      33.141  35.510  28.947  1.00  0.00     0.124 S 
ATOM     64  O   UNL A   1      32.360  36.055  30.055  1.00  0.00    -0.237 OA
ATOM     65  O   UNL A   1      33.859  36.494  28.143  1.00  0.00    -0.237 OA
ATOM     66  O   UNL A   1      32.486  34.448  28.187  1.00  0.00    -0.744 OA
ENDBRANCH  62  63
ENDBRANCH  43  57
BRANCH  44  67
ATOM     67  C   UNL A   1      43.957  28.457  35.688  1.00  0.00    -0.014 A 
ATOM     68  C   UNL A   1      43.712  27.295  36.439  1.00  0.00     0.010 A 
ATOM     69  C   UNL A   1      45.282  28.905  35.530  1.00  0.00     0.010 A 
ATOM     70  C   UNL A   1      44.773  26.590  37.017  1.00  0.00     0.020 A 
ATOM     71  C   UNL A   1      46.346  28.189  36.083  1.00  0.00     0.020 A 
ATOM     72  C   UNL A   1      46.084  27.039  36.830  1.00  0.00     0.054 A 
BRANCH  72  73
ATOM     73  S   UNL A   1      47.463  26.065  37.497  1.00  0.00     0.124 S 
ATOM     74  O   UNL A   1      48.447  27.101  37.799  1.00  0.00    -0.237 OA
ATOM     75  O   UNL A   1      46.866  25.403  38.655  1.00  0.00    -0.237 OA
ATOM     76  O   UNL A   1      47.809  25.172  36.393  1.00  0.00    -0.744 OA
ENDBRANCH  72  73
ENDBRANCH  44  67
BRANCH  56  77
ATOM     77  C   UNL A   1      40.233  34.101  37.344  1.00  0.00    -0.014 A 
ATOM     78  C   UNL A   1      39.412  33.876  38.463  1.00  0.00     0.010 A 
ATOM     79  C   UNL A   1      41.119  35.192  37.347  1.00  0.00     0.010 A 
ATOM     80  C   UNL A   1      39.455  34.745  39.556  1.00  0.00     0.020 A 
ATOM     81  C   UNL A   1      41.177  36.054  38.445  1.00  0.00     0.020 A 
ATOM     82  C   UNL A   1      40.334  35.833  39.538  1.00  0.00     0.054 A 
BRANCH  82  83
ATOM     83  S   UNL A   1      40.396  36.934  40.978  1.00  0.00     0.124 S 
ATOM     84  O   UNL A   1      41.559  36.424  41.701  1.00  0.00    -0.237 OA
ATOM     85  O   UNL A   1      40.564  38.254  40.372  1.00  0.00    -0.237 OA
ATOM     86  O   UNL A   1      39.109  36.717  41.634  1.00  0.00    -0.744 OA
ENDBRANCH  82  83
ENDBRANCH  56  77
ENDBRANCH  30  31
ENDBRANCH  23  25
ENDBRANCH  22  23
ENDBRANCH  21  22
ENDBRANCH   1  21
TORSDOF 17
ENDMDL
