MODEL 1
REMARK VINA RESULT:     -11.2      0.000      0.000
REMARK SMILES O=C(C[C@H](C(=O)OCCOC(=O)c1ccc(-c2c3nc(c(-c4ccc(S(=O)(=O)[O-])cc4)c4ccc([nH]4)c(-c4ccc(S(=O)(=O)[O-])cc4)c4nc(c(-c5ccc(S(=O)(=O)[O-])cc5)c5ccc2[nH]5)C=C4)C=C3)cc1)c1ccccc1)Nc1ccc(Cl)cc1Cl
REMARK SMILES IDX 8 1 7 2 5 3 6 4 4 5 3 6 2 7 1 8 79 9 80 11 81 12 86 13 82 14
REMARK SMILES IDX 85 15 87 16 83 17 84 18 73 19 74 20 78 21 75 22 77 23 76 24
REMARK SMILES IDX 9 25 10 26 11 27 12 28 13 29 14 30 72 31 15 32 71 33 16 34
REMARK SMILES IDX 17 35 18 36 65 37 19 38 70 39 64 40 66 41 20 42 69 43 63 44
REMARK SMILES IDX 62 45 21 47 51 48 32 49 50 50 33 51 36 52 49 53 67 54 34 55
REMARK SMILES IDX 35 56 48 58 68 59 37 60 22 61 23 62 31 63 24 64 30 65 25 66
REMARK SMILES IDX 26 67 27 68 28 69 29 70 52 71 53 72 61 73 54 74 60 75 55 76
REMARK SMILES IDX 56 77 57 78 58 79 59 80 38 81 39 82 47 83 40 84 46 85 41 86
REMARK SMILES IDX 42 87 43 88 44 89 45 90
REMARK H PARENT 79 10 66 46 36 57
REMARK Flexibility Score: inf
ROOT
ATOM      1  C   UNL A   1      32.219  29.977  25.846  1.00  0.00     0.274 C 
ENDROOT
BRANCH   1   2
ATOM      2  O   UNL A   1      32.522  28.584  25.628  1.00  0.00    -0.462 OA
BRANCH   2   3
ATOM      3  C   UNL A   1      31.478  27.828  25.185  1.00  0.00     0.314 C 
ATOM      4  O   UNL A   1      30.954  26.952  25.859  1.00  0.00    -0.252 OA
BRANCH   3   5
ATOM      5  C   UNL A   1      31.169  28.064  23.705  1.00  0.00     0.138 C 
BRANCH   5   6
ATOM      6  C   UNL A   1      31.341  26.822  22.805  1.00  0.00     0.120 C 
BRANCH   6   7
ATOM      7  C   UNL A   1      32.641  26.052  22.958  1.00  0.00     0.225 C 
ATOM      8  O   UNL A   1      33.614  26.358  22.276  1.00  0.00    -0.275 OA
ATOM      9  N   UNL A   1      32.568  25.009  23.864  1.00  0.00    -0.325 N 
ATOM     10  H   UNL A   1      31.708  24.873  24.324  1.00  0.00     0.169 HD
BRANCH   9  11
ATOM     11  C   UNL A   1      33.624  24.122  24.187  1.00  0.00     0.060 A 
ATOM     12  C   UNL A   1      34.722  24.714  24.834  1.00  0.00     0.029 A 
ATOM     13  C   UNL A   1      33.674  22.745  23.900  1.00  0.00     0.066 A 
ATOM     14  C   UNL A   1      35.809  23.944  25.254  1.00  0.00     0.023 A 
ATOM     15  C   UNL A   1      34.763  21.974  24.332  1.00  0.00     0.043 A 
ATOM     16  Cl  UNL A   1      32.571  21.953  22.827  1.00  0.00    -0.082 Cl
ATOM     17  C   UNL A   1      35.818  22.574  25.013  1.00  0.00     0.042 A 
ATOM     18  Cl  UNL A   1      37.166  21.634  25.520  1.00  0.00    -0.084 Cl
ENDBRANCH   9  11
ENDBRANCH   6   7
ENDBRANCH   5   6
BRANCH   5  19
ATOM     19  C   UNL A   1      29.813  28.711  23.440  1.00  0.00    -0.033 A 
ATOM     20  C   UNL A   1      29.657  30.106  23.410  1.00  0.00     0.004 A 
ATOM     21  C   UNL A   1      28.674  27.912  23.254  1.00  0.00     0.004 A 
ATOM     22  C   UNL A   1      28.402  30.686  23.217  1.00  0.00     0.000 A 
ATOM     23  C   UNL A   1      27.418  28.494  23.060  1.00  0.00     0.000 A 
ATOM     24  C   UNL A   1      27.282  29.879  23.046  1.00  0.00     0.000 A 
ENDBRANCH   5  19
ENDBRANCH   3   5
ENDBRANCH   2   3
ENDBRANCH   1   2
BRANCH   1  25
ATOM     25  C   UNL A   1      32.648  30.430  27.238  1.00  0.00     0.275 C 
BRANCH  25  26
ATOM     26  O   UNL A   1      33.956  29.921  27.545  1.00  0.00    -0.458 OA
BRANCH  26  27
ATOM     27  C   UNL A   1      34.698  30.694  28.368  1.00  0.00     0.338 C 
ATOM     28  O   UNL A   1      34.373  31.748  28.887  1.00  0.00    -0.246 OA
BRANCH  27  29
ATOM     29  C   UNL A   1      36.034  30.105  28.546  1.00  0.00     0.060 A 
ATOM     30  C   UNL A   1      36.457  29.651  29.796  1.00  0.00     0.016 A 
ATOM     31  C   UNL A   1      36.919  30.130  27.468  1.00  0.00     0.016 A 
ATOM     32  C   UNL A   1      37.794  29.297  29.992  1.00  0.00     0.010 A 
ATOM     33  C   UNL A   1      38.234  29.701  27.647  1.00  0.00     0.010 A 
ATOM     34  C   UNL A   1      38.696  29.316  28.918  1.00  0.00    -0.014 A 
BRANCH  34  35
ATOM     35  C   UNL A   1      40.129  28.958  29.093  1.00  0.00     0.031 A 
ATOM     36  C   UNL A   1      41.121  30.015  29.509  1.00  0.00     0.074 A 
ATOM     37  C   UNL A   1      40.557  27.711  28.817  1.00  0.00     0.049 A 
ATOM     38  N   UNL A   1      42.428  29.978  29.485  1.00  0.00    -0.248 NA
ATOM     39  C   UNL A   1      40.566  31.288  30.002  1.00  0.00     0.031 C 
ATOM     40  C   UNL A   1      39.706  26.579  28.443  1.00  0.00     0.029 A 
ATOM     41  N   UNL A   1      41.829  27.191  28.788  1.00  0.00    -0.354 N 
ATOM     42  C   UNL A   1      42.852  31.235  29.903  1.00  0.00     0.074 A 
ATOM     43  C   UNL A   1      41.665  32.011  30.184  1.00  0.00     0.031 C 
ATOM     44  C   UNL A   1      40.477  25.503  28.219  1.00  0.00     0.029 A 
ATOM     45  C   UNL A   1      41.878  25.885  28.365  1.00  0.00     0.049 A 
ATOM     46  H   UNL A   1      42.628  27.706  29.045  1.00  0.00     0.167 HD
ATOM     47  C   UNL A   1      44.117  31.699  30.032  1.00  0.00     0.031 A 
ATOM     48  C   UNL A   1      42.928  25.093  28.076  1.00  0.00     0.031 A 
ATOM     49  C   UNL A   1      45.298  30.912  29.797  1.00  0.00     0.049 A 
ATOM     50  C   UNL A   1      44.322  25.642  28.199  1.00  0.00     0.074 A 
ATOM     51  C   UNL A   1      46.623  31.285  29.942  1.00  0.00     0.029 A 
ATOM     52  N   UNL A   1      45.297  29.592  29.376  1.00  0.00    -0.354 N 
ATOM     53  N   UNL A   1      44.705  26.837  28.582  1.00  0.00    -0.248 NA
ATOM     54  C   UNL A   1      45.426  24.741  27.838  1.00  0.00     0.031 C 
ATOM     55  C   UNL A   1      47.425  30.199  29.576  1.00  0.00     0.029 A 
ATOM     56  C   UNL A   1      46.597  29.140  29.239  1.00  0.00     0.049 A 
ATOM     57  H   UNL A   1      44.490  29.055  29.202  1.00  0.00     0.167 HD
ATOM     58  C   UNL A   1      46.094  26.823  28.523  1.00  0.00     0.074 A 
ATOM     59  C   UNL A   1      46.485  25.500  28.081  1.00  0.00     0.031 C 
ATOM     60  C   UNL A   1      46.968  27.817  28.810  1.00  0.00     0.031 A 
BRANCH  47  61
ATOM     61  C   UNL A   1      44.304  33.143  30.415  1.00  0.00    -0.014 A 
ATOM     62  C   UNL A   1      44.343  34.158  29.445  1.00  0.00     0.010 A 
ATOM     63  C   UNL A   1      44.363  33.491  31.777  1.00  0.00     0.010 A 
ATOM     64  C   UNL A   1      44.456  35.497  29.830  1.00  0.00     0.020 A 
ATOM     65  C   UNL A   1      44.459  34.830  32.167  1.00  0.00     0.020 A 
ATOM     66  C   UNL A   1      44.516  35.825  31.189  1.00  0.00     0.054 A 
BRANCH  66  67
ATOM     67  S   UNL A   1      44.616  37.572  31.667  1.00  0.00     0.124 S 
ATOM     68  O   UNL A   1      44.105  38.240  30.473  1.00  0.00    -0.237 OA
ATOM     69  O   UNL A   1      43.749  37.636  32.841  1.00  0.00    -0.237 OA
ATOM     70  O   UNL A   1      46.037  37.778  31.936  1.00  0.00    -0.744 OA
ENDBRANCH  66  67
ENDBRANCH  47  61
BRANCH  48  71
ATOM     71  C   UNL A   1      42.704  23.710  27.577  1.00  0.00    -0.014 A 
ATOM     72  C   UNL A   1      42.535  22.643  28.476  1.00  0.00     0.010 A 
ATOM     73  C   UNL A   1      42.669  23.454  26.193  1.00  0.00     0.010 A 
ATOM     74  C   UNL A   1      42.364  21.340  28.001  1.00  0.00     0.020 A 
ATOM     75  C   UNL A   1      42.473  22.157  25.716  1.00  0.00     0.020 A 
ATOM     76  C   UNL A   1      42.340  21.103  26.623  1.00  0.00     0.054 A 
BRANCH  76  77
ATOM     77  S   UNL A   1      42.090  19.411  26.019  1.00  0.00     0.124 S 
ATOM     78  O   UNL A   1      40.647  19.383  25.794  1.00  0.00    -0.237 OA
ATOM     79  O   UNL A   1      42.917  19.371  24.816  1.00  0.00    -0.237 OA
ATOM     80  O   UNL A   1      42.569  18.583  27.123  1.00  0.00    -0.744 OA
ENDBRANCH  76  77
ENDBRANCH  48  71
BRANCH  60  81
ATOM     81  C   UNL A   1      48.433  27.506  28.694  1.00  0.00    -0.014 A 
ATOM     82  C   UNL A   1      49.157  27.854  27.540  1.00  0.00     0.010 A 
ATOM     83  C   UNL A   1      49.104  26.914  29.778  1.00  0.00     0.010 A 
ATOM     84  C   UNL A   1      50.528  27.597  27.467  1.00  0.00     0.020 A 
ATOM     85  C   UNL A   1      50.478  26.674  29.715  1.00  0.00     0.020 A 
ATOM     86  C   UNL A   1      51.180  27.008  28.555  1.00  0.00     0.054 A 
BRANCH  86  87
ATOM     87  S   UNL A   1      52.972  26.736  28.465  1.00  0.00     0.124 S 
ATOM     88  O   UNL A   1      53.287  26.332  29.832  1.00  0.00    -0.237 OA
ATOM     89  O   UNL A   1      53.091  25.684  27.457  1.00  0.00    -0.237 OA
ATOM     90  O   UNL A   1      53.497  28.037  28.060  1.00  0.00    -0.744 OA
ENDBRANCH  86  87
ENDBRANCH  60  81
ENDBRANCH  34  35
ENDBRANCH  27  29
ENDBRANCH  26  27
ENDBRANCH  25  26
ENDBRANCH   1  25
TORSDOF 18
ENDMDL
MODEL 2
REMARK VINA RESULT:     -10.8      2.255      3.118
REMARK SMILES O=C(C[C@H](C(=O)OCCOC(=O)c1ccc(-c2c3nc(c(-c4ccc(S(=O)(=O)[O-])cc4)c4ccc([nH]4)c(-c4ccc(S(=O)(=O)[O-])cc4)c4nc(c(-c5ccc(S(=O)(=O)[O-])cc5)c5ccc2[nH]5)C=C4)C=C3)cc1)c1ccccc1)Nc1ccc(Cl)cc1Cl
REMARK SMILES IDX 8 1 7 2 5 3 6 4 4 5 3 6 2 7 1 8 79 9 80 11 81 12 86 13 82 14
REMARK SMILES IDX 85 15 87 16 83 17 84 18 73 19 74 20 78 21 75 22 77 23 76 24
REMARK SMILES IDX 9 25 10 26 11 27 12 28 13 29 14 30 72 31 15 32 71 33 16 34
REMARK SMILES IDX 17 35 18 36 65 37 19 38 70 39 64 40 66 41 20 42 69 43 63 44
REMARK SMILES IDX 62 45 21 47 51 48 32 49 50 50 33 51 36 52 49 53 67 54 34 55
REMARK SMILES IDX 35 56 48 58 68 59 37 60 22 61 23 62 31 63 24 64 30 65 25 66
REMARK SMILES IDX 26 67 27 68 28 69 29 70 52 71 53 72 61 73 54 74 60 75 55 76
REMARK SMILES IDX 56 77 57 78 58 79 59 80 38 81 39 82 47 83 40 84 46 85 41 86
REMARK SMILES IDX 42 87 43 88 44 89 45 90
REMARK H PARENT 79 10 66 46 36 57
REMARK Flexibility Score: inf
ROOT
ATOM      1  C   UNL A   1      33.941  29.438  26.359  1.00  0.00     0.274 C 
ENDROOT
BRANCH   1   2
ATOM      2  O   UNL A   1      33.736  28.013  26.275  1.00  0.00    -0.462 OA
BRANCH   2   3
ATOM      3  C   UNL A   1      33.492  27.538  25.021  1.00  0.00     0.314 C 
ATOM      4  O   UNL A   1      34.115  27.904  24.034  1.00  0.00    -0.252 OA
BRANCH   3   5
ATOM      5  C   UNL A   1      32.244  26.654  24.962  1.00  0.00     0.138 C 
BRANCH   5   6
ATOM      6  C   UNL A   1      31.872  25.975  26.298  1.00  0.00     0.120 C 
BRANCH   6   7
ATOM      7  C   UNL A   1      32.078  24.472  26.371  1.00  0.00     0.225 C 
ATOM      8  O   UNL A   1      31.642  23.842  27.330  1.00  0.00    -0.275 OA
ATOM      9  N   UNL A   1      32.809  23.957  25.315  1.00  0.00    -0.325 N 
ATOM     10  H   UNL A   1      33.110  24.592  24.625  1.00  0.00     0.169 HD
BRANCH   9  11
ATOM     11  C   UNL A   1      33.161  22.596  25.142  1.00  0.00     0.060 A 
ATOM     12  C   UNL A   1      32.143  21.780  24.620  1.00  0.00     0.029 A 
ATOM     13  C   UNL A   1      34.399  22.007  25.461  1.00  0.00     0.066 A 
ATOM     14  C   UNL A   1      32.372  20.428  24.352  1.00  0.00     0.023 A 
ATOM     15  C   UNL A   1      34.628  20.652  25.181  1.00  0.00     0.043 A 
ATOM     16  Cl  UNL A   1      35.614  22.795  26.408  1.00  0.00    -0.082 Cl
ATOM     17  C   UNL A   1      33.619  19.874  24.621  1.00  0.00     0.042 A 
ATOM     18  Cl  UNL A   1      33.890  18.206  24.302  1.00  0.00    -0.084 Cl
ENDBRANCH   9  11
ENDBRANCH   6   7
ENDBRANCH   5   6
BRANCH   5  19
ATOM     19  C   UNL A   1      31.014  27.339  24.372  1.00  0.00    -0.033 A 
ATOM     20  C   UNL A   1      29.802  26.651  24.200  1.00  0.00     0.004 A 
ATOM     21  C   UNL A   1      31.085  28.675  23.951  1.00  0.00     0.004 A 
ATOM     22  C   UNL A   1      28.700  27.273  23.612  1.00  0.00     0.000 A 
ATOM     23  C   UNL A   1      29.980  29.297  23.362  1.00  0.00     0.000 A 
ATOM     24  C   UNL A   1      28.790  28.595  23.189  1.00  0.00     0.000 A 
ENDBRANCH   5  19
ENDBRANCH   3   5
ENDBRANCH   2   3
ENDBRANCH   1   2
BRANCH   1  25
ATOM     25  C   UNL A   1      34.687  29.820  27.634  1.00  0.00     0.275 C 
BRANCH  25  26
ATOM     26  O   UNL A   1      36.021  29.286  27.608  1.00  0.00    -0.458 OA
BRANCH  26  27
ATOM     27  C   UNL A   1      36.700  29.373  28.773  1.00  0.00     0.338 C 
ATOM     28  O   UNL A   1      36.278  29.761  29.850  1.00  0.00    -0.246 OA
BRANCH  27  29
ATOM     29  C   UNL A   1      38.098  28.959  28.576  1.00  0.00     0.060 A 
ATOM     30  C   UNL A   1      38.803  28.309  29.589  1.00  0.00     0.016 A 
ATOM     31  C   UNL A   1      38.744  29.346  27.401  1.00  0.00     0.016 A 
ATOM     32  C   UNL A   1      40.181  28.119  29.465  1.00  0.00     0.010 A 
ATOM     33  C   UNL A   1      40.105  29.083  27.247  1.00  0.00     0.010 A 
ATOM     34  C   UNL A   1      40.846  28.501  28.291  1.00  0.00    -0.014 A 
BRANCH  34  35
ATOM     35  C   UNL A   1      42.315  28.325  28.129  1.00  0.00     0.031 A 
ATOM     36  C   UNL A   1      43.243  29.480  28.405  1.00  0.00     0.074 A 
ATOM     37  C   UNL A   1      42.814  27.160  27.673  1.00  0.00     0.049 A 
ATOM     38  N   UNL A   1      44.509  29.615  28.101  1.00  0.00    -0.248 NA
ATOM     39  C   UNL A   1      42.667  30.643  29.102  1.00  0.00     0.031 C 
ATOM     40  C   UNL A   1      42.038  25.947  27.402  1.00  0.00     0.029 A 
ATOM     41  N   UNL A   1      44.099  26.813  27.335  1.00  0.00    -0.354 N 
ATOM     42  C   UNL A   1      44.865  30.894  28.516  1.00  0.00     0.074 A 
ATOM     43  C   UNL A   1      43.687  31.494  29.102  1.00  0.00     0.031 C 
ATOM     44  C   UNL A   1      42.861  24.993  26.936  1.00  0.00     0.029 A 
ATOM     45  C   UNL A   1      44.205  25.547  26.811  1.00  0.00     0.049 A 
ATOM     46  H   UNL A   1      44.870  27.414  27.455  1.00  0.00     0.167 HD
ATOM     47  C   UNL A   1      46.065  31.512  28.409  1.00  0.00     0.031 A 
ATOM     48  C   UNL A   1      45.251  24.914  26.245  1.00  0.00     0.031 A 
ATOM     49  C   UNL A   1      47.248  30.898  27.868  1.00  0.00     0.049 A 
ATOM     50  C   UNL A   1      46.564  25.633  26.112  1.00  0.00     0.074 A 
ATOM     51  C   UNL A   1      48.520  31.434  27.757  1.00  0.00     0.029 A 
ATOM     52  N   UNL A   1      47.308  29.612  27.356  1.00  0.00    -0.354 N 
ATOM     53  N   UNL A   1      46.881  26.847  26.495  1.00  0.00    -0.248 NA
ATOM     54  C   UNL A   1      47.658  24.903  25.456  1.00  0.00     0.031 C 
ATOM     55  C   UNL A   1      49.343  30.481  27.146  1.00  0.00     0.029 A 
ATOM     56  C   UNL A   1      48.589  29.342  26.912  1.00  0.00     0.049 A 
ATOM     57  H   UNL A   1      46.550  28.984  27.317  1.00  0.00     0.167 HD
ATOM     58  C   UNL A   1      48.214  27.017  26.142  1.00  0.00     0.074 A 
ATOM     59  C   UNL A   1      48.649  25.781  25.527  1.00  0.00     0.031 C 
ATOM     60  C   UNL A   1      49.008  28.102  26.313  1.00  0.00     0.031 A 
BRANCH  47  61
ATOM     61  C   UNL A   1      46.162  32.947  28.854  1.00  0.00    -0.014 A 
ATOM     62  C   UNL A   1      45.877  34.006  27.976  1.00  0.00     0.010 A 
ATOM     63  C   UNL A   1      46.469  33.231  30.197  1.00  0.00     0.010 A 
ATOM     64  C   UNL A   1      45.915  35.328  28.430  1.00  0.00     0.020 A 
ATOM     65  C   UNL A   1      46.491  34.550  30.659  1.00  0.00     0.020 A 
ATOM     66  C   UNL A   1      46.225  35.592  29.769  1.00  0.00     0.054 A 
BRANCH  66  67
ATOM     67  S   UNL A   1      46.223  37.311  30.348  1.00  0.00     0.124 S 
ATOM     68  O   UNL A   1      46.235  38.052  29.089  1.00  0.00    -0.237 OA
ATOM     69  O   UNL A   1      44.981  37.394  31.113  1.00  0.00    -0.237 OA
ATOM     70  O   UNL A   1      47.445  37.412  31.141  1.00  0.00    -0.744 OA
ENDBRANCH  66  67
ENDBRANCH  47  61
BRANCH  48  71
ATOM     71  C   UNL A   1      45.085  23.540  25.700  1.00  0.00    -0.014 A 
ATOM     72  C   UNL A   1      45.249  22.417  26.528  1.00  0.00     0.010 A 
ATOM     73  C   UNL A   1      44.771  23.351  24.341  1.00  0.00     0.010 A 
ATOM     74  C   UNL A   1      45.130  21.127  26.001  1.00  0.00     0.020 A 
ATOM     75  C   UNL A   1      44.627  22.065  23.817  1.00  0.00     0.020 A 
ATOM     76  C   UNL A   1      44.825  20.960  24.647  1.00  0.00     0.054 A 
BRANCH  76  77
ATOM     77  S   UNL A   1      44.647  19.282  23.980  1.00  0.00     0.124 S 
ATOM     78  O   UNL A   1      45.890  18.652  24.414  1.00  0.00    -0.237 OA
ATOM     79  O   UNL A   1      43.433  18.801  24.634  1.00  0.00    -0.237 OA
ATOM     80  O   UNL A   1      44.524  19.501  22.540  1.00  0.00    -0.744 OA
ENDBRANCH  76  77
ENDBRANCH  48  71
BRANCH  60  81
ATOM     81  C   UNL A   1      50.437  27.990  25.865  1.00  0.00    -0.014 A 
ATOM     82  C   UNL A   1      50.803  28.268  24.536  1.00  0.00     0.010 A 
ATOM     83  C   UNL A   1      51.434  27.663  26.801  1.00  0.00     0.010 A 
ATOM     84  C   UNL A   1      52.143  28.204  24.147  1.00  0.00     0.020 A 
ATOM     85  C   UNL A   1      52.776  27.616  26.419  1.00  0.00     0.020 A 
ATOM     86  C   UNL A   1      53.121  27.876  25.091  1.00  0.00     0.054 A 
BRANCH  86  87
ATOM     87  S   UNL A   1      54.863  27.854  24.581  1.00  0.00     0.124 S 
ATOM     88  O   UNL A   1      55.546  27.602  25.847  1.00  0.00    -0.237 OA
ATOM     89  O   UNL A   1      54.905  26.758  23.616  1.00  0.00    -0.237 OA
ATOM     90  O   UNL A   1      55.071  29.183  24.012  1.00  0.00    -0.744 OA
ENDBRANCH  86  87
ENDBRANCH  60  81
ENDBRANCH  34  35
ENDBRANCH  27  29
ENDBRANCH  26  27
ENDBRANCH  25  26
ENDBRANCH   1  25
TORSDOF 18
ENDMDL
MODEL 3
REMARK VINA RESULT:     -10.7      5.466     11.175
REMARK SMILES O=C(C[C@H](C(=O)OCCOC(=O)c1ccc(-c2c3nc(c(-c4ccc(S(=O)(=O)[O-])cc4)c4ccc([nH]4)c(-c4ccc(S(=O)(=O)[O-])cc4)c4nc(c(-c5ccc(S(=O)(=O)[O-])cc5)c5ccc2[nH]5)C=C4)C=C3)cc1)c1ccccc1)Nc1ccc(Cl)cc1Cl
REMARK SMILES IDX 8 1 7 2 5 3 6 4 4 5 3 6 2 7 1 8 79 9 80 11 81 12 86 13 82 14
REMARK SMILES IDX 85 15 87 16 83 17 84 18 73 19 74 20 78 21 75 22 77 23 76 24
REMARK SMILES IDX 9 25 10 26 11 27 12 28 13 29 14 30 72 31 15 32 71 33 16 34
REMARK SMILES IDX 17 35 18 36 65 37 19 38 70 39 64 40 66 41 20 42 69 43 63 44
REMARK SMILES IDX 62 45 21 47 51 48 32 49 50 50 33 51 36 52 49 53 67 54 34 55
REMARK SMILES IDX 35 56 48 58 68 59 37 60 22 61 23 62 31 63 24 64 30 65 25 66
REMARK SMILES IDX 26 67 27 68 28 69 29 70 52 71 53 72 61 73 54 74 60 75 55 76
REMARK SMILES IDX 56 77 57 78 58 79 59 80 38 81 39 82 47 83 40 84 46 85 41 86
REMARK SMILES IDX 42 87 43 88 44 89 45 90
REMARK H PARENT 79 10 66 46 36 57
REMARK Flexibility Score: inf
ROOT
ATOM      1  C   UNL A   1      37.410  22.490  25.766  1.00  0.00     0.274 C 
ENDROOT
BRANCH   1   2
ATOM      2  O   UNL A   1      35.985  22.689  25.856  1.00  0.00    -0.462 OA
BRANCH   2   3
ATOM      3  C   UNL A   1      35.244  21.969  24.968  1.00  0.00     0.314 C 
ATOM      4  O   UNL A   1      35.235  22.195  23.766  1.00  0.00    -0.252 OA
BRANCH   3   5
ATOM      5  C   UNL A   1      34.291  20.989  25.657  1.00  0.00     0.138 C 
BRANCH   5   6
ATOM      6  C   UNL A   1      33.008  21.631  26.226  1.00  0.00     0.120 C 
BRANCH   6   7
ATOM      7  C   UNL A   1      32.720  23.060  25.799  1.00  0.00     0.225 C 
ATOM      8  O   UNL A   1      33.169  23.994  26.455  1.00  0.00    -0.275 OA
ATOM      9  N   UNL A   1      31.907  23.155  24.683  1.00  0.00    -0.325 N 
ATOM     10  H   UNL A   1      31.607  22.312  24.273  1.00  0.00     0.169 HD
BRANCH   9  11
ATOM     11  C   UNL A   1      31.470  24.360  24.083  1.00  0.00     0.060 A 
ATOM     12  C   UNL A   1      30.378  24.979  24.716  1.00  0.00     0.029 A 
ATOM     13  C   UNL A   1      32.005  24.959  22.926  1.00  0.00     0.066 A 
ATOM     14  C   UNL A   1      29.880  26.200  24.257  1.00  0.00     0.023 A 
ATOM     15  C   UNL A   1      31.508  26.190  22.475  1.00  0.00     0.043 A 
ATOM     16  Cl  UNL A   1      33.107  24.157  21.861  1.00  0.00    -0.082 Cl
ATOM     17  C   UNL A   1      30.456  26.807  23.146  1.00  0.00     0.042 A 
ATOM     18  Cl  UNL A   1      29.828  28.304  22.577  1.00  0.00    -0.084 Cl
ENDBRANCH   9  11
ENDBRANCH   6   7
ENDBRANCH   5   6
BRANCH   5  19
ATOM     19  C   UNL A   1      33.929  19.767  24.819  1.00  0.00    -0.033 A 
ATOM     20  C   UNL A   1      34.793  18.664  24.716  1.00  0.00     0.004 A 
ATOM     21  C   UNL A   1      32.727  19.737  24.097  1.00  0.00     0.004 A 
ATOM     22  C   UNL A   1      34.474  17.574  23.906  1.00  0.00     0.000 A 
ATOM     23  C   UNL A   1      32.408  18.644  23.286  1.00  0.00     0.000 A 
ATOM     24  C   UNL A   1      33.283  17.566  23.187  1.00  0.00     0.000 A 
ENDBRANCH   5  19
ENDBRANCH   3   5
ENDBRANCH   2   3
ENDBRANCH   1   2
BRANCH   1  25
ATOM     25  C   UNL A   1      38.169  23.802  25.944  1.00  0.00     0.275 C 
BRANCH  25  26
ATOM     26  O   UNL A   1      39.116  23.686  27.018  1.00  0.00    -0.458 OA
BRANCH  26  27
ATOM     27  C   UNL A   1      40.251  24.404  26.866  1.00  0.00     0.338 C 
ATOM     28  O   UNL A   1      41.223  24.118  26.188  1.00  0.00    -0.246 OA
BRANCH  27  29
ATOM     29  C   UNL A   1      40.192  25.622  27.688  1.00  0.00     0.060 A 
ATOM     30  C   UNL A   1      41.107  26.659  27.501  1.00  0.00     0.016 A 
ATOM     31  C   UNL A   1      39.285  25.664  28.747  1.00  0.00     0.016 A 
ATOM     32  C   UNL A   1      41.173  27.704  28.426  1.00  0.00     0.010 A 
ATOM     33  C   UNL A   1      39.300  26.749  29.623  1.00  0.00     0.010 A 
ATOM     34  C   UNL A   1      40.268  27.761  29.496  1.00  0.00    -0.014 A 
BRANCH  34  35
ATOM     35  C   UNL A   1      40.317  28.852  30.506  1.00  0.00     0.031 A 
ATOM     36  C   UNL A   1      41.270  28.753  31.670  1.00  0.00     0.074 A 
ATOM     37  C   UNL A   1      39.468  29.895  30.422  1.00  0.00     0.049 A 
ATOM     38  N   UNL A   1      41.305  29.458  32.772  1.00  0.00    -0.248 NA
ATOM     39  C   UNL A   1      42.311  27.715  31.589  1.00  0.00     0.031 C 
ATOM     40  C   UNL A   1      38.521  30.140  29.332  1.00  0.00     0.029 A 
ATOM     41  N   UNL A   1      39.251  30.938  31.289  1.00  0.00    -0.354 N 
ATOM     42  C   UNL A   1      42.329  28.913  33.539  1.00  0.00     0.074 A 
ATOM     43  C   UNL A   1      42.899  27.826  32.774  1.00  0.00     0.031 C 
ATOM     44  C   UNL A   1      37.823  31.256  29.597  1.00  0.00     0.029 A 
ATOM     45  C   UNL A   1      38.223  31.766  30.904  1.00  0.00     0.049 A 
ATOM     46  H   UNL A   1      39.780  31.078  32.108  1.00  0.00     0.167 HD
ATOM     47  C   UNL A   1      42.750  29.284  34.771  1.00  0.00     0.031 A 
ATOM     48  C   UNL A   1      37.632  32.790  31.548  1.00  0.00     0.031 A 
ATOM     49  C   UNL A   1      42.213  30.395  35.511  1.00  0.00     0.049 A 
ATOM     50  C   UNL A   1      38.097  33.162  32.928  1.00  0.00     0.074 A 
ATOM     51  C   UNL A   1      42.604  30.871  36.751  1.00  0.00     0.029 A 
ATOM     52  N   UNL A   1      41.178  31.207  35.077  1.00  0.00    -0.354 N 
ATOM     53  N   UNL A   1      39.057  32.628  33.645  1.00  0.00    -0.248 NA
ATOM     54  C   UNL A   1      37.389  34.266  33.593  1.00  0.00     0.031 C 
ATOM     55  C   UNL A   1      41.781  31.953  37.082  1.00  0.00     0.029 A 
ATOM     56  C   UNL A   1      40.904  32.170  36.031  1.00  0.00     0.049 A 
ATOM     57  H   UNL A   1      40.709  31.113  34.217  1.00  0.00     0.167 HD
ATOM     58  C   UNL A   1      39.079  33.343  34.836  1.00  0.00     0.074 A 
ATOM     59  C   UNL A   1      38.047  34.355  34.741  1.00  0.00     0.031 C 
ATOM     60  C   UNL A   1      39.882  33.177  35.914  1.00  0.00     0.031 A 
BRANCH  47  61
ATOM     61  C   UNL A   1      43.825  28.460  35.428  1.00  0.00    -0.014 A 
ATOM     62  C   UNL A   1      45.184  28.787  35.287  1.00  0.00     0.010 A 
ATOM     63  C   UNL A   1      43.458  27.388  36.261  1.00  0.00     0.010 A 
ATOM     64  C   UNL A   1      46.161  28.042  35.957  1.00  0.00     0.020 A 
ATOM     65  C   UNL A   1      44.430  26.653  36.946  1.00  0.00     0.020 A 
ATOM     66  C   UNL A   1      45.777  26.978  36.780  1.00  0.00     0.054 A 
BRANCH  66  67
ATOM     67  S   UNL A   1      47.058  26.055  37.675  1.00  0.00     0.124 S 
ATOM     68  O   UNL A   1      46.725  26.353  39.066  1.00  0.00    -0.237 OA
ATOM     69  O   UNL A   1      46.818  24.677  37.254  1.00  0.00    -0.237 OA
ATOM     70  O   UNL A   1      48.307  26.641  37.195  1.00  0.00    -0.744 OA
ENDBRANCH  66  67
ENDBRANCH  47  61
BRANCH  48  71
ATOM     71  C   UNL A   1      36.484  33.501  30.922  1.00  0.00    -0.014 A 
ATOM     72  C   UNL A   1      36.548  33.922  29.583  1.00  0.00     0.010 A 
ATOM     73  C   UNL A   1      35.323  33.769  31.671  1.00  0.00     0.010 A 
ATOM     74  C   UNL A   1      35.482  34.623  29.011  1.00  0.00     0.020 A 
ATOM     75  C   UNL A   1      34.247  34.447  31.096  1.00  0.00     0.020 A 
ATOM     76  C   UNL A   1      34.341  34.887  29.774  1.00  0.00     0.054 A 
BRANCH  76  77
ATOM     77  S   UNL A   1      32.953  35.775  29.013  1.00  0.00     0.124 S 
ATOM     78  O   UNL A   1      32.153  36.138  30.180  1.00  0.00    -0.237 OA
ATOM     79  O   UNL A   1      33.613  36.884  28.330  1.00  0.00    -0.237 OA
ATOM     80  O   UNL A   1      32.356  34.776  28.129  1.00  0.00    -0.744 OA
ENDBRANCH  76  77
ENDBRANCH  48  71
BRANCH  60  81
ATOM     81  C   UNL A   1      39.707  34.130  37.061  1.00  0.00    -0.014 A 
ATOM     82  C   UNL A   1      39.081  33.723  38.252  1.00  0.00     0.010 A 
ATOM     83  C   UNL A   1      40.231  35.432  36.968  1.00  0.00     0.010 A 
ATOM     84  C   UNL A   1      38.967  34.610  39.326  1.00  0.00     0.020 A 
ATOM     85  C   UNL A   1      40.135  36.314  38.046  1.00  0.00     0.020 A 
ATOM     86  C   UNL A   1      39.493  35.900  39.215  1.00  0.00     0.054 A 
BRANCH  86  87
ATOM     87  S   UNL A   1      39.387  37.018  40.640  1.00  0.00     0.124 S 
ATOM     88  O   UNL A   1      38.381  36.360  41.468  1.00  0.00    -0.237 OA
ATOM     89  O   UNL A   1      40.749  36.998  41.171  1.00  0.00    -0.237 OA
ATOM     90  O   UNL A   1      38.977  38.290  40.051  1.00  0.00    -0.744 OA
ENDBRANCH  86  87
ENDBRANCH  60  81
ENDBRANCH  34  35
ENDBRANCH  27  29
ENDBRANCH  26  27
ENDBRANCH  25  26
ENDBRANCH   1  25
TORSDOF 18
ENDMDL
