MODEL 1
REMARK VINA RESULT:      -9.2      0.000      0.000
REMARK SMILES CCN1CC(=O)N(C[C@@H]([NH3+])C(=O)OCCOC(=O)c2ccc(-c3c4nc(c(-c5ccc(S(=O)(=O)[O-])cc5)c5ccc([nH]5)c(-c5ccc(S(=O)(=O)[O-])cc5)c5nc(c(-c6ccc(S(=O)(=O)[O-])cc6)c6ccc3[nH]6)C=C5)C=C4)cc2)CC1=O
REMARK SMILES IDX 14 1 13 2 11 3 12 4 9 5 8 6 7 7 3 8 4 9 80 10 5 11 79 12
REMARK SMILES IDX 81 13 6 14 2 15 1 16 10 17 15 21 16 22 17 23 18 24 19 25
REMARK SMILES IDX 20 26 78 27 21 28 77 29 22 30 23 31 24 32 71 33 25 34 76 35
REMARK SMILES IDX 70 36 72 37 26 38 75 39 69 40 68 41 27 43 57 44 38 45 56 46
REMARK SMILES IDX 39 47 42 48 55 49 73 50 40 51 41 52 54 54 74 55 43 56 28 57
REMARK SMILES IDX 29 58 37 59 30 60 36 61 31 62 32 63 33 64 34 65 35 66 58 67
REMARK SMILES IDX 59 68 67 69 60 70 66 71 61 72 62 73 63 74 64 75 65 76 44 77
REMARK SMILES IDX 45 78 53 79 46 80 52 81 47 82 48 83 49 84 50 85 51 86
REMARK H PARENT 10 18 10 19 10 20 72 42 42 53
REMARK Flexibility Score: inf
ROOT
ATOM      1  C   UNL A   1      31.806  28.609  27.121  1.00  0.00     0.274 C 
ENDROOT
BRANCH   1   2
ATOM      2  O   UNL A   1      31.434  28.113  25.820  1.00  0.00    -0.458 OA
BRANCH   2   3
ATOM      3  C   UNL A   1      31.350  26.762  25.707  1.00  0.00     0.366 C 
ATOM      4  O   UNL A   1      30.697  26.040  26.458  1.00  0.00    -0.245 OA
BRANCH   3   5
ATOM      5  C   UNL A   1      32.221  26.167  24.586  1.00  0.00     0.311 C 
BRANCH   5   6
ATOM      6  C   UNL A   1      31.999  24.657  24.355  1.00  0.00     0.197 C 
BRANCH   6   7
ATOM      7  N   UNL A   1      33.230  23.848  24.360  1.00  0.00    -0.325 N 
ATOM      8  N   UNL A   1      35.741  22.774  24.947  1.00  0.00    -0.332 N 
ATOM      9  C   UNL A   1      35.437  23.132  23.553  1.00  0.00     0.219 C 
ATOM     10  C   UNL A   1      34.686  22.393  25.774  1.00  0.00     0.242 C 
ATOM     11  C   UNL A   1      34.202  24.024  23.384  1.00  0.00     0.242 C 
ATOM     12  C   UNL A   1      33.297  22.659  25.198  1.00  0.00     0.220 C 
ATOM     13  O   UNL A   1      34.807  21.768  26.825  1.00  0.00    -0.273 OA
ATOM     14  O   UNL A   1      34.041  24.733  22.395  1.00  0.00    -0.273 OA
BRANCH   8  15
ATOM     15  C   UNL A   1      37.151  22.532  25.259  1.00  0.00     0.116 C 
ATOM     16  C   UNL A   1      37.972  23.678  25.830  1.00  0.00     0.027 C 
ENDBRANCH   8  15
ENDBRANCH   6   7
ENDBRANCH   5   6
BRANCH   5  17
ATOM     17  N   UNL A   1      32.024  27.001  23.364  1.00  0.00    -0.344 N 
ATOM     18  H   UNL A   1      32.779  26.818  22.703  1.00  0.00     0.345 HD
ATOM     19  H   UNL A   1      32.029  27.987  23.622  1.00  0.00     0.345 HD
ATOM     20  H   UNL A   1      31.130  26.766  22.932  1.00  0.00     0.345 HD
ENDBRANCH   5  17
ENDBRANCH   3   5
ENDBRANCH   2   3
ENDBRANCH   1   2
BRANCH   1  21
ATOM     21  C   UNL A   1      33.323  28.593  27.333  1.00  0.00     0.275 C 
BRANCH  21  22
ATOM     22  O   UNL A   1      33.958  29.784  26.833  1.00  0.00    -0.458 OA
BRANCH  22  23
ATOM     23  C   UNL A   1      34.561  30.540  27.783  1.00  0.00     0.338 C 
ATOM     24  O   UNL A   1      34.049  31.428  28.443  1.00  0.00    -0.246 OA
BRANCH  23  25
ATOM     25  C   UNL A   1      35.920  30.037  28.032  1.00  0.00     0.060 A 
ATOM     26  C   UNL A   1      36.227  29.602  29.323  1.00  0.00     0.016 A 
ATOM     27  C   UNL A   1      36.905  30.072  27.045  1.00  0.00     0.016 A 
ATOM     28  C   UNL A   1      37.517  29.192  29.640  1.00  0.00     0.010 A 
ATOM     29  C   UNL A   1      38.206  29.667  27.365  1.00  0.00     0.010 A 
ATOM     30  C   UNL A   1      38.520  29.231  28.665  1.00  0.00    -0.014 A 
BRANCH  30  31
ATOM     31  C   UNL A   1      39.909  28.868  29.031  1.00  0.00     0.031 A 
ATOM     32  C   UNL A   1      40.784  29.873  29.724  1.00  0.00     0.074 A 
ATOM     33  C   UNL A   1      40.371  27.631  28.767  1.00  0.00     0.049 A 
ATOM     34  N   UNL A   1      42.049  29.784  30.042  1.00  0.00    -0.248 NA
ATOM     35  C   UNL A   1      40.151  31.144  30.111  1.00  0.00     0.031 C 
ATOM     36  C   UNL A   1      39.593  26.551  28.158  1.00  0.00     0.029 A 
ATOM     37  N   UNL A   1      41.607  27.077  28.979  1.00  0.00    -0.354 N 
ATOM     38  C   UNL A   1      42.374  30.994  30.642  1.00  0.00     0.074 A 
ATOM     39  C   UNL A   1      41.174  31.804  30.638  1.00  0.00     0.031 C 
ATOM     40  C   UNL A   1      40.373  25.463  28.046  1.00  0.00     0.029 A 
ATOM     41  C   UNL A   1      41.714  25.785  28.524  1.00  0.00     0.049 A 
ATOM     42  H   UNL A   1      42.348  27.559  29.414  1.00  0.00     0.167 HD
ATOM     43  C   UNL A   1      43.565  31.393  31.148  1.00  0.00     0.031 A 
ATOM     44  C   UNL A   1      42.780  24.964  28.468  1.00  0.00     0.031 A 
ATOM     45  C   UNL A   1      44.754  30.581  31.150  1.00  0.00     0.049 A 
ATOM     46  C   UNL A   1      44.111  25.455  28.968  1.00  0.00     0.074 A 
ATOM     47  C   UNL A   1      46.011  30.895  31.637  1.00  0.00     0.029 A 
ATOM     48  N   UNL A   1      44.832  29.293  30.642  1.00  0.00    -0.354 N 
ATOM     49  N   UNL A   1      44.409  26.612  29.512  1.00  0.00    -0.248 NA
ATOM     50  C   UNL A   1      45.249  24.535  28.843  1.00  0.00     0.031 C 
ATOM     51  C   UNL A   1      46.860  29.812  31.383  1.00  0.00     0.029 A 
ATOM     52  C   UNL A   1      46.120  28.805  30.785  1.00  0.00     0.049 A 
ATOM     53  H   UNL A   1      44.081  28.798  30.240  1.00  0.00     0.167 HD
ATOM     54  C   UNL A   1      45.766  26.552  29.807  1.00  0.00     0.074 A 
ATOM     55  C   UNL A   1      46.227  25.240  29.397  1.00  0.00     0.031 C 
ATOM     56  C   UNL A   1      46.559  27.498  30.368  1.00  0.00     0.031 A 
BRANCH  43  57
ATOM     57  C   UNL A   1      43.652  32.790  31.699  1.00  0.00    -0.014 A 
ATOM     58  C   UNL A   1      43.386  33.060  33.053  1.00  0.00     0.010 A 
ATOM     59  C   UNL A   1      44.038  33.846  30.853  1.00  0.00     0.010 A 
ATOM     60  C   UNL A   1      43.467  34.366  33.542  1.00  0.00     0.020 A 
ATOM     61  C   UNL A   1      44.142  35.151  31.343  1.00  0.00     0.020 A 
ATOM     62  C   UNL A   1      43.839  35.405  32.682  1.00  0.00     0.054 A 
BRANCH  62  63
ATOM     63  S   UNL A   1      43.952  37.090  33.344  1.00  0.00     0.124 S 
ATOM     64  O   UNL A   1      43.849  37.898  32.132  1.00  0.00    -0.237 OA
ATOM     65  O   UNL A   1      42.804  37.161  34.245  1.00  0.00    -0.237 OA
ATOM     66  O   UNL A   1      45.256  37.117  34.001  1.00  0.00    -0.744 OA
ENDBRANCH  62  63
ENDBRANCH  43  57
BRANCH  44  67
ATOM     67  C   UNL A   1      42.640  23.607  27.873  1.00  0.00    -0.014 A 
ATOM     68  C   UNL A   1      42.286  22.508  28.673  1.00  0.00     0.010 A 
ATOM     69  C   UNL A   1      42.846  23.413  26.495  1.00  0.00     0.010 A 
ATOM     70  C   UNL A   1      42.149  21.236  28.107  1.00  0.00     0.020 A 
ATOM     71  C   UNL A   1      42.686  22.150  25.920  1.00  0.00     0.020 A 
ATOM     72  C   UNL A   1      42.348  21.066  26.733  1.00  0.00     0.054 A 
BRANCH  72  73
ATOM     73  S   UNL A   1      42.108  19.422  26.006  1.00  0.00     0.124 S 
ATOM     74  O   UNL A   1      42.933  19.497  24.805  1.00  0.00    -0.237 OA
ATOM     75  O   UNL A   1      42.599  18.535  27.057  1.00  0.00    -0.237 OA
ATOM     76  O   UNL A   1      40.666  19.360  25.773  1.00  0.00    -0.744 OA
ENDBRANCH  72  73
ENDBRANCH  44  67
BRANCH  56  77
ATOM     77  C   UNL A   1      48.002  27.140  30.594  1.00  0.00    -0.014 A 
ATOM     78  C   UNL A   1      48.978  27.401  29.615  1.00  0.00     0.010 A 
ATOM     79  C   UNL A   1      48.395  26.588  31.827  1.00  0.00     0.010 A 
ATOM     80  C   UNL A   1      50.318  27.091  29.856  1.00  0.00     0.020 A 
ATOM     81  C   UNL A   1      49.738  26.297  32.080  1.00  0.00     0.020 A 
ATOM     82  C   UNL A   1      50.689  26.540  31.087  1.00  0.00     0.054 A 
BRANCH  82  83
ATOM     83  S   UNL A   1      52.443  26.192  31.397  1.00  0.00     0.124 S 
ATOM     84  O   UNL A   1      52.811  27.272  32.308  1.00  0.00    -0.237 OA
ATOM     85  O   UNL A   1      52.409  24.856  31.987  1.00  0.00    -0.237 OA
ATOM     86  O   UNL A   1      53.048  26.263  30.069  1.00  0.00    -0.744 OA
ENDBRANCH  82  83
ENDBRANCH  56  77
ENDBRANCH  30  31
ENDBRANCH  23  25
ENDBRANCH  22  23
ENDBRANCH  21  22
ENDBRANCH   1  21
TORSDOF 18
ENDMDL
MODEL 2
REMARK VINA RESULT:      -8.9      3.255      8.953
REMARK SMILES CCN1CC(=O)N(C[C@@H]([NH3+])C(=O)OCCOC(=O)c2ccc(-c3c4nc(c(-c5ccc(S(=O)(=O)[O-])cc5)c5ccc([nH]5)c(-c5ccc(S(=O)(=O)[O-])cc5)c5nc(c(-c6ccc(S(=O)(=O)[O-])cc6)c6ccc3[nH]6)C=C5)C=C4)cc2)CC1=O
REMARK SMILES IDX 14 1 13 2 11 3 12 4 9 5 8 6 7 7 3 8 4 9 80 10 5 11 79 12
REMARK SMILES IDX 81 13 6 14 2 15 1 16 10 17 15 21 16 22 17 23 18 24 19 25
REMARK SMILES IDX 20 26 78 27 21 28 77 29 22 30 23 31 24 32 71 33 25 34 76 35
REMARK SMILES IDX 70 36 72 37 26 38 75 39 69 40 68 41 27 43 57 44 38 45 56 46
REMARK SMILES IDX 39 47 42 48 55 49 73 50 40 51 41 52 54 54 74 55 43 56 28 57
REMARK SMILES IDX 29 58 37 59 30 60 36 61 31 62 32 63 33 64 34 65 35 66 58 67
REMARK SMILES IDX 59 68 67 69 60 70 66 71 61 72 62 73 63 74 64 75 65 76 44 77
REMARK SMILES IDX 45 78 53 79 46 80 52 81 47 82 48 83 49 84 50 85 51 86
REMARK H PARENT 10 18 10 19 10 20 72 42 42 53
REMARK Flexibility Score: inf
ROOT
ATOM      1  C   UNL A   1      32.390  29.622  25.305  1.00  0.00     0.274 C 
ENDROOT
BRANCH   1   2
ATOM      2  O   UNL A   1      30.969  29.407  25.192  1.00  0.00    -0.458 OA
BRANCH   2   3
ATOM      3  C   UNL A   1      30.423  29.693  23.982  1.00  0.00     0.366 C 
ATOM      4  O   UNL A   1      29.442  30.415  23.814  1.00  0.00    -0.245 OA
BRANCH   3   5
ATOM      5  C   UNL A   1      31.089  28.965  22.801  1.00  0.00     0.311 C 
BRANCH   5   6
ATOM      6  C   UNL A   1      30.526  27.552  22.539  1.00  0.00     0.197 C 
BRANCH   6   7
ATOM      7  N   UNL A   1      31.506  26.463  22.695  1.00  0.00    -0.325 N 
ATOM      8  N   UNL A   1      32.833  24.007  22.616  1.00  0.00    -0.332 N 
ATOM      9  C   UNL A   1      32.717  24.702  23.907  1.00  0.00     0.219 C 
ATOM     10  C   UNL A   1      32.865  24.774  21.454  1.00  0.00     0.242 C 
ATOM     11  C   UNL A   1      31.688  25.839  23.922  1.00  0.00     0.242 C 
ATOM     12  C   UNL A   1      32.498  26.244  21.652  1.00  0.00     0.220 C 
ATOM     13  O   UNL A   1      33.278  24.385  20.364  1.00  0.00    -0.273 OA
ATOM     14  O   UNL A   1      31.175  26.239  24.963  1.00  0.00    -0.273 OA
BRANCH   8  15
ATOM     15  C   UNL A   1      33.233  22.598  22.675  1.00  0.00     0.116 C 
ATOM     16  C   UNL A   1      32.160  21.552  22.936  1.00  0.00     0.027 C 
ENDBRANCH   8  15
ENDBRANCH   6   7
ENDBRANCH   5   6
BRANCH   5  17
ATOM     17  N   UNL A   1      31.029  29.869  21.615  1.00  0.00    -0.344 N 
ATOM     18  H   UNL A   1      31.696  30.631  21.734  1.00  0.00     0.345 HD
ATOM     19  H   UNL A   1      30.088  30.251  21.527  1.00  0.00     0.345 HD
ATOM     20  H   UNL A   1      31.262  29.342  20.773  1.00  0.00     0.345 HD
ENDBRANCH   5  17
ENDBRANCH   3   5
ENDBRANCH   2   3
ENDBRANCH   1   2
BRANCH   1  21
ATOM     21  C   UNL A   1      32.751  30.456  26.538  1.00  0.00     0.275 C 
BRANCH  21  22
ATOM     22  O   UNL A   1      34.138  30.325  26.901  1.00  0.00    -0.458 OA
BRANCH  22  23
ATOM     23  C   UNL A   1      34.590  31.282  27.746  1.00  0.00     0.338 C 
ATOM     24  O   UNL A   1      33.993  32.284  28.101  1.00  0.00    -0.246 OA
BRANCH  23  25
ATOM     25  C   UNL A   1      35.879  30.871  28.321  1.00  0.00     0.060 A 
ATOM     26  C   UNL A   1      35.895  29.745  29.148  1.00  0.00     0.016 A 
ATOM     27  C   UNL A   1      37.039  31.623  28.129  1.00  0.00     0.016 A 
ATOM     28  C   UNL A   1      37.068  29.356  29.784  1.00  0.00     0.010 A 
ATOM     29  C   UNL A   1      38.218  31.236  28.776  1.00  0.00     0.010 A 
ATOM     30  C   UNL A   1      38.237  30.105  29.612  1.00  0.00    -0.014 A 
BRANCH  30  31
ATOM     31  C   UNL A   1      39.462  29.729  30.356  1.00  0.00     0.031 A 
ATOM     32  C   UNL A   1      40.325  28.609  29.852  1.00  0.00     0.074 A 
ATOM     33  C   UNL A   1      39.809  30.411  31.463  1.00  0.00     0.049 A 
ATOM     34  N   UNL A   1      41.380  28.069  30.405  1.00  0.00    -0.248 NA
ATOM     35  C   UNL A   1      39.955  28.021  28.555  1.00  0.00     0.031 C 
ATOM     36  C   UNL A   1      39.086  31.559  32.011  1.00  0.00     0.029 A 
ATOM     37  N   UNL A   1      40.862  30.236  32.324  1.00  0.00    -0.354 N 
ATOM     38  C   UNL A   1      41.785  27.060  29.540  1.00  0.00     0.074 A 
ATOM     39  C   UNL A   1      40.859  27.059  28.427  1.00  0.00     0.031 C 
ATOM     40  C   UNL A   1      39.717  31.986  33.117  1.00  0.00     0.029 A 
ATOM     41  C   UNL A   1      40.855  31.111  33.384  1.00  0.00     0.049 A 
ATOM     42  H   UNL A   1      41.556  29.549  32.197  1.00  0.00     0.167 HD
ATOM     43  C   UNL A   1      42.834  26.211  29.664  1.00  0.00     0.031 A 
ATOM     44  C   UNL A   1      41.654  31.179  34.466  1.00  0.00     0.031 A 
ATOM     45  C   UNL A   1      43.752  26.220  30.772  1.00  0.00     0.049 A 
ATOM     46  C   UNL A   1      42.767  30.179  34.619  1.00  0.00     0.074 A 
ATOM     47  C   UNL A   1      44.845  25.400  30.991  1.00  0.00     0.029 A 
ATOM     48  N   UNL A   1      43.686  27.095  31.846  1.00  0.00    -0.354 N 
ATOM     49  N   UNL A   1      43.125  29.215  33.804  1.00  0.00    -0.248 NA
ATOM     50  C   UNL A   1      43.581  30.273  35.838  1.00  0.00     0.031 C 
ATOM     51  C   UNL A   1      45.414  25.750  32.221  1.00  0.00     0.029 A 
ATOM     52  C   UNL A   1      44.706  26.821  32.742  1.00  0.00     0.049 A 
ATOM     53  H   UNL A   1      43.014  27.805  31.956  1.00  0.00     0.167 HD
ATOM     54  C   UNL A   1      44.214  28.596  34.405  1.00  0.00     0.074 A 
ATOM     55  C   UNL A   1      44.468  29.304  35.644  1.00  0.00     0.031 C 
ATOM     56  C   UNL A   1      44.940  27.536  33.971  1.00  0.00     0.031 A 
BRANCH  43  57
ATOM     57  C   UNL A   1      43.014  25.170  28.593  1.00  0.00    -0.014 A 
ATOM     58  C   UNL A   1      43.794  25.422  27.452  1.00  0.00     0.010 A 
ATOM     59  C   UNL A   1      42.416  23.906  28.749  1.00  0.00     0.010 A 
ATOM     60  C   UNL A   1      43.944  24.442  26.467  1.00  0.00     0.020 A 
ATOM     61  C   UNL A   1      42.580  22.914  27.777  1.00  0.00     0.020 A 
ATOM     62  C   UNL A   1      43.329  23.195  26.633  1.00  0.00     0.054 A 
BRANCH  62  63
ATOM     63  S   UNL A   1      43.550  21.934  25.348  1.00  0.00     0.124 S 
ATOM     64  O   UNL A   1      43.401  22.720  24.126  1.00  0.00    -0.237 OA
ATOM     65  O   UNL A   1      44.898  21.435  25.613  1.00  0.00    -0.237 OA
ATOM     66  O   UNL A   1      42.475  20.980  25.611  1.00  0.00    -0.744 OA
ENDBRANCH  62  63
ENDBRANCH  43  57
BRANCH  44  67
ATOM     67  C   UNL A   1      41.400  32.207  35.511  1.00  0.00    -0.014 A 
ATOM     68  C   UNL A   1      40.497  31.956  36.559  1.00  0.00     0.010 A 
ATOM     69  C   UNL A   1      42.076  33.440  35.470  1.00  0.00     0.010 A 
ATOM     70  C   UNL A   1      40.268  32.924  37.541  1.00  0.00     0.020 A 
ATOM     71  C   UNL A   1      41.869  34.400  36.464  1.00  0.00     0.020 A 
ATOM     72  C   UNL A   1      40.957  34.140  37.489  1.00  0.00     0.054 A 
BRANCH  72  73
ATOM     73  S   UNL A   1      40.693  35.359  38.805  1.00  0.00     0.124 S 
ATOM     74  O   UNL A   1      40.859  34.549  40.007  1.00  0.00    -0.237 OA
ATOM     75  O   UNL A   1      41.748  36.336  38.550  1.00  0.00    -0.237 OA
ATOM     76  O   UNL A   1      39.336  35.841  38.556  1.00  0.00    -0.744 OA
ENDBRANCH  72  73
ENDBRANCH  44  67
BRANCH  56  77
ATOM     77  C   UNL A   1      46.094  27.094  34.828  1.00  0.00    -0.014 A 
ATOM     78  C   UNL A   1      47.375  27.651  34.666  1.00  0.00     0.010 A 
ATOM     79  C   UNL A   1      45.879  26.148  35.847  1.00  0.00     0.010 A 
ATOM     80  C   UNL A   1      48.427  27.251  35.493  1.00  0.00     0.020 A 
ATOM     81  C   UNL A   1      46.924  25.762  36.690  1.00  0.00     0.020 A 
ATOM     82  C   UNL A   1      48.194  26.308  36.499  1.00  0.00     0.054 A 
BRANCH  82  83
ATOM     83  S   UNL A   1      49.564  25.840  37.593  1.00  0.00     0.124 S 
ATOM     84  O   UNL A   1      49.805  24.454  37.203  1.00  0.00    -0.237 OA
ATOM     85  O   UNL A   1      50.613  26.789  37.224  1.00  0.00    -0.237 OA
ATOM     86  O   UNL A   1      49.013  26.024  38.934  1.00  0.00    -0.744 OA
ENDBRANCH  82  83
ENDBRANCH  56  77
ENDBRANCH  30  31
ENDBRANCH  23  25
ENDBRANCH  22  23
ENDBRANCH  21  22
ENDBRANCH   1  21
TORSDOF 18
ENDMDL
MODEL 3
REMARK VINA RESULT:      -8.8      5.542     10.999
REMARK SMILES CCN1CC(=O)N(C[C@@H]([NH3+])C(=O)OCCOC(=O)c2ccc(-c3c4nc(c(-c5ccc(S(=O)(=O)[O-])cc5)c5ccc([nH]5)c(-c5ccc(S(=O)(=O)[O-])cc5)c5nc(c(-c6ccc(S(=O)(=O)[O-])cc6)c6ccc3[nH]6)C=C5)C=C4)cc2)CC1=O
REMARK SMILES IDX 14 1 13 2 11 3 12 4 9 5 8 6 7 7 3 8 4 9 80 10 5 11 79 12
REMARK SMILES IDX 81 13 6 14 2 15 1 16 10 17 15 21 16 22 17 23 18 24 19 25
REMARK SMILES IDX 20 26 78 27 21 28 77 29 22 30 23 31 24 32 71 33 25 34 76 35
REMARK SMILES IDX 70 36 72 37 26 38 75 39 69 40 68 41 27 43 57 44 38 45 56 46
REMARK SMILES IDX 39 47 42 48 55 49 73 50 40 51 41 52 54 54 74 55 43 56 28 57
REMARK SMILES IDX 29 58 37 59 30 60 36 61 31 62 32 63 33 64 34 65 35 66 58 67
REMARK SMILES IDX 59 68 67 69 60 70 66 71 61 72 62 73 63 74 64 75 65 76 44 77
REMARK SMILES IDX 45 78 53 79 46 80 52 81 47 82 48 83 49 84 50 85 51 86
REMARK H PARENT 10 18 10 19 10 20 72 42 42 53
REMARK Flexibility Score: inf
ROOT
ATOM      1  C   UNL A   1      42.342  22.640  25.556  1.00  0.00     0.274 C 
ENDROOT
BRANCH   1   2
ATOM      2  O   UNL A   1      42.992  21.405  25.918  1.00  0.00    -0.458 OA
BRANCH   2   3
ATOM      3  C   UNL A   1      44.058  21.054  25.153  1.00  0.00     0.366 C 
ATOM      4  O   UNL A   1      44.553  19.929  25.126  1.00  0.00    -0.245 OA
BRANCH   3   5
ATOM      5  C   UNL A   1      44.675  22.217  24.357  1.00  0.00     0.311 C 
BRANCH   5   6
ATOM      6  C   UNL A   1      46.086  22.622  24.833  1.00  0.00     0.197 C 
BRANCH   6   7
ATOM      7  N   UNL A   1      46.155  23.935  25.497  1.00  0.00    -0.325 N 
ATOM      8  N   UNL A   1      45.566  26.467  26.521  1.00  0.00    -0.332 N 
ATOM      9  C   UNL A   1      46.784  26.301  25.713  1.00  0.00     0.219 C 
ATOM     10  C   UNL A   1      45.104  25.372  27.249  1.00  0.00     0.242 C 
ATOM     11  C   UNL A   1      46.838  24.994  24.913  1.00  0.00     0.242 C 
ATOM     12  C   UNL A   1      45.775  24.046  26.898  1.00  0.00     0.220 C 
ATOM     13  O   UNL A   1      44.325  25.436  28.197  1.00  0.00    -0.273 OA
ATOM     14  O   UNL A   1      47.538  24.873  23.911  1.00  0.00    -0.273 OA
BRANCH   8  15
ATOM     15  C   UNL A   1      45.127  27.845  26.753  1.00  0.00     0.116 C 
ATOM     16  C   UNL A   1      46.127  28.833  27.335  1.00  0.00     0.027 C 
ENDBRANCH   8  15
ENDBRANCH   6   7
ENDBRANCH   5   6
BRANCH   5  17
ATOM     17  N   UNL A   1      44.603  21.867  22.908  1.00  0.00    -0.344 N 
ATOM     18  H   UNL A   1      43.634  21.915  22.594  1.00  0.00     0.345 HD
ATOM     19  H   UNL A   1      44.959  20.921  22.769  1.00  0.00     0.345 HD
ATOM     20  H   UNL A   1      45.168  22.525  22.371  1.00  0.00     0.345 HD
ENDBRANCH   5  17
ENDBRANCH   3   5
ENDBRANCH   2   3
ENDBRANCH   1   2
BRANCH   1  21
ATOM     21  C   UNL A   1      41.903  23.442  26.785  1.00  0.00     0.275 C 
BRANCH  21  22
ATOM     22  O   UNL A   1      40.737  24.246  26.526  1.00  0.00    -0.458 OA
BRANCH  22  23
ATOM     23  C   UNL A   1      41.005  25.532  26.195  1.00  0.00     0.338 C 
ATOM     24  O   UNL A   1      41.292  25.957  25.090  1.00  0.00    -0.246 OA
BRANCH  23  25
ATOM     25  C   UNL A   1      40.751  26.407  27.350  1.00  0.00     0.060 A 
ATOM     26  C   UNL A   1      41.537  27.554  27.483  1.00  0.00     0.016 A 
ATOM     27  C   UNL A   1      39.822  26.069  28.334  1.00  0.00     0.016 A 
ATOM     28  C   UNL A   1      41.399  28.376  28.595  1.00  0.00     0.010 A 
ATOM     29  C   UNL A   1      39.687  26.892  29.458  1.00  0.00     0.010 A 
ATOM     30  C   UNL A   1      40.480  28.046  29.597  1.00  0.00    -0.014 A 
BRANCH  30  31
ATOM     31  C   UNL A   1      40.394  28.884  30.816  1.00  0.00     0.031 A 
ATOM     32  C   UNL A   1      39.371  29.980  30.897  1.00  0.00     0.074 A 
ATOM     33  C   UNL A   1      41.215  28.641  31.855  1.00  0.00     0.049 A 
ATOM     34  N   UNL A   1      39.198  30.879  31.830  1.00  0.00    -0.248 NA
ATOM     35  C   UNL A   1      38.416  30.076  29.781  1.00  0.00     0.031 C 
ATOM     36  C   UNL A   1      42.203  27.563  31.919  1.00  0.00     0.029 A 
ATOM     37  N   UNL A   1      41.345  29.287  33.058  1.00  0.00    -0.354 N 
ATOM     38  C   UNL A   1      38.134  31.665  31.405  1.00  0.00     0.074 A 
ATOM     39  C   UNL A   1      37.705  31.140  30.126  1.00  0.00     0.031 C 
ATOM     40  C   UNL A   1      42.838  27.623  33.101  1.00  0.00     0.029 A 
ATOM     41  C   UNL A   1      42.340  28.771  33.853  1.00  0.00     0.049 A 
ATOM     42  H   UNL A   1      40.780  30.047  33.327  1.00  0.00     0.167 HD
ATOM     43  C   UNL A   1      37.568  32.728  32.026  1.00  0.00     0.031 A 
ATOM     44  C   UNL A   1      42.820  29.195  35.038  1.00  0.00     0.031 A 
ATOM     45  C   UNL A   1      37.999  33.241  33.300  1.00  0.00     0.049 A 
ATOM     46  C   UNL A   1      42.226  30.421  35.673  1.00  0.00     0.074 A 
ATOM     47  C   UNL A   1      37.493  34.315  34.011  1.00  0.00     0.029 A 
ATOM     48  N   UNL A   1      39.039  32.717  34.053  1.00  0.00    -0.354 N 
ATOM     49  N   UNL A   1      41.234  31.170  35.248  1.00  0.00    -0.248 NA
ATOM     50  C   UNL A   1      42.816  30.865  36.943  1.00  0.00     0.031 C 
ATOM     51  C   UNL A   1      38.255  34.466  35.175  1.00  0.00     0.029 A 
ATOM     52  C   UNL A   1      39.203  33.456  35.213  1.00  0.00     0.049 A 
ATOM     53  H   UNL A   1      39.579  31.933  33.801  1.00  0.00     0.167 HD
ATOM     54  C   UNL A   1      41.074  32.163  36.206  1.00  0.00     0.074 A 
ATOM     55  C   UNL A   1      42.057  31.912  37.240  1.00  0.00     0.031 C 
ATOM     56  C   UNL A   1      40.190  33.191  36.228  1.00  0.00     0.031 A 
BRANCH  43  57
ATOM     57  C   UNL A   1      36.450  33.435  31.310  1.00  0.00    -0.014 A 
ATOM     58  C   UNL A   1      35.230  33.710  31.951  1.00  0.00     0.010 A 
ATOM     59  C   UNL A   1      36.637  33.859  29.981  1.00  0.00     0.010 A 
ATOM     60  C   UNL A   1      34.202  34.363  31.265  1.00  0.00     0.020 A 
ATOM     61  C   UNL A   1      35.621  34.532  29.298  1.00  0.00     0.020 A 
ATOM     62  C   UNL A   1      34.402  34.765  29.939  1.00  0.00     0.054 A 
BRANCH  62  63
ATOM     63  S   UNL A   1      33.059  35.624  29.074  1.00  0.00     0.124 S 
ATOM     64  O   UNL A   1      32.207  36.045  30.184  1.00  0.00    -0.237 OA
ATOM     65  O   UNL A   1      33.761  36.701  28.378  1.00  0.00    -0.237 OA
ATOM     66  O   UNL A   1      32.491  34.595  28.207  1.00  0.00    -0.744 OA
ENDBRANCH  62  63
ENDBRANCH  43  57
BRANCH  44  67
ATOM     67  C   UNL A   1      43.955  28.476  35.677  1.00  0.00    -0.014 A 
ATOM     68  C   UNL A   1      43.721  27.430  36.585  1.00  0.00     0.010 A 
ATOM     69  C   UNL A   1      45.282  28.829  35.366  1.00  0.00     0.010 A 
ATOM     70  C   UNL A   1      44.793  26.754  37.177  1.00  0.00     0.020 A 
ATOM     71  C   UNL A   1      46.356  28.141  35.935  1.00  0.00     0.020 A 
ATOM     72  C   UNL A   1      46.104  27.113  36.846  1.00  0.00     0.054 A 
BRANCH  72  73
ATOM     73  S   UNL A   1      47.481  26.186  37.577  1.00  0.00     0.124 S 
ATOM     74  O   UNL A   1      47.890  25.327  36.471  1.00  0.00    -0.237 OA
ATOM     75  O   UNL A   1      48.420  27.244  37.938  1.00  0.00    -0.237 OA
ATOM     76  O   UNL A   1      46.865  25.498  38.711  1.00  0.00    -0.744 OA
ENDBRANCH  72  73
ENDBRANCH  44  67
BRANCH  56  77
ATOM     77  C   UNL A   1      40.229  34.108  37.420  1.00  0.00    -0.014 A 
ATOM     78  C   UNL A   1      41.015  35.274  37.414  1.00  0.00     0.010 A 
ATOM     79  C   UNL A   1      39.424  33.826  38.539  1.00  0.00     0.010 A 
ATOM     80  C   UNL A   1      41.014  36.130  38.518  1.00  0.00     0.020 A 
ATOM     81  C   UNL A   1      39.404  34.691  39.635  1.00  0.00     0.020 A 
ATOM     82  C   UNL A   1      40.209  35.832  39.622  1.00  0.00     0.054 A 
BRANCH  82  83
ATOM     83  S   UNL A   1      40.185  36.984  41.024  1.00  0.00     0.124 S 
ATOM     84  O   UNL A   1      41.343  36.544  41.798  1.00  0.00    -0.237 OA
ATOM     85  O   UNL A   1      40.321  38.286  40.375  1.00  0.00    -0.237 OA
ATOM     86  O   UNL A   1      38.887  36.740  41.650  1.00  0.00    -0.744 OA
ENDBRANCH  82  83
ENDBRANCH  56  77
ENDBRANCH  30  31
ENDBRANCH  23  25
ENDBRANCH  22  23
ENDBRANCH  21  22
ENDBRANCH   1  21
TORSDOF 18
ENDMDL
