MODEL 1
REMARK VINA RESULT:      -9.9      0.000      0.000
REMARK SMILES NC(=O)N[C@@H](Cc1ccc2c(c1)CCCC2)C(=O)OCCOC(=O)c1ccc(-c2c3nc(c(-c4ccc(S(=O)(=O)[O-])cc4)c4ccc([nH]4)c(-c4ccc(S(=O)(=O)[O-])cc4)c4nc(c(-c5ccc(S(=O)(=O)[O-])cc5)c5ccc2[nH]5)C=C4)C=C3)cc1
REMARK SMILES IDX 21 1 20 2 19 3 17 4 18 5 5 6 4 7 1 8 2 9 3 12 6 14 7 15 8 16
REMARK SMILES IDX 12 17 9 18 11 19 10 20 13 21 16 22 14 23 15 24 22 25 23 26
REMARK SMILES IDX 24 27 25 28 26 29 84 30 27 31 83 32 28 33 29 34 30 35 77 36
REMARK SMILES IDX 31 37 82 38 76 39 78 40 32 41 81 42 75 43 74 44 33 46 63 47
REMARK SMILES IDX 44 48 62 49 45 50 48 51 61 52 79 53 46 54 47 55 60 57 80 58
REMARK SMILES IDX 49 59 34 60 35 61 43 62 36 63 42 64 37 65 38 66 39 67 40 68
REMARK SMILES IDX 41 69 64 70 65 71 73 72 66 73 72 74 67 75 68 76 69 77 70 78
REMARK SMILES IDX 71 79 50 80 51 81 59 82 52 83 58 84 53 85 54 86 55 87 56 88
REMARK SMILES IDX 57 89
REMARK H PARENT 1 10 1 11 4 13 78 45 48 56
REMARK Flexibility Score: inf
ROOT
ATOM      1  C   UNL A   1      39.267  20.764  25.908  1.00  0.00     0.275 C 
ENDROOT
BRANCH   1   2
ATOM      2  C   UNL A   1      40.352  19.716  26.148  1.00  0.00     0.274 C 
BRANCH   2   3
ATOM      3  O   UNL A   1      41.596  20.375  26.450  1.00  0.00    -0.461 OA
BRANCH   3   4
ATOM      4  C   UNL A   1      42.709  19.918  25.813  1.00  0.00     0.329 C 
ATOM      5  O   UNL A   1      42.865  18.775  25.400  1.00  0.00    -0.250 OA
BRANCH   4   6
ATOM      6  C   UNL A   1      43.797  21.001  25.709  1.00  0.00     0.198 C 
BRANCH   6   7
ATOM      7  N   UNL A   1      44.905  20.659  24.808  1.00  0.00    -0.324 N 
ATOM      8  N   UNL A   1      45.922  18.966  26.003  1.00  0.00    -0.352 N 
ATOM      9  C   UNL A   1      45.935  19.808  24.957  1.00  0.00     0.312 C 
ATOM     10  H   UNL A   1      46.665  18.333  26.135  1.00  0.00     0.161 HD
ATOM     11  H   UNL A   1      45.170  18.981  26.637  1.00  0.00     0.161 HD
ATOM     12  O   UNL A   1      46.867  19.805  24.162  1.00  0.00    -0.249 OA
ATOM     13  H   UNL A   1      44.892  21.136  23.947  1.00  0.00     0.166 HD
ENDBRANCH   6   7
BRANCH   6  14
ATOM     14  C   UNL A   1      43.157  22.358  25.359  1.00  0.00     0.072 C 
BRANCH  14  15
ATOM     15  C   UNL A   1      43.909  23.624  25.725  1.00  0.00    -0.045 A 
ATOM     16  C   UNL A   1      43.818  24.814  24.998  1.00  0.00     0.004 A 
ATOM     17  C   UNL A   1      44.756  23.598  26.842  1.00  0.00     0.007 A 
ATOM     18  C   UNL A   1      44.460  25.973  25.435  1.00  0.00     0.004 A 
ATOM     19  C   UNL A   1      45.449  24.744  27.263  1.00  0.00    -0.045 A 
ATOM     20  C   UNL A   1      45.257  25.957  26.582  1.00  0.00    -0.045 A 
ATOM     21  C   UNL A   1      46.346  24.654  28.472  1.00  0.00     0.036 C 
ATOM     22  C   UNL A   1      45.932  27.232  27.017  1.00  0.00     0.036 C 
ATOM     23  C   UNL A   1      47.306  25.839  28.580  1.00  0.00     0.005 C 
ATOM     24  C   UNL A   1      46.543  27.147  28.414  1.00  0.00     0.005 C 
ENDBRANCH  14  15
ENDBRANCH   6  14
ENDBRANCH   4   6
ENDBRANCH   3   4
ENDBRANCH   2   3
ENDBRANCH   1   2
BRANCH   1  25
ATOM     25  O   UNL A   1      39.810  22.080  26.113  1.00  0.00    -0.458 OA
BRANCH  25  26
ATOM     26  C   UNL A   1      38.946  23.096  25.869  1.00  0.00     0.338 C 
ATOM     27  O   UNL A   1      37.916  23.059  25.224  1.00  0.00    -0.246 OA
BRANCH  26  28
ATOM     28  C   UNL A   1      39.378  24.256  26.654  1.00  0.00     0.060 A 
ATOM     29  C   UNL A   1      38.873  24.404  27.947  1.00  0.00     0.016 A 
ATOM     30  C   UNL A   1      40.244  25.204  26.116  1.00  0.00     0.016 A 
ATOM     31  C   UNL A   1      39.216  25.509  28.713  1.00  0.00     0.010 A 
ATOM     32  C   UNL A   1      40.623  26.295  26.902  1.00  0.00     0.010 A 
ATOM     33  C   UNL A   1      40.111  26.455  28.203  1.00  0.00    -0.014 A 
BRANCH  33  34
ATOM     34  C   UNL A   1      40.528  27.608  29.036  1.00  0.00     0.031 A 
ATOM     35  C   UNL A   1      41.815  27.549  29.804  1.00  0.00     0.074 A 
ATOM     36  C   UNL A   1      39.735  28.694  29.108  1.00  0.00     0.049 A 
ATOM     37  N   UNL A   1      42.271  28.373  30.709  1.00  0.00    -0.248 NA
ATOM     38  C   UNL A   1      42.705  26.412  29.518  1.00  0.00     0.031 C 
ATOM     39  C   UNL A   1      38.490  28.886  28.359  1.00  0.00     0.029 A 
ATOM     40  N   UNL A   1      39.852  29.837  29.855  1.00  0.00    -0.354 N 
ATOM     41  C   UNL A   1      43.482  27.839  31.130  1.00  0.00     0.074 A 
ATOM     42  C   UNL A   1      43.690  26.618  30.383  1.00  0.00     0.031 C 
ATOM     43  C   UNL A   1      37.962  30.077  28.682  1.00  0.00     0.029 A 
ATOM     44  C   UNL A   1      38.787  30.696  29.713  1.00  0.00     0.049 A 
ATOM     45  H   UNL A   1      40.624  30.026  30.436  1.00  0.00     0.167 HD
ATOM     46  C   UNL A   1      44.335  28.324  32.064  1.00  0.00     0.031 A 
ATOM     47  C   UNL A   1      38.480  31.827  30.376  1.00  0.00     0.031 A 
ATOM     48  C   UNL A   1      44.112  29.540  32.801  1.00  0.00     0.049 A 
ATOM     49  C   UNL A   1      39.398  32.297  31.468  1.00  0.00     0.074 A 
ATOM     50  C   UNL A   1      44.916  30.125  33.762  1.00  0.00     0.029 A 
ATOM     51  N   UNL A   1      42.997  30.355  32.661  1.00  0.00    -0.354 N 
ATOM     52  N   UNL A   1      40.531  31.772  31.872  1.00  0.00    -0.248 NA
ATOM     53  C   UNL A   1      38.989  33.498  32.206  1.00  0.00     0.031 C 
ATOM     54  C   UNL A   1      44.262  31.266  34.242  1.00  0.00     0.029 A 
ATOM     55  C   UNL A   1      43.076  31.421  33.541  1.00  0.00     0.049 A 
ATOM     56  H   UNL A   1      42.258  30.199  32.029  1.00  0.00     0.167 HD
ATOM     57  C   UNL A   1      40.974  32.584  32.909  1.00  0.00     0.074 A 
ATOM     58  C   UNL A   1      40.000  33.647  33.053  1.00  0.00     0.031 C 
ATOM     59  C   UNL A   1      42.085  32.458  33.677  1.00  0.00     0.031 A 
BRANCH  46  60
ATOM     60  C   UNL A   1      45.561  27.510  32.376  1.00  0.00    -0.014 A 
ATOM     61  C   UNL A   1      45.509  26.411  33.252  1.00  0.00     0.010 A 
ATOM     62  C   UNL A   1      46.783  27.835  31.757  1.00  0.00     0.010 A 
ATOM     63  C   UNL A   1      46.664  25.674  33.530  1.00  0.00     0.020 A 
ATOM     64  C   UNL A   1      47.934  27.085  32.014  1.00  0.00     0.020 A 
ATOM     65  C   UNL A   1      47.871  26.019  32.913  1.00  0.00     0.054 A 
BRANCH  65  66
ATOM     66  S   UNL A   1      49.352  25.035  33.278  1.00  0.00     0.124 S 
ATOM     67  O   UNL A   1      49.906  24.819  31.945  1.00  0.00    -0.237 OA
ATOM     68  O   UNL A   1      50.122  25.926  34.142  1.00  0.00    -0.237 OA
ATOM     69  O   UNL A   1      48.822  23.841  33.934  1.00  0.00    -0.744 OA
ENDBRANCH  65  66
ENDBRANCH  46  60
BRANCH  47  70
ATOM     70  C   UNL A   1      37.218  32.551  30.063  1.00  0.00    -0.014 A 
ATOM     71  C   UNL A   1      36.054  32.318  30.813  1.00  0.00     0.010 A 
ATOM     72  C   UNL A   1      37.184  33.501  29.024  1.00  0.00     0.010 A 
ATOM     73  C   UNL A   1      34.877  33.018  30.527  1.00  0.00     0.020 A 
ATOM     74  C   UNL A   1      36.019  34.222  28.754  1.00  0.00     0.020 A 
ATOM     75  C   UNL A   1      34.869  33.968  29.502  1.00  0.00     0.054 A 
BRANCH  75  76
ATOM     76  S   UNL A   1      33.350  34.911  29.192  1.00  0.00     0.124 S 
ATOM     77  O   UNL A   1      32.669  34.074  28.211  1.00  0.00    -0.237 OA
ATOM     78  O   UNL A   1      32.735  34.964  30.516  1.00  0.00    -0.237 OA
ATOM     79  O   UNL A   1      33.842  36.194  28.691  1.00  0.00    -0.744 OA
ENDBRANCH  75  76
ENDBRANCH  47  70
BRANCH  59  80
ATOM     80  C   UNL A   1      42.305  33.503  34.735  1.00  0.00    -0.014 A 
ATOM     81  C   UNL A   1      42.939  34.720  34.428  1.00  0.00     0.010 A 
ATOM     82  C   UNL A   1      41.830  33.284  36.040  1.00  0.00     0.010 A 
ATOM     83  C   UNL A   1      43.115  35.691  35.415  1.00  0.00     0.020 A 
ATOM     84  C   UNL A   1      41.981  34.264  37.023  1.00  0.00     0.020 A 
ATOM     85  C   UNL A   1      42.636  35.457  36.707  1.00  0.00     0.054 A 
BRANCH  85  86
ATOM     86  S   UNL A   1      42.834  36.753  37.960  1.00  0.00     0.124 S 
ATOM     87  O   UNL A   1      43.601  36.062  38.993  1.00  0.00    -0.237 OA
ATOM     88  O   UNL A   1      43.554  37.796  37.233  1.00  0.00    -0.237 OA
ATOM     89  O   UNL A   1      41.461  37.094  38.326  1.00  0.00    -0.744 OA
ENDBRANCH  85  86
ENDBRANCH  59  80
ENDBRANCH  33  34
ENDBRANCH  26  28
ENDBRANCH  25  26
ENDBRANCH   1  25
TORSDOF 17
ENDMDL
MODEL 2
REMARK VINA RESULT:      -9.9      2.374      3.300
REMARK SMILES NC(=O)N[C@@H](Cc1ccc2c(c1)CCCC2)C(=O)OCCOC(=O)c1ccc(-c2c3nc(c(-c4ccc(S(=O)(=O)[O-])cc4)c4ccc([nH]4)c(-c4ccc(S(=O)(=O)[O-])cc4)c4nc(c(-c5ccc(S(=O)(=O)[O-])cc5)c5ccc2[nH]5)C=C4)C=C3)cc1
REMARK SMILES IDX 21 1 20 2 19 3 17 4 18 5 5 6 4 7 1 8 2 9 3 12 6 14 7 15 8 16
REMARK SMILES IDX 12 17 9 18 11 19 10 20 13 21 16 22 14 23 15 24 22 25 23 26
REMARK SMILES IDX 24 27 25 28 26 29 84 30 27 31 83 32 28 33 29 34 30 35 77 36
REMARK SMILES IDX 31 37 82 38 76 39 78 40 32 41 81 42 75 43 74 44 33 46 63 47
REMARK SMILES IDX 44 48 62 49 45 50 48 51 61 52 79 53 46 54 47 55 60 57 80 58
REMARK SMILES IDX 49 59 34 60 35 61 43 62 36 63 42 64 37 65 38 66 39 67 40 68
REMARK SMILES IDX 41 69 64 70 65 71 73 72 66 73 72 74 67 75 68 76 69 77 70 78
REMARK SMILES IDX 71 79 50 80 51 81 59 82 52 83 58 84 53 85 54 86 55 87 56 88
REMARK SMILES IDX 57 89
REMARK H PARENT 1 10 1 11 4 13 78 45 48 56
REMARK Flexibility Score: inf
ROOT
ATOM      1  C   UNL A   1      38.717  23.505  26.007  1.00  0.00     0.275 C 
ENDROOT
BRANCH   1   2
ATOM      2  C   UNL A   1      38.725  21.980  26.084  1.00  0.00     0.274 C 
BRANCH   2   3
ATOM      3  O   UNL A   1      39.911  21.540  26.771  1.00  0.00    -0.461 OA
BRANCH   3   4
ATOM      4  C   UNL A   1      40.594  20.498  26.221  1.00  0.00     0.329 C 
ATOM      5  O   UNL A   1      40.081  19.508  25.714  1.00  0.00    -0.250 OA
BRANCH   4   6
ATOM      6  C   UNL A   1      42.117  20.676  26.354  1.00  0.00     0.198 C 
BRANCH   6   7
ATOM      7  N   UNL A   1      42.906  19.794  25.484  1.00  0.00    -0.324 N 
ATOM      8  N   UNL A   1      43.434  18.099  26.959  1.00  0.00    -0.352 N 
ATOM      9  C   UNL A   1      43.592  18.669  25.754  1.00  0.00     0.312 C 
ATOM     10  H   UNL A   1      43.925  17.275  27.182  1.00  0.00     0.161 HD
ATOM     11  H   UNL A   1      42.827  18.504  27.620  1.00  0.00     0.161 HD
ATOM     12  O   UNL A   1      44.348  18.181  24.923  1.00  0.00    -0.249 OA
ATOM     13  H   UNL A   1      42.939  20.075  24.541  1.00  0.00     0.166 HD
ENDBRANCH   6   7
BRANCH   6  14
ATOM     14  C   UNL A   1      42.491  22.160  26.174  1.00  0.00     0.072 C 
BRANCH  14  15
ATOM     15  C   UNL A   1      42.996  22.926  27.382  1.00  0.00    -0.045 A 
ATOM     16  C   UNL A   1      42.844  22.482  28.698  1.00  0.00     0.004 A 
ATOM     17  C   UNL A   1      43.635  24.157  27.172  1.00  0.00     0.007 A 
ATOM     18  C   UNL A   1      43.410  23.185  29.763  1.00  0.00     0.004 A 
ATOM     19  C   UNL A   1      44.164  24.900  28.239  1.00  0.00    -0.045 A 
ATOM     20  C   UNL A   1      44.097  24.381  29.542  1.00  0.00    -0.045 A 
ATOM     21  C   UNL A   1      44.839  26.217  27.950  1.00  0.00     0.036 C 
ATOM     22  C   UNL A   1      44.692  25.106  30.721  1.00  0.00     0.036 C 
ATOM     23  C   UNL A   1      45.018  27.072  29.205  1.00  0.00     0.005 C 
ATOM     24  C   UNL A   1      45.634  26.240  30.322  1.00  0.00     0.005 C 
ENDBRANCH  14  15
ENDBRANCH   6  14
ENDBRANCH   4   6
ENDBRANCH   3   4
ENDBRANCH   2   3
ENDBRANCH   1   2
BRANCH   1  25
ATOM     25  O   UNL A   1      39.771  24.037  26.830  1.00  0.00    -0.458 OA
BRANCH  25  26
ATOM     26  C   UNL A   1      40.377  25.142  26.332  1.00  0.00     0.338 C 
ATOM     27  O   UNL A   1      40.728  25.349  25.186  1.00  0.00    -0.246 OA
BRANCH  26  28
ATOM     28  C   UNL A   1      40.413  26.154  27.393  1.00  0.00     0.060 A 
ATOM     29  C   UNL A   1      39.573  25.986  28.494  1.00  0.00     0.016 A 
ATOM     30  C   UNL A   1      41.239  27.270  27.291  1.00  0.00     0.016 A 
ATOM     31  C   UNL A   1      39.537  26.940  29.502  1.00  0.00     0.010 A 
ATOM     32  C   UNL A   1      41.234  28.210  28.325  1.00  0.00     0.010 A 
ATOM     33  C   UNL A   1      40.383  28.052  29.435  1.00  0.00    -0.014 A 
BRANCH  33  34
ATOM     34  C   UNL A   1      40.394  29.045  30.535  1.00  0.00     0.031 A 
ATOM     35  C   UNL A   1      41.343  28.878  31.684  1.00  0.00     0.074 A 
ATOM     36  C   UNL A   1      39.536  30.082  30.498  1.00  0.00     0.049 A 
ATOM     37  N   UNL A   1      41.393  29.537  32.811  1.00  0.00    -0.248 NA
ATOM     38  C   UNL A   1      42.370  27.832  31.550  1.00  0.00     0.031 C 
ATOM     39  C   UNL A   1      38.609  30.378  29.402  1.00  0.00     0.029 A 
ATOM     40  N   UNL A   1      39.296  31.076  31.412  1.00  0.00    -0.354 N 
ATOM     41  C   UNL A   1      42.429  28.964  33.538  1.00  0.00     0.074 A 
ATOM     42  C   UNL A   1      42.980  27.902  32.725  1.00  0.00     0.031 C 
ATOM     43  C   UNL A   1      37.905  31.479  29.707  1.00  0.00     0.029 A 
ATOM     44  C   UNL A   1      38.275  31.922  31.046  1.00  0.00     0.049 A 
ATOM     45  H   UNL A   1      39.805  31.175  32.249  1.00  0.00     0.167 HD
ATOM     46  C   UNL A   1      42.869  29.292  34.776  1.00  0.00     0.031 A 
ATOM     47  C   UNL A   1      37.666  32.908  31.732  1.00  0.00     0.031 A 
ATOM     48  C   UNL A   1      42.307  30.351  35.573  1.00  0.00     0.049 A 
ATOM     49  C   UNL A   1      38.115  33.194  33.137  1.00  0.00     0.074 A 
ATOM     50  C   UNL A   1      42.684  30.772  36.836  1.00  0.00     0.029 A 
ATOM     51  N   UNL A   1      41.243  31.152  35.186  1.00  0.00    -0.354 N 
ATOM     52  N   UNL A   1      39.083  32.632  33.822  1.00  0.00    -0.248 NA
ATOM     53  C   UNL A   1      37.380  34.234  33.868  1.00  0.00     0.031 C 
ATOM     54  C   UNL A   1      41.813  31.793  37.233  1.00  0.00     0.029 A 
ATOM     55  C   UNL A   1      40.928  32.044  36.196  1.00  0.00     0.049 A 
ATOM     56  H   UNL A   1      40.779  31.095  34.318  1.00  0.00     0.167 HD
ATOM     57  C   UNL A   1      39.077  33.254  35.064  1.00  0.00     0.074 A 
ATOM     58  C   UNL A   1      38.026  34.251  35.026  1.00  0.00     0.031 C 
ATOM     59  C   UNL A   1      39.867  33.017  36.141  1.00  0.00     0.031 A 
BRANCH  46  60
ATOM     60  C   UNL A   1      43.979  28.463  35.362  1.00  0.00    -0.014 A 
ATOM     61  C   UNL A   1      45.330  28.815  35.186  1.00  0.00     0.010 A 
ATOM     62  C   UNL A   1      43.663  27.326  36.129  1.00  0.00     0.010 A 
ATOM     63  C   UNL A   1      46.343  28.025  35.736  1.00  0.00     0.020 A 
ATOM     64  C   UNL A   1      44.673  26.547  36.701  1.00  0.00     0.020 A 
ATOM     65  C   UNL A   1      46.008  26.893  36.487  1.00  0.00     0.054 A 
BRANCH  65  66
ATOM     66  S   UNL A   1      47.343  25.894  37.204  1.00  0.00     0.124 S 
ATOM     67  O   UNL A   1      48.525  26.675  36.852  1.00  0.00    -0.237 OA
ATOM     68  O   UNL A   1      47.001  25.876  38.624  1.00  0.00    -0.237 OA
ATOM     69  O   UNL A   1      47.219  24.608  36.521  1.00  0.00    -0.744 OA
ENDBRANCH  65  66
ENDBRANCH  46  60
BRANCH  47  70
ATOM     70  C   UNL A   1      36.530  33.647  31.118  1.00  0.00    -0.014 A 
ATOM     71  C   UNL A   1      36.538  33.963  29.750  1.00  0.00     0.010 A 
ATOM     72  C   UNL A   1      35.419  34.016  31.900  1.00  0.00     0.010 A 
ATOM     73  C   UNL A   1      35.456  34.639  29.175  1.00  0.00     0.020 A 
ATOM     74  C   UNL A   1      34.325  34.666  31.324  1.00  0.00     0.020 A 
ATOM     75  C   UNL A   1      34.355  34.983  29.966  1.00  0.00     0.054 A 
BRANCH  75  76
ATOM     76  S   UNL A   1      32.936  35.800  29.185  1.00  0.00     0.124 S 
ATOM     77  O   UNL A   1      32.089  36.100  30.335  1.00  0.00    -0.237 OA
ATOM     78  O   UNL A   1      33.553  36.953  28.534  1.00  0.00    -0.237 OA
ATOM     79  O   UNL A   1      32.417  34.783  28.272  1.00  0.00    -0.744 OA
ENDBRANCH  75  76
ENDBRANCH  47  70
BRANCH  59  80
ATOM     80  C   UNL A   1      39.625  33.860  37.363  1.00  0.00    -0.014 A 
ATOM     81  C   UNL A   1      38.829  33.385  38.421  1.00  0.00     0.010 A 
ATOM     82  C   UNL A   1      40.239  35.120  37.474  1.00  0.00     0.010 A 
ATOM     83  C   UNL A   1      38.633  34.168  39.559  1.00  0.00     0.020 A 
ATOM     84  C   UNL A   1      40.066  35.894  38.622  1.00  0.00     0.020 A 
ATOM     85  C   UNL A   1      39.252  35.419  39.654  1.00  0.00     0.054 A 
BRANCH  85  86
ATOM     86  S   UNL A   1      39.020  36.396  41.163  1.00  0.00     0.124 S 
ATOM     87  O   UNL A   1      38.772  37.731  40.625  1.00  0.00    -0.237 OA
ATOM     88  O   UNL A   1      37.872  35.748  41.793  1.00  0.00    -0.237 OA
ATOM     89  O   UNL A   1      40.285  36.236  41.876  1.00  0.00    -0.744 OA
ENDBRANCH  85  86
ENDBRANCH  59  80
ENDBRANCH  33  34
ENDBRANCH  26  28
ENDBRANCH  25  26
ENDBRANCH   1  25
TORSDOF 17
ENDMDL
MODEL 3
REMARK VINA RESULT:      -9.7      1.265      1.983
REMARK SMILES NC(=O)N[C@@H](Cc1ccc2c(c1)CCCC2)C(=O)OCCOC(=O)c1ccc(-c2c3nc(c(-c4ccc(S(=O)(=O)[O-])cc4)c4ccc([nH]4)c(-c4ccc(S(=O)(=O)[O-])cc4)c4nc(c(-c5ccc(S(=O)(=O)[O-])cc5)c5ccc2[nH]5)C=C4)C=C3)cc1
REMARK SMILES IDX 21 1 20 2 19 3 17 4 18 5 5 6 4 7 1 8 2 9 3 12 6 14 7 15 8 16
REMARK SMILES IDX 12 17 9 18 11 19 10 20 13 21 16 22 14 23 15 24 22 25 23 26
REMARK SMILES IDX 24 27 25 28 26 29 84 30 27 31 83 32 28 33 29 34 30 35 77 36
REMARK SMILES IDX 31 37 82 38 76 39 78 40 32 41 81 42 75 43 74 44 33 46 63 47
REMARK SMILES IDX 44 48 62 49 45 50 48 51 61 52 79 53 46 54 47 55 60 57 80 58
REMARK SMILES IDX 49 59 34 60 35 61 43 62 36 63 42 64 37 65 38 66 39 67 40 68
REMARK SMILES IDX 41 69 64 70 65 71 73 72 66 73 72 74 67 75 68 76 69 77 70 78
REMARK SMILES IDX 71 79 50 80 51 81 59 82 52 83 58 84 53 85 54 86 55 87 56 88
REMARK SMILES IDX 57 89
REMARK H PARENT 1 10 1 11 4 13 78 45 48 56
REMARK Flexibility Score: inf
ROOT
ATOM      1  C   UNL A   1      39.229  20.792  25.861  1.00  0.00     0.275 C 
ENDROOT
BRANCH   1   2
ATOM      2  C   UNL A   1      40.302  19.777  26.253  1.00  0.00     0.274 C 
BRANCH   2   3
ATOM      3  O   UNL A   1      41.399  19.856  25.324  1.00  0.00    -0.461 OA
BRANCH   3   4
ATOM      4  C   UNL A   1      42.579  19.298  25.710  1.00  0.00     0.329 C 
ATOM      5  O   UNL A   1      42.742  18.115  25.986  1.00  0.00    -0.250 OA
BRANCH   4   6
ATOM      6  C   UNL A   1      43.702  20.344  25.816  1.00  0.00     0.198 C 
BRANCH   6   7
ATOM      7  N   UNL A   1      44.810  20.139  24.874  1.00  0.00    -0.324 N 
ATOM      8  N   UNL A   1      45.909  18.378  25.884  1.00  0.00    -0.352 N 
ATOM      9  C   UNL A   1      45.874  19.319  24.927  1.00  0.00     0.312 C 
ATOM     10  H   UNL A   1      46.678  17.766  25.945  1.00  0.00     0.161 HD
ATOM     11  H   UNL A   1      45.166  18.300  26.525  1.00  0.00     0.161 HD
ATOM     12  O   UNL A   1      46.795  19.433  24.127  1.00  0.00    -0.249 OA
ATOM     13  H   UNL A   1      44.765  20.697  24.065  1.00  0.00     0.166 HD
ENDBRANCH   6   7
BRANCH   6  14
ATOM     14  C   UNL A   1      43.110  21.763  25.720  1.00  0.00     0.072 C 
BRANCH  14  15
ATOM     15  C   UNL A   1      44.000  22.940  26.070  1.00  0.00    -0.045 A 
ATOM     16  C   UNL A   1      45.111  22.846  26.913  1.00  0.00     0.004 A 
ATOM     17  C   UNL A   1      43.684  24.198  25.535  1.00  0.00     0.007 A 
ATOM     18  C   UNL A   1      45.946  23.943  27.125  1.00  0.00     0.004 A 
ATOM     19  C   UNL A   1      44.488  25.322  25.783  1.00  0.00    -0.045 A 
ATOM     20  C   UNL A   1      45.660  25.179  26.543  1.00  0.00    -0.045 A 
ATOM     21  C   UNL A   1      44.097  26.648  25.182  1.00  0.00     0.036 C 
ATOM     22  C   UNL A   1      46.590  26.337  26.800  1.00  0.00     0.036 C 
ATOM     23  C   UNL A   1      44.825  27.825  25.831  1.00  0.00     0.005 C 
ATOM     24  C   UNL A   1      46.320  27.542  25.901  1.00  0.00     0.005 C 
ENDBRANCH  14  15
ENDBRANCH   6  14
ENDBRANCH   4   6
ENDBRANCH   3   4
ENDBRANCH   2   3
ENDBRANCH   1   2
BRANCH   1  25
ATOM     25  O   UNL A   1      39.415  22.007  26.608  1.00  0.00    -0.458 OA
BRANCH  25  26
ATOM     26  C   UNL A   1      38.680  23.060  26.172  1.00  0.00     0.338 C 
ATOM     27  O   UNL A   1      37.687  23.037  25.472  1.00  0.00    -0.246 OA
BRANCH  26  28
ATOM     28  C   UNL A   1      39.196  24.270  26.821  1.00  0.00     0.060 A 
ATOM     29  C   UNL A   1      40.013  25.121  26.076  1.00  0.00     0.016 A 
ATOM     30  C   UNL A   1      38.905  24.547  28.154  1.00  0.00     0.016 A 
ATOM     31  C   UNL A   1      40.562  26.255  26.660  1.00  0.00     0.010 A 
ATOM     32  C   UNL A   1      39.424  25.710  28.729  1.00  0.00     0.010 A 
ATOM     33  C   UNL A   1      40.256  26.569  27.987  1.00  0.00    -0.014 A 
BRANCH  33  34
ATOM     34  C   UNL A   1      40.790  27.808  28.600  1.00  0.00     0.031 A 
ATOM     35  C   UNL A   1      42.214  27.857  29.068  1.00  0.00     0.074 A 
ATOM     36  C   UNL A   1      39.982  28.876  28.746  1.00  0.00     0.049 A 
ATOM     37  N   UNL A   1      42.816  28.779  29.772  1.00  0.00    -0.248 NA
ATOM     38  C   UNL A   1      43.073  26.721  28.698  1.00  0.00     0.031 C 
ATOM     39  C   UNL A   1      38.597  28.962  28.274  1.00  0.00     0.029 A 
ATOM     40  N   UNL A   1      40.205  30.090  29.342  1.00  0.00    -0.354 N 
ATOM     41  C   UNL A   1      44.114  28.319  29.964  1.00  0.00     0.074 A 
ATOM     42  C   UNL A   1      44.210  27.036  29.303  1.00  0.00     0.031 C 
ATOM     43  C   UNL A   1      38.097  30.165  28.597  1.00  0.00     0.029 A 
ATOM     44  C   UNL A   1      39.096  30.904  29.360  1.00  0.00     0.049 A 
ATOM     45  H   UNL A   1      41.075  30.355  29.720  1.00  0.00     0.167 HD
ATOM     46  C   UNL A   1      45.125  28.915  30.639  1.00  0.00     0.031 A 
ATOM     47  C   UNL A   1      38.888  32.086  29.970  1.00  0.00     0.031 A 
ATOM     48  C   UNL A   1      45.011  30.192  31.294  1.00  0.00     0.049 A 
ATOM     49  C   UNL A   1      39.998  32.684  30.786  1.00  0.00     0.074 A 
ATOM     50  C   UNL A   1      45.976  30.889  31.998  1.00  0.00     0.029 A 
ATOM     51  N   UNL A   1      43.856  30.961  31.329  1.00  0.00    -0.354 N 
ATOM     52  N   UNL A   1      41.215  32.231  30.976  1.00  0.00    -0.248 NA
ATOM     53  C   UNL A   1      39.704  33.942  31.484  1.00  0.00     0.031 C 
ATOM     54  C   UNL A   1      45.390  32.055  32.503  1.00  0.00     0.029 A 
ATOM     55  C   UNL A   1      44.074  32.110  32.070  1.00  0.00     0.049 A 
ATOM     56  H   UNL A   1      43.006  30.724  30.892  1.00  0.00     0.167 HD
ATOM     57  C   UNL A   1      41.834  33.152  31.813  1.00  0.00     0.074 A 
ATOM     58  C   UNL A   1      40.866  34.198  32.070  1.00  0.00     0.031 C 
ATOM     59  C   UNL A   1      43.089  33.130  32.325  1.00  0.00     0.031 A 
BRANCH  46  60
ATOM     60  C   UNL A   1      46.426  28.167  30.746  1.00  0.00    -0.014 A 
ATOM     61  C   UNL A   1      47.434  28.304  29.775  1.00  0.00     0.010 A 
ATOM     62  C   UNL A   1      46.654  27.332  31.856  1.00  0.00     0.010 A 
ATOM     63  C   UNL A   1      48.632  27.593  29.895  1.00  0.00     0.020 A 
ATOM     64  C   UNL A   1      47.860  26.639  31.992  1.00  0.00     0.020 A 
ATOM     65  C   UNL A   1      48.835  26.761  31.001  1.00  0.00     0.054 A 
BRANCH  65  66
ATOM     66  S   UNL A   1      50.406  25.863  31.141  1.00  0.00     0.124 S 
ATOM     67  O   UNL A   1      49.993  24.640  31.824  1.00  0.00    -0.237 OA
ATOM     68  O   UNL A   1      50.806  25.698  29.746  1.00  0.00    -0.237 OA
ATOM     69  O   UNL A   1      51.250  26.761  31.925  1.00  0.00    -0.744 OA
ENDBRANCH  65  66
ENDBRANCH  46  60
BRANCH  47  70
ATOM     70  C   UNL A   1      37.556  32.743  29.878  1.00  0.00    -0.014 A 
ATOM     71  C   UNL A   1      36.633  32.642  30.931  1.00  0.00     0.010 A 
ATOM     72  C   UNL A   1      37.216  33.499  28.739  1.00  0.00     0.010 A 
ATOM     73  C   UNL A   1      35.392  33.281  30.846  1.00  0.00     0.020 A 
ATOM     74  C   UNL A   1      35.988  34.161  28.663  1.00  0.00     0.020 A 
ATOM     75  C   UNL A   1      35.079  34.040  29.714  1.00  0.00     0.054 A 
BRANCH  75  76
ATOM     76  S   UNL A   1      33.490  34.913  29.655  1.00  0.00     0.124 S 
ATOM     77  O   UNL A   1      33.885  36.227  29.160  1.00  0.00    -0.237 OA
ATOM     78  O   UNL A   1      32.712  34.094  28.729  1.00  0.00    -0.237 OA
ATOM     79  O   UNL A   1      33.030  34.877  31.043  1.00  0.00    -0.744 OA
ENDBRANCH  75  76
ENDBRANCH  47  70
BRANCH  59  80
ATOM     80  C   UNL A   1      43.485  34.279  33.210  1.00  0.00    -0.014 A 
ATOM     81  C   UNL A   1      44.127  35.412  32.679  1.00  0.00     0.010 A 
ATOM     82  C   UNL A   1      43.168  34.246  34.580  1.00  0.00     0.010 A 
ATOM     83  C   UNL A   1      44.467  36.482  33.509  1.00  0.00     0.020 A 
ATOM     84  C   UNL A   1      43.483  35.325  35.407  1.00  0.00     0.020 A 
ATOM     85  C   UNL A   1      44.143  36.432  34.868  1.00  0.00     0.054 A 
BRANCH  85  86
ATOM     86  S   UNL A   1      44.553  37.855  35.915  1.00  0.00     0.124 S 
ATOM     87  O   UNL A   1      44.061  37.423  37.221  1.00  0.00    -0.237 OA
ATOM     88  O   UNL A   1      46.006  37.942  35.787  1.00  0.00    -0.237 OA
ATOM     89  O   UNL A   1      43.813  38.958  35.305  1.00  0.00    -0.744 OA
ENDBRANCH  85  86
ENDBRANCH  59  80
ENDBRANCH  33  34
ENDBRANCH  26  28
ENDBRANCH  25  26
ENDBRANCH   1  25
TORSDOF 17
ENDMDL
