MODEL 1
REMARK VINA RESULT:     -11.7      0.000      0.000
REMARK SMILES CC[C@@H](C)[C@@H](NC(=O)CCn1ccc2ccc(Br)cc21)C(=O)OCCOC(=O)c1ccc(-c2c3nc(c(-c4ccc(S(=O)(=O)[O-])cc4)c4ccc([nH]4)c(-c4ccc(S(=O)(=O)[O-])cc4)c4nc(c(-c5ccc(S(=O)(=O)[O-])cc5)c5ccc2[nH]5)C=C4)C=C3)cc1
REMARK SMILES IDX 24 1 23 2 21 3 22 4 5 5 3 6 4 7 2 8 1 9 6 10 7 11 8 13 9 14
REMARK SMILES IDX 10 15 11 16 12 17 20 18 13 19 14 20 19 21 15 22 17 23 16 24
REMARK SMILES IDX 18 25 25 26 26 27 27 28 28 29 29 30 30 31 88 32 31 33 87 34
REMARK SMILES IDX 32 35 33 36 34 37 81 38 35 39 86 40 80 41 82 42 36 43 85 44
REMARK SMILES IDX 79 45 78 46 37 48 67 49 48 50 66 51 49 52 52 53 65 54 83 55
REMARK SMILES IDX 50 56 51 57 64 59 84 60 53 61 38 62 39 63 47 64 40 65 46 66
REMARK SMILES IDX 41 67 42 68 43 69 44 70 45 71 68 72 69 73 77 74 70 75 76 76
REMARK SMILES IDX 71 77 72 78 73 79 74 80 75 81 54 82 55 83 63 84 56 85 62 86
REMARK SMILES IDX 57 87 58 88 59 89 60 90 61 91
REMARK H PARENT 6 12 82 47 52 58
REMARK Flexibility Score: inf
ROOT
ATOM      1  C   UNL A   1      44.139  23.256  27.912  1.00  0.00     0.274 C 
ENDROOT
BRANCH   1   2
ATOM      2  O   UNL A   1      43.108  24.029  27.245  1.00  0.00    -0.461 OA
BRANCH   2   3
ATOM      3  C   UNL A   1      42.605  23.662  26.047  1.00  0.00     0.329 C 
ATOM      4  O   UNL A   1      42.643  24.478  25.123  1.00  0.00    -0.250 OA
BRANCH   3   5
ATOM      5  C   UNL A   1      41.733  22.076  25.860  1.00  0.00     0.195 C 
BRANCH   5   6
ATOM      6  C   UNL A   1      42.185  19.919  26.041  1.00  0.00     0.019 C 
ATOM      7  C   UNL A   1      42.245  18.916  27.567  1.00  0.00     0.010 C 
BRANCH   6   8
ATOM      8  C   UNL A   1      43.462  18.891  25.274  1.00  0.00     0.002 C 
ATOM      9  C   UNL A   1      44.656  19.627  24.647  1.00  0.00     0.004 C 
ENDBRANCH   6   8
ENDBRANCH   5   6
BRANCH   5  10
ATOM     10  N   UNL A   1      40.377  22.894  26.419  1.00  0.00    -0.342 N 
ATOM     11  C   UNL A   1      39.038  22.841  26.181  1.00  0.00     0.222 C 
ATOM     12  H   UNL A   1      40.609  23.584  27.083  1.00  0.00     0.164 HD
ATOM     13  O   UNL A   1      38.351  23.786  26.581  1.00  0.00    -0.275 OA
BRANCH  11  14
ATOM     14  C   UNL A   1      38.370  21.655  25.515  1.00  0.00     0.122 C 
BRANCH  14  15
ATOM     15  C   UNL A   1      37.248  21.920  24.503  1.00  0.00     0.132 C 
BRANCH  15  16
ATOM     16  N   UNL A   1      35.889  21.628  24.927  1.00  0.00    -0.347 N 
ATOM     17  C   UNL A   1      35.291  20.374  25.010  1.00  0.00     0.087 A 
ATOM     18  C   UNL A   1      34.932  22.597  24.994  1.00  0.00     0.049 A 
ATOM     19  C   UNL A   1      33.937  20.383  24.662  1.00  0.00     0.028 A 
ATOM     20  C   UNL A   1      33.602  21.712  24.290  1.00  0.00    -0.000 A 
ATOM     21  C   UNL A   1      34.855  24.382  25.131  1.00  0.00     0.042 A 
ATOM     22  C   UNL A   1      32.253  22.645  23.489  1.00  0.00     0.011 A 
ATOM     23  C   UNL A   1      33.540  25.273  24.315  1.00  0.00     0.020 A 
ATOM     24  C   UNL A   1      32.192  24.429  23.579  1.00  0.00     0.016 A 
ATOM     25  Br  UNL A   1      33.665  27.160  24.151  1.00  0.00    -0.051 Br
ENDBRANCH  15  16
ENDBRANCH  14  15
ENDBRANCH  11  14
ENDBRANCH   5  10
ENDBRANCH   3   5
ENDBRANCH   2   3
ENDBRANCH   1   2
BRANCH   1  26
ATOM     26  C   UNL A   1      45.307  23.089  26.941  1.00  0.00     0.275 C 
BRANCH  26  27
ATOM     27  O   UNL A   1      46.177  24.230  27.092  1.00  0.00    -0.458 OA
BRANCH  27  28
ATOM     28  C   UNL A   1      46.043  25.158  26.108  1.00  0.00     0.338 C 
ATOM     29  O   UNL A   1      45.983  24.908  24.912  1.00  0.00    -0.246 OA
BRANCH  28  30
ATOM     30  C   UNL A   1      45.580  26.443  26.718  1.00  0.00     0.060 A 
ATOM     31  C   UNL A   1      45.584  26.741  28.078  1.00  0.00     0.016 A 
ATOM     32  C   UNL A   1      44.861  27.279  25.887  1.00  0.00     0.016 A 
ATOM     33  C   UNL A   1      44.639  27.663  28.603  1.00  0.00     0.010 A 
ATOM     34  C   UNL A   1      43.881  28.128  26.418  1.00  0.00     0.010 A 
ATOM     35  C   UNL A   1      43.634  28.232  27.793  1.00  0.00    -0.014 A 
BRANCH  35  36
ATOM     36  C   UNL A   1      42.649  29.286  28.248  1.00  0.00     0.031 A 
ATOM     37  C   UNL A   1      43.408  30.549  28.139  1.00  0.00     0.074 A 
ATOM     38  C   UNL A   1      41.354  29.345  28.715  1.00  0.00     0.049 A 
ATOM     39  N   UNL A   1      44.220  30.906  29.076  1.00  0.00    -0.248 NA
ATOM     40  C   UNL A   1      43.640  31.236  26.859  1.00  0.00     0.031 C 
ATOM     41  C   UNL A   1      40.380  28.279  28.939  1.00  0.00     0.029 A 
ATOM     42  N   UNL A   1      40.599  30.458  29.130  1.00  0.00    -0.354 N 
ATOM     43  C   UNL A   1      44.823  32.052  28.620  1.00  0.00     0.074 A 
ATOM     44  C   UNL A   1      44.654  32.042  27.192  1.00  0.00     0.031 C 
ATOM     45  C   UNL A   1      39.140  28.775  29.220  1.00  0.00     0.029 A 
ATOM     46  C   UNL A   1      39.197  30.235  29.343  1.00  0.00     0.049 A 
ATOM     47  H   UNL A   1      41.010  31.342  29.269  1.00  0.00     0.167 HD
ATOM     48  C   UNL A   1      45.082  33.044  29.508  1.00  0.00     0.031 A 
ATOM     49  C   UNL A   1      38.267  30.970  30.065  1.00  0.00     0.031 A 
ATOM     50  C   UNL A   1      44.875  32.573  30.860  1.00  0.00     0.049 A 
ATOM     51  C   UNL A   1      39.051  31.784  31.011  1.00  0.00     0.074 A 
ATOM     52  C   UNL A   1      45.534  31.718  31.719  1.00  0.00     0.029 A 
ATOM     53  N   UNL A   1      43.553  32.596  31.240  1.00  0.00    -0.354 N 
ATOM     54  N   UNL A   1      39.624  31.282  32.062  1.00  0.00    -0.248 NA
ATOM     55  C   UNL A   1      39.536  33.082  30.566  1.00  0.00     0.031 C 
ATOM     56  C   UNL A   1      44.526  31.104  32.517  1.00  0.00     0.029 A 
ATOM     57  C   UNL A   1      43.292  31.676  32.218  1.00  0.00     0.049 A 
ATOM     58  H   UNL A   1      42.879  33.202  30.856  1.00  0.00     0.167 HD
ATOM     59  C   UNL A   1      40.829  31.949  32.118  1.00  0.00     0.074 A 
ATOM     60  C   UNL A   1      40.666  33.132  31.273  1.00  0.00     0.031 C 
ATOM     61  C   UNL A   1      41.938  31.311  32.579  1.00  0.00     0.031 A 
BRANCH  48  62
ATOM     62  C   UNL A   1      45.017  34.499  29.154  1.00  0.00    -0.014 A 
ATOM     63  C   UNL A   1      43.828  35.257  29.168  1.00  0.00     0.010 A 
ATOM     64  C   UNL A   1      46.226  35.202  29.002  1.00  0.00     0.010 A 
ATOM     65  C   UNL A   1      43.830  36.634  28.961  1.00  0.00     0.020 A 
ATOM     66  C   UNL A   1      46.243  36.590  28.826  1.00  0.00     0.020 A 
ATOM     67  C   UNL A   1      45.040  37.291  28.775  1.00  0.00     0.054 A 
BRANCH  67  68
ATOM     68  S   UNL A   1      45.004  39.068  28.455  1.00  0.00     0.124 S 
ATOM     69  O   UNL A   1      45.763  39.588  29.591  1.00  0.00    -0.237 OA
ATOM     70  O   UNL A   1      45.665  39.168  27.158  1.00  0.00    -0.237 OA
ATOM     71  O   UNL A   1      43.580  39.389  28.460  1.00  0.00    -0.744 OA
ENDBRANCH  67  68
ENDBRANCH  48  62
BRANCH  49  72
ATOM     72  C   UNL A   1      36.889  31.531  29.714  1.00  0.00    -0.014 A 
ATOM     73  C   UNL A   1      36.633  32.044  28.435  1.00  0.00     0.010 A 
ATOM     74  C   UNL A   1      35.928  31.865  30.721  1.00  0.00     0.010 A 
ATOM     75  C   UNL A   1      35.552  32.922  28.186  1.00  0.00     0.020 A 
ATOM     76  C   UNL A   1      34.832  32.737  30.476  1.00  0.00     0.020 A 
ATOM     77  C   UNL A   1      34.680  33.298  29.211  1.00  0.00     0.054 A 
BRANCH  77  78
ATOM     78  S   UNL A   1      33.427  34.587  28.862  1.00  0.00     0.124 S 
ATOM     79  O   UNL A   1      32.870  34.842  30.188  1.00  0.00    -0.237 OA
ATOM     80  O   UNL A   1      34.232  35.673  28.306  1.00  0.00    -0.237 OA
ATOM     81  O   UNL A   1      32.513  33.952  27.916  1.00  0.00    -0.744 OA
ENDBRANCH  77  78
ENDBRANCH  49  72
BRANCH  61  82
ATOM     82  C   UNL A   1      41.764  30.094  33.453  1.00  0.00    -0.014 A 
ATOM     83  C   UNL A   1      41.670  30.347  34.831  1.00  0.00     0.010 A 
ATOM     84  C   UNL A   1      41.837  28.756  33.016  1.00  0.00     0.010 A 
ATOM     85  C   UNL A   1      41.725  29.312  35.758  1.00  0.00     0.020 A 
ATOM     86  C   UNL A   1      41.863  27.702  33.948  1.00  0.00     0.020 A 
ATOM     87  C   UNL A   1      41.838  27.995  35.315  1.00  0.00     0.054 A 
BRANCH  87  88
ATOM     88  S   UNL A   1      41.976  26.701  36.578  1.00  0.00     0.124 S 
ATOM     89  O   UNL A   1      40.705  26.827  37.291  1.00  0.00    -0.237 OA
ATOM     90  O   UNL A   1      42.120  25.486  35.777  1.00  0.00    -0.237 OA
ATOM     91  O   UNL A   1      43.159  27.077  37.349  1.00  0.00    -0.744 OA
ENDBRANCH  87  88
ENDBRANCH  61  82
ENDBRANCH  35  36
ENDBRANCH  28  30
ENDBRANCH  27  28
ENDBRANCH  26  27
ENDBRANCH   1  26
TORSDOF 20
ENDMDL
MODEL 2
REMARK VINA RESULT:     -11.2      3.643     10.868
REMARK SMILES CC[C@@H](C)[C@@H](NC(=O)CCn1ccc2ccc(Br)cc21)C(=O)OCCOC(=O)c1ccc(-c2c3nc(c(-c4ccc(S(=O)(=O)[O-])cc4)c4ccc([nH]4)c(-c4ccc(S(=O)(=O)[O-])cc4)c4nc(c(-c5ccc(S(=O)(=O)[O-])cc5)c5ccc2[nH]5)C=C4)C=C3)cc1
REMARK SMILES IDX 24 1 23 2 21 3 22 4 5 5 3 6 4 7 2 8 1 9 6 10 7 11 8 13 9 14
REMARK SMILES IDX 10 15 11 16 12 17 20 18 13 19 14 20 19 21 15 22 17 23 16 24
REMARK SMILES IDX 18 25 25 26 26 27 27 28 28 29 29 30 30 31 88 32 31 33 87 34
REMARK SMILES IDX 32 35 33 36 34 37 81 38 35 39 86 40 80 41 82 42 36 43 85 44
REMARK SMILES IDX 79 45 78 46 37 48 67 49 48 50 66 51 49 52 52 53 65 54 83 55
REMARK SMILES IDX 50 56 51 57 64 59 84 60 53 61 38 62 39 63 47 64 40 65 46 66
REMARK SMILES IDX 41 67 42 68 43 69 44 70 45 71 68 72 69 73 77 74 70 75 76 76
REMARK SMILES IDX 71 77 72 78 73 79 74 80 75 81 54 82 55 83 63 84 56 85 62 86
REMARK SMILES IDX 57 87 58 88 59 89 60 90 61 91
REMARK H PARENT 6 12 82 47 52 58
REMARK Flexibility Score: inf
ROOT
ATOM      1  C   UNL A   1      32.703  30.941  26.858  1.00  0.00     0.274 C 
ENDROOT
BRANCH   1   2
ATOM      2  O   UNL A   1      32.828  30.412  25.513  1.00  0.00    -0.461 OA
BRANCH   2   3
ATOM      3  C   UNL A   1      32.244  29.252  25.146  1.00  0.00     0.329 C 
ATOM      4  O   UNL A   1      32.611  28.213  25.701  1.00  0.00    -0.250 OA
BRANCH   3   5
ATOM      5  C   UNL A   1      31.084  29.204  23.745  1.00  0.00     0.195 C 
BRANCH   5   6
ATOM      6  C   UNL A   1      29.118  30.060  23.209  1.00  0.00     0.019 C 
ATOM      7  C   UNL A   1      27.575  29.158  22.827  1.00  0.00     0.010 C 
BRANCH   6   8
ATOM      8  C   UNL A   1      28.658  31.396  22.078  1.00  0.00     0.002 C 
ATOM      9  C   UNL A   1      28.515  32.799  22.689  1.00  0.00     0.004 C 
ENDBRANCH   6   8
ENDBRANCH   5   6
BRANCH   5  10
ATOM     10  N   UNL A   1      32.450  29.075  22.776  1.00  0.00    -0.342 N 
ATOM     11  C   UNL A   1      33.317  28.081  22.437  1.00  0.00     0.222 C 
ATOM     12  H   UNL A   1      32.682  29.931  22.347  1.00  0.00     0.164 HD
ATOM     13  O   UNL A   1      34.378  28.410  21.901  1.00  0.00    -0.275 OA
BRANCH  11  14
ATOM     14  C   UNL A   1      32.997  26.613  22.635  1.00  0.00     0.122 C 
BRANCH  14  15
ATOM     15  C   UNL A   1      31.618  26.099  22.201  1.00  0.00     0.132 C 
BRANCH  15  16
ATOM     16  N   UNL A   1      30.753  25.562  23.238  1.00  0.00    -0.347 N 
ATOM     17  C   UNL A   1      29.751  26.240  23.925  1.00  0.00     0.087 A 
ATOM     18  C   UNL A   1      31.043  24.397  23.884  1.00  0.00     0.049 A 
ATOM     19  C   UNL A   1      29.641  25.857  25.265  1.00  0.00     0.028 A 
ATOM     20  C   UNL A   1      30.647  24.885  25.512  1.00  0.00    -0.000 A 
ATOM     21  C   UNL A   1      32.029  22.928  23.600  1.00  0.00     0.042 A 
ATOM     22  C   UNL A   1      31.446  24.021  26.908  1.00  0.00     0.011 A 
ATOM     23  C   UNL A   1      32.822  22.116  24.979  1.00  0.00     0.020 A 
ATOM     24  C   UNL A   1      32.469  22.582  26.630  1.00  0.00     0.016 A 
ATOM     25  Br  UNL A   1      34.147  20.800  24.639  1.00  0.00    -0.051 Br
ENDBRANCH  15  16
ENDBRANCH  14  15
ENDBRANCH  11  14
ENDBRANCH   5  10
ENDBRANCH   3   5
ENDBRANCH   2   3
ENDBRANCH   1   2
BRANCH   1  26
ATOM     26  C   UNL A   1      33.808  30.321  27.714  1.00  0.00     0.275 C 
BRANCH  26  27
ATOM     27  O   UNL A   1      34.152  31.267  28.748  1.00  0.00    -0.458 OA
BRANCH  27  28
ATOM     28  C   UNL A   1      35.089  32.176  28.373  1.00  0.00     0.338 C 
ATOM     29  O   UNL A   1      35.031  33.377  28.599  1.00  0.00    -0.246 OA
BRANCH  28  30
ATOM     30  C   UNL A   1      36.350  31.451  28.023  1.00  0.00     0.060 A 
ATOM     31  C   UNL A   1      36.431  30.292  27.257  1.00  0.00     0.016 A 
ATOM     32  C   UNL A   1      37.475  31.824  28.732  1.00  0.00     0.016 A 
ATOM     33  C   UNL A   1      37.506  29.385  27.457  1.00  0.00     0.010 A 
ATOM     34  C   UNL A   1      38.490  30.892  28.983  1.00  0.00     0.010 A 
ATOM     35  C   UNL A   1      38.461  29.586  28.476  1.00  0.00    -0.014 A 
BRANCH  35  36
ATOM     36  C   UNL A   1      39.684  28.722  28.699  1.00  0.00     0.031 A 
ATOM     37  C   UNL A   1      39.793  28.638  30.170  1.00  0.00     0.074 A 
ATOM     38  C   UNL A   1      40.637  28.080  27.939  1.00  0.00     0.049 A 
ATOM     39  N   UNL A   1      40.347  29.592  30.839  1.00  0.00    -0.248 NA
ATOM     40  C   UNL A   1      38.947  27.753  30.986  1.00  0.00     0.031 C 
ATOM     41  C   UNL A   1      40.794  28.000  26.488  1.00  0.00     0.029 A 
ATOM     42  N   UNL A   1      41.753  27.327  28.348  1.00  0.00    -0.354 N 
ATOM     43  C   UNL A   1      40.194  29.247  32.160  1.00  0.00     0.074 A 
ATOM     44  C   UNL A   1      39.115  28.299  32.196  1.00  0.00     0.031 C 
ATOM     45  C   UNL A   1      41.753  27.099  26.130  1.00  0.00     0.029 A 
ATOM     46  C   UNL A   1      42.431  26.583  27.325  1.00  0.00     0.049 A 
ATOM     47  H   UNL A   1      42.053  27.311  29.286  1.00  0.00     0.167 HD
ATOM     48  C   UNL A   1      41.208  29.519  33.020  1.00  0.00     0.031 A 
ATOM     49  C   UNL A   1      43.713  26.051  27.296  1.00  0.00     0.031 A 
ATOM     50  C   UNL A   1      42.190  30.370  32.385  1.00  0.00     0.049 A 
ATOM     51  C   UNL A   1      44.475  26.794  28.316  1.00  0.00     0.074 A 
ATOM     52  C   UNL A   1      42.246  31.694  31.998  1.00  0.00     0.029 A 
ATOM     53  N   UNL A   1      43.070  29.675  31.589  1.00  0.00    -0.354 N 
ATOM     54  N   UNL A   1      44.868  28.020  28.143  1.00  0.00    -0.248 NA
ATOM     55  C   UNL A   1      44.445  26.310  29.688  1.00  0.00     0.031 C 
ATOM     56  C   UNL A   1      43.066  31.733  30.834  1.00  0.00     0.029 A 
ATOM     57  C   UNL A   1      43.588  30.463  30.598  1.00  0.00     0.049 A 
ATOM     58  H   UNL A   1      43.299  28.726  31.718  1.00  0.00     0.167 HD
ATOM     59  C   UNL A   1      44.674  28.594  29.381  1.00  0.00     0.074 A 
ATOM     60  C   UNL A   1      44.551  27.479  30.321  1.00  0.00     0.031 C 
ATOM     61  C   UNL A   1      44.307  29.900  29.475  1.00  0.00     0.031 A 
BRANCH  48  62
ATOM     62  C   UNL A   1      41.552  28.643  34.186  1.00  0.00    -0.014 A 
ATOM     63  C   UNL A   1      41.295  27.257  34.227  1.00  0.00     0.010 A 
ATOM     64  C   UNL A   1      42.357  29.177  35.207  1.00  0.00     0.010 A 
ATOM     65  C   UNL A   1      41.747  26.454  35.272  1.00  0.00     0.020 A 
ATOM     66  C   UNL A   1      42.845  28.376  36.245  1.00  0.00     0.020 A 
ATOM     67  C   UNL A   1      42.508  27.024  36.285  1.00  0.00     0.054 A 
BRANCH  67  68
ATOM     68  S   UNL A   1      43.032  25.968  37.653  1.00  0.00     0.124 S 
ATOM     69  O   UNL A   1      43.678  26.933  38.540  1.00  0.00    -0.237 OA
ATOM     70  O   UNL A   1      41.766  25.422  38.132  1.00  0.00    -0.237 OA
ATOM     71  O   UNL A   1      43.931  25.007  37.020  1.00  0.00    -0.744 OA
ENDBRANCH  67  68
ENDBRANCH  48  62
BRANCH  49  72
ATOM     72  C   UNL A   1      44.251  24.657  26.973  1.00  0.00    -0.014 A 
ATOM     73  C   UNL A   1      45.566  24.490  26.515  1.00  0.00     0.010 A 
ATOM     74  C   UNL A   1      43.385  23.532  26.800  1.00  0.00     0.010 A 
ATOM     75  C   UNL A   1      45.973  23.321  25.830  1.00  0.00     0.020 A 
ATOM     76  C   UNL A   1      43.790  22.349  26.123  1.00  0.00     0.020 A 
ATOM     77  C   UNL A   1      45.078  22.273  25.600  1.00  0.00     0.054 A 
BRANCH  77  78
ATOM     78  S   UNL A   1      45.616  20.882  24.538  1.00  0.00     0.124 S 
ATOM     79  O   UNL A   1      45.517  19.744  25.447  1.00  0.00    -0.237 OA
ATOM     80  O   UNL A   1      44.631  20.903  23.459  1.00  0.00    -0.237 OA
ATOM     81  O   UNL A   1      46.975  21.241  24.139  1.00  0.00    -0.744 OA
ENDBRANCH  77  78
ENDBRANCH  49  72
BRANCH  61  82
ATOM     82  C   UNL A   1      44.582  30.815  28.307  1.00  0.00    -0.014 A 
ATOM     83  C   UNL A   1      45.720  31.629  28.431  1.00  0.00     0.010 A 
ATOM     84  C   UNL A   1      43.726  31.015  27.205  1.00  0.00     0.010 A 
ATOM     85  C   UNL A   1      45.966  32.663  27.535  1.00  0.00     0.020 A 
ATOM     86  C   UNL A   1      43.986  32.041  26.277  1.00  0.00     0.020 A 
ATOM     87  C   UNL A   1      45.091  32.876  26.470  1.00  0.00     0.054 A 
BRANCH  87  88
ATOM     88  S   UNL A   1      45.432  34.285  25.381  1.00  0.00     0.124 S 
ATOM     89  O   UNL A   1      44.741  33.899  24.151  1.00  0.00    -0.237 OA
ATOM     90  O   UNL A   1      44.831  35.404  26.105  1.00  0.00    -0.237 OA
ATOM     91  O   UNL A   1      46.890  34.321  25.287  1.00  0.00    -0.744 OA
ENDBRANCH  87  88
ENDBRANCH  61  82
ENDBRANCH  35  36
ENDBRANCH  28  30
ENDBRANCH  27  28
ENDBRANCH  26  27
ENDBRANCH   1  26
TORSDOF 20
ENDMDL
MODEL 3
REMARK VINA RESULT:     -10.9      4.575     10.173
REMARK SMILES CC[C@@H](C)[C@@H](NC(=O)CCn1ccc2ccc(Br)cc21)C(=O)OCCOC(=O)c1ccc(-c2c3nc(c(-c4ccc(S(=O)(=O)[O-])cc4)c4ccc([nH]4)c(-c4ccc(S(=O)(=O)[O-])cc4)c4nc(c(-c5ccc(S(=O)(=O)[O-])cc5)c5ccc2[nH]5)C=C4)C=C3)cc1
REMARK SMILES IDX 24 1 23 2 21 3 22 4 5 5 3 6 4 7 2 8 1 9 6 10 7 11 8 13 9 14
REMARK SMILES IDX 10 15 11 16 12 17 20 18 13 19 14 20 19 21 15 22 17 23 16 24
REMARK SMILES IDX 18 25 25 26 26 27 27 28 28 29 29 30 30 31 88 32 31 33 87 34
REMARK SMILES IDX 32 35 33 36 34 37 81 38 35 39 86 40 80 41 82 42 36 43 85 44
REMARK SMILES IDX 79 45 78 46 37 48 67 49 48 50 66 51 49 52 52 53 65 54 83 55
REMARK SMILES IDX 50 56 51 57 64 59 84 60 53 61 38 62 39 63 47 64 40 65 46 66
REMARK SMILES IDX 41 67 42 68 43 69 44 70 45 71 68 72 69 73 77 74 70 75 76 76
REMARK SMILES IDX 71 77 72 78 73 79 74 80 75 81 54 82 55 83 63 84 56 85 62 86
REMARK SMILES IDX 57 87 58 88 59 89 60 90 61 91
REMARK H PARENT 6 12 82 47 52 58
REMARK Flexibility Score: inf
ROOT
ATOM      1  C   UNL A   1      45.093  33.519  26.753  1.00  0.00     0.274 C 
ENDROOT
BRANCH   1   2
ATOM      2  O   UNL A   1      44.059  32.506  26.855  1.00  0.00    -0.461 OA
BRANCH   2   3
ATOM      3  C   UNL A   1      43.797  31.871  28.016  1.00  0.00     0.329 C 
ATOM      4  O   UNL A   1      44.065  32.450  29.072  1.00  0.00    -0.250 OA
BRANCH   3   5
ATOM      5  C   UNL A   1      43.239  30.139  28.016  1.00  0.00     0.195 C 
BRANCH   5   6
ATOM      6  C   UNL A   1      41.856  28.857  26.860  1.00  0.00     0.019 C 
ATOM      7  C   UNL A   1      40.032  28.936  26.823  1.00  0.00     0.010 C 
BRANCH   6   8
ATOM      8  C   UNL A   1      41.821  27.069  26.590  1.00  0.00     0.002 C 
ATOM      9  C   UNL A   1      42.548  26.544  25.343  1.00  0.00     0.004 C 
ENDBRANCH   6   8
ENDBRANCH   5   6
BRANCH   5  10
ATOM     10  N   UNL A   1      44.789  29.766  28.544  1.00  0.00    -0.342 N 
ATOM     11  C   UNL A   1      45.948  29.355  27.960  1.00  0.00     0.222 C 
ATOM     12  H   UNL A   1      44.883  29.872  29.519  1.00  0.00     0.164 HD
ATOM     13  O   UNL A   1      46.834  28.917  28.699  1.00  0.00    -0.275 OA
BRANCH  11  14
ATOM     14  C   UNL A   1      46.202  29.475  26.471  1.00  0.00     0.122 C 
BRANCH  14  15
ATOM     15  C   UNL A   1      45.832  28.292  25.567  1.00  0.00     0.132 C 
BRANCH  15  16
ATOM     16  N   UNL A   1      46.676  27.112  25.639  1.00  0.00    -0.347 N 
ATOM     17  C   UNL A   1      47.769  26.815  24.830  1.00  0.00     0.087 A 
ATOM     18  C   UNL A   1      46.293  25.994  26.319  1.00  0.00     0.049 A 
ATOM     19  C   UNL A   1      47.890  25.453  24.542  1.00  0.00     0.028 A 
ATOM     20  C   UNL A   1      46.799  24.788  25.163  1.00  0.00    -0.000 A 
ATOM     21  C   UNL A   1      45.150  25.561  27.630  1.00  0.00     0.042 A 
ATOM     22  C   UNL A   1      45.971  23.161  25.170  1.00  0.00     0.011 A 
ATOM     23  C   UNL A   1      44.332  23.973  27.599  1.00  0.00     0.020 A 
ATOM     24  C   UNL A   1      44.794  22.737  26.447  1.00  0.00     0.016 A 
ATOM     25  Br  UNL A   1      42.866  23.666  28.765  1.00  0.00    -0.051 Br
ENDBRANCH  15  16
ENDBRANCH  14  15
ENDBRANCH  11  14
ENDBRANCH   5  10
ENDBRANCH   3   5
ENDBRANCH   2   3
ENDBRANCH   1   2
BRANCH   1  26
ATOM     26  C   UNL A   1      44.483  34.751  26.085  1.00  0.00     0.275 C 
BRANCH  26  27
ATOM     27  O   UNL A   1      43.437  35.250  26.945  1.00  0.00    -0.458 OA
BRANCH  27  28
ATOM     28  C   UNL A   1      43.832  36.258  27.766  1.00  0.00     0.338 C 
ATOM     29  O   UNL A   1      44.369  37.293  27.396  1.00  0.00    -0.246 OA
BRANCH  28  30
ATOM     30  C   UNL A   1      43.157  36.094  29.091  1.00  0.00     0.060 A 
ATOM     31  C   UNL A   1      43.737  36.342  30.331  1.00  0.00     0.016 A 
ATOM     32  C   UNL A   1      41.963  35.399  29.075  1.00  0.00     0.016 A 
ATOM     33  C   UNL A   1      43.283  35.638  31.479  1.00  0.00     0.010 A 
ATOM     34  C   UNL A   1      41.569  34.651  30.192  1.00  0.00     0.010 A 
ATOM     35  C   UNL A   1      42.304  34.626  31.384  1.00  0.00    -0.014 A 
BRANCH  35  36
ATOM     36  C   UNL A   1      41.701  33.894  32.563  1.00  0.00     0.031 A 
ATOM     37  C   UNL A   1      42.208  32.514  32.418  1.00  0.00     0.074 A 
ATOM     38  C   UNL A   1      40.858  34.169  33.618  1.00  0.00     0.049 A 
ATOM     39  N   UNL A   1      41.632  31.688  31.612  1.00  0.00    -0.248 NA
ATOM     40  C   UNL A   1      43.573  32.118  32.799  1.00  0.00     0.031 C 
ATOM     41  C   UNL A   1      40.200  35.416  34.002  1.00  0.00     0.029 A 
ATOM     42  N   UNL A   1      40.372  33.315  34.625  1.00  0.00    -0.354 N 
ATOM     43  C   UNL A   1      42.401  30.550  31.644  1.00  0.00     0.074 A 
ATOM     44  C   UNL A   1      43.687  30.960  32.140  1.00  0.00     0.031 C 
ATOM     45  C   UNL A   1      39.607  35.321  35.227  1.00  0.00     0.029 A 
ATOM     46  C   UNL A   1      39.698  33.944  35.725  1.00  0.00     0.049 A 
ATOM     47  H   UNL A   1      40.487  32.338  34.578  1.00  0.00     0.167 HD
ATOM     48  C   UNL A   1      41.777  29.347  31.591  1.00  0.00     0.031 A 
ATOM     49  C   UNL A   1      38.820  33.419  36.663  1.00  0.00     0.031 A 
ATOM     50  C   UNL A   1      40.381  29.520  31.257  1.00  0.00     0.049 A 
ATOM     51  C   UNL A   1      38.286  32.185  36.061  1.00  0.00     0.074 A 
ATOM     52  C   UNL A   1      39.672  29.866  30.125  1.00  0.00     0.029 A 
ATOM     53  N   UNL A   1      39.606  29.857  32.343  1.00  0.00    -0.354 N 
ATOM     54  N   UNL A   1      37.415  32.193  35.097  1.00  0.00    -0.248 NA
ATOM     55  C   UNL A   1      39.026  30.947  36.255  1.00  0.00     0.031 C 
ATOM     56  C   UNL A   1      38.522  30.575  30.578  1.00  0.00     0.029 A 
ATOM     57  C   UNL A   1      38.486  30.548  31.970  1.00  0.00     0.049 A 
ATOM     58  H   UNL A   1      39.831  29.630  33.274  1.00  0.00     0.167 HD
ATOM     59  C   UNL A   1      37.832  31.163  34.282  1.00  0.00     0.074 A 
ATOM     60  C   UNL A   1      38.728  30.346  35.102  1.00  0.00     0.031 C 
ATOM     61  C   UNL A   1      37.669  31.254  32.935  1.00  0.00     0.031 A 
BRANCH  48  62
ATOM     62  C   UNL A   1      42.277  28.132  32.312  1.00  0.00    -0.014 A 
ATOM     63  C   UNL A   1      43.311  27.304  31.829  1.00  0.00     0.010 A 
ATOM     64  C   UNL A   1      41.845  27.915  33.632  1.00  0.00     0.010 A 
ATOM     65  C   UNL A   1      43.837  26.261  32.589  1.00  0.00     0.020 A 
ATOM     66  C   UNL A   1      42.387  26.892  34.418  1.00  0.00     0.020 A 
ATOM     67  C   UNL A   1      43.358  26.052  33.877  1.00  0.00     0.054 A 
BRANCH  67  68
ATOM     68  S   UNL A   1      44.022  24.659  34.815  1.00  0.00     0.124 S 
ATOM     69  O   UNL A   1      44.097  25.220  36.162  1.00  0.00    -0.237 OA
ATOM     70  O   UNL A   1      43.002  23.633  34.617  1.00  0.00    -0.237 OA
ATOM     71  O   UNL A   1      45.308  24.396  34.178  1.00  0.00    -0.744 OA
ENDBRANCH  67  68
ENDBRANCH  48  62
BRANCH  49  72
ATOM     72  C   UNL A   1      38.784  33.463  38.191  1.00  0.00    -0.014 A 
ATOM     73  C   UNL A   1      37.972  32.575  38.910  1.00  0.00     0.010 A 
ATOM     74  C   UNL A   1      39.288  34.581  38.928  1.00  0.00     0.010 A 
ATOM     75  C   UNL A   1      37.592  32.830  40.249  1.00  0.00     0.020 A 
ATOM     76  C   UNL A   1      38.920  34.838  40.278  1.00  0.00     0.020 A 
ATOM     77  C   UNL A   1      38.032  33.977  40.916  1.00  0.00     0.054 A 
BRANCH  77  78
ATOM     78  S   UNL A   1      37.344  34.341  42.573  1.00  0.00     0.124 S 
ATOM     79  O   UNL A   1      35.908  34.203  42.347  1.00  0.00    -0.237 OA
ATOM     80  O   UNL A   1      37.944  33.300  43.405  1.00  0.00    -0.237 OA
ATOM     81  O   UNL A   1      37.800  35.698  42.860  1.00  0.00    -0.744 OA
ENDBRANCH  77  78
ENDBRANCH  49  72
BRANCH  61  82
ATOM     82  C   UNL A   1      36.635  32.210  32.393  1.00  0.00    -0.014 A 
ATOM     83  C   UNL A   1      37.014  33.562  32.371  1.00  0.00     0.010 A 
ATOM     84  C   UNL A   1      35.308  31.875  32.059  1.00  0.00     0.010 A 
ATOM     85  C   UNL A   1      36.089  34.564  32.104  1.00  0.00     0.020 A 
ATOM     86  C   UNL A   1      34.373  32.883  31.756  1.00  0.00     0.020 A 
ATOM     87  C   UNL A   1      34.768  34.224  31.813  1.00  0.00     0.054 A 
BRANCH  87  88
ATOM     88  S   UNL A   1      33.598  35.582  31.543  1.00  0.00     0.124 S 
ATOM     89  O   UNL A   1      34.239  36.688  32.252  1.00  0.00    -0.237 OA
ATOM     90  O   UNL A   1      33.580  35.706  30.086  1.00  0.00    -0.237 OA
ATOM     91  O   UNL A   1      32.351  35.105  32.137  1.00  0.00    -0.744 OA
ENDBRANCH  87  88
ENDBRANCH  61  82
ENDBRANCH  35  36
ENDBRANCH  28  30
ENDBRANCH  27  28
ENDBRANCH  26  27
ENDBRANCH   1  26
TORSDOF 20
ENDMDL
