MODEL 1
REMARK VINA RESULT:     -14.3      0.000      0.000
REMARK SMILES COc1ccc(C)cc1Nc1nc(OCC(=O)OCCOC(=O)c2ccc(-c3c4nc(c(-c5ccc(S(=O)(=O)[O-])cc5)c5ccc([nH]5)c(-c5ccc(S(=O)(=O)[O-])cc5)c5nc(c(-c6ccc(S(=O)(=O)[O-])cc6)c6ccc3[nH]6)C=C5)C=C4)cc2)cc(C(C)(C)C)n1
REMARK SMILES IDX 19 1 18 2 16 3 17 4 15 5 14 6 13 7 11 8 12 9 90 10 85 11
REMARK SMILES IDX 84 12 10 13 9 15 3 16 4 17 5 18 8 19 6 20 7 21 2 22 1 23
REMARK SMILES IDX 86 24 87 25 88 26 89 27 20 28 21 29 22 30 23 31 24 32 25 33
REMARK SMILES IDX 83 34 26 35 82 36 27 37 28 38 29 39 76 40 30 41 81 42 75 43
REMARK SMILES IDX 77 44 31 45 80 46 74 47 73 48 32 50 62 51 43 52 61 53 44 54
REMARK SMILES IDX 47 55 60 56 78 57 45 58 46 59 59 61 79 62 48 63 33 64 34 65
REMARK SMILES IDX 42 66 35 67 41 68 36 69 37 70 38 71 39 72 40 73 63 74 64 75
REMARK SMILES IDX 72 76 65 77 71 78 66 79 67 80 68 81 69 82 70 83 49 84 50 85
REMARK SMILES IDX 58 86 51 87 57 88 52 89 53 90 54 91 55 92 56 93
REMARK H PARENT 10 14 77 49 47 60
REMARK Flexibility Score: inf
ROOT
ATOM      1  C   UNL A   1      44.227  29.042  27.195  1.00  0.00     0.274 C 
ENDROOT
BRANCH   1   2
ATOM      2  O   UNL A   1      43.182  27.757  26.615  1.00  0.00    -0.460 OA
BRANCH   2   3
ATOM      3  C   UNL A   1      42.263  27.082  25.808  1.00  0.00     0.344 C 
ATOM      4  O   UNL A   1      42.597  27.047  24.600  1.00  0.00    -0.248 OA
BRANCH   3   5
ATOM      5  C   UNL A   1      40.741  26.229  26.087  1.00  0.00     0.353 C 
BRANCH   5   6
ATOM      6  O   UNL A   1      39.791  25.708  27.076  1.00  0.00    -0.466 OA
BRANCH   6   7
ATOM      7  C   UNL A   1      39.315  24.415  26.884  1.00  0.00     0.218 A 
ATOM      8  C   UNL A   1      39.814  22.259  26.634  1.00  0.00     0.230 A 
ATOM      9  N   UNL A   1      40.183  23.443  27.119  1.00  0.00    -0.177 NA
ATOM     10  N   UNL A   1      38.673  21.971  25.978  1.00  0.00    -0.217 NA
ATOM     11  C   UNL A   1      37.764  22.949  25.809  1.00  0.00     0.055 A 
ATOM     12  C   UNL A   1      38.002  24.169  26.423  1.00  0.00     0.093 A 
BRANCH   8  13
ATOM     13  N   UNL A   1      40.773  21.272  26.751  1.00  0.00    -0.321 N 
ATOM     14  H   UNL A   1      40.568  20.503  27.330  1.00  0.00     0.170 HD
BRANCH  13  15
ATOM     15  C   UNL A   1      42.020  21.286  26.103  1.00  0.00     0.084 A 
ATOM     16  C   UNL A   1      42.727  20.086  25.992  1.00  0.00     0.142 A 
ATOM     17  C   UNL A   1      43.978  20.053  25.382  1.00  0.00     0.049 A 
ATOM     18  C   UNL A   1      44.546  21.234  24.895  1.00  0.00     0.007 A 
ATOM     19  C   UNL A   1      42.591  22.463  25.590  1.00  0.00     0.033 A 
ATOM     20  C   UNL A   1      43.857  22.447  24.992  1.00  0.00    -0.049 A 
ATOM     21  C   UNL A   1      44.450  23.736  24.500  1.00  0.00     0.044 C 
BRANCH  16  22
ATOM     22  O   UNL A   1      42.116  18.937  26.436  1.00  0.00    -0.495 OA
ATOM     23  C   UNL A   1      43.060  17.916  26.730  1.00  0.00     0.278 C 
ENDBRANCH  16  22
ENDBRANCH  13  15
ENDBRANCH   8  13
BRANCH  11  24
ATOM     24  C   UNL A   1      36.582  22.588  24.868  1.00  0.00     0.004 C 
ATOM     25  C   UNL A   1      36.302  21.050  24.893  1.00  0.00     0.017 C 
ATOM     26  C   UNL A   1      35.310  23.261  25.419  1.00  0.00     0.017 C 
ATOM     27  C   UNL A   1      36.670  23.007  23.380  1.00  0.00     0.017 C 
ENDBRANCH  11  24
ENDBRANCH   6   7
ENDBRANCH   5   6
ENDBRANCH   3   5
ENDBRANCH   2   3
ENDBRANCH   1   2
BRANCH   1  28
ATOM     28  C   UNL A   1      45.068  29.267  28.907  1.00  0.00     0.275 C 
BRANCH  28  29
ATOM     29  O   UNL A   1      44.169  29.005  30.561  1.00  0.00    -0.458 OA
BRANCH  29  30
ATOM     30  C   UNL A   1      44.307  29.298  32.265  1.00  0.00     0.338 C 
ATOM     31  O   UNL A   1      45.478  29.104  32.644  1.00  0.00    -0.246 OA
BRANCH  30  32
ATOM     32  C   UNL A   1      43.156  29.577  33.736  1.00  0.00     0.060 A 
ATOM     33  C   UNL A   1      42.155  28.633  33.975  1.00  0.00     0.016 A 
ATOM     34  C   UNL A   1      42.649  30.808  34.436  1.00  0.00     0.016 A 
ATOM     35  C   UNL A   1      40.743  29.085  34.208  1.00  0.00     0.010 A 
ATOM     36  C   UNL A   1      41.349  31.202  34.859  1.00  0.00     0.010 A 
ATOM     37  C   UNL A   1      40.354  30.457  34.321  1.00  0.00    -0.014 A 
BRANCH  37  38
ATOM     38  C   UNL A   1      39.274  31.279  33.542  1.00  0.00     0.031 A 
ATOM     39  C   UNL A   1      38.567  30.587  32.454  1.00  0.00     0.074 A 
ATOM     40  C   UNL A   1      38.534  32.417  33.832  1.00  0.00     0.049 A 
ATOM     41  N   UNL A   1      38.988  30.508  31.238  1.00  0.00    -0.248 NA
ATOM     42  C   UNL A   1      37.219  30.039  32.687  1.00  0.00     0.031 C 
ATOM     43  C   UNL A   1      37.831  33.339  32.920  1.00  0.00     0.029 A 
ATOM     44  N   UNL A   1      38.476  33.215  34.948  1.00  0.00    -0.354 N 
ATOM     45  C   UNL A   1      37.833  30.309  30.508  1.00  0.00     0.074 A 
ATOM     46  C   UNL A   1      36.845  29.762  31.435  1.00  0.00     0.031 C 
ATOM     47  C   UNL A   1      38.016  34.616  33.363  1.00  0.00     0.029 A 
ATOM     48  C   UNL A   1      38.725  34.556  34.629  1.00  0.00     0.049 A 
ATOM     49  H   UNL A   1      38.282  32.887  35.856  1.00  0.00     0.167 HD
ATOM     50  C   UNL A   1      37.498  31.137  29.470  1.00  0.00     0.031 A 
ATOM     51  C   UNL A   1      39.956  35.047  35.017  1.00  0.00     0.031 A 
ATOM     52  C   UNL A   1      38.210  32.428  29.509  1.00  0.00     0.049 A 
ATOM     53  C   UNL A   1      40.918  35.001  33.801  1.00  0.00     0.074 A 
ATOM     54  C   UNL A   1      37.761  33.740  29.609  1.00  0.00     0.029 A 
ATOM     55  N   UNL A   1      39.580  32.487  29.759  1.00  0.00    -0.354 N 
ATOM     56  N   UNL A   1      40.521  34.605  32.624  1.00  0.00    -0.248 NA
ATOM     57  C   UNL A   1      42.355  35.306  33.784  1.00  0.00     0.031 C 
ATOM     58  C   UNL A   1      38.847  34.564  30.000  1.00  0.00     0.029 A 
ATOM     59  C   UNL A   1      39.963  33.763  30.131  1.00  0.00     0.049 A 
ATOM     60  H   UNL A   1      40.194  31.721  29.680  1.00  0.00     0.167 HD
ATOM     61  C   UNL A   1      41.561  34.520  31.744  1.00  0.00     0.074 A 
ATOM     62  C   UNL A   1      42.693  35.013  32.507  1.00  0.00     0.031 C 
ATOM     63  C   UNL A   1      41.354  34.051  30.476  1.00  0.00     0.031 A 
BRANCH  50  64
ATOM     64  C   UNL A   1      36.247  30.886  28.653  1.00  0.00    -0.014 A 
ATOM     65  C   UNL A   1      36.105  29.715  27.887  1.00  0.00     0.010 A 
ATOM     66  C   UNL A   1      35.130  31.751  28.688  1.00  0.00     0.010 A 
ATOM     67  C   UNL A   1      34.955  29.455  27.133  1.00  0.00     0.020 A 
ATOM     68  C   UNL A   1      33.979  31.515  27.922  1.00  0.00     0.020 A 
ATOM     69  C   UNL A   1      33.900  30.362  27.148  1.00  0.00     0.054 A 
BRANCH  69  70
ATOM     70  S   UNL A   1      32.414  29.979  26.187  1.00  0.00     0.124 S 
ATOM     71  O   UNL A   1      31.692  31.248  26.206  1.00  0.00    -0.237 OA
ATOM     72  O   UNL A   1      32.973  29.592  24.894  1.00  0.00    -0.237 OA
ATOM     73  O   UNL A   1      31.782  28.898  26.939  1.00  0.00    -0.744 OA
ENDBRANCH  69  70
ENDBRANCH  50  64
BRANCH  51  74
ATOM     74  C   UNL A   1      40.287  34.435  36.400  1.00  0.00    -0.014 A 
ATOM     75  C   UNL A   1      41.461  34.696  37.073  1.00  0.00     0.010 A 
ATOM     76  C   UNL A   1      39.228  34.525  37.260  1.00  0.00     0.010 A 
ATOM     77  C   UNL A   1      41.439  35.213  38.452  1.00  0.00     0.020 A 
ATOM     78  C   UNL A   1      39.265  35.457  38.430  1.00  0.00     0.020 A 
ATOM     79  C   UNL A   1      40.256  35.707  39.299  1.00  0.00     0.054 A 
BRANCH  79  80
ATOM     80  S   UNL A   1      39.839  35.655  41.633  1.00  0.00     0.124 S 
ATOM     81  O   UNL A   1      38.870  34.656  42.051  1.00  0.00    -0.237 OA
ATOM     82  O   UNL A   1      41.021  35.431  42.447  1.00  0.00    -0.237 OA
ATOM     83  O   UNL A   1      39.216  36.923  41.858  1.00  0.00    -0.744 OA
ENDBRANCH  79  80
ENDBRANCH  51  74
BRANCH  63  84
ATOM     84  C   UNL A   1      42.360  33.925  29.360  1.00  0.00    -0.014 A 
ATOM     85  C   UNL A   1      43.243  32.857  29.168  1.00  0.00     0.010 A 
ATOM     86  C   UNL A   1      42.384  34.962  28.388  1.00  0.00     0.010 A 
ATOM     87  C   UNL A   1      44.159  32.869  28.100  1.00  0.00     0.020 A 
ATOM     88  C   UNL A   1      43.253  34.964  27.304  1.00  0.00     0.020 A 
ATOM     89  C   UNL A   1      44.168  33.931  27.189  1.00  0.00     0.054 A 
BRANCH  89  90
ATOM     90  S   UNL A   1      45.367  33.961  25.836  1.00  0.00     0.124 S 
ATOM     91  O   UNL A   1      44.504  33.793  24.670  1.00  0.00    -0.237 OA
ATOM     92  O   UNL A   1      45.985  35.277  25.977  1.00  0.00    -0.237 OA
ATOM     93  O   UNL A   1      46.248  32.832  26.129  1.00  0.00    -0.744 OA
ENDBRANCH  89  90
ENDBRANCH  63  84
ENDBRANCH  37  38
ENDBRANCH  30  32
ENDBRANCH  29  30
ENDBRANCH  28  29
ENDBRANCH   1  28
TORSDOF 20
ENDMDL
MODEL 2
REMARK VINA RESULT:     -14.1      4.080      8.521
REMARK SMILES COc1ccc(C)cc1Nc1nc(OCC(=O)OCCOC(=O)c2ccc(-c3c4nc(c(-c5ccc(S(=O)(=O)[O-])cc5)c5ccc([nH]5)c(-c5ccc(S(=O)(=O)[O-])cc5)c5nc(c(-c6ccc(S(=O)(=O)[O-])cc6)c6ccc3[nH]6)C=C5)C=C4)cc2)cc(C(C)(C)C)n1
REMARK SMILES IDX 19 1 18 2 16 3 17 4 15 5 14 6 13 7 11 8 12 9 90 10 85 11
REMARK SMILES IDX 84 12 10 13 9 15 3 16 4 17 5 18 8 19 6 20 7 21 2 22 1 23
REMARK SMILES IDX 86 24 87 25 88 26 89 27 20 28 21 29 22 30 23 31 24 32 25 33
REMARK SMILES IDX 83 34 26 35 82 36 27 37 28 38 29 39 76 40 30 41 81 42 75 43
REMARK SMILES IDX 77 44 31 45 80 46 74 47 73 48 32 50 62 51 43 52 61 53 44 54
REMARK SMILES IDX 47 55 60 56 78 57 45 58 46 59 59 61 79 62 48 63 33 64 34 65
REMARK SMILES IDX 42 66 35 67 41 68 36 69 37 70 38 71 39 72 40 73 63 74 64 75
REMARK SMILES IDX 72 76 65 77 71 78 66 79 67 80 68 81 69 82 70 83 49 84 50 85
REMARK SMILES IDX 58 86 51 87 57 88 52 89 53 90 54 91 55 92 56 93
REMARK H PARENT 10 14 77 49 47 60
REMARK Flexibility Score: inf
ROOT
ATOM      1  C   UNL A   1      47.522  31.404  28.741  1.00  0.00     0.274 C 
ENDROOT
BRANCH   1   2
ATOM      2  O   UNL A   1      47.125  29.727  29.075  1.00  0.00    -0.460 OA
BRANCH   2   3
ATOM      3  C   UNL A   1      46.467  28.622  29.620  1.00  0.00     0.344 C 
ATOM      4  O   UNL A   1      47.237  27.668  29.881  1.00  0.00    -0.248 OA
BRANCH   3   5
ATOM      5  C   UNL A   1      44.799  28.252  30.065  1.00  0.00     0.353 C 
BRANCH   5   6
ATOM      6  O   UNL A   1      43.733  27.244  30.097  1.00  0.00    -0.466 OA
BRANCH   6   7
ATOM      7  C   UNL A   1      44.075  25.967  30.532  1.00  0.00     0.218 A 
ATOM      8  C   UNL A   1      43.920  23.772  30.186  1.00  0.00     0.230 A 
ATOM      9  N   UNL A   1      43.890  24.993  29.654  1.00  0.00    -0.177 NA
ATOM     10  N   UNL A   1      44.139  23.455  31.477  1.00  0.00    -0.217 NA
ATOM     11  C   UNL A   1      44.399  24.447  32.348  1.00  0.00     0.055 A 
ATOM     12  C   UNL A   1      44.543  25.731  31.844  1.00  0.00     0.093 A 
BRANCH   8  13
ATOM     13  N   UNL A   1      43.591  22.760  29.306  1.00  0.00    -0.321 N 
ATOM     14  H   UNL A   1      43.320  21.893  29.686  1.00  0.00     0.170 HD
BRANCH  13  15
ATOM     15  C   UNL A   1      43.615  22.878  27.905  1.00  0.00     0.084 A 
ATOM     16  C   UNL A   1      42.414  22.733  27.204  1.00  0.00     0.142 A 
ATOM     17  C   UNL A   1      42.390  22.814  25.815  1.00  0.00     0.049 A 
ATOM     18  C   UNL A   1      43.579  23.021  25.109  1.00  0.00     0.007 A 
ATOM     19  C   UNL A   1      44.800  23.107  27.186  1.00  0.00     0.033 A 
ATOM     20  C   UNL A   1      44.792  23.172  25.788  1.00  0.00    -0.049 A 
ATOM     21  C   UNL A   1      46.089  23.371  25.058  1.00  0.00     0.044 C 
BRANCH  16  22
ATOM     22  O   UNL A   1      41.259  22.582  27.934  1.00  0.00    -0.495 OA
ATOM     23  C   UNL A   1      40.225  21.981  27.166  1.00  0.00     0.278 C 
ENDBRANCH  16  22
ENDBRANCH  13  15
ENDBRANCH   8  13
BRANCH  11  24
ATOM     24  C   UNL A   1      44.432  24.017  33.840  1.00  0.00     0.004 C 
ATOM     25  C   UNL A   1      43.413  24.854  34.680  1.00  0.00     0.017 C 
ATOM     26  C   UNL A   1      43.954  22.554  33.926  1.00  0.00     0.017 C 
ATOM     27  C   UNL A   1      45.784  24.065  34.591  1.00  0.00     0.017 C 
ENDBRANCH  11  24
ENDBRANCH   6   7
ENDBRANCH   5   6
ENDBRANCH   3   5
ENDBRANCH   2   3
ENDBRANCH   1   2
BRANCH   1  28
ATOM     28  C   UNL A   1      46.453  32.986  28.937  1.00  0.00     0.275 C 
BRANCH  28  29
ATOM     29  O   UNL A   1      44.584  33.041  28.589  1.00  0.00    -0.458 OA
BRANCH  29  30
ATOM     30  C   UNL A   1      43.200  34.082  28.665  1.00  0.00     0.338 C 
ATOM     31  O   UNL A   1      43.086  34.729  27.605  1.00  0.00    -0.246 OA
BRANCH  30  32
ATOM     32  C   UNL A   1      41.979  34.697  29.968  1.00  0.00     0.060 A 
ATOM     33  C   UNL A   1      42.494  35.325  31.105  1.00  0.00     0.016 A 
ATOM     34  C   UNL A   1      40.616  34.238  30.410  1.00  0.00     0.016 A 
ATOM     35  C   UNL A   1      42.022  34.907  32.467  1.00  0.00     0.010 A 
ATOM     36  C   UNL A   1      40.051  34.014  31.697  1.00  0.00     0.010 A 
ATOM     37  C   UNL A   1      40.969  33.964  32.691  1.00  0.00    -0.014 A 
BRANCH  37  38
ATOM     38  C   UNL A   1      40.942  32.648  33.536  1.00  0.00     0.031 A 
ATOM     39  C   UNL A   1      42.240  32.048  33.878  1.00  0.00     0.074 A 
ATOM     40  C   UNL A   1      40.004  32.058  34.372  1.00  0.00     0.049 A 
ATOM     41  N   UNL A   1      42.891  31.227  33.126  1.00  0.00    -0.248 NA
ATOM     42  C   UNL A   1      42.822  32.268  35.213  1.00  0.00     0.031 C 
ATOM     43  C   UNL A   1      39.894  30.657  34.822  1.00  0.00     0.029 A 
ATOM     44  N   UNL A   1      38.753  32.458  34.776  1.00  0.00    -0.354 N 
ATOM     45  C   UNL A   1      43.680  30.528  34.018  1.00  0.00     0.074 A 
ATOM     46  C   UNL A   1      43.809  31.368  35.205  1.00  0.00     0.031 C 
ATOM     47  C   UNL A   1      38.578  30.301  34.821  1.00  0.00     0.029 A 
ATOM     48  C   UNL A   1      37.792  31.478  34.499  1.00  0.00     0.049 A 
ATOM     49  H   UNL A   1      38.559  33.321  35.206  1.00  0.00     0.167 HD
ATOM     50  C   UNL A   1      43.644  29.160  34.076  1.00  0.00     0.031 A 
ATOM     51  C   UNL A   1      36.938  31.754  33.449  1.00  0.00     0.031 A 
ATOM     52  C   UNL A   1      42.435  28.588  33.456  1.00  0.00     0.049 A 
ATOM     53  C   UNL A   1      37.455  31.027  32.181  1.00  0.00     0.074 A 
ATOM     54  C   UNL A   1      41.403  27.808  33.965  1.00  0.00     0.029 A 
ATOM     55  N   UNL A   1      41.982  29.036  32.216  1.00  0.00    -0.354 N 
ATOM     56  N   UNL A   1      38.502  30.250  32.211  1.00  0.00    -0.248 NA
ATOM     57  C   UNL A   1      36.936  31.137  30.810  1.00  0.00     0.031 C 
ATOM     58  C   UNL A   1      40.306  27.862  33.067  1.00  0.00     0.029 A 
ATOM     59  C   UNL A   1      40.665  28.665  32.004  1.00  0.00     0.049 A 
ATOM     60  H   UNL A   1      42.527  29.549  31.576  1.00  0.00     0.167 HD
ATOM     61  C   UNL A   1      38.851  29.826  30.961  1.00  0.00     0.074 A 
ATOM     62  C   UNL A   1      37.809  30.374  30.112  1.00  0.00     0.031 C 
ATOM     63  C   UNL A   1      39.969  29.060  30.781  1.00  0.00     0.031 A 
BRANCH  50  64
ATOM     64  C   UNL A   1      44.543  28.403  35.032  1.00  0.00    -0.014 A 
ATOM     65  C   UNL A   1      45.876  28.108  34.694  1.00  0.00     0.010 A 
ATOM     66  C   UNL A   1      44.131  28.041  36.335  1.00  0.00     0.010 A 
ATOM     67  C   UNL A   1      46.728  27.420  35.566  1.00  0.00     0.020 A 
ATOM     68  C   UNL A   1      44.967  27.333  37.212  1.00  0.00     0.020 A 
ATOM     69  C   UNL A   1      46.266  27.028  36.818  1.00  0.00     0.054 A 
BRANCH  69  70
ATOM     70  S   UNL A   1      47.405  26.168  37.932  1.00  0.00     0.124 S 
ATOM     71  O   UNL A   1      46.661  24.957  38.268  1.00  0.00    -0.237 OA
ATOM     72  O   UNL A   1      48.578  25.971  37.084  1.00  0.00    -0.237 OA
ATOM     73  O   UNL A   1      47.588  27.107  39.036  1.00  0.00    -0.744 OA
ENDBRANCH  69  70
ENDBRANCH  50  64
BRANCH  51  74
ATOM     74  C   UNL A   1      36.610  33.267  33.500  1.00  0.00    -0.014 A 
ATOM     75  C   UNL A   1      36.928  34.137  32.482  1.00  0.00     0.010 A 
ATOM     76  C   UNL A   1      35.328  33.492  33.921  1.00  0.00     0.010 A 
ATOM     77  C   UNL A   1      35.893  34.980  31.860  1.00  0.00     0.020 A 
ATOM     78  C   UNL A   1      34.286  33.998  32.974  1.00  0.00     0.020 A 
ATOM     79  C   UNL A   1      34.367  34.958  32.041  1.00  0.00     0.054 A 
BRANCH  79  80
ATOM     80  S   UNL A   1      32.728  36.670  31.942  1.00  0.00     0.124 S 
ATOM     81  O   UNL A   1      31.947  36.827  33.158  1.00  0.00    -0.237 OA
ATOM     82  O   UNL A   1      33.257  37.987  31.635  1.00  0.00    -0.237 OA
ATOM     83  O   UNL A   1      31.823  36.166  30.957  1.00  0.00    -0.744 OA
ENDBRANCH  79  80
ENDBRANCH  51  74
BRANCH  63  84
ATOM     84  C   UNL A   1      40.488  28.467  29.495  1.00  0.00    -0.014 A 
ATOM     85  C   UNL A   1      40.334  27.139  29.084  1.00  0.00     0.010 A 
ATOM     86  C   UNL A   1      41.156  29.344  28.599  1.00  0.00     0.010 A 
ATOM     87  C   UNL A   1      40.891  26.696  27.871  1.00  0.00     0.020 A 
ATOM     88  C   UNL A   1      41.672  28.930  27.377  1.00  0.00     0.020 A 
ATOM     89  C   UNL A   1      41.571  27.591  27.037  1.00  0.00     0.054 A 
BRANCH  89  90
ATOM     90  S   UNL A   1      42.315  27.015  25.493  1.00  0.00     0.124 S 
ATOM     91  O   UNL A   1      43.595  26.488  25.959  1.00  0.00    -0.237 OA
ATOM     92  O   UNL A   1      41.358  26.017  25.023  1.00  0.00    -0.237 OA
ATOM     93  O   UNL A   1      42.397  28.224  24.676  1.00  0.00    -0.744 OA
ENDBRANCH  89  90
ENDBRANCH  63  84
ENDBRANCH  37  38
ENDBRANCH  30  32
ENDBRANCH  29  30
ENDBRANCH  28  29
ENDBRANCH   1  28
TORSDOF 20
ENDMDL
MODEL 3
REMARK VINA RESULT:     -13.7      4.564      9.399
REMARK SMILES COc1ccc(C)cc1Nc1nc(OCC(=O)OCCOC(=O)c2ccc(-c3c4nc(c(-c5ccc(S(=O)(=O)[O-])cc5)c5ccc([nH]5)c(-c5ccc(S(=O)(=O)[O-])cc5)c5nc(c(-c6ccc(S(=O)(=O)[O-])cc6)c6ccc3[nH]6)C=C5)C=C4)cc2)cc(C(C)(C)C)n1
REMARK SMILES IDX 19 1 18 2 16 3 17 4 15 5 14 6 13 7 11 8 12 9 90 10 85 11
REMARK SMILES IDX 84 12 10 13 9 15 3 16 4 17 5 18 8 19 6 20 7 21 2 22 1 23
REMARK SMILES IDX 86 24 87 25 88 26 89 27 20 28 21 29 22 30 23 31 24 32 25 33
REMARK SMILES IDX 83 34 26 35 82 36 27 37 28 38 29 39 76 40 30 41 81 42 75 43
REMARK SMILES IDX 77 44 31 45 80 46 74 47 73 48 32 50 62 51 43 52 61 53 44 54
REMARK SMILES IDX 47 55 60 56 78 57 45 58 46 59 59 61 79 62 48 63 33 64 34 65
REMARK SMILES IDX 42 66 35 67 41 68 36 69 37 70 38 71 39 72 40 73 63 74 64 75
REMARK SMILES IDX 72 76 65 77 71 78 66 79 67 80 68 81 69 82 70 83 49 84 50 85
REMARK SMILES IDX 58 86 51 87 57 88 52 89 53 90 54 91 55 92 56 93
REMARK H PARENT 10 14 77 49 47 60
REMARK Flexibility Score: inf
ROOT
ATOM      1  C   UNL A   1      34.434  31.962  28.119  1.00  0.00     0.274 C 
ENDROOT
BRANCH   1   2
ATOM      2  O   UNL A   1      33.097  31.085  27.395  1.00  0.00    -0.460 OA
BRANCH   2   3
ATOM      3  C   UNL A   1      32.354  30.014  26.893  1.00  0.00     0.344 C 
ATOM      4  O   UNL A   1      32.020  30.163  25.694  1.00  0.00    -0.248 OA
BRANCH   3   5
ATOM      5  C   UNL A   1      31.790  28.470  27.538  1.00  0.00     0.353 C 
BRANCH   5   6
ATOM      6  O   UNL A   1      30.887  27.326  27.368  1.00  0.00    -0.466 OA
BRANCH   6   7
ATOM      7  C   UNL A   1      31.197  26.412  26.366  1.00  0.00     0.218 A 
ATOM      8  C   UNL A   1      32.107  24.445  25.849  1.00  0.00     0.230 A 
ATOM      9  N   UNL A   1      31.519  25.195  26.779  1.00  0.00    -0.177 NA
ATOM     10  N   UNL A   1      32.367  24.792  24.573  1.00  0.00    -0.217 NA
ATOM     11  C   UNL A   1      31.970  26.003  24.142  1.00  0.00     0.055 A 
ATOM     12  C   UNL A   1      31.210  26.781  25.002  1.00  0.00     0.093 A 
BRANCH   8  13
ATOM     13  N   UNL A   1      32.571  23.228  26.308  1.00  0.00    -0.321 N 
ATOM     14  H   UNL A   1      31.988  22.716  26.913  1.00  0.00     0.170 HD
BRANCH  13  15
ATOM     15  C   UNL A   1      33.816  22.669  25.973  1.00  0.00     0.084 A 
ATOM     16  C   UNL A   1      33.853  21.345  25.524  1.00  0.00     0.142 A 
ATOM     17  C   UNL A   1      35.064  20.737  25.205  1.00  0.00     0.049 A 
ATOM     18  C   UNL A   1      36.259  21.447  25.356  1.00  0.00     0.007 A 
ATOM     19  C   UNL A   1      35.022  23.379  26.099  1.00  0.00     0.033 A 
ATOM     20  C   UNL A   1      36.249  22.773  25.801  1.00  0.00    -0.049 A 
ATOM     21  C   UNL A   1      37.516  23.553  25.995  1.00  0.00     0.044 C 
BRANCH  16  22
ATOM     22  O   UNL A   1      32.655  20.697  25.340  1.00  0.00    -0.495 OA
ATOM     23  C   UNL A   1      32.826  19.289  25.243  1.00  0.00     0.278 C 
ENDBRANCH  16  22
ENDBRANCH  13  15
ENDBRANCH   8  13
BRANCH  11  24
ATOM     24  C   UNL A   1      32.490  26.399  22.733  1.00  0.00     0.004 C 
ATOM     25  C   UNL A   1      33.048  27.860  22.739  1.00  0.00     0.017 C 
ATOM     26  C   UNL A   1      33.685  25.488  22.390  1.00  0.00     0.017 C 
ATOM     27  C   UNL A   1      31.520  26.292  21.531  1.00  0.00     0.017 C 
ENDBRANCH  11  24
ENDBRANCH   6   7
ENDBRANCH   5   6
ENDBRANCH   3   5
ENDBRANCH   2   3
ENDBRANCH   1   2
BRANCH   1  28
ATOM     28  C   UNL A   1      34.566  32.810  29.837  1.00  0.00     0.275 C 
BRANCH  28  29
ATOM     29  O   UNL A   1      35.294  31.960  31.374  1.00  0.00    -0.458 OA
BRANCH  29  30
ATOM     30  C   UNL A   1      36.584  30.923  31.893  1.00  0.00     0.338 C 
ATOM     31  O   UNL A   1      37.354  31.540  32.656  1.00  0.00    -0.246 OA
BRANCH  30  32
ATOM     32  C   UNL A   1      37.289  29.231  31.441  1.00  0.00     0.060 A 
ATOM     33  C   UNL A   1      37.922  28.494  32.445  1.00  0.00     0.016 A 
ATOM     34  C   UNL A   1      37.847  28.646  30.173  1.00  0.00     0.016 A 
ATOM     35  C   UNL A   1      39.271  27.887  32.187  1.00  0.00     0.010 A 
ATOM     36  C   UNL A   1      39.023  27.890  29.904  1.00  0.00     0.010 A 
ATOM     37  C   UNL A   1      39.924  27.910  30.914  1.00  0.00    -0.014 A 
BRANCH  37  38
ATOM     38  C   UNL A   1      41.347  28.418  30.508  1.00  0.00     0.031 A 
ATOM     39  C   UNL A   1      41.952  27.818  29.310  1.00  0.00     0.074 A 
ATOM     40  C   UNL A   1      42.075  29.568  30.784  1.00  0.00     0.049 A 
ATOM     41  N   UNL A   1      42.640  26.728  29.303  1.00  0.00    -0.248 NA
ATOM     42  C   UNL A   1      41.908  28.539  28.026  1.00  0.00     0.031 C 
ATOM     43  C   UNL A   1      43.529  29.805  30.688  1.00  0.00     0.029 A 
ATOM     44  N   UNL A   1      41.772  30.696  31.505  1.00  0.00    -0.354 N 
ATOM     45  C   UNL A   1      43.436  26.855  28.182  1.00  0.00     0.074 A 
ATOM     46  C   UNL A   1      42.770  27.816  27.306  1.00  0.00     0.031 C 
ATOM     47  C   UNL A   1      43.918  30.559  31.756  1.00  0.00     0.029 A 
ATOM     48  C   UNL A   1      42.729  30.938  32.499  1.00  0.00     0.049 A 
ATOM     49  H   UNL A   1      40.985  31.264  31.344  1.00  0.00     0.167 HD
ATOM     50  C   UNL A   1      44.799  26.745  28.262  1.00  0.00     0.031 A 
ATOM     51  C   UNL A   1      42.332  30.671  33.794  1.00  0.00     0.031 A 
ATOM     52  C   UNL A   1      45.311  26.922  29.634  1.00  0.00     0.049 A 
ATOM     53  C   UNL A   1      42.856  29.268  34.199  1.00  0.00     0.074 A 
ATOM     54  C   UNL A   1      46.184  27.847  30.194  1.00  0.00     0.029 A 
ATOM     55  N   UNL A   1      44.704  26.284  30.715  1.00  0.00    -0.354 N 
ATOM     56  N   UNL A   1      43.600  28.555  33.401  1.00  0.00    -0.248 NA
ATOM     57  C   UNL A   1      42.569  28.526  35.434  1.00  0.00     0.031 C 
ATOM     58  C   UNL A   1      46.034  27.819  31.604  1.00  0.00     0.029 A 
ATOM     59  C   UNL A   1      45.078  26.872  31.912  1.00  0.00     0.049 A 
ATOM     60  H   UNL A   1      44.091  25.518  30.638  1.00  0.00     0.167 HD
ATOM     61  C   UNL A   1      43.833  27.309  33.908  1.00  0.00     0.074 A 
ATOM     62  C   UNL A   1      43.199  27.349  35.213  1.00  0.00     0.031 C 
ATOM     63  C   UNL A   1      44.534  26.388  33.179  1.00  0.00     0.031 A 
BRANCH  50  64
ATOM     64  C   UNL A   1      45.658  26.849  27.019  1.00  0.00    -0.014 A 
ATOM     65  C   UNL A   1      45.297  27.698  25.958  1.00  0.00     0.010 A 
ATOM     66  C   UNL A   1      46.900  26.185  26.896  1.00  0.00     0.010 A 
ATOM     67  C   UNL A   1      46.080  27.819  24.804  1.00  0.00     0.020 A 
ATOM     68  C   UNL A   1      47.685  26.280  25.738  1.00  0.00     0.020 A 
ATOM     69  C   UNL A   1      47.268  27.102  24.696  1.00  0.00     0.054 A 
BRANCH  69  70
ATOM     70  S   UNL A   1      48.271  27.307  23.204  1.00  0.00     0.124 S 
ATOM     71  O   UNL A   1      49.502  27.890  23.731  1.00  0.00    -0.237 OA
ATOM     72  O   UNL A   1      48.384  25.935  22.715  1.00  0.00    -0.237 OA
ATOM     73  O   UNL A   1      47.473  28.201  22.368  1.00  0.00    -0.744 OA
ENDBRANCH  69  70
ENDBRANCH  50  64
BRANCH  51  74
ATOM     74  C   UNL A   1      40.851  31.106  33.927  1.00  0.00    -0.014 A 
ATOM     75  C   UNL A   1      39.862  30.266  34.387  1.00  0.00     0.010 A 
ATOM     76  C   UNL A   1      40.737  32.332  34.522  1.00  0.00     0.010 A 
ATOM     77  C   UNL A   1      39.009  30.658  35.522  1.00  0.00     0.020 A 
ATOM     78  C   UNL A   1      40.183  32.465  35.907  1.00  0.00     0.020 A 
ATOM     79  C   UNL A   1      39.126  31.862  36.471  1.00  0.00     0.054 A 
BRANCH  79  80
ATOM     80  S   UNL A   1      37.497  33.143  37.624  1.00  0.00     0.124 S 
ATOM     81  O   UNL A   1      36.709  32.391  38.586  1.00  0.00    -0.237 OA
ATOM     82  O   UNL A   1      38.035  34.280  38.351  1.00  0.00    -0.237 OA
ATOM     83  O   UNL A   1      36.595  33.503  36.575  1.00  0.00    -0.744 OA
ENDBRANCH  79  80
ENDBRANCH  51  74
BRANCH  63  84
ATOM     84  C   UNL A   1      44.924  24.989  33.584  1.00  0.00    -0.014 A 
ATOM     85  C   UNL A   1      44.127  23.847  33.459  1.00  0.00     0.010 A 
ATOM     86  C   UNL A   1      46.236  24.805  34.097  1.00  0.00     0.010 A 
ATOM     87  C   UNL A   1      44.594  22.596  33.903  1.00  0.00     0.020 A 
ATOM     88  C   UNL A   1      46.726  23.567  34.497  1.00  0.00     0.020 A 
ATOM     89  C   UNL A   1      45.882  22.471  34.434  1.00  0.00     0.054 A 
BRANCH  89  90
ATOM     90  S   UNL A   1      46.470  20.869  35.034  1.00  0.00     0.124 S 
ATOM     91  O   UNL A   1      47.047  20.293  33.823  1.00  0.00    -0.237 OA
ATOM     92  O   UNL A   1      47.429  21.242  36.071  1.00  0.00    -0.237 OA
ATOM     93  O   UNL A   1      45.257  20.216  35.521  1.00  0.00    -0.744 OA
ENDBRANCH  89  90
ENDBRANCH  63  84
ENDBRANCH  37  38
ENDBRANCH  30  32
ENDBRANCH  29  30
ENDBRANCH  28  29
ENDBRANCH   1  28
TORSDOF 20
ENDMDL
