MODEL 1
REMARK VINA RESULT:      -9.4      0.000      0.000
REMARK SMILES CCC[C@@](C)(C/C=C/c1ccccc1)C(=O)OCCOCCOC(=O)c1ccc(-c2c3nc(c(-c4ccc(S(=O)(=O)[O-])cc4)c4ccc([nH]4)c(-c4ccc(S(=O)(=O)[O-])cc4)c4nc(c(-c5ccc(S(=O)(=O)[O-])cc5)c5ccc2[nH]5)C=C4)C=C3)cc1
REMARK SMILES IDX 20 1 19 2 18 3 17 4 15 5 16 6 4 7 5 8 3 9 2 10 1 11 6 12
REMARK SMILES IDX 7 13 8 14 9 15 10 16 14 17 11 18 13 19 12 20 21 21 22 22
REMARK SMILES IDX 23 23 24 24 25 25 26 26 27 27 85 28 28 29 84 30 29 31 30 32
REMARK SMILES IDX 31 33 78 34 32 35 83 36 77 37 79 38 33 39 82 40 76 41 75 42
REMARK SMILES IDX 34 44 64 45 45 46 63 47 46 48 49 49 62 50 80 51 47 52 48 53
REMARK SMILES IDX 61 55 81 56 50 57 35 58 36 59 44 60 37 61 43 62 38 63 39 64
REMARK SMILES IDX 40 65 41 66 42 67 65 68 66 69 74 70 67 71 73 72 68 73 69 74
REMARK SMILES IDX 70 75 71 76 72 77 51 78 52 79 60 80 53 81 59 82 54 83 55 84
REMARK SMILES IDX 56 85 57 86 58 87
REMARK H PARENT 79 43 49 54
REMARK Flexibility Score: inf
ROOT
ATOM      1  O   UNL A   1      35.209  20.560  24.901  1.00  0.00    -0.374 OA
ENDROOT
BRANCH   1   2
ATOM      2  C   UNL A   1      33.790  20.638  25.004  1.00  0.00     0.202 C 
BRANCH   2   3
ATOM      3  C   UNL A   1      33.217  21.546  26.104  1.00  0.00     0.261 C 
BRANCH   3   4
ATOM      4  O   UNL A   1      31.909  22.078  25.820  1.00  0.00    -0.463 OA
BRANCH   4   5
ATOM      5  C   UNL A   1      31.657  23.304  26.343  1.00  0.00     0.312 C 
ATOM      6  O   UNL A   1      31.402  23.499  27.529  1.00  0.00    -0.252 OA
BRANCH   5   7
ATOM      7  C   UNL A   1      31.699  24.455  25.324  1.00  0.00     0.069 C 
ATOM      8  C   UNL A   1      31.522  23.765  23.946  1.00  0.00     0.024 C 
BRANCH   7   9
ATOM      9  C   UNL A   1      30.538  25.462  25.578  1.00  0.00     0.018 C 
BRANCH   9  10
ATOM     10  C   UNL A   1      29.822  26.123  24.390  1.00  0.00    -0.002 C 
ATOM     11  C   UNL A   1      30.301  27.537  24.081  1.00  0.00     0.004 C 
ENDBRANCH   9  10
ENDBRANCH   7   9
BRANCH   7  12
ATOM     12  C   UNL A   1      33.081  25.206  25.237  1.00  0.00     0.046 C 
BRANCH  12  13
ATOM     13  C   UNL A   1      33.328  26.389  26.151  1.00  0.00    -0.025 C 
ATOM     14  C   UNL A   1      33.614  27.628  25.717  1.00  0.00     0.004 C 
BRANCH  14  15
ATOM     15  C   UNL A   1      33.913  28.803  26.564  1.00  0.00    -0.026 A 
ATOM     16  C   UNL A   1      32.973  29.842  26.615  1.00  0.00     0.008 A 
ATOM     17  C   UNL A   1      35.139  28.990  27.223  1.00  0.00     0.008 A 
ATOM     18  C   UNL A   1      33.271  31.053  27.250  1.00  0.00     0.001 A 
ATOM     19  C   UNL A   1      35.440  30.203  27.853  1.00  0.00     0.001 A 
ATOM     20  C   UNL A   1      34.511  31.239  27.853  1.00  0.00     0.000 A 
ENDBRANCH  14  15
ENDBRANCH  12  13
ENDBRANCH   7  12
ENDBRANCH   5   7
ENDBRANCH   4   5
ENDBRANCH   3   4
ENDBRANCH   2   3
ENDBRANCH   1   2
BRANCH   1  21
ATOM     21  C   UNL A   1      35.963  21.580  25.565  1.00  0.00     0.202 C 
BRANCH  21  22
ATOM     22  C   UNL A   1      37.480  21.540  25.365  1.00  0.00     0.261 C 
BRANCH  22  23
ATOM     23  O   UNL A   1      38.091  22.732  25.888  1.00  0.00    -0.460 OA
BRANCH  23  24
ATOM     24  C   UNL A   1      39.273  22.500  26.501  1.00  0.00     0.338 C 
ATOM     25  O   UNL A   1      40.017  21.550  26.336  1.00  0.00    -0.246 OA
BRANCH  24  26
ATOM     26  C   UNL A   1      39.661  23.707  27.249  1.00  0.00     0.060 A 
ATOM     27  C   UNL A   1      38.935  24.878  27.005  1.00  0.00     0.016 A 
ATOM     28  C   UNL A   1      40.796  23.726  28.062  1.00  0.00     0.016 A 
ATOM     29  C   UNL A   1      39.381  26.091  27.529  1.00  0.00     0.010 A 
ATOM     30  C   UNL A   1      41.237  24.946  28.592  1.00  0.00     0.010 A 
ATOM     31  C   UNL A   1      40.558  26.141  28.290  1.00  0.00    -0.014 A 
BRANCH  31  32
ATOM     32  C   UNL A   1      41.137  27.466  28.628  1.00  0.00     0.031 A 
ATOM     33  C   UNL A   1      42.585  27.741  28.315  1.00  0.00     0.074 A 
ATOM     34  C   UNL A   1      40.365  28.445  29.136  1.00  0.00     0.049 A 
ATOM     35  N   UNL A   1      43.261  28.855  28.433  1.00  0.00    -0.248 NA
ATOM     36  C   UNL A   1      43.373  26.612  27.794  1.00  0.00     0.031 C 
ATOM     37  C   UNL A   1      38.944  28.319  29.460  1.00  0.00     0.029 A 
ATOM     38  N   UNL A   1      40.669  29.746  29.452  1.00  0.00    -0.354 N 
ATOM     39  C   UNL A   1      44.548  28.567  27.995  1.00  0.00     0.074 A 
ATOM     40  C   UNL A   1      44.569  27.162  27.644  1.00  0.00     0.031 C 
ATOM     41  C   UNL A   1      38.496  29.500  29.919  1.00  0.00     0.029 A 
ATOM     42  C   UNL A   1      39.599  30.460  29.935  1.00  0.00     0.049 A 
ATOM     43  H   UNL A   1      41.568  30.131  29.343  1.00  0.00     0.167 HD
ATOM     44  C   UNL A   1      45.617  29.394  27.884  1.00  0.00     0.031 A 
ATOM     45  C   UNL A   1      39.513  31.743  30.339  1.00  0.00     0.031 A 
ATOM     46  C   UNL A   1      45.608  30.785  28.250  1.00  0.00     0.049 A 
ATOM     47  C   UNL A   1      40.725  32.632  30.251  1.00  0.00     0.074 A 
ATOM     48  C   UNL A   1      46.640  31.705  28.168  1.00  0.00     0.029 A 
ATOM     49  N   UNL A   1      44.515  31.458  28.774  1.00  0.00    -0.354 N 
ATOM     50  N   UNL A   1      41.926  32.347  29.805  1.00  0.00    -0.248 NA
ATOM     51  C   UNL A   1      40.563  34.021  30.706  1.00  0.00     0.031 C 
ATOM     52  C   UNL A   1      46.182  32.924  28.682  1.00  0.00     0.029 A 
ATOM     53  C   UNL A   1      44.852  32.775  29.039  1.00  0.00     0.049 A 
ATOM     54  H   UNL A   1      43.630  31.059  28.934  1.00  0.00     0.167 HD
ATOM     55  C   UNL A   1      42.656  33.527  29.907  1.00  0.00     0.074 A 
ATOM     56  C   UNL A   1      41.758  34.530  30.442  1.00  0.00     0.031 C 
ATOM     57  C   UNL A   1      43.953  33.760  29.583  1.00  0.00     0.031 A 
BRANCH  44  58
ATOM     58  C   UNL A   1      46.897  28.797  27.364  1.00  0.00    -0.014 A 
ATOM     59  C   UNL A   1      47.137  28.687  25.982  1.00  0.00     0.010 A 
ATOM     60  C   UNL A   1      47.882  28.360  28.268  1.00  0.00     0.010 A 
ATOM     61  C   UNL A   1      48.322  28.110  25.514  1.00  0.00     0.020 A 
ATOM     62  C   UNL A   1      49.076  27.802  27.803  1.00  0.00     0.020 A 
ATOM     63  C   UNL A   1      49.279  27.664  26.428  1.00  0.00     0.054 A 
BRANCH  63  64
ATOM     64  S   UNL A   1      50.811  26.921  25.798  1.00  0.00     0.124 S 
ATOM     65  O   UNL A   1      51.159  27.831  24.710  1.00  0.00    -0.237 OA
ATOM     66  O   UNL A   1      51.694  26.966  26.960  1.00  0.00    -0.237 OA
ATOM     67  O   UNL A   1      50.401  25.582  25.383  1.00  0.00    -0.744 OA
ENDBRANCH  63  64
ENDBRANCH  44  58
BRANCH  45  68
ATOM     68  C   UNL A   1      38.223  32.269  30.861  1.00  0.00    -0.014 A 
ATOM     69  C   UNL A   1      37.948  32.262  32.240  1.00  0.00     0.010 A 
ATOM     70  C   UNL A   1      37.264  32.789  29.973  1.00  0.00     0.010 A 
ATOM     71  C   UNL A   1      36.733  32.759  32.721  1.00  0.00     0.020 A 
ATOM     72  C   UNL A   1      36.058  33.307  30.453  1.00  0.00     0.020 A 
ATOM     73  C   UNL A   1      35.796  33.280  31.824  1.00  0.00     0.054 A 
BRANCH  73  74
ATOM     74  S   UNL A   1      34.252  33.980  32.473  1.00  0.00     0.124 S 
ATOM     75  O   UNL A   1      34.743  34.900  33.495  1.00  0.00    -0.237 OA
ATOM     76  O   UNL A   1      33.664  34.603  31.290  1.00  0.00    -0.237 OA
ATOM     77  O   UNL A   1      33.534  32.810  32.973  1.00  0.00    -0.744 OA
ENDBRANCH  73  74
ENDBRANCH  45  68
BRANCH  57  78
ATOM     78  C   UNL A   1      44.471  35.159  29.780  1.00  0.00    -0.014 A 
ATOM     79  C   UNL A   1      44.357  36.127  28.765  1.00  0.00     0.010 A 
ATOM     80  C   UNL A   1      45.057  35.518  31.007  1.00  0.00     0.010 A 
ATOM     81  C   UNL A   1      44.859  37.417  28.960  1.00  0.00     0.020 A 
ATOM     82  C   UNL A   1      45.540  36.813  31.214  1.00  0.00     0.020 A 
ATOM     83  C   UNL A   1      45.455  37.749  30.182  1.00  0.00     0.054 A 
BRANCH  83  84
ATOM     84  S   UNL A   1      46.085  39.434  30.421  1.00  0.00     0.124 S 
ATOM     85  O   UNL A   1      45.084  40.234  29.721  1.00  0.00    -0.237 OA
ATOM     86  O   UNL A   1      46.096  39.573  31.876  1.00  0.00    -0.237 OA
ATOM     87  O   UNL A   1      47.406  39.399  29.798  1.00  0.00    -0.744 OA
ENDBRANCH  83  84
ENDBRANCH  57  78
ENDBRANCH  31  32
ENDBRANCH  24  26
ENDBRANCH  23  24
ENDBRANCH  22  23
ENDBRANCH  21  22
ENDBRANCH   1  21
TORSDOF 22
ENDMDL
MODEL 2
REMARK VINA RESULT:      -9.3      3.500     10.043
REMARK SMILES CCC[C@@](C)(C/C=C/c1ccccc1)C(=O)OCCOCCOC(=O)c1ccc(-c2c3nc(c(-c4ccc(S(=O)(=O)[O-])cc4)c4ccc([nH]4)c(-c4ccc(S(=O)(=O)[O-])cc4)c4nc(c(-c5ccc(S(=O)(=O)[O-])cc5)c5ccc2[nH]5)C=C4)C=C3)cc1
REMARK SMILES IDX 20 1 19 2 18 3 17 4 15 5 16 6 4 7 5 8 3 9 2 10 1 11 6 12
REMARK SMILES IDX 7 13 8 14 9 15 10 16 14 17 11 18 13 19 12 20 21 21 22 22
REMARK SMILES IDX 23 23 24 24 25 25 26 26 27 27 85 28 28 29 84 30 29 31 30 32
REMARK SMILES IDX 31 33 78 34 32 35 83 36 77 37 79 38 33 39 82 40 76 41 75 42
REMARK SMILES IDX 34 44 64 45 45 46 63 47 46 48 49 49 62 50 80 51 47 52 48 53
REMARK SMILES IDX 61 55 81 56 50 57 35 58 36 59 44 60 37 61 43 62 38 63 39 64
REMARK SMILES IDX 40 65 41 66 42 67 65 68 66 69 74 70 67 71 73 72 68 73 69 74
REMARK SMILES IDX 70 75 71 76 72 77 51 78 52 79 60 80 53 81 59 82 54 83 55 84
REMARK SMILES IDX 56 85 57 86 58 87
REMARK H PARENT 79 43 49 54
REMARK Flexibility Score: inf
ROOT
ATOM      1  O   UNL A   1      31.999  28.763  25.167  1.00  0.00    -0.374 OA
ENDROOT
BRANCH   1   2
ATOM      2  C   UNL A   1      32.117  28.436  23.785  1.00  0.00     0.202 C 
BRANCH   2   3
ATOM      3  C   UNL A   1      31.775  26.994  23.376  1.00  0.00     0.261 C 
BRANCH   3   4
ATOM      4  O   UNL A   1      32.560  25.983  24.036  1.00  0.00    -0.463 OA
BRANCH   4   5
ATOM      5  C   UNL A   1      32.016  24.739  24.037  1.00  0.00     0.312 C 
ATOM      6  O   UNL A   1      30.853  24.504  23.722  1.00  0.00    -0.252 OA
BRANCH   5   7
ATOM      7  C   UNL A   1      32.975  23.623  24.486  1.00  0.00     0.069 C 
ATOM      8  C   UNL A   1      33.301  22.841  23.186  1.00  0.00     0.024 C 
BRANCH   7   9
ATOM      9  C   UNL A   1      34.275  24.224  25.097  1.00  0.00     0.018 C 
BRANCH   9  10
ATOM     10  C   UNL A   1      35.644  23.643  24.709  1.00  0.00    -0.002 C 
ATOM     11  C   UNL A   1      36.270  22.753  25.777  1.00  0.00     0.004 C 
ENDBRANCH   9  10
ENDBRANCH   7   9
BRANCH   7  12
ATOM     12  C   UNL A   1      32.337  22.562  25.459  1.00  0.00     0.046 C 
BRANCH  12  13
ATOM     13  C   UNL A   1      32.300  21.109  25.032  1.00  0.00    -0.025 C 
ATOM     14  C   UNL A   1      33.183  20.182  25.439  1.00  0.00     0.004 C 
BRANCH  14  15
ATOM     15  C   UNL A   1      33.222  18.766  25.013  1.00  0.00    -0.026 A 
ATOM     16  C   UNL A   1      32.540  17.819  25.791  1.00  0.00     0.008 A 
ATOM     17  C   UNL A   1      34.006  18.301  23.944  1.00  0.00     0.008 A 
ATOM     18  C   UNL A   1      32.683  16.449  25.547  1.00  0.00     0.001 A 
ATOM     19  C   UNL A   1      34.154  16.929  23.704  1.00  0.00     0.001 A 
ATOM     20  C   UNL A   1      33.504  16.005  24.516  1.00  0.00     0.000 A 
ENDBRANCH  14  15
ENDBRANCH  12  13
ENDBRANCH   7  12
ENDBRANCH   5   7
ENDBRANCH   4   5
ENDBRANCH   3   4
ENDBRANCH   2   3
ENDBRANCH   1   2
BRANCH   1  21
ATOM     21  C   UNL A   1      33.198  28.713  25.949  1.00  0.00     0.202 C 
BRANCH  21  22
ATOM     22  C   UNL A   1      33.209  29.553  27.228  1.00  0.00     0.261 C 
BRANCH  22  23
ATOM     23  O   UNL A   1      33.986  30.748  27.042  1.00  0.00    -0.460 OA
BRANCH  23  24
ATOM     24  C   UNL A   1      34.646  31.133  28.157  1.00  0.00     0.338 C 
ATOM     25  O   UNL A   1      34.231  31.850  29.051  1.00  0.00    -0.246 OA
BRANCH  24  26
ATOM     26  C   UNL A   1      35.892  30.357  28.260  1.00  0.00     0.060 A 
ATOM     27  C   UNL A   1      36.212  29.814  29.509  1.00  0.00     0.016 A 
ATOM     28  C   UNL A   1      36.793  30.282  27.196  1.00  0.00     0.016 A 
ATOM     29  C   UNL A   1      37.468  29.245  29.716  1.00  0.00     0.010 A 
ATOM     30  C   UNL A   1      38.052  29.703  27.406  1.00  0.00     0.010 A 
ATOM     31  C   UNL A   1      38.413  29.224  28.679  1.00  0.00    -0.014 A 
BRANCH  31  32
ATOM     32  C   UNL A   1      39.812  28.836  28.993  1.00  0.00     0.031 A 
ATOM     33  C   UNL A   1      40.688  29.793  29.758  1.00  0.00     0.074 A 
ATOM     34  C   UNL A   1      40.276  27.614  28.670  1.00  0.00     0.049 A 
ATOM     35  N   UNL A   1      41.900  29.616  30.221  1.00  0.00    -0.248 NA
ATOM     36  C   UNL A   1      40.123  31.122  30.044  1.00  0.00     0.031 C 
ATOM     37  C   UNL A   1      39.523  26.586  27.954  1.00  0.00     0.029 A 
ATOM     38  N   UNL A   1      41.492  27.029  28.921  1.00  0.00    -0.354 N 
ATOM     39  C   UNL A   1      42.239  30.804  30.859  1.00  0.00     0.074 A 
ATOM     40  C   UNL A   1      41.120  31.707  30.691  1.00  0.00     0.031 C 
ATOM     41  C   UNL A   1      40.291  25.489  27.833  1.00  0.00     0.029 A 
ATOM     42  C   UNL A   1      41.592  25.742  28.449  1.00  0.00     0.049 A 
ATOM     43  H   UNL A   1      42.223  27.487  29.394  1.00  0.00     0.167 HD
ATOM     44  C   UNL A   1      43.373  31.116  31.534  1.00  0.00     0.031 A 
ATOM     45  C   UNL A   1      42.613  24.864  28.510  1.00  0.00     0.031 A 
ATOM     46  C   UNL A   1      44.495  30.229  31.688  1.00  0.00     0.049 A 
ATOM     47  C   UNL A   1      43.882  25.248  29.225  1.00  0.00     0.074 A 
ATOM     48  C   UNL A   1      45.686  30.454  32.359  1.00  0.00     0.029 A 
ATOM     49  N   UNL A   1      44.572  28.951  31.158  1.00  0.00    -0.354 N 
ATOM     50  N   UNL A   1      44.171  26.366  29.848  1.00  0.00    -0.248 NA
ATOM     51  C   UNL A   1      44.955  24.244  29.256  1.00  0.00     0.031 C 
ATOM     52  C   UNL A   1      46.499  29.326  32.199  1.00  0.00     0.029 A 
ATOM     53  C   UNL A   1      45.796  28.382  31.470  1.00  0.00     0.049 A 
ATOM     54  H   UNL A   1      43.861  28.512  30.638  1.00  0.00     0.167 HD
ATOM     55  C   UNL A   1      45.451  26.190  30.363  1.00  0.00     0.074 A 
ATOM     56  C   UNL A   1      45.872  24.856  29.992  1.00  0.00     0.031 C 
ATOM     57  C   UNL A   1      46.208  27.056  31.084  1.00  0.00     0.031 A 
BRANCH  44  58
ATOM     58  C   UNL A   1      43.457  32.492  32.137  1.00  0.00    -0.014 A 
ATOM     59  C   UNL A   1      43.011  32.739  33.448  1.00  0.00     0.010 A 
ATOM     60  C   UNL A   1      44.010  33.549  31.391  1.00  0.00     0.010 A 
ATOM     61  C   UNL A   1      43.076  34.027  33.986  1.00  0.00     0.020 A 
ATOM     62  C   UNL A   1      44.096  34.834  31.933  1.00  0.00     0.020 A 
ATOM     63  C   UNL A   1      43.610  35.068  33.222  1.00  0.00     0.054 A 
BRANCH  63  64
ATOM     64  S   UNL A   1      43.687  36.732  33.942  1.00  0.00     0.124 S 
ATOM     65  O   UNL A   1      43.782  37.571  32.750  1.00  0.00    -0.237 OA
ATOM     66  O   UNL A   1      42.428  36.825  34.676  1.00  0.00    -0.237 OA
ATOM     67  O   UNL A   1      44.887  36.694  34.774  1.00  0.00    -0.744 OA
ENDBRANCH  63  64
ENDBRANCH  44  58
BRANCH  45  68
ATOM     68  C   UNL A   1      42.474  23.524  27.878  1.00  0.00    -0.014 A 
ATOM     69  C   UNL A   1      42.932  23.295  26.569  1.00  0.00     0.010 A 
ATOM     70  C   UNL A   1      41.887  22.466  28.595  1.00  0.00     0.010 A 
ATOM     71  C   UNL A   1      42.797  22.033  25.984  1.00  0.00     0.020 A 
ATOM     72  C   UNL A   1      41.772  21.196  28.021  1.00  0.00     0.020 A 
ATOM     73  C   UNL A   1      42.219  20.991  26.715  1.00  0.00     0.054 A 
BRANCH  73  74
ATOM     74  S   UNL A   1      42.113  19.342  25.963  1.00  0.00     0.124 S 
ATOM     75  O   UNL A   1      42.966  19.490  24.787  1.00  0.00    -0.237 OA
ATOM     76  O   UNL A   1      42.633  18.477  27.018  1.00  0.00    -0.237 OA
ATOM     77  O   UNL A   1      40.686  19.187  25.688  1.00  0.00    -0.744 OA
ENDBRANCH  73  74
ENDBRANCH  45  68
BRANCH  57  78
ATOM     78  C   UNL A   1      47.562  26.577  31.533  1.00  0.00    -0.014 A 
ATOM     79  C   UNL A   1      47.732  25.935  32.773  1.00  0.00     0.010 A 
ATOM     80  C   UNL A   1      48.676  26.748  30.692  1.00  0.00     0.010 A 
ATOM     81  C   UNL A   1      48.999  25.512  33.182  1.00  0.00     0.020 A 
ATOM     82  C   UNL A   1      49.941  26.306  31.086  1.00  0.00     0.020 A 
ATOM     83  C   UNL A   1      50.098  25.707  32.338  1.00  0.00     0.054 A 
BRANCH  83  84
ATOM     84  S   UNL A   1      51.733  25.135  32.878  1.00  0.00     0.124 S 
ATOM     85  O   UNL A   1      51.783  23.788  32.317  1.00  0.00    -0.237 OA
ATOM     86  O   UNL A   1      52.637  26.106  32.264  1.00  0.00    -0.237 OA
ATOM     87  O   UNL A   1      51.657  25.202  34.336  1.00  0.00    -0.744 OA
ENDBRANCH  83  84
ENDBRANCH  57  78
ENDBRANCH  31  32
ENDBRANCH  24  26
ENDBRANCH  23  24
ENDBRANCH  22  23
ENDBRANCH  21  22
ENDBRANCH   1  21
TORSDOF 22
ENDMDL
MODEL 3
REMARK VINA RESULT:      -9.3      5.339      6.749
REMARK SMILES CCC[C@@](C)(C/C=C/c1ccccc1)C(=O)OCCOCCOC(=O)c1ccc(-c2c3nc(c(-c4ccc(S(=O)(=O)[O-])cc4)c4ccc([nH]4)c(-c4ccc(S(=O)(=O)[O-])cc4)c4nc(c(-c5ccc(S(=O)(=O)[O-])cc5)c5ccc2[nH]5)C=C4)C=C3)cc1
REMARK SMILES IDX 20 1 19 2 18 3 17 4 15 5 16 6 4 7 5 8 3 9 2 10 1 11 6 12
REMARK SMILES IDX 7 13 8 14 9 15 10 16 14 17 11 18 13 19 12 20 21 21 22 22
REMARK SMILES IDX 23 23 24 24 25 25 26 26 27 27 85 28 28 29 84 30 29 31 30 32
REMARK SMILES IDX 31 33 78 34 32 35 83 36 77 37 79 38 33 39 82 40 76 41 75 42
REMARK SMILES IDX 34 44 64 45 45 46 63 47 46 48 49 49 62 50 80 51 47 52 48 53
REMARK SMILES IDX 61 55 81 56 50 57 35 58 36 59 44 60 37 61 43 62 38 63 39 64
REMARK SMILES IDX 40 65 41 66 42 67 65 68 66 69 74 70 67 71 73 72 68 73 69 74
REMARK SMILES IDX 70 75 71 76 72 77 51 78 52 79 60 80 53 81 59 82 54 83 55 84
REMARK SMILES IDX 56 85 57 86 58 87
REMARK H PARENT 79 43 49 54
REMARK Flexibility Score: inf
ROOT
ATOM      1  O   UNL A   1      39.590  21.492  26.715  1.00  0.00    -0.374 OA
ENDROOT
BRANCH   1   2
ATOM      2  C   UNL A   1      38.767  21.685  25.567  1.00  0.00     0.202 C 
BRANCH   2   3
ATOM      3  C   UNL A   1      37.250  21.544  25.763  1.00  0.00     0.261 C 
BRANCH   3   4
ATOM      4  O   UNL A   1      36.460  22.484  25.010  1.00  0.00    -0.463 OA
BRANCH   4   5
ATOM      5  C   UNL A   1      35.145  22.172  24.894  1.00  0.00     0.312 C 
ATOM      6  O   UNL A   1      34.694  21.043  25.072  1.00  0.00    -0.252 OA
BRANCH   5   7
ATOM      7  C   UNL A   1      34.240  23.351  24.499  1.00  0.00     0.069 C 
ATOM      8  C   UNL A   1      34.045  23.200  22.967  1.00  0.00     0.024 C 
BRANCH   7   9
ATOM      9  C   UNL A   1      32.867  23.264  25.230  1.00  0.00     0.018 C 
BRANCH   9  10
ATOM     10  C   UNL A   1      31.575  23.090  24.417  1.00  0.00    -0.002 C 
ATOM     11  C   UNL A   1      30.790  24.380  24.208  1.00  0.00     0.004 C 
ENDBRANCH   9  10
ENDBRANCH   7   9
BRANCH   7  12
ATOM     12  C   UNL A   1      34.889  24.772  24.695  1.00  0.00     0.046 C 
BRANCH  12  13
ATOM     13  C   UNL A   1      33.996  25.995  24.657  1.00  0.00    -0.025 C 
ATOM     14  C   UNL A   1      33.700  26.746  25.732  1.00  0.00     0.004 C 
BRANCH  14  15
ATOM     15  C   UNL A   1      32.796  27.915  25.760  1.00  0.00    -0.026 A 
ATOM     16  C   UNL A   1      31.897  28.085  24.697  1.00  0.00     0.008 A 
ATOM     17  C   UNL A   1      32.871  28.929  26.729  1.00  0.00     0.008 A 
ATOM     18  C   UNL A   1      31.143  29.256  24.571  1.00  0.00     0.001 A 
ATOM     19  C   UNL A   1      32.121  30.104  26.600  1.00  0.00     0.001 A 
ATOM     20  C   UNL A   1      31.269  30.273  25.513  1.00  0.00     0.000 A 
ENDBRANCH  14  15
ENDBRANCH  12  13
ENDBRANCH   7  12
ENDBRANCH   5   7
ENDBRANCH   4   5
ENDBRANCH   3   4
ENDBRANCH   2   3
ENDBRANCH   1   2
BRANCH   1  21
ATOM     21  C   UNL A   1      40.047  22.670  27.389  1.00  0.00     0.202 C 
BRANCH  21  22
ATOM     22  C   UNL A   1      40.632  23.772  26.504  1.00  0.00     0.261 C 
BRANCH  22  23
ATOM     23  O   UNL A   1      39.782  24.932  26.512  1.00  0.00    -0.460 OA
BRANCH  23  24
ATOM     24  C   UNL A   1      40.466  26.095  26.450  1.00  0.00     0.338 C 
ATOM     25  O   UNL A   1      41.153  26.501  25.529  1.00  0.00    -0.246 OA
BRANCH  24  26
ATOM     26  C   UNL A   1      40.070  26.938  27.590  1.00  0.00     0.060 A 
ATOM     27  C   UNL A   1      40.633  28.215  27.675  1.00  0.00     0.016 A 
ATOM     28  C   UNL A   1      39.276  26.437  28.624  1.00  0.00     0.016 A 
ATOM     29  C   UNL A   1      40.454  28.977  28.829  1.00  0.00     0.010 A 
ATOM     30  C   UNL A   1      39.092  27.208  29.780  1.00  0.00     0.010 A 
ATOM     31  C   UNL A   1      39.718  28.462  29.907  1.00  0.00    -0.014 A 
BRANCH  31  32
ATOM     32  C   UNL A   1      39.746  29.185  31.204  1.00  0.00     0.031 A 
ATOM     33  C   UNL A   1      40.852  28.897  32.185  1.00  0.00     0.074 A 
ATOM     34  C   UNL A   1      38.842  30.145  31.475  1.00  0.00     0.049 A 
ATOM     35  N   UNL A   1      41.121  29.484  33.324  1.00  0.00    -0.248 NA
ATOM     36  C   UNL A   1      41.780  27.811  31.834  1.00  0.00     0.031 C 
ATOM     37  C   UNL A   1      37.739  30.539  30.601  1.00  0.00     0.029 A 
ATOM     38  N   UNL A   1      38.724  30.975  32.563  1.00  0.00    -0.354 N 
ATOM     39  C   UNL A   1      42.251  28.845  33.822  1.00  0.00     0.074 A 
ATOM     40  C   UNL A   1      42.596  27.802  32.879  1.00  0.00     0.031 C 
ATOM     41  C   UNL A   1      37.061  31.545  31.182  1.00  0.00     0.029 A 
ATOM     42  C   UNL A   1      37.673  31.855  32.472  1.00  0.00     0.049 A 
ATOM     43  H   UNL A   1      39.335  30.943  33.333  1.00  0.00     0.167 HD
ATOM     44  C   UNL A   1      42.950  29.106  34.954  1.00  0.00     0.031 A 
ATOM     45  C   UNL A   1      37.252  32.807  33.329  1.00  0.00     0.031 A 
ATOM     46  C   UNL A   1      42.602  30.128  35.905  1.00  0.00     0.049 A 
ATOM     47  C   UNL A   1      38.016  33.049  34.604  1.00  0.00     0.074 A 
ATOM     48  C   UNL A   1      43.251  30.471  37.078  1.00  0.00     0.029 A 
ATOM     49  N   UNL A   1      41.505  30.968  35.796  1.00  0.00    -0.354 N 
ATOM     50  N   UNL A   1      39.100  32.454  35.042  1.00  0.00    -0.248 NA
ATOM     51  C   UNL A   1      37.504  34.103  35.493  1.00  0.00     0.031 C 
ATOM     52  C   UNL A   1      42.522  31.492  37.701  1.00  0.00     0.029 A 
ATOM     53  C   UNL A   1      41.447  31.816  36.890  1.00  0.00     0.049 A 
ATOM     54  H   UNL A   1      40.862  30.964  35.051  1.00  0.00     0.167 HD
ATOM     55  C   UNL A   1      39.413  33.077  36.246  1.00  0.00     0.074 A 
ATOM     56  C   UNL A   1      38.412  34.102  36.459  1.00  0.00     0.031 C 
ATOM     57  C   UNL A   1      40.439  32.824  37.097  1.00  0.00     0.031 A 
BRANCH  44  58
ATOM     58  C   UNL A   1      44.152  28.245  35.234  1.00  0.00    -0.014 A 
ATOM     59  C   UNL A   1      44.032  27.045  35.960  1.00  0.00     0.010 A 
ATOM     60  C   UNL A   1      45.414  28.628  34.747  1.00  0.00     0.010 A 
ATOM     61  C   UNL A   1      45.162  26.267  36.231  1.00  0.00     0.020 A 
ATOM     62  C   UNL A   1      46.543  27.842  34.997  1.00  0.00     0.020 A 
ATOM     63  C   UNL A   1      46.411  26.676  35.755  1.00  0.00     0.054 A 
BRANCH  63  64
ATOM     64  S   UNL A   1      47.862  25.647  36.116  1.00  0.00     0.124 S 
ATOM     65  O   UNL A   1      47.509  25.075  37.413  1.00  0.00    -0.237 OA
ATOM     66  O   UNL A   1      47.878  24.707  34.998  1.00  0.00    -0.237 OA
ATOM     67  O   UNL A   1      48.967  26.603  36.136  1.00  0.00    -0.744 OA
ENDBRANCH  63  64
ENDBRANCH  44  58
BRANCH  45  68
ATOM     68  C   UNL A   1      36.044  33.613  33.003  1.00  0.00    -0.014 A 
ATOM     69  C   UNL A   1      36.165  34.905  32.465  1.00  0.00     0.010 A 
ATOM     70  C   UNL A   1      34.762  33.079  33.226  1.00  0.00     0.010 A 
ATOM     71  C   UNL A   1      35.025  35.655  32.162  1.00  0.00     0.020 A 
ATOM     72  C   UNL A   1      33.619  33.818  32.902  1.00  0.00     0.020 A 
ATOM     73  C   UNL A   1      33.759  35.105  32.381  1.00  0.00     0.054 A 
BRANCH  73  74
ATOM     74  S   UNL A   1      32.290  36.067  31.920  1.00  0.00     0.124 S 
ATOM     75  O   UNL A   1      32.327  35.997  30.462  1.00  0.00    -0.237 OA
ATOM     76  O   UNL A   1      31.209  35.325  32.563  1.00  0.00    -0.237 OA
ATOM     77  O   UNL A   1      32.555  37.385  32.493  1.00  0.00    -0.744 OA
ENDBRANCH  73  74
ENDBRANCH  45  68
BRANCH  57  78
ATOM     78  C   UNL A   1      40.541  33.685  38.327  1.00  0.00    -0.014 A 
ATOM     79  C   UNL A   1      40.011  33.260  39.559  1.00  0.00     0.010 A 
ATOM     80  C   UNL A   1      41.199  34.926  38.256  1.00  0.00     0.010 A 
ATOM     81  C   UNL A   1      40.101  34.080  40.687  1.00  0.00     0.020 A 
ATOM     82  C   UNL A   1      41.311  35.739  39.386  1.00  0.00     0.020 A 
ATOM     83  C   UNL A   1      40.744  35.319  40.591  1.00  0.00     0.054 A 
BRANCH  83  84
ATOM     84  S   UNL A   1      40.865  36.362  42.071  1.00  0.00     0.124 S 
ATOM     85  O   UNL A   1      39.752  37.288  41.880  1.00  0.00    -0.237 OA
ATOM     86  O   UNL A   1      40.703  35.401  43.160  1.00  0.00    -0.237 OA
ATOM     87  O   UNL A   1      42.197  36.955  41.967  1.00  0.00    -0.744 OA
ENDBRANCH  83  84
ENDBRANCH  57  78
ENDBRANCH  31  32
ENDBRANCH  24  26
ENDBRANCH  23  24
ENDBRANCH  22  23
ENDBRANCH  21  22
ENDBRANCH   1  21
TORSDOF 22
ENDMDL
