MODEL 1
REMARK VINA RESULT:      -8.8      0.000      0.000
REMARK SMILES CC(=O)N1CCC[C@H]1COCC(=O)OCCOCCOC(=O)c1ccc(-c2c3nc(c(-c4ccc(S(=O)(=O)[O-])cc4)c4ccc([nH]4)c(-c4ccc(S(=O)(=O)[O-])cc4)c4nc(c(-c5ccc(S(=O)(=O)[O-])cc5)c5ccc2[nH]5)C=C4)C=C3)cc1
REMARK SMILES IDX 16 1 15 2 14 3 12 4 13 5 11 6 10 7 9 8 8 9 4 10 5 11 6 12
REMARK SMILES IDX 7 13 2 14 1 15 3 16 17 17 18 18 19 19 20 20 21 21 22 22
REMARK SMILES IDX 23 23 24 24 82 25 25 26 81 27 26 28 27 29 28 30 75 31 29 32
REMARK SMILES IDX 80 33 74 34 76 35 30 36 79 37 73 38 72 39 31 41 61 42 42 43
REMARK SMILES IDX 60 44 43 45 46 46 59 47 77 48 44 49 45 50 58 52 78 53 47 54
REMARK SMILES IDX 32 55 33 56 41 57 34 58 40 59 35 60 36 61 37 62 38 63 39 64
REMARK SMILES IDX 62 65 63 66 71 67 64 68 70 69 65 70 66 71 67 72 68 73 69 74
REMARK SMILES IDX 48 75 49 76 57 77 50 78 56 79 51 80 52 81 53 82 54 83 55 84
REMARK H PARENT 76 40 46 51
REMARK Flexibility Score: inf
ROOT
ATOM      1  C   UNL A   1      38.121  22.197  25.699  1.00  0.00     0.202 C 
ENDROOT
BRANCH   1   2
ATOM      2  C   UNL A   1      36.940  21.277  25.329  1.00  0.00     0.261 C 
BRANCH   2   3
ATOM      3  O   UNL A   1      36.004  21.866  24.389  1.00  0.00    -0.462 OA
BRANCH   3   4
ATOM      4  C   UNL A   1      34.786  22.212  24.897  1.00  0.00     0.332 C 
ATOM      5  O   UNL A   1      33.922  21.411  25.239  1.00  0.00    -0.250 OA
BRANCH   4   6
ATOM      6  C   UNL A   1      34.534  23.741  24.918  1.00  0.00     0.282 C 
BRANCH   6   7
ATOM      7  O   UNL A   1      33.309  24.446  24.856  1.00  0.00    -0.368 OA
BRANCH   7   8
ATOM      8  C   UNL A   1      33.201  25.581  23.996  1.00  0.00     0.186 C 
BRANCH   8   9
ATOM      9  C   UNL A   1      31.967  26.504  24.162  1.00  0.00     0.111 C 
ATOM     10  N   UNL A   1      32.023  27.496  25.265  1.00  0.00    -0.338 N 
ATOM     11  C   UNL A   1      32.217  28.833  24.742  1.00  0.00     0.120 C 
ATOM     12  C   UNL A   1      31.454  28.783  23.438  1.00  0.00     0.024 C 
ATOM     13  C   UNL A   1      31.804  27.394  22.905  1.00  0.00     0.029 C 
BRANCH  10  14
ATOM     14  C   UNL A   1      31.391  27.240  26.472  1.00  0.00     0.219 C 
ATOM     15  C   UNL A   1      31.689  28.176  27.616  1.00  0.00     0.114 C 
ATOM     16  O   UNL A   1      30.521  26.388  26.602  1.00  0.00    -0.275 OA
ENDBRANCH  10  14
ENDBRANCH   8   9
ENDBRANCH   7   8
ENDBRANCH   6   7
ENDBRANCH   4   6
ENDBRANCH   3   4
ENDBRANCH   2   3
ENDBRANCH   1   2
BRANCH   1  17
ATOM     17  O   UNL A   1      39.409  21.592  25.788  1.00  0.00    -0.374 OA
BRANCH  17  18
ATOM     18  C   UNL A   1      40.116  22.001  26.950  1.00  0.00     0.202 C 
BRANCH  18  19
ATOM     19  C   UNL A   1      40.939  23.273  26.778  1.00  0.00     0.261 C 
BRANCH  19  20
ATOM     20  O   UNL A   1      40.268  24.286  27.550  1.00  0.00    -0.460 OA
BRANCH  20  21
ATOM     21  C   UNL A   1      40.597  25.535  27.157  1.00  0.00     0.338 C 
ATOM     22  O   UNL A   1      40.976  25.872  26.054  1.00  0.00    -0.246 OA
BRANCH  21  23
ATOM     23  C   UNL A   1      40.223  26.492  28.217  1.00  0.00     0.060 A 
ATOM     24  C   UNL A   1      40.943  27.691  28.233  1.00  0.00     0.016 A 
ATOM     25  C   UNL A   1      39.229  26.243  29.171  1.00  0.00     0.016 A 
ATOM     26  C   UNL A   1      40.753  28.599  29.261  1.00  0.00     0.010 A 
ATOM     27  C   UNL A   1      39.033  27.162  30.206  1.00  0.00     0.010 A 
ATOM     28  C   UNL A   1      39.841  28.309  30.282  1.00  0.00    -0.014 A 
BRANCH  28  29
ATOM     29  C   UNL A   1      39.894  29.124  31.513  1.00  0.00     0.031 A 
ATOM     30  C   UNL A   1      41.020  28.884  32.482  1.00  0.00     0.074 A 
ATOM     31  C   UNL A   1      39.013  30.119  31.706  1.00  0.00     0.049 A 
ATOM     32  N   UNL A   1      41.293  29.501  33.601  1.00  0.00    -0.248 NA
ATOM     33  C   UNL A   1      41.966  27.808  32.141  1.00  0.00     0.031 C 
ATOM     34  C   UNL A   1      37.922  30.464  30.795  1.00  0.00     0.029 A 
ATOM     35  N   UNL A   1      38.907  31.028  32.723  1.00  0.00    -0.354 N 
ATOM     36  C   UNL A   1      42.437  28.887  34.097  1.00  0.00     0.074 A 
ATOM     37  C   UNL A   1      42.783  27.822  33.183  1.00  0.00     0.031 C 
ATOM     38  C   UNL A   1      37.251  31.513  31.298  1.00  0.00     0.029 A 
ATOM     39  C   UNL A   1      37.845  31.886  32.580  1.00  0.00     0.049 A 
ATOM     40  H   UNL A   1      39.531  31.062  33.484  1.00  0.00     0.167 HD
ATOM     41  C   UNL A   1      43.143  29.192  35.211  1.00  0.00     0.031 A 
ATOM     42  C   UNL A   1      37.391  32.848  33.405  1.00  0.00     0.031 A 
ATOM     43  C   UNL A   1      42.772  30.243  36.121  1.00  0.00     0.049 A 
ATOM     44  C   UNL A   1      38.142  33.120  34.680  1.00  0.00     0.074 A 
ATOM     45  C   UNL A   1      43.404  30.641  37.284  1.00  0.00     0.029 A 
ATOM     46  N   UNL A   1      41.659  31.061  35.969  1.00  0.00    -0.354 N 
ATOM     47  N   UNL A   1      39.228  32.539  35.135  1.00  0.00    -0.248 NA
ATOM     48  C   UNL A   1      37.616  34.181  35.546  1.00  0.00     0.031 C 
ATOM     49  C   UNL A   1      42.639  31.655  37.869  1.00  0.00     0.029 A 
ATOM     50  C   UNL A   1      41.570  31.941  37.033  1.00  0.00     0.049 A 
ATOM     51  H   UNL A   1      41.027  31.019  35.216  1.00  0.00     0.167 HD
ATOM     52  C   UNL A   1      39.529  33.179  36.332  1.00  0.00     0.074 A 
ATOM     53  C   UNL A   1      38.519  34.204  36.518  1.00  0.00     0.031 C 
ATOM     54  C   UNL A   1      40.546  32.945  37.199  1.00  0.00     0.031 A 
BRANCH  41  55
ATOM     55  C   UNL A   1      44.353  28.348  35.522  1.00  0.00    -0.014 A 
ATOM     56  C   UNL A   1      44.255  27.187  36.311  1.00  0.00     0.010 A 
ATOM     57  C   UNL A   1      45.610  28.719  35.010  1.00  0.00     0.010 A 
ATOM     58  C   UNL A   1      45.397  26.443  36.623  1.00  0.00     0.020 A 
ATOM     59  C   UNL A   1      46.750  27.960  35.293  1.00  0.00     0.020 A 
ATOM     60  C   UNL A   1      46.638  26.836  36.114  1.00  0.00     0.054 A 
BRANCH  60  61
ATOM     61  S   UNL A   1      48.103  25.851  36.530  1.00  0.00     0.124 S 
ATOM     62  O   UNL A   1      47.854  25.516  37.930  1.00  0.00    -0.237 OA
ATOM     63  O   UNL A   1      48.013  24.734  35.593  1.00  0.00    -0.237 OA
ATOM     64  O   UNL A   1      49.217  26.766  36.298  1.00  0.00    -0.744 OA
ENDBRANCH  60  61
ENDBRANCH  41  55
BRANCH  42  65
ATOM     65  C   UNL A   1      36.151  33.591  33.053  1.00  0.00    -0.014 A 
ATOM     66  C   UNL A   1      34.881  33.031  33.269  1.00  0.00     0.010 A 
ATOM     67  C   UNL A   1      36.243  34.896  32.532  1.00  0.00     0.010 A 
ATOM     68  C   UNL A   1      33.726  33.759  32.963  1.00  0.00     0.020 A 
ATOM     69  C   UNL A   1      35.092  35.638  32.254  1.00  0.00     0.020 A 
ATOM     70  C   UNL A   1      33.840  35.061  32.465  1.00  0.00     0.054 A 
BRANCH  70  71
ATOM     71  S   UNL A   1      32.329  36.012  32.142  1.00  0.00     0.124 S 
ATOM     72  O   UNL A   1      32.554  37.219  32.933  1.00  0.00    -0.237 OA
ATOM     73  O   UNL A   1      32.373  36.187  30.692  1.00  0.00    -0.237 OA
ATOM     74  O   UNL A   1      31.263  35.137  32.625  1.00  0.00    -0.744 OA
ENDBRANCH  70  71
ENDBRANCH  42  65
BRANCH  54  75
ATOM     75  C   UNL A   1      40.632  33.829  38.415  1.00  0.00    -0.014 A 
ATOM     76  C   UNL A   1      41.371  35.026  38.397  1.00  0.00     0.010 A 
ATOM     77  C   UNL A   1      39.915  33.483  39.575  1.00  0.00     0.010 A 
ATOM     78  C   UNL A   1      41.418  35.842  39.530  1.00  0.00     0.020 A 
ATOM     79  C   UNL A   1      39.932  34.313  40.697  1.00  0.00     0.020 A 
ATOM     80  C   UNL A   1      40.697  35.481  40.673  1.00  0.00     0.054 A 
BRANCH  80  81
ATOM     81  S   UNL A   1      40.740  36.581  42.113  1.00  0.00     0.124 S 
ATOM     82  O   UNL A   1      41.732  35.928  42.963  1.00  0.00    -0.237 OA
ATOM     83  O   UNL A   1      41.151  37.856  41.529  1.00  0.00    -0.237 OA
ATOM     84  O   UNL A   1      39.369  36.547  42.618  1.00  0.00    -0.744 OA
ENDBRANCH  80  81
ENDBRANCH  54  75
ENDBRANCH  28  29
ENDBRANCH  21  23
ENDBRANCH  20  21
ENDBRANCH  19  20
ENDBRANCH  18  19
ENDBRANCH  17  18
ENDBRANCH   1  17
TORSDOF 21
ENDMDL
MODEL 2
REMARK VINA RESULT:      -8.7      6.718     13.017
REMARK SMILES CC(=O)N1CCC[C@H]1COCC(=O)OCCOCCOC(=O)c1ccc(-c2c3nc(c(-c4ccc(S(=O)(=O)[O-])cc4)c4ccc([nH]4)c(-c4ccc(S(=O)(=O)[O-])cc4)c4nc(c(-c5ccc(S(=O)(=O)[O-])cc5)c5ccc2[nH]5)C=C4)C=C3)cc1
REMARK SMILES IDX 16 1 15 2 14 3 12 4 13 5 11 6 10 7 9 8 8 9 4 10 5 11 6 12
REMARK SMILES IDX 7 13 2 14 1 15 3 16 17 17 18 18 19 19 20 20 21 21 22 22
REMARK SMILES IDX 23 23 24 24 82 25 25 26 81 27 26 28 27 29 28 30 75 31 29 32
REMARK SMILES IDX 80 33 74 34 76 35 30 36 79 37 73 38 72 39 31 41 61 42 42 43
REMARK SMILES IDX 60 44 43 45 46 46 59 47 77 48 44 49 45 50 58 52 78 53 47 54
REMARK SMILES IDX 32 55 33 56 41 57 34 58 40 59 35 60 36 61 37 62 38 63 39 64
REMARK SMILES IDX 62 65 63 66 71 67 64 68 70 69 65 70 66 71 67 72 68 73 69 74
REMARK SMILES IDX 48 75 49 76 57 77 50 78 56 79 51 80 52 81 53 82 54 83 55 84
REMARK H PARENT 76 40 46 51
REMARK Flexibility Score: inf
ROOT
ATOM      1  C   UNL A   1      34.552  34.910  32.318  1.00  0.00     0.202 C 
ENDROOT
BRANCH   1   2
ATOM      2  C   UNL A   1      33.335  35.540  31.610  1.00  0.00     0.261 C 
BRANCH   2   3
ATOM      3  O   UNL A   1      32.896  34.816  30.432  1.00  0.00    -0.462 OA
BRANCH   3   4
ATOM      4  C   UNL A   1      33.138  35.423  29.234  1.00  0.00     0.332 C 
ATOM      5  O   UNL A   1      32.401  36.257  28.717  1.00  0.00    -0.250 OA
BRANCH   4   6
ATOM      6  C   UNL A   1      34.401  34.890  28.511  1.00  0.00     0.282 C 
BRANCH   6   7
ATOM      7  O   UNL A   1      34.554  33.730  27.717  1.00  0.00    -0.368 OA
BRANCH   7   8
ATOM      8  C   UNL A   1      33.443  32.847  27.552  1.00  0.00     0.186 C 
BRANCH   8   9
ATOM      9  C   UNL A   1      33.633  31.360  27.942  1.00  0.00     0.111 C 
ATOM     10  N   UNL A   1      33.463  30.361  26.856  1.00  0.00    -0.338 N 
ATOM     11  C   UNL A   1      34.743  29.810  26.462  1.00  0.00     0.120 C 
ATOM     12  C   UNL A   1      35.504  29.794  27.768  1.00  0.00     0.024 C 
ATOM     13  C   UNL A   1      35.091  31.121  28.405  1.00  0.00     0.029 C 
BRANCH  10  14
ATOM     14  C   UNL A   1      32.268  29.672  26.718  1.00  0.00     0.219 C 
ATOM     15  C   UNL A   1      31.532  29.830  25.412  1.00  0.00     0.114 C 
ATOM     16  O   UNL A   1      31.868  28.857  27.540  1.00  0.00    -0.275 OA
ENDBRANCH  10  14
ENDBRANCH   8   9
ENDBRANCH   7   8
ENDBRANCH   6   7
ENDBRANCH   4   6
ENDBRANCH   3   4
ENDBRANCH   2   3
ENDBRANCH   1   2
BRANCH   1  17
ATOM     17  O   UNL A   1      34.322  33.711  33.054  1.00  0.00    -0.374 OA
BRANCH  17  18
ATOM     18  C   UNL A   1      35.456  32.856  33.055  1.00  0.00     0.202 C 
BRANCH  18  19
ATOM     19  C   UNL A   1      35.358  31.668  32.104  1.00  0.00     0.261 C 
BRANCH  19  20
ATOM     20  O   UNL A   1      36.674  31.496  31.548  1.00  0.00    -0.460 OA
BRANCH  20  21
ATOM     21  C   UNL A   1      37.195  30.281  31.826  1.00  0.00     0.338 C 
ATOM     22  O   UNL A   1      36.591  29.306  32.220  1.00  0.00    -0.246 OA
BRANCH  21  23
ATOM     23  C   UNL A   1      38.600  30.241  31.372  1.00  0.00     0.060 A 
ATOM     24  C   UNL A   1      38.806  30.519  30.016  1.00  0.00     0.016 A 
ATOM     25  C   UNL A   1      39.678  29.933  32.210  1.00  0.00     0.016 A 
ATOM     26  C   UNL A   1      40.070  30.384  29.467  1.00  0.00     0.010 A 
ATOM     27  C   UNL A   1      40.954  29.803  31.657  1.00  0.00     0.010 A 
ATOM     28  C   UNL A   1      41.136  29.969  30.274  1.00  0.00    -0.014 A 
BRANCH  28  29
ATOM     29  C   UNL A   1      42.378  29.525  29.608  1.00  0.00     0.031 A 
ATOM     30  C   UNL A   1      43.534  30.485  29.537  1.00  0.00     0.074 A 
ATOM     31  C   UNL A   1      42.498  28.261  29.170  1.00  0.00     0.049 A 
ATOM     32  N   UNL A   1      44.729  30.305  29.042  1.00  0.00    -0.248 NA
ATOM     33  C   UNL A   1      43.314  31.827  30.105  1.00  0.00     0.031 C 
ATOM     34  C   UNL A   1      41.451  27.242  29.247  1.00  0.00     0.029 A 
ATOM     35  N   UNL A   1      43.555  27.619  28.587  1.00  0.00    -0.354 N 
ATOM     36  C   UNL A   1      45.400  31.507  29.235  1.00  0.00     0.074 A 
ATOM     37  C   UNL A   1      44.468  32.423  29.852  1.00  0.00     0.031 C 
ATOM     38  C   UNL A   1      41.921  26.097  28.724  1.00  0.00     0.029 A 
ATOM     39  C   UNL A   1      43.284  26.317  28.247  1.00  0.00     0.049 A 
ATOM     40  H   UNL A   1      44.426  28.050  28.425  1.00  0.00     0.167 HD
ATOM     41  C   UNL A   1      46.683  31.815  28.933  1.00  0.00     0.031 A 
ATOM     42  C   UNL A   1      44.046  25.413  27.601  1.00  0.00     0.031 A 
ATOM     43  C   UNL A   1      47.591  30.896  28.300  1.00  0.00     0.049 A 
ATOM     44  C   UNL A   1      45.443  25.800  27.201  1.00  0.00     0.074 A 
ATOM     45  C   UNL A   1      48.911  31.096  27.940  1.00  0.00     0.029 A 
ATOM     46  N   UNL A   1      47.265  29.599  27.925  1.00  0.00    -0.354 N 
ATOM     47  N   UNL A   1      46.070  26.937  27.397  1.00  0.00    -0.248 NA
ATOM     48  C   UNL A   1      46.239  24.782  26.506  1.00  0.00     0.031 C 
ATOM     49  C   UNL A   1      49.363  29.943  27.290  1.00  0.00     0.029 A 
ATOM     50  C   UNL A   1      48.349  28.997  27.311  1.00  0.00     0.049 A 
ATOM     51  H   UNL A   1      46.391  29.171  28.074  1.00  0.00     0.167 HD
ATOM     52  C   UNL A   1      47.344  26.765  26.866  1.00  0.00     0.074 A 
ATOM     53  C   UNL A   1      47.401  25.407  26.360  1.00  0.00     0.031 C 
ATOM     54  C   UNL A   1      48.374  27.645  26.804  1.00  0.00     0.031 A 
BRANCH  41  55
ATOM     55  C   UNL A   1      47.156  33.212  29.246  1.00  0.00    -0.014 A 
ATOM     56  C   UNL A   1      47.744  33.529  30.485  1.00  0.00     0.010 A 
ATOM     57  C   UNL A   1      47.015  34.226  28.281  1.00  0.00     0.010 A 
ATOM     58  C   UNL A   1      48.135  34.840  30.771  1.00  0.00     0.020 A 
ATOM     59  C   UNL A   1      47.434  35.533  28.550  1.00  0.00     0.020 A 
ATOM     60  C   UNL A   1      47.974  35.835  29.802  1.00  0.00     0.054 A 
BRANCH  60  61
ATOM     61  S   UNL A   1      48.494  37.527  30.196  1.00  0.00     0.124 S 
ATOM     62  O   UNL A   1      48.788  38.070  28.872  1.00  0.00    -0.237 OA
ATOM     63  O   UNL A   1      47.312  38.080  30.852  1.00  0.00    -0.237 OA
ATOM     64  O   UNL A   1      49.655  37.342  31.064  1.00  0.00    -0.744 OA
ENDBRANCH  60  61
ENDBRANCH  41  55
BRANCH  42  65
ATOM     65  C   UNL A   1      43.479  24.077  27.275  1.00  0.00    -0.014 A 
ATOM     66  C   UNL A   1      43.481  23.587  25.958  1.00  0.00     0.010 A 
ATOM     67  C   UNL A   1      42.966  23.266  28.305  1.00  0.00     0.010 A 
ATOM     68  C   UNL A   1      42.975  22.313  25.677  1.00  0.00     0.020 A 
ATOM     69  C   UNL A   1      42.487  21.982  28.034  1.00  0.00     0.020 A 
ATOM     70  C   UNL A   1      42.488  21.516  26.718  1.00  0.00     0.054 A 
BRANCH  70  71
ATOM     71  S   UNL A   1      41.902  19.841  26.340  1.00  0.00     0.124 S 
ATOM     72  O   UNL A   1      42.432  19.073  27.463  1.00  0.00    -0.237 OA
ATOM     73  O   UNL A   1      40.452  20.015  26.320  1.00  0.00    -0.237 OA
ATOM     74  O   UNL A   1      42.506  19.551  25.042  1.00  0.00    -0.744 OA
ENDBRANCH  70  71
ENDBRANCH  42  65
BRANCH  54  75
ATOM     75  C   UNL A   1      49.660  27.159  26.188  1.00  0.00    -0.014 A 
ATOM     76  C   UNL A   1      50.615  26.460  26.948  1.00  0.00     0.010 A 
ATOM     77  C   UNL A   1      49.887  27.356  24.814  1.00  0.00     0.010 A 
ATOM     78  C   UNL A   1      51.791  25.998  26.350  1.00  0.00     0.020 A 
ATOM     79  C   UNL A   1      51.044  26.867  24.206  1.00  0.00     0.020 A 
ATOM     80  C   UNL A   1      51.997  26.204  24.982  1.00  0.00     0.054 A 
BRANCH  80  81
ATOM     81  S   UNL A   1      53.510  25.555  24.223  1.00  0.00     0.124 S 
ATOM     82  O   UNL A   1      54.546  26.331  24.901  1.00  0.00    -0.237 OA
ATOM     83  O   UNL A   1      53.458  24.137  24.569  1.00  0.00    -0.237 OA
ATOM     84  O   UNL A   1      53.341  25.851  22.802  1.00  0.00    -0.744 OA
ENDBRANCH  80  81
ENDBRANCH  54  75
ENDBRANCH  28  29
ENDBRANCH  21  23
ENDBRANCH  20  21
ENDBRANCH  19  20
ENDBRANCH  18  19
ENDBRANCH  17  18
ENDBRANCH   1  17
TORSDOF 21
ENDMDL
MODEL 3
REMARK VINA RESULT:      -8.5      0.902      8.431
REMARK SMILES CC(=O)N1CCC[C@H]1COCC(=O)OCCOCCOC(=O)c1ccc(-c2c3nc(c(-c4ccc(S(=O)(=O)[O-])cc4)c4ccc([nH]4)c(-c4ccc(S(=O)(=O)[O-])cc4)c4nc(c(-c5ccc(S(=O)(=O)[O-])cc5)c5ccc2[nH]5)C=C4)C=C3)cc1
REMARK SMILES IDX 16 1 15 2 14 3 12 4 13 5 11 6 10 7 9 8 8 9 4 10 5 11 6 12
REMARK SMILES IDX 7 13 2 14 1 15 3 16 17 17 18 18 19 19 20 20 21 21 22 22
REMARK SMILES IDX 23 23 24 24 82 25 25 26 81 27 26 28 27 29 28 30 75 31 29 32
REMARK SMILES IDX 80 33 74 34 76 35 30 36 79 37 73 38 72 39 31 41 61 42 42 43
REMARK SMILES IDX 60 44 43 45 46 46 59 47 77 48 44 49 45 50 58 52 78 53 47 54
REMARK SMILES IDX 32 55 33 56 41 57 34 58 40 59 35 60 36 61 37 62 38 63 39 64
REMARK SMILES IDX 62 65 63 66 71 67 64 68 70 69 65 70 66 71 67 72 68 73 69 74
REMARK SMILES IDX 48 75 49 76 57 77 50 78 56 79 51 80 52 81 53 82 54 83 55 84
REMARK H PARENT 76 40 46 51
REMARK Flexibility Score: inf
ROOT
ATOM      1  C   UNL A   1      38.185  22.060  25.750  1.00  0.00     0.202 C 
ENDROOT
BRANCH   1   2
ATOM      2  C   UNL A   1      37.333  21.020  24.993  1.00  0.00     0.261 C 
BRANCH   2   3
ATOM      3  O   UNL A   1      36.213  21.590  24.268  1.00  0.00    -0.462 OA
BRANCH   3   4
ATOM      4  C   UNL A   1      34.993  21.035  24.523  1.00  0.00     0.332 C 
ATOM      5  O   UNL A   1      34.823  19.952  25.074  1.00  0.00    -0.250 OA
BRANCH   4   6
ATOM      6  C   UNL A   1      33.806  21.858  23.959  1.00  0.00     0.282 C 
BRANCH   6   7
ATOM      7  O   UNL A   1      33.662  23.261  23.853  1.00  0.00    -0.368 OA
BRANCH   7   8
ATOM      8  C   UNL A   1      32.736  23.933  24.709  1.00  0.00     0.186 C 
BRANCH   8   9
ATOM      9  C   UNL A   1      32.413  25.418  24.407  1.00  0.00     0.111 C 
ATOM     10  N   UNL A   1      32.341  26.333  25.575  1.00  0.00    -0.338 N 
ATOM     11  C   UNL A   1      33.498  27.204  25.615  1.00  0.00     0.120 C 
ATOM     12  C   UNL A   1      33.787  27.425  24.148  1.00  0.00     0.024 C 
ATOM     13  C   UNL A   1      33.546  26.038  23.553  1.00  0.00     0.029 C 
BRANCH  10  14
ATOM     14  C   UNL A   1      31.115  26.678  26.120  1.00  0.00     0.219 C 
ATOM     15  C   UNL A   1      29.883  26.274  25.350  1.00  0.00     0.114 C 
ATOM     16  O   UNL A   1      30.994  27.164  27.238  1.00  0.00    -0.275 OA
ENDBRANCH  10  14
ENDBRANCH   8   9
ENDBRANCH   7   8
ENDBRANCH   6   7
ENDBRANCH   4   6
ENDBRANCH   3   4
ENDBRANCH   2   3
ENDBRANCH   1   2
BRANCH   1  17
ATOM     17  O   UNL A   1      39.575  21.777  25.891  1.00  0.00    -0.374 OA
BRANCH  17  18
ATOM     18  C   UNL A   1      40.095  22.244  27.128  1.00  0.00     0.202 C 
BRANCH  18  19
ATOM     19  C   UNL A   1      40.884  23.546  27.035  1.00  0.00     0.261 C 
BRANCH  19  20
ATOM     20  O   UNL A   1      40.144  24.512  27.804  1.00  0.00    -0.460 OA
BRANCH  20  21
ATOM     21  C   UNL A   1      40.290  25.768  27.329  1.00  0.00     0.338 C 
ATOM     22  O   UNL A   1      40.395  26.096  26.165  1.00  0.00    -0.246 OA
BRANCH  21  23
ATOM     23  C   UNL A   1      40.088  26.730  28.431  1.00  0.00     0.060 A 
ATOM     24  C   UNL A   1      40.884  27.880  28.385  1.00  0.00     0.016 A 
ATOM     25  C   UNL A   1      39.180  26.530  29.479  1.00  0.00     0.016 A 
ATOM     26  C   UNL A   1      40.859  28.781  29.437  1.00  0.00     0.010 A 
ATOM     27  C   UNL A   1      39.151  27.443  30.536  1.00  0.00     0.010 A 
ATOM     28  C   UNL A   1      40.036  28.534  30.542  1.00  0.00    -0.014 A 
BRANCH  28  29
ATOM     29  C   UNL A   1      40.267  29.323  31.769  1.00  0.00     0.031 A 
ATOM     30  C   UNL A   1      39.270  30.389  32.133  1.00  0.00     0.074 A 
ATOM     31  C   UNL A   1      41.290  29.022  32.585  1.00  0.00     0.049 A 
ATOM     32  N   UNL A   1      39.243  31.174  33.177  1.00  0.00    -0.248 NA
ATOM     33  C   UNL A   1      38.150  30.593  31.197  1.00  0.00     0.031 C 
ATOM     34  C   UNL A   1      42.276  27.968  32.344  1.00  0.00     0.029 A 
ATOM     35  N   UNL A   1      41.660  29.566  33.785  1.00  0.00    -0.354 N 
ATOM     36  C   UNL A   1      38.111  31.965  33.022  1.00  0.00     0.074 A 
ATOM     37  C   UNL A   1      37.500  31.598  31.764  1.00  0.00     0.031 C 
ATOM     38  C   UNL A   1      43.145  27.944  33.369  1.00  0.00     0.029 A 
ATOM     39  C   UNL A   1      42.794  29.002  34.314  1.00  0.00     0.049 A 
ATOM     40  H   UNL A   1      41.161  30.292  34.226  1.00  0.00     0.167 HD
ATOM     41  C   UNL A   1      37.618  32.907  33.860  1.00  0.00     0.031 A 
ATOM     42  C   UNL A   1      43.485  29.323  35.425  1.00  0.00     0.031 A 
ATOM     43  C   UNL A   1      38.251  33.275  35.099  1.00  0.00     0.049 A 
ATOM     44  C   UNL A   1      42.966  30.428  36.303  1.00  0.00     0.074 A 
ATOM     45  C   UNL A   1      37.849  34.218  36.026  1.00  0.00     0.029 A 
ATOM     46  N   UNL A   1      39.428  32.716  35.578  1.00  0.00    -0.354 N 
ATOM     47  N   UNL A   1      41.889  31.164  36.152  1.00  0.00    -0.248 NA
ATOM     48  C   UNL A   1      43.746  30.740  37.507  1.00  0.00     0.031 C 
ATOM     49  C   UNL A   1      38.817  34.275  37.035  1.00  0.00     0.029 A 
ATOM     50  C   UNL A   1      39.784  33.314  36.774  1.00  0.00     0.049 A 
ATOM     51  H   UNL A   1      39.936  31.999  35.132  1.00  0.00     0.167 HD
ATOM     52  C   UNL A   1      41.850  32.013  37.252  1.00  0.00     0.074 A 
ATOM     53  C   UNL A   1      43.002  31.684  38.069  1.00  0.00     0.031 C 
ATOM     54  C   UNL A   1      40.945  32.975  37.562  1.00  0.00     0.031 A 
BRANCH  41  55
ATOM     55  C   UNL A   1      36.364  33.629  33.436  1.00  0.00    -0.014 A 
ATOM     56  C   UNL A   1      35.087  33.092  33.687  1.00  0.00     0.010 A 
ATOM     57  C   UNL A   1      36.463  34.870  32.780  1.00  0.00     0.010 A 
ATOM     58  C   UNL A   1      33.938  33.756  33.247  1.00  0.00     0.020 A 
ATOM     59  C   UNL A   1      35.315  35.553  32.366  1.00  0.00     0.020 A 
ATOM     60  C   UNL A   1      34.061  34.981  32.586  1.00  0.00     0.054 A 
BRANCH  60  61
ATOM     61  S   UNL A   1      32.554  35.825  32.029  1.00  0.00     0.124 S 
ATOM     62  O   UNL A   1      32.701  35.778  30.577  1.00  0.00    -0.237 OA
ATOM     63  O   UNL A   1      31.495  34.983  32.581  1.00  0.00    -0.237 OA
ATOM     64  O   UNL A   1      32.660  37.156  32.622  1.00  0.00    -0.744 OA
ENDBRANCH  60  61
ENDBRANCH  41  55
BRANCH  42  65
ATOM     65  C   UNL A   1      44.749  28.602  35.736  1.00  0.00    -0.014 A 
ATOM     66  C   UNL A   1      44.747  27.433  36.515  1.00  0.00     0.010 A 
ATOM     67  C   UNL A   1      45.968  29.073  35.210  1.00  0.00     0.010 A 
ATOM     68  C   UNL A   1      45.942  26.751  36.767  1.00  0.00     0.020 A 
ATOM     69  C   UNL A   1      47.158  28.377  35.435  1.00  0.00     0.020 A 
ATOM     70  C   UNL A   1      47.139  27.224  36.219  1.00  0.00     0.054 A 
BRANCH  70  71
ATOM     71  S   UNL A   1      48.665  26.284  36.502  1.00  0.00     0.124 S 
ATOM     72  O   UNL A   1      49.495  26.706  35.377  1.00  0.00    -0.237 OA
ATOM     73  O   UNL A   1      49.088  26.762  37.816  1.00  0.00    -0.237 OA
ATOM     74  O   UNL A   1      48.222  24.892  36.466  1.00  0.00    -0.744 OA
ENDBRANCH  70  71
ENDBRANCH  42  65
BRANCH  54  75
ATOM     75  C   UNL A   1      41.151  33.724  38.852  1.00  0.00    -0.014 A 
ATOM     76  C   UNL A   1      41.859  34.939  38.887  1.00  0.00     0.010 A 
ATOM     77  C   UNL A   1      40.576  33.232  40.038  1.00  0.00     0.010 A 
ATOM     78  C   UNL A   1      42.018  35.629  40.091  1.00  0.00     0.020 A 
ATOM     79  C   UNL A   1      40.704  33.934  41.237  1.00  0.00     0.020 A 
ATOM     80  C   UNL A   1      41.438  35.122  41.259  1.00  0.00     0.054 A 
BRANCH  80  81
ATOM     81  S   UNL A   1      41.622  36.060  42.800  1.00  0.00     0.124 S 
ATOM     82  O   UNL A   1      41.822  34.995  43.780  1.00  0.00    -0.237 OA
ATOM     83  O   UNL A   1      42.791  36.893  42.528  1.00  0.00    -0.237 OA
ATOM     84  O   UNL A   1      40.360  36.785  42.918  1.00  0.00    -0.744 OA
ENDBRANCH  80  81
ENDBRANCH  54  75
ENDBRANCH  28  29
ENDBRANCH  21  23
ENDBRANCH  20  21
ENDBRANCH  19  20
ENDBRANCH  18  19
ENDBRANCH  17  18
ENDBRANCH   1  17
TORSDOF 21
ENDMDL
