MODEL 1
REMARK VINA RESULT:     -10.1      0.000      0.000
REMARK SMILES O=C(CCN/C(=[NH+]\S(=O)(=O)c1ccccc1)c1ccccc1)OCCOCCOC(=O)c1ccc(-c2c3nc(c(-c4ccc(S(=O)(=O)[O-])cc4)c4ccc([nH]4)c(-c4ccc(S(=O)(=O)[O-])cc4)c4nc(c(-c5ccc(S(=O)(=O)[O-])cc5)c5ccc2[nH]5)C=C4)C=C3)cc1
REMARK SMILES IDX 25 1 24 2 23 3 2 4 1 5 3 6 4 7 5 8 6 9 7 11 17 13 18 14
REMARK SMILES IDX 22 15 19 16 21 17 20 18 8 19 9 20 10 21 11 22 12 23 16 24
REMARK SMILES IDX 13 25 15 26 14 27 26 28 27 29 28 30 29 31 30 32 31 33 32 34
REMARK SMILES IDX 33 35 91 36 34 37 90 38 35 39 36 40 37 41 84 42 38 43 89 44
REMARK SMILES IDX 83 45 85 46 39 47 88 48 82 49 81 50 40 52 70 53 51 54 69 55
REMARK SMILES IDX 52 56 55 57 68 58 86 59 53 60 54 61 67 63 87 64 56 65 41 66
REMARK SMILES IDX 42 67 50 68 43 69 49 70 44 71 45 72 46 73 47 74 48 75 71 76
REMARK SMILES IDX 72 77 80 78 73 79 79 80 74 81 75 82 76 83 77 84 78 85 57 86
REMARK SMILES IDX 58 87 66 88 59 89 65 90 60 91 61 92 62 93 63 94 64 95
REMARK H PARENT 5 10 7 12 85 51 55 62
REMARK Flexibility Score: inf
ROOT
ATOM      1  C   UNL A   1      32.826  28.240  25.327  1.00  0.00     0.202 C 
ENDROOT
BRANCH   1   2
ATOM      2  C   UNL A   1      33.358  27.899  23.932  1.00  0.00     0.261 C 
BRANCH   2   3
ATOM      3  O   UNL A   1      34.011  26.623  23.801  1.00  0.00    -0.463 OA
BRANCH   3   4
ATOM      4  C   UNL A   1      33.847  25.823  22.732  1.00  0.00     0.309 C 
ATOM      5  O   UNL A   1      33.719  26.305  21.609  1.00  0.00    -0.252 OA
BRANCH   4   6
ATOM      6  C   UNL A   1      33.686  24.348  22.954  1.00  0.00     0.168 C 
BRANCH   6   7
ATOM      7  C   UNL A   1      33.361  24.021  24.398  1.00  0.00     0.245 C 
BRANCH   7   8
ATOM      8  N   UNL A   1      33.350  22.596  24.692  1.00  0.00    -0.273 N 
ATOM      9  C   UNL A   1      34.372  21.712  25.011  1.00  0.00     0.290 C 
ATOM     10  H   UNL A   1      32.455  22.184  24.659  1.00  0.00     0.305 HD
ATOM     11  N   UNL A   1      34.257  20.413  25.030  1.00  0.00    -0.162 N 
ATOM     12  H   UNL A   1      35.009  19.869  25.359  1.00  0.00     0.327 HD
BRANCH   9  13
ATOM     13  C   UNL A   1      35.747  22.216  25.363  1.00  0.00     0.064 A 
ATOM     14  C   UNL A   1      36.830  21.328  25.309  1.00  0.00     0.016 A 
ATOM     15  C   UNL A   1      35.963  23.532  25.782  1.00  0.00     0.016 A 
ATOM     16  C   UNL A   1      38.118  21.768  25.622  1.00  0.00     0.001 A 
ATOM     17  C   UNL A   1      37.257  23.980  26.063  1.00  0.00     0.001 A 
ATOM     18  C   UNL A   1      38.334  23.098  25.980  1.00  0.00     0.000 A 
ENDBRANCH   9  13
BRANCH  11  19
ATOM     19  S   UNL A   1      32.907  19.674  24.524  1.00  0.00     0.328 S 
ATOM     20  O   UNL A   1      31.817  20.044  25.411  1.00  0.00    -0.179 OA
ATOM     21  O   UNL A   1      32.784  19.903  23.097  1.00  0.00    -0.179 OA
BRANCH  19  22
ATOM     22  C   UNL A   1      33.142  17.921  24.666  1.00  0.00     0.109 A 
ATOM     23  C   UNL A   1      32.280  17.148  25.446  1.00  0.00     0.024 A 
ATOM     24  C   UNL A   1      34.297  17.364  24.101  1.00  0.00     0.024 A 
ATOM     25  C   UNL A   1      32.600  15.811  25.687  1.00  0.00     0.001 A 
ATOM     26  C   UNL A   1      34.608  16.029  24.350  1.00  0.00     0.001 A 
ATOM     27  C   UNL A   1      33.765  15.256  25.149  1.00  0.00     0.000 A 
ENDBRANCH  19  22
ENDBRANCH  11  19
ENDBRANCH   7   8
ENDBRANCH   6   7
ENDBRANCH   4   6
ENDBRANCH   3   4
ENDBRANCH   2   3
ENDBRANCH   1   2
BRANCH   1  28
ATOM     28  O   UNL A   1      33.136  29.535  25.840  1.00  0.00    -0.374 OA
BRANCH  28  29
ATOM     29  C   UNL A   1      32.225  30.129  26.761  1.00  0.00     0.202 C 
BRANCH  29  30
ATOM     30  C   UNL A   1      32.328  31.644  26.913  1.00  0.00     0.261 C 
BRANCH  30  31
ATOM     31  O   UNL A   1      33.567  32.023  27.528  1.00  0.00    -0.460 OA
BRANCH  31  32
ATOM     32  C   UNL A   1      33.536  33.211  28.181  1.00  0.00     0.338 C 
ATOM     33  O   UNL A   1      32.694  34.081  28.081  1.00  0.00    -0.246 OA
BRANCH  32  34
ATOM     34  C   UNL A   1      34.634  33.259  29.170  1.00  0.00     0.060 A 
ATOM     35  C   UNL A   1      35.869  33.763  28.747  1.00  0.00     0.016 A 
ATOM     36  C   UNL A   1      34.477  32.745  30.461  1.00  0.00     0.016 A 
ATOM     37  C   UNL A   1      36.979  33.676  29.583  1.00  0.00     0.010 A 
ATOM     38  C   UNL A   1      35.589  32.655  31.297  1.00  0.00     0.010 A 
ATOM     39  C   UNL A   1      36.851  33.066  30.836  1.00  0.00    -0.014 A 
BRANCH  39  40
ATOM     40  C   UNL A   1      38.067  32.647  31.565  1.00  0.00     0.031 A 
ATOM     41  C   UNL A   1      38.936  31.587  30.944  1.00  0.00     0.074 A 
ATOM     42  C   UNL A   1      38.397  33.203  32.742  1.00  0.00     0.049 A 
ATOM     43  N   UNL A   1      40.045  31.056  31.387  1.00  0.00    -0.248 NA
ATOM     44  C   UNL A   1      38.490  31.051  29.645  1.00  0.00     0.031 C 
ATOM     45  C   UNL A   1      37.650  34.262  33.417  1.00  0.00     0.029 A 
ATOM     46  N   UNL A   1      39.453  32.945  33.576  1.00  0.00    -0.354 N 
ATOM     47  C   UNL A   1      40.424  30.122  30.429  1.00  0.00     0.074 A 
ATOM     48  C   UNL A   1      39.412  30.135  29.397  1.00  0.00     0.031 C 
ATOM     49  C   UNL A   1      38.271  34.561  34.572  1.00  0.00     0.029 A 
ATOM     50  C   UNL A   1      39.444  33.700  34.722  1.00  0.00     0.049 A 
ATOM     51  H   UNL A   1      40.151  32.280  33.374  1.00  0.00     0.167 HD
ATOM     52  C   UNL A   1      41.519  29.327  30.408  1.00  0.00     0.031 A 
ATOM     53  C   UNL A   1      40.286  33.689  35.773  1.00  0.00     0.031 A 
ATOM     54  C   UNL A   1      42.508  29.300  31.451  1.00  0.00     0.049 A 
ATOM     55  C   UNL A   1      41.466  32.752  35.760  1.00  0.00     0.074 A 
ATOM     56  C   UNL A   1      43.663  28.543  31.527  1.00  0.00     0.029 A 
ATOM     57  N   UNL A   1      42.449  30.061  32.610  1.00  0.00    -0.354 N 
ATOM     58  N   UNL A   1      41.833  31.899  34.832  1.00  0.00    -0.248 NA
ATOM     59  C   UNL A   1      42.354  32.791  36.929  1.00  0.00     0.031 C 
ATOM     60  C   UNL A   1      44.277  28.809  32.756  1.00  0.00     0.029 A 
ATOM     61  C   UNL A   1      43.535  29.776  33.418  1.00  0.00     0.049 A 
ATOM     62  H   UNL A   1      41.739  30.708  32.825  1.00  0.00     0.167 HD
ATOM     63  C   UNL A   1      43.016  31.327  35.288  1.00  0.00     0.074 A 
ATOM     64  C   UNL A   1      43.301  31.932  36.574  1.00  0.00     0.031 C 
ATOM     65  C   UNL A   1      43.801  30.393  34.694  1.00  0.00     0.031 A 
BRANCH  52  66
ATOM     66  C   UNL A   1      41.666  28.394  29.236  1.00  0.00    -0.014 A 
ATOM     67  C   UNL A   1      41.357  27.025  29.347  1.00  0.00     0.010 A 
ATOM     68  C   UNL A   1      42.139  28.890  28.008  1.00  0.00     0.010 A 
ATOM     69  C   UNL A   1      41.574  26.161  28.271  1.00  0.00     0.020 A 
ATOM     70  C   UNL A   1      42.331  28.034  26.921  1.00  0.00     0.020 A 
ATOM     71  C   UNL A   1      42.070  26.670  27.067  1.00  0.00     0.054 A 
BRANCH  71  72
ATOM     72  S   UNL A   1      42.362  25.527  25.688  1.00  0.00     0.124 S 
ATOM     73  O   UNL A   1      41.154  25.710  24.887  1.00  0.00    -0.237 OA
ATOM     74  O   UNL A   1      43.592  26.044  25.095  1.00  0.00    -0.237 OA
ATOM     75  O   UNL A   1      42.487  24.225  26.338  1.00  0.00    -0.744 OA
ENDBRANCH  71  72
ENDBRANCH  52  66
BRANCH  53  76
ATOM     76  C   UNL A   1      40.053  34.613  36.914  1.00  0.00    -0.014 A 
ATOM     77  C   UNL A   1      40.506  35.941  36.855  1.00  0.00     0.010 A 
ATOM     78  C   UNL A   1      39.355  34.176  38.054  1.00  0.00     0.010 A 
ATOM     79  C   UNL A   1      40.272  36.817  37.919  1.00  0.00     0.020 A 
ATOM     80  C   UNL A   1      39.098  35.055  39.111  1.00  0.00     0.020 A 
ATOM     81  C   UNL A   1      39.564  36.369  39.038  1.00  0.00     0.054 A 
BRANCH  81  82
ATOM     82  S   UNL A   1      39.213  37.544  40.376  1.00  0.00     0.124 S 
ATOM     83  O   UNL A   1      40.544  38.049  40.694  1.00  0.00    -0.237 OA
ATOM     84  O   UNL A   1      38.312  38.494  39.729  1.00  0.00    -0.237 OA
ATOM     85  O   UNL A   1      38.594  36.712  41.407  1.00  0.00    -0.744 OA
ENDBRANCH  81  82
ENDBRANCH  53  76
BRANCH  65  86
ATOM     86  C   UNL A   1      45.072  30.005  35.402  1.00  0.00    -0.014 A 
ATOM     87  C   UNL A   1      46.228  30.803  35.327  1.00  0.00     0.010 A 
ATOM     88  C   UNL A   1      45.089  28.845  36.197  1.00  0.00     0.010 A 
ATOM     89  C   UNL A   1      47.390  30.425  36.007  1.00  0.00     0.020 A 
ATOM     90  C   UNL A   1      46.239  28.479  36.900  1.00  0.00     0.020 A 
ATOM     91  C   UNL A   1      47.389  29.264  36.786  1.00  0.00     0.054 A 
BRANCH  91  92
ATOM     92  S   UNL A   1      48.897  28.811  37.686  1.00  0.00     0.124 S 
ATOM     93  O   UNL A   1      49.926  29.517  36.929  1.00  0.00    -0.237 OA
ATOM     94  O   UNL A   1      48.638  29.326  39.029  1.00  0.00    -0.237 OA
ATOM     95  O   UNL A   1      48.935  27.354  37.583  1.00  0.00    -0.744 OA
ENDBRANCH  91  92
ENDBRANCH  65  86
ENDBRANCH  39  40
ENDBRANCH  32  34
ENDBRANCH  31  32
ENDBRANCH  30  31
ENDBRANCH  29  30
ENDBRANCH  28  29
ENDBRANCH   1  28
TORSDOF 22
ENDMDL
MODEL 2
REMARK VINA RESULT:      -9.7      1.433      3.126
REMARK SMILES O=C(CCN/C(=[NH+]\S(=O)(=O)c1ccccc1)c1ccccc1)OCCOCCOC(=O)c1ccc(-c2c3nc(c(-c4ccc(S(=O)(=O)[O-])cc4)c4ccc([nH]4)c(-c4ccc(S(=O)(=O)[O-])cc4)c4nc(c(-c5ccc(S(=O)(=O)[O-])cc5)c5ccc2[nH]5)C=C4)C=C3)cc1
REMARK SMILES IDX 25 1 24 2 23 3 2 4 1 5 3 6 4 7 5 8 6 9 7 11 17 13 18 14
REMARK SMILES IDX 22 15 19 16 21 17 20 18 8 19 9 20 10 21 11 22 12 23 16 24
REMARK SMILES IDX 13 25 15 26 14 27 26 28 27 29 28 30 29 31 30 32 31 33 32 34
REMARK SMILES IDX 33 35 91 36 34 37 90 38 35 39 36 40 37 41 84 42 38 43 89 44
REMARK SMILES IDX 83 45 85 46 39 47 88 48 82 49 81 50 40 52 70 53 51 54 69 55
REMARK SMILES IDX 52 56 55 57 68 58 86 59 53 60 54 61 67 63 87 64 56 65 41 66
REMARK SMILES IDX 42 67 50 68 43 69 49 70 44 71 45 72 46 73 47 74 48 75 71 76
REMARK SMILES IDX 72 77 80 78 73 79 79 80 74 81 75 82 76 83 77 84 78 85 57 86
REMARK SMILES IDX 58 87 66 88 59 89 65 90 60 91 61 92 62 93 63 94 64 95
REMARK H PARENT 5 10 7 12 85 51 55 62
REMARK Flexibility Score: inf
ROOT
ATOM      1  C   UNL A   1      33.049  28.032  26.072  1.00  0.00     0.202 C 
ENDROOT
BRANCH   1   2
ATOM      2  C   UNL A   1      34.261  27.101  26.175  1.00  0.00     0.261 C 
BRANCH   2   3
ATOM      3  O   UNL A   1      34.029  25.724  25.825  1.00  0.00    -0.463 OA
BRANCH   3   4
ATOM      4  C   UNL A   1      34.379  25.202  24.635  1.00  0.00     0.309 C 
ATOM      5  O   UNL A   1      33.879  25.631  23.597  1.00  0.00    -0.252 OA
BRANCH   4   6
ATOM      6  C   UNL A   1      35.278  24.001  24.612  1.00  0.00     0.168 C 
BRANCH   6   7
ATOM      7  C   UNL A   1      35.166  23.181  25.881  1.00  0.00     0.245 C 
BRANCH   7   8
ATOM      8  N   UNL A   1      33.795  22.926  26.299  1.00  0.00    -0.273 N 
ATOM      9  C   UNL A   1      32.942  21.856  26.064  1.00  0.00     0.290 C 
ATOM     10  H   UNL A   1      33.401  23.643  26.848  1.00  0.00     0.305 HD
ATOM     11  N   UNL A   1      31.661  21.854  26.307  1.00  0.00    -0.162 N 
ATOM     12  H   UNL A   1      31.153  21.017  26.197  1.00  0.00     0.327 HD
BRANCH   9  13
ATOM     13  C   UNL A   1      33.463  20.569  25.478  1.00  0.00     0.064 A 
ATOM     14  C   UNL A   1      32.572  19.506  25.278  1.00  0.00     0.016 A 
ATOM     15  C   UNL A   1      34.815  20.395  25.169  1.00  0.00     0.016 A 
ATOM     16  C   UNL A   1      33.022  18.303  24.728  1.00  0.00     0.001 A 
ATOM     17  C   UNL A   1      35.258  19.203  24.589  1.00  0.00     0.001 A 
ATOM     18  C   UNL A   1      34.361  18.159  24.367  1.00  0.00     0.000 A 
ENDBRANCH   9  13
BRANCH  11  19
ATOM     19  S   UNL A   1      30.887  23.195  26.785  1.00  0.00     0.328 S 
ATOM     20  O   UNL A   1      29.595  22.813  27.330  1.00  0.00    -0.179 OA
ATOM     21  O   UNL A   1      31.807  23.974  27.591  1.00  0.00    -0.179 OA
BRANCH  19  22
ATOM     22  C   UNL A   1      30.590  24.207  25.359  1.00  0.00     0.109 A 
ATOM     23  C   UNL A   1      30.866  23.728  24.077  1.00  0.00     0.024 A 
ATOM     24  C   UNL A   1      30.219  25.542  25.564  1.00  0.00     0.024 A 
ATOM     25  C   UNL A   1      30.799  24.608  22.995  1.00  0.00     0.001 A 
ATOM     26  C   UNL A   1      30.158  26.413  24.478  1.00  0.00     0.001 A 
ATOM     27  C   UNL A   1      30.457  25.949  23.197  1.00  0.00     0.000 A 
ENDBRANCH  19  22
ENDBRANCH  11  19
ENDBRANCH   7   8
ENDBRANCH   6   7
ENDBRANCH   4   6
ENDBRANCH   3   4
ENDBRANCH   2   3
ENDBRANCH   1   2
BRANCH   1  28
ATOM     28  O   UNL A   1      33.266  29.412  26.366  1.00  0.00    -0.374 OA
BRANCH  28  29
ATOM     29  C   UNL A   1      32.127  30.261  26.480  1.00  0.00     0.202 C 
BRANCH  29  30
ATOM     30  C   UNL A   1      32.404  31.680  26.968  1.00  0.00     0.261 C 
BRANCH  30  31
ATOM     31  O   UNL A   1      33.586  31.731  27.779  1.00  0.00    -0.460 OA
BRANCH  31  32
ATOM     32  C   UNL A   1      34.128  32.966  27.916  1.00  0.00     0.338 C 
ATOM     33  O   UNL A   1      33.809  33.977  27.320  1.00  0.00    -0.246 OA
BRANCH  32  34
ATOM     34  C   UNL A   1      35.108  32.957  29.022  1.00  0.00     0.060 A 
ATOM     35  C   UNL A   1      36.180  33.854  28.949  1.00  0.00     0.016 A 
ATOM     36  C   UNL A   1      35.021  32.032  30.067  1.00  0.00     0.016 A 
ATOM     37  C   UNL A   1      37.218  33.773  29.873  1.00  0.00     0.010 A 
ATOM     38  C   UNL A   1      36.062  31.948  30.990  1.00  0.00     0.010 A 
ATOM     39  C   UNL A   1      37.188  32.779  30.858  1.00  0.00    -0.014 A 
BRANCH  39  40
ATOM     40  C   UNL A   1      38.427  32.454  31.597  1.00  0.00     0.031 A 
ATOM     41  C   UNL A   1      39.368  31.446  30.996  1.00  0.00     0.074 A 
ATOM     42  C   UNL A   1      38.713  33.050  32.767  1.00  0.00     0.049 A 
ATOM     43  N   UNL A   1      40.508  30.998  31.451  1.00  0.00    -0.248 NA
ATOM     44  C   UNL A   1      38.965  30.861  29.705  1.00  0.00     0.031 C 
ATOM     45  C   UNL A   1      37.893  34.066  33.423  1.00  0.00     0.029 A 
ATOM     46  N   UNL A   1      39.780  32.876  33.609  1.00  0.00    -0.354 N 
ATOM     47  C   UNL A   1      40.953  30.078  30.510  1.00  0.00     0.074 A 
ATOM     48  C   UNL A   1      39.948  30.006  29.474  1.00  0.00     0.031 C 
ATOM     49  C   UNL A   1      38.487  34.424  34.575  1.00  0.00     0.029 A 
ATOM     50  C   UNL A   1      39.715  33.646  34.742  1.00  0.00     0.049 A 
ATOM     51  H   UNL A   1      40.522  32.257  33.419  1.00  0.00     0.167 HD
ATOM     52  C   UNL A   1      42.101  29.358  30.505  1.00  0.00     0.031 A 
ATOM     53  C   UNL A   1      40.551  33.708  35.796  1.00  0.00     0.031 A 
ATOM     54  C   UNL A   1      43.084  29.415  31.551  1.00  0.00     0.049 A 
ATOM     55  C   UNL A   1      41.792  32.853  35.801  1.00  0.00     0.074 A 
ATOM     56  C   UNL A   1      44.287  28.738  31.643  1.00  0.00     0.029 A 
ATOM     57  N   UNL A   1      42.969  30.188  32.697  1.00  0.00    -0.354 N 
ATOM     58  N   UNL A   1      42.219  32.014  34.888  1.00  0.00    -0.248 NA
ATOM     59  C   UNL A   1      42.670  32.970  36.973  1.00  0.00     0.031 C 
ATOM     60  C   UNL A   1      44.877  29.065  32.870  1.00  0.00     0.029 A 
ATOM     61  C   UNL A   1      44.068  29.989  33.514  1.00  0.00     0.049 A 
ATOM     62  H   UNL A   1      42.216  30.788  32.900  1.00  0.00     0.167 HD
ATOM     63  C   UNL A   1      43.437  31.529  35.358  1.00  0.00     0.074 A 
ATOM     64  C   UNL A   1      43.675  32.172  36.635  1.00  0.00     0.031 C 
ATOM     65  C   UNL A   1      44.286  30.642  34.781  1.00  0.00     0.031 A 
BRANCH  52  66
ATOM     66  C   UNL A   1      42.315  28.420  29.348  1.00  0.00    -0.014 A 
ATOM     67  C   UNL A   1      42.938  28.852  28.161  1.00  0.00     0.010 A 
ATOM     68  C   UNL A   1      41.869  27.089  29.440  1.00  0.00     0.010 A 
ATOM     69  C   UNL A   1      43.058  27.987  27.069  1.00  0.00     0.020 A 
ATOM     70  C   UNL A   1      42.011  26.214  28.360  1.00  0.00     0.020 A 
ATOM     71  C   UNL A   1      42.583  26.676  27.173  1.00  0.00     0.054 A 
BRANCH  71  72
ATOM     72  S   UNL A   1      42.732  25.577  25.737  1.00  0.00     0.124 S 
ATOM     73  O   UNL A   1      44.022  25.981  25.183  1.00  0.00    -0.237 OA
ATOM     74  O   UNL A   1      42.699  24.249  26.343  1.00  0.00    -0.237 OA
ATOM     75  O   UNL A   1      41.570  25.914  24.920  1.00  0.00    -0.744 OA
ENDBRANCH  71  72
ENDBRANCH  52  66
BRANCH  53  76
ATOM     76  C   UNL A   1      40.251  34.632  36.921  1.00  0.00    -0.014 A 
ATOM     77  C   UNL A   1      40.721  35.956  36.898  1.00  0.00     0.010 A 
ATOM     78  C   UNL A   1      39.473  34.200  38.010  1.00  0.00     0.010 A 
ATOM     79  C   UNL A   1      40.424  36.831  37.946  1.00  0.00     0.020 A 
ATOM     80  C   UNL A   1      39.154  35.079  39.050  1.00  0.00     0.020 A 
ATOM     81  C   UNL A   1      39.638  36.388  39.014  1.00  0.00     0.054 A 
BRANCH  81  82
ATOM     82  S   UNL A   1      39.209  37.563  40.328  1.00  0.00     0.124 S 
ATOM     83  O   UNL A   1      40.514  38.108  40.687  1.00  0.00    -0.237 OA
ATOM     84  O   UNL A   1      38.305  38.483  39.642  1.00  0.00    -0.237 OA
ATOM     85  O   UNL A   1      38.579  36.723  41.345  1.00  0.00    -0.744 OA
ENDBRANCH  81  82
ENDBRANCH  53  76
BRANCH  65  86
ATOM     86  C   UNL A   1      45.577  30.352  35.499  1.00  0.00    -0.014 A 
ATOM     87  C   UNL A   1      45.689  29.288  36.411  1.00  0.00     0.010 A 
ATOM     88  C   UNL A   1      46.712  31.133  35.213  1.00  0.00     0.010 A 
ATOM     89  C   UNL A   1      46.905  29.034  37.052  1.00  0.00     0.020 A 
ATOM     90  C   UNL A   1      47.936  30.865  35.830  1.00  0.00     0.020 A 
ATOM     91  C   UNL A   1      48.020  29.826  36.760  1.00  0.00     0.054 A 
BRANCH  91  92
ATOM     92  S   UNL A   1      49.596  29.457  37.578  1.00  0.00     0.124 S 
ATOM     93  O   UNL A   1      50.521  29.414  36.449  1.00  0.00    -0.237 OA
ATOM     94  O   UNL A   1      49.762  30.591  38.485  1.00  0.00    -0.237 OA
ATOM     95  O   UNL A   1      49.351  28.175  38.235  1.00  0.00    -0.744 OA
ENDBRANCH  91  92
ENDBRANCH  65  86
ENDBRANCH  39  40
ENDBRANCH  32  34
ENDBRANCH  31  32
ENDBRANCH  30  31
ENDBRANCH  29  30
ENDBRANCH  28  29
ENDBRANCH   1  28
TORSDOF 22
ENDMDL
MODEL 3
REMARK VINA RESULT:      -9.6      2.199      3.948
REMARK SMILES O=C(CCN/C(=[NH+]\S(=O)(=O)c1ccccc1)c1ccccc1)OCCOCCOC(=O)c1ccc(-c2c3nc(c(-c4ccc(S(=O)(=O)[O-])cc4)c4ccc([nH]4)c(-c4ccc(S(=O)(=O)[O-])cc4)c4nc(c(-c5ccc(S(=O)(=O)[O-])cc5)c5ccc2[nH]5)C=C4)C=C3)cc1
REMARK SMILES IDX 25 1 24 2 23 3 2 4 1 5 3 6 4 7 5 8 6 9 7 11 17 13 18 14
REMARK SMILES IDX 22 15 19 16 21 17 20 18 8 19 9 20 10 21 11 22 12 23 16 24
REMARK SMILES IDX 13 25 15 26 14 27 26 28 27 29 28 30 29 31 30 32 31 33 32 34
REMARK SMILES IDX 33 35 91 36 34 37 90 38 35 39 36 40 37 41 84 42 38 43 89 44
REMARK SMILES IDX 83 45 85 46 39 47 88 48 82 49 81 50 40 52 70 53 51 54 69 55
REMARK SMILES IDX 52 56 55 57 68 58 86 59 53 60 54 61 67 63 87 64 56 65 41 66
REMARK SMILES IDX 42 67 50 68 43 69 49 70 44 71 45 72 46 73 47 74 48 75 71 76
REMARK SMILES IDX 72 77 80 78 73 79 79 80 74 81 75 82 76 83 77 84 78 85 57 86
REMARK SMILES IDX 58 87 66 88 59 89 65 90 60 91 61 92 62 93 63 94 64 95
REMARK H PARENT 5 10 7 12 85 51 55 62
REMARK Flexibility Score: inf
ROOT
ATOM      1  C   UNL A   1      32.673  29.362  26.656  1.00  0.00     0.202 C 
ENDROOT
BRANCH   1   2
ATOM      2  C   UNL A   1      33.830  28.381  26.869  1.00  0.00     0.261 C 
BRANCH   2   3
ATOM      3  O   UNL A   1      33.616  27.041  26.389  1.00  0.00    -0.463 OA
BRANCH   3   4
ATOM      4  C   UNL A   1      34.137  26.584  25.236  1.00  0.00     0.309 C 
ATOM      5  O   UNL A   1      33.985  27.214  24.192  1.00  0.00    -0.252 OA
BRANCH   4   6
ATOM      6  C   UNL A   1      34.782  25.229  25.224  1.00  0.00     0.168 C 
BRANCH   6   7
ATOM      7  C   UNL A   1      34.002  24.220  26.041  1.00  0.00     0.245 C 
BRANCH   7   8
ATOM      8  N   UNL A   1      32.558  24.392  25.970  1.00  0.00    -0.273 N 
ATOM      9  C   UNL A   1      31.577  23.684  25.289  1.00  0.00     0.290 C 
ATOM     10  H   UNL A   1      32.216  25.148  26.501  1.00  0.00     0.305 HD
ATOM     11  N   UNL A   1      30.345  24.081  25.130  1.00  0.00    -0.162 N 
ATOM     12  H   UNL A   1      29.694  23.469  24.714  1.00  0.00     0.327 HD
BRANCH   9  13
ATOM     13  C   UNL A   1      31.886  22.354  24.653  1.00  0.00     0.064 A 
ATOM     14  C   UNL A   1      31.862  22.249  23.256  1.00  0.00     0.016 A 
ATOM     15  C   UNL A   1      32.155  21.217  25.419  1.00  0.00     0.016 A 
ATOM     16  C   UNL A   1      32.154  21.031  22.636  1.00  0.00     0.001 A 
ATOM     17  C   UNL A   1      32.478  20.008  24.798  1.00  0.00     0.001 A 
ATOM     18  C   UNL A   1      32.480  19.916  23.406  1.00  0.00     0.000 A 
ENDBRANCH   9  13
BRANCH  11  19
ATOM     19  S   UNL A   1      29.861  25.554  25.599  1.00  0.00     0.328 S 
ATOM     20  O   UNL A   1      28.408  25.587  25.593  1.00  0.00    -0.179 OA
ATOM     21  O   UNL A   1      30.585  25.894  26.809  1.00  0.00    -0.179 OA
BRANCH  19  22
ATOM     22  C   UNL A   1      30.429  26.736  24.404  1.00  0.00     0.109 A 
ATOM     23  C   UNL A   1      30.378  28.104  24.677  1.00  0.00     0.024 A 
ATOM     24  C   UNL A   1      30.785  26.268  23.133  1.00  0.00     0.024 A 
ATOM     25  C   UNL A   1      30.656  29.010  23.652  1.00  0.00     0.001 A 
ATOM     26  C   UNL A   1      31.058  27.181  22.116  1.00  0.00     0.001 A 
ATOM     27  C   UNL A   1      30.984  28.550  22.373  1.00  0.00     0.000 A 
ENDBRANCH  19  22
ENDBRANCH  11  19
ENDBRANCH   7   8
ENDBRANCH   6   7
ENDBRANCH   4   6
ENDBRANCH   3   4
ENDBRANCH   2   3
ENDBRANCH   1   2
BRANCH   1  28
ATOM     28  O   UNL A   1      32.939  30.742  26.906  1.00  0.00    -0.374 OA
BRANCH  28  29
ATOM     29  C   UNL A   1      31.868  31.670  26.760  1.00  0.00     0.202 C 
BRANCH  29  30
ATOM     30  C   UNL A   1      32.157  33.096  27.221  1.00  0.00     0.261 C 
BRANCH  30  31
ATOM     31  O   UNL A   1      33.048  33.109  28.344  1.00  0.00    -0.460 OA
BRANCH  31  32
ATOM     32  C   UNL A   1      34.196  33.804  28.150  1.00  0.00     0.338 C 
ATOM     33  O   UNL A   1      34.438  34.582  27.249  1.00  0.00    -0.246 OA
BRANCH  32  34
ATOM     34  C   UNL A   1      35.106  33.585  29.295  1.00  0.00     0.060 A 
ATOM     35  C   UNL A   1      36.352  34.221  29.265  1.00  0.00     0.016 A 
ATOM     36  C   UNL A   1      34.775  32.712  30.335  1.00  0.00     0.016 A 
ATOM     37  C   UNL A   1      37.309  33.920  30.230  1.00  0.00     0.010 A 
ATOM     38  C   UNL A   1      35.735  32.407  31.299  1.00  0.00     0.010 A 
ATOM     39  C   UNL A   1      37.021  32.966  31.212  1.00  0.00    -0.014 A 
BRANCH  39  40
ATOM     40  C   UNL A   1      38.127  32.380  32.000  1.00  0.00     0.031 A 
ATOM     41  C   UNL A   1      38.942  31.283  31.372  1.00  0.00     0.074 A 
ATOM     42  C   UNL A   1      38.406  32.822  33.237  1.00  0.00     0.049 A 
ATOM     43  N   UNL A   1      39.955  30.616  31.859  1.00  0.00    -0.248 NA
ATOM     44  C   UNL A   1      38.559  30.881  30.006  1.00  0.00     0.031 C 
ATOM     45  C   UNL A   1      37.707  33.902  33.929  1.00  0.00     0.029 A 
ATOM     46  N   UNL A   1      39.359  32.405  34.130  1.00  0.00    -0.354 N 
ATOM     47  C   UNL A   1      40.324  29.715  30.867  1.00  0.00     0.074 A 
ATOM     48  C   UNL A   1      39.409  29.897  29.764  1.00  0.00     0.031 C 
ATOM     49  C   UNL A   1      38.253  34.061  35.148  1.00  0.00     0.029 A 
ATOM     50  C   UNL A   1      39.323  33.079  35.324  1.00  0.00     0.049 A 
ATOM     51  H   UNL A   1      40.006  31.689  33.934  1.00  0.00     0.167 HD
ATOM     52  C   UNL A   1      41.339  28.818  30.872  1.00  0.00     0.031 A 
ATOM     53  C   UNL A   1      40.068  32.915  36.434  1.00  0.00     0.031 A 
ATOM     54  C   UNL A   1      42.228  28.624  31.984  1.00  0.00     0.049 A 
ATOM     55  C   UNL A   1      41.153  31.868  36.443  1.00  0.00     0.074 A 
ATOM     56  C   UNL A   1      43.297  27.752  32.093  1.00  0.00     0.029 A 
ATOM     57  N   UNL A   1      42.143  29.309  33.188  1.00  0.00    -0.354 N 
ATOM     58  N   UNL A   1      41.515  31.047  35.486  1.00  0.00    -0.248 NA
ATOM     59  C   UNL A   1      41.939  31.741  37.677  1.00  0.00     0.031 C 
ATOM     60  C   UNL A   1      43.827  27.874  33.383  1.00  0.00     0.029 A 
ATOM     61  C   UNL A   1      43.126  28.863  34.055  1.00  0.00     0.049 A 
ATOM     62  H   UNL A   1      41.481  30.007  33.395  1.00  0.00     0.167 HD
ATOM     63  C   UNL A   1      42.597  30.331  35.989  1.00  0.00     0.074 A 
ATOM     64  C   UNL A   1      42.828  30.818  37.335  1.00  0.00     0.031 C 
ATOM     65  C   UNL A   1      43.339  29.365  35.390  1.00  0.00     0.031 A 
BRANCH  52  66
ATOM     66  C   UNL A   1      41.496  27.955  29.649  1.00  0.00    -0.014 A 
ATOM     67  C   UNL A   1      40.761  26.765  29.494  1.00  0.00     0.010 A 
ATOM     68  C   UNL A   1      42.408  28.330  28.647  1.00  0.00     0.010 A 
ATOM     69  C   UNL A   1      40.978  25.938  28.389  1.00  0.00     0.020 A 
ATOM     70  C   UNL A   1      42.609  27.519  27.527  1.00  0.00     0.020 A 
ATOM     71  C   UNL A   1      41.909  26.316  27.417  1.00  0.00     0.054 A 
BRANCH  71  72
ATOM     72  S   UNL A   1      42.189  25.218  26.000  1.00  0.00     0.124 S 
ATOM     73  O   UNL A   1      41.337  24.078  26.331  1.00  0.00    -0.237 OA
ATOM     74  O   UNL A   1      41.739  26.028  24.871  1.00  0.00    -0.237 OA
ATOM     75  O   UNL A   1      43.624  24.956  26.042  1.00  0.00    -0.744 OA
ENDBRANCH  71  72
ENDBRANCH  52  66
BRANCH  53  76
ATOM     76  C   UNL A   1      39.828  33.779  37.619  1.00  0.00    -0.014 A 
ATOM     77  C   UNL A   1      39.050  33.313  38.692  1.00  0.00     0.010 A 
ATOM     78  C   UNL A   1      40.395  35.064  37.691  1.00  0.00     0.010 A 
ATOM     79  C   UNL A   1      38.839  34.117  39.815  1.00  0.00     0.020 A 
ATOM     80  C   UNL A   1      40.206  35.864  38.822  1.00  0.00     0.020 A 
ATOM     81  C   UNL A   1      39.422  35.387  39.875  1.00  0.00     0.054 A 
BRANCH  81  82
ATOM     82  S   UNL A   1      39.190  36.385  41.372  1.00  0.00     0.124 S 
ATOM     83  O   UNL A   1      40.481  36.241  42.037  1.00  0.00    -0.237 OA
ATOM     84  O   UNL A   1      38.903  37.708  40.824  1.00  0.00    -0.237 OA
ATOM     85  O   UNL A   1      38.063  35.738  42.043  1.00  0.00    -0.744 OA
ENDBRANCH  81  82
ENDBRANCH  53  76
BRANCH  65  86
ATOM     86  C   UNL A   1      44.504  28.807  36.164  1.00  0.00    -0.014 A 
ATOM     87  C   UNL A   1      44.341  27.752  37.078  1.00  0.00     0.010 A 
ATOM     88  C   UNL A   1      45.793  29.320  35.930  1.00  0.00     0.010 A 
ATOM     89  C   UNL A   1      45.444  27.244  37.772  1.00  0.00     0.020 A 
ATOM     90  C   UNL A   1      46.901  28.797  36.600  1.00  0.00     0.020 A 
ATOM     91  C   UNL A   1      46.716  27.772  37.530  1.00  0.00     0.054 A 
BRANCH  91  92
ATOM     92  S   UNL A   1      48.137  27.076  38.416  1.00  0.00     0.124 S 
ATOM     93  O   UNL A   1      48.116  27.832  39.665  1.00  0.00    -0.237 OA
ATOM     94  O   UNL A   1      47.785  25.662  38.530  1.00  0.00    -0.237 OA
ATOM     95  O   UNL A   1      49.267  27.360  37.534  1.00  0.00    -0.744 OA
ENDBRANCH  91  92
ENDBRANCH  65  86
ENDBRANCH  39  40
ENDBRANCH  32  34
ENDBRANCH  31  32
ENDBRANCH  30  31
ENDBRANCH  29  30
ENDBRANCH  28  29
ENDBRANCH   1  28
TORSDOF 22
ENDMDL
