MODEL 1
REMARK VINA RESULT:     -10.7      0.000      0.000
REMARK SMILES Cc1c(Cl)cccc1NC(=O)C[C@](C)(C(=O)OCCOCCOC(=O)c1ccc(-c2c3nc(c(-c4ccc(S(=O)(=O)[O-])cc4)c4ccc([nH]4)c(-c4ccc(S(=O)(=O)[O-])cc4)c4nc(c(-c5ccc(S(=O)(=O)[O-])cc5)c5ccc2[nH]5)C=C4)C=C3)cc1)c1ccccc1
REMARK SMILES IDX 20 1 19 2 18 3 17 4 15 5 16 6 13 7 14 8 12 9 10 10 9 11
REMARK SMILES IDX 11 13 8 14 1 15 2 16 3 17 4 18 5 19 7 20 6 21 86 22 87 23
REMARK SMILES IDX 91 24 88 25 90 26 89 27 21 28 22 29 23 30 24 31 25 32 26 33
REMARK SMILES IDX 27 34 85 35 28 36 84 37 29 38 30 39 31 40 78 41 32 42 83 43
REMARK SMILES IDX 77 44 79 45 33 46 82 47 76 48 75 49 34 51 64 52 45 53 63 54
REMARK SMILES IDX 46 55 49 56 62 57 80 58 47 59 48 60 61 62 81 63 50 64 35 65
REMARK SMILES IDX 36 66 44 67 37 68 43 69 38 70 39 71 40 72 41 73 42 74 65 75
REMARK SMILES IDX 66 76 74 77 67 78 73 79 68 80 69 81 70 82 71 83 72 84 51 85
REMARK SMILES IDX 52 86 60 87 53 88 59 89 54 90 55 91 56 92 57 93 58 94
REMARK H PARENT 9 12 79 50 49 61
REMARK Flexibility Score: inf
ROOT
ATOM      1  O   UNL A   1      37.778  21.280  26.032  1.00  0.00    -0.374 OA
ENDROOT
BRANCH   1   2
ATOM      2  C   UNL A   1      36.820  21.552  25.008  1.00  0.00     0.202 C 
BRANCH   2   3
ATOM      3  C   UNL A   1      36.151  22.927  25.072  1.00  0.00     0.261 C 
BRANCH   3   4
ATOM      4  O   UNL A   1      34.777  22.801  25.476  1.00  0.00    -0.463 OA
BRANCH   4   5
ATOM      5  C   UNL A   1      33.868  22.696  24.472  1.00  0.00     0.316 C 
ATOM      6  O   UNL A   1      33.942  21.856  23.580  1.00  0.00    -0.251 OA
BRANCH   5   7
ATOM      7  C   UNL A   1      32.704  23.715  24.601  1.00  0.00     0.099 C 
ATOM      8  C   UNL A   1      31.355  23.174  24.039  1.00  0.00     0.029 C 
BRANCH   7   9
ATOM      9  C   UNL A   1      32.508  24.086  26.109  1.00  0.00     0.123 C 
BRANCH   9  10
ATOM     10  C   UNL A   1      31.103  24.273  26.659  1.00  0.00     0.225 C 
ATOM     11  N   UNL A   1      30.376  25.413  26.520  1.00  0.00    -0.326 N 
ATOM     12  H   UNL A   1      29.454  25.329  26.858  1.00  0.00     0.169 HD
ATOM     13  O   UNL A   1      30.562  23.335  27.257  1.00  0.00    -0.275 OA
BRANCH  11  14
ATOM     14  C   UNL A   1      30.659  26.685  25.997  1.00  0.00     0.045 A 
ATOM     15  C   UNL A   1      29.129  26.200  23.978  1.00  0.00     0.048 C 
ATOM     16  C   UNL A   1      30.123  27.043  24.740  1.00  0.00    -0.009 A 
ATOM     17  C   UNL A   1      30.577  28.232  24.140  1.00  0.00     0.046 A 
ATOM     18  Cl  UNL A   1      30.211  28.568  22.484  1.00  0.00    -0.084 Cl
ATOM     19  C   UNL A   1      31.403  29.118  24.829  1.00  0.00     0.021 A 
ATOM     20  C   UNL A   1      31.461  27.599  26.690  1.00  0.00     0.026 A 
ATOM     21  C   UNL A   1      31.824  28.816  26.115  1.00  0.00     0.004 A 
ENDBRANCH  11  14
ENDBRANCH   9  10
ENDBRANCH   7   9
BRANCH   7  22
ATOM     22  C   UNL A   1      32.982  25.000  23.754  1.00  0.00    -0.030 A 
ATOM     23  C   UNL A   1      32.513  25.089  22.425  1.00  0.00     0.005 A 
ATOM     24  C   UNL A   1      33.757  26.072  24.235  1.00  0.00     0.005 A 
ATOM     25  C   UNL A   1      32.789  26.203  21.628  1.00  0.00     0.000 A 
ATOM     26  C   UNL A   1      34.025  27.190  23.437  1.00  0.00     0.000 A 
ATOM     27  C   UNL A   1      33.541  27.256  22.136  1.00  0.00     0.000 A 
ENDBRANCH   7  22
ENDBRANCH   5   7
ENDBRANCH   4   5
ENDBRANCH   3   4
ENDBRANCH   2   3
ENDBRANCH   1   2
BRANCH   1  28
ATOM     28  C   UNL A   1      39.146  21.540  25.733  1.00  0.00     0.202 C 
BRANCH  28  29
ATOM     29  C   UNL A   1      39.968  22.309  26.778  1.00  0.00     0.261 C 
BRANCH  29  30
ATOM     30  O   UNL A   1      39.700  23.722  26.841  1.00  0.00    -0.460 OA
BRANCH  30  31
ATOM     31  C   UNL A   1      40.808  24.500  26.893  1.00  0.00     0.338 C 
ATOM     32  O   UNL A   1      41.842  24.346  26.245  1.00  0.00    -0.246 OA
BRANCH  31  33
ATOM     33  C   UNL A   1      40.600  25.675  27.760  1.00  0.00     0.060 A 
ATOM     34  C   UNL A   1      41.627  26.623  27.835  1.00  0.00     0.016 A 
ATOM     35  C   UNL A   1      39.472  25.795  28.578  1.00  0.00     0.016 A 
ATOM     36  C   UNL A   1      41.547  27.673  28.752  1.00  0.00     0.010 A 
ATOM     37  C   UNL A   1      39.397  26.850  29.502  1.00  0.00     0.010 A 
ATOM     38  C   UNL A   1      40.447  27.780  29.616  1.00  0.00    -0.014 A 
BRANCH  38  39
ATOM     39  C   UNL A   1      40.510  28.745  30.749  1.00  0.00     0.031 A 
ATOM     40  C   UNL A   1      39.487  29.843  30.810  1.00  0.00     0.074 A 
ATOM     41  C   UNL A   1      41.407  28.617  31.746  1.00  0.00     0.049 A 
ATOM     42  N   UNL A   1      39.302  30.748  31.737  1.00  0.00    -0.248 NA
ATOM     43  C   UNL A   1      38.567  29.950  29.667  1.00  0.00     0.031 C 
ATOM     44  C   UNL A   1      42.468  27.622  31.789  1.00  0.00     0.029 A 
ATOM     45  N   UNL A   1      41.562  29.310  32.923  1.00  0.00    -0.354 N 
ATOM     46  C   UNL A   1      38.259  31.541  31.279  1.00  0.00     0.074 A 
ATOM     47  C   UNL A   1      37.876  31.033  29.980  1.00  0.00     0.031 C 
ATOM     48  C   UNL A   1      43.115  27.703  32.962  1.00  0.00     0.029 A 
ATOM     49  C   UNL A   1      42.557  28.808  33.734  1.00  0.00     0.049 A 
ATOM     50  H   UNL A   1      41.012  30.090  33.165  1.00  0.00     0.167 HD
ATOM     51  C   UNL A   1      37.667  32.596  31.888  1.00  0.00     0.031 A 
ATOM     52  C   UNL A   1      42.978  29.200  34.955  1.00  0.00     0.031 A 
ATOM     53  C   UNL A   1      38.059  33.110  33.172  1.00  0.00     0.049 A 
ATOM     54  C   UNL A   1      42.314  30.385  35.606  1.00  0.00     0.074 A 
ATOM     55  C   UNL A   1      37.523  34.175  33.872  1.00  0.00     0.029 A 
ATOM     56  N   UNL A   1      39.088  32.597  33.948  1.00  0.00    -0.354 N 
ATOM     57  N   UNL A   1      41.314  31.111  35.166  1.00  0.00    -0.248 NA
ATOM     58  C   UNL A   1      42.838  30.809  36.912  1.00  0.00     0.031 C 
ATOM     59  C   UNL A   1      38.259  34.337  35.051  1.00  0.00     0.029 A 
ATOM     60  C   UNL A   1      39.212  33.332  35.114  1.00  0.00     0.049 A 
ATOM     61  H   UNL A   1      39.648  31.824  33.705  1.00  0.00     0.167 HD
ATOM     62  C   UNL A   1      41.078  32.067  36.150  1.00  0.00     0.074 A 
ATOM     63  C   UNL A   1      42.026  31.812  37.215  1.00  0.00     0.031 C 
ATOM     64  C   UNL A   1      40.161  33.065  36.166  1.00  0.00     0.031 A 
BRANCH  51  65
ATOM     65  C   UNL A   1      36.556  33.278  31.137  1.00  0.00    -0.014 A 
ATOM     66  C   UNL A   1      36.804  33.961  29.933  1.00  0.00     0.010 A 
ATOM     67  C   UNL A   1      35.247  33.248  31.652  1.00  0.00     0.010 A 
ATOM     68  C   UNL A   1      35.774  34.648  29.286  1.00  0.00     0.020 A 
ATOM     69  C   UNL A   1      34.208  33.906  30.990  1.00  0.00     0.020 A 
ATOM     70  C   UNL A   1      34.484  34.622  29.823  1.00  0.00     0.054 A 
BRANCH  70  71
ATOM     71  S   UNL A   1      33.166  35.524  28.965  1.00  0.00     0.124 S 
ATOM     72  O   UNL A   1      33.929  36.496  28.183  1.00  0.00    -0.237 OA
ATOM     73  O   UNL A   1      32.509  34.474  28.192  1.00  0.00    -0.237 OA
ATOM     74  O   UNL A   1      32.368  36.087  30.050  1.00  0.00    -0.744 OA
ENDBRANCH  70  71
ENDBRANCH  51  65
BRANCH  52  75
ATOM     75  C   UNL A   1      44.089  28.478  35.642  1.00  0.00    -0.014 A 
ATOM     76  C   UNL A   1      45.428  28.863  35.445  1.00  0.00     0.010 A 
ATOM     77  C   UNL A   1      43.815  27.392  36.494  1.00  0.00     0.010 A 
ATOM     78  C   UNL A   1      46.469  28.168  36.072  1.00  0.00     0.020 A 
ATOM     79  C   UNL A   1      44.850  26.716  37.149  1.00  0.00     0.020 A 
ATOM     80  C   UNL A   1      46.173  27.100  36.924  1.00  0.00     0.054 A 
BRANCH  80  81
ATOM     81  S   UNL A   1      47.533  26.247  37.772  1.00  0.00     0.124 S 
ATOM     82  O   UNL A   1      48.705  26.854  37.151  1.00  0.00    -0.237 OA
ATOM     83  O   UNL A   1      47.302  26.598  39.171  1.00  0.00    -0.237 OA
ATOM     84  O   UNL A   1      47.308  24.840  37.446  1.00  0.00    -0.744 OA
ENDBRANCH  80  81
ENDBRANCH  52  75
BRANCH  64  85
ATOM     85  C   UNL A   1      40.104  33.934  37.394  1.00  0.00    -0.014 A 
ATOM     86  C   UNL A   1      39.310  33.590  38.503  1.00  0.00     0.010 A 
ATOM     87  C   UNL A   1      40.908  35.087  37.457  1.00  0.00     0.010 A 
ATOM     88  C   UNL A   1      39.299  34.402  39.641  1.00  0.00     0.020 A 
ATOM     89  C   UNL A   1      40.920  35.886  38.603  1.00  0.00     0.020 A 
ATOM     90  C   UNL A   1      40.104  35.545  39.684  1.00  0.00     0.054 A 
BRANCH  90  91
ATOM     91  S   UNL A   1      40.105  36.558  41.188  1.00  0.00     0.124 S 
ATOM     92  O   UNL A   1      38.695  36.538  41.568  1.00  0.00    -0.237 OA
ATOM     93  O   UNL A   1      41.005  35.821  42.071  1.00  0.00    -0.237 OA
ATOM     94  O   UNL A   1      40.609  37.853  40.733  1.00  0.00    -0.744 OA
ENDBRANCH  90  91
ENDBRANCH  64  85
ENDBRANCH  38  39
ENDBRANCH  31  33
ENDBRANCH  30  31
ENDBRANCH  29  30
ENDBRANCH  28  29
ENDBRANCH   1  28
TORSDOF 21
ENDMDL
MODEL 2
REMARK VINA RESULT:     -10.6      0.842      8.076
REMARK SMILES Cc1c(Cl)cccc1NC(=O)C[C@](C)(C(=O)OCCOCCOC(=O)c1ccc(-c2c3nc(c(-c4ccc(S(=O)(=O)[O-])cc4)c4ccc([nH]4)c(-c4ccc(S(=O)(=O)[O-])cc4)c4nc(c(-c5ccc(S(=O)(=O)[O-])cc5)c5ccc2[nH]5)C=C4)C=C3)cc1)c1ccccc1
REMARK SMILES IDX 20 1 19 2 18 3 17 4 15 5 16 6 13 7 14 8 12 9 10 10 9 11
REMARK SMILES IDX 11 13 8 14 1 15 2 16 3 17 4 18 5 19 7 20 6 21 86 22 87 23
REMARK SMILES IDX 91 24 88 25 90 26 89 27 21 28 22 29 23 30 24 31 25 32 26 33
REMARK SMILES IDX 27 34 85 35 28 36 84 37 29 38 30 39 31 40 78 41 32 42 83 43
REMARK SMILES IDX 77 44 79 45 33 46 82 47 76 48 75 49 34 51 64 52 45 53 63 54
REMARK SMILES IDX 46 55 49 56 62 57 80 58 47 59 48 60 61 62 81 63 50 64 35 65
REMARK SMILES IDX 36 66 44 67 37 68 43 69 38 70 39 71 40 72 41 73 42 74 65 75
REMARK SMILES IDX 66 76 74 77 67 78 73 79 68 80 69 81 70 82 71 83 72 84 51 85
REMARK SMILES IDX 52 86 60 87 53 88 59 89 54 90 55 91 56 92 57 93 58 94
REMARK H PARENT 9 12 79 50 49 61
REMARK Flexibility Score: inf
ROOT
ATOM      1  O   UNL A   1      38.159  21.924  25.546  1.00  0.00    -0.374 OA
ENDROOT
BRANCH   1   2
ATOM      2  C   UNL A   1      36.922  22.431  26.050  1.00  0.00     0.202 C 
BRANCH   2   3
ATOM      3  C   UNL A   1      35.778  22.517  25.037  1.00  0.00     0.261 C 
BRANCH   3   4
ATOM      4  O   UNL A   1      34.517  22.260  25.679  1.00  0.00    -0.463 OA
BRANCH   4   5
ATOM      5  C   UNL A   1      33.626  23.287  25.675  1.00  0.00     0.316 C 
ATOM      6  O   UNL A   1      33.644  24.197  26.498  1.00  0.00    -0.251 OA
BRANCH   5   7
ATOM      7  C   UNL A   1      32.619  23.210  24.496  1.00  0.00     0.099 C 
ATOM      8  C   UNL A   1      32.852  21.975  23.576  1.00  0.00     0.029 C 
BRANCH   7   9
ATOM      9  C   UNL A   1      31.163  23.145  25.067  1.00  0.00     0.123 C 
BRANCH   9  10
ATOM     10  C   UNL A   1      30.835  23.859  26.369  1.00  0.00     0.225 C 
ATOM     11  N   UNL A   1      30.514  25.178  26.455  1.00  0.00    -0.326 N 
ATOM     12  H   UNL A   1      30.244  25.452  27.362  1.00  0.00     0.169 HD
ATOM     13  O   UNL A   1      30.837  23.215  27.424  1.00  0.00    -0.275 OA
BRANCH  11  14
ATOM     14  C   UNL A   1      30.486  26.230  25.527  1.00  0.00     0.045 A 
ATOM     15  C   UNL A   1      32.464  27.358  26.740  1.00  0.00     0.048 C 
ATOM     16  C   UNL A   1      31.371  27.318  25.700  1.00  0.00    -0.009 A 
ATOM     17  C   UNL A   1      31.194  28.452  24.885  1.00  0.00     0.046 A 
ATOM     18  Cl  UNL A   1      32.023  29.925  25.250  1.00  0.00    -0.084 Cl
ATOM     19  C   UNL A   1      30.286  28.447  23.828  1.00  0.00     0.021 A 
ATOM     20  C   UNL A   1      29.602  26.227  24.442  1.00  0.00     0.026 A 
ATOM     21  C   UNL A   1      29.508  27.324  23.588  1.00  0.00     0.004 A 
ENDBRANCH  11  14
ENDBRANCH   9  10
ENDBRANCH   7   9
BRANCH   7  22
ATOM     22  C   UNL A   1      32.776  24.436  23.538  1.00  0.00    -0.030 A 
ATOM     23  C   UNL A   1      33.712  25.451  23.834  1.00  0.00     0.005 A 
ATOM     24  C   UNL A   1      31.962  24.623  22.405  1.00  0.00     0.005 A 
ATOM     25  C   UNL A   1      33.839  26.582  23.023  1.00  0.00     0.000 A 
ATOM     26  C   UNL A   1      32.097  25.752  21.591  1.00  0.00     0.000 A 
ATOM     27  C   UNL A   1      33.035  26.731  21.899  1.00  0.00     0.000 A 
ENDBRANCH   7  22
ENDBRANCH   5   7
ENDBRANCH   4   5
ENDBRANCH   3   4
ENDBRANCH   2   3
ENDBRANCH   1   2
BRANCH   1  28
ATOM     28  C   UNL A   1      39.281  21.950  26.424  1.00  0.00     0.202 C 
BRANCH  28  29
ATOM     29  C   UNL A   1      40.258  23.128  26.293  1.00  0.00     0.261 C 
BRANCH  29  30
ATOM     30  O   UNL A   1      39.650  24.431  26.375  1.00  0.00    -0.460 OA
BRANCH  30  31
ATOM     31  C   UNL A   1      40.524  25.463  26.285  1.00  0.00     0.338 C 
ATOM     32  O   UNL A   1      41.096  25.851  25.268  1.00  0.00    -0.246 OA
BRANCH  31  33
ATOM     33  C   UNL A   1      40.639  26.183  27.567  1.00  0.00     0.060 A 
ATOM     34  C   UNL A   1      39.642  25.974  28.527  1.00  0.00     0.016 A 
ATOM     35  C   UNL A   1      41.639  27.135  27.790  1.00  0.00     0.016 A 
ATOM     36  C   UNL A   1      39.620  26.741  29.694  1.00  0.00     0.010 A 
ATOM     37  C   UNL A   1      41.611  27.908  28.962  1.00  0.00     0.010 A 
ATOM     38  C   UNL A   1      40.584  27.735  29.909  1.00  0.00    -0.014 A 
BRANCH  38  39
ATOM     39  C   UNL A   1      40.386  28.705  31.023  1.00  0.00     0.031 A 
ATOM     40  C   UNL A   1      41.329  28.653  32.191  1.00  0.00     0.074 A 
ATOM     41  C   UNL A   1      39.437  29.659  30.979  1.00  0.00     0.049 A 
ATOM     42  N   UNL A   1      41.395  29.440  33.233  1.00  0.00    -0.248 NA
ATOM     43  C   UNL A   1      42.312  27.558  32.195  1.00  0.00     0.031 C 
ATOM     44  C   UNL A   1      38.442  29.796  29.925  1.00  0.00     0.029 A 
ATOM     45  N   UNL A   1      39.162  30.708  31.824  1.00  0.00    -0.354 N 
ATOM     46  C   UNL A   1      42.413  28.925  34.026  1.00  0.00     0.074 A 
ATOM     47  C   UNL A   1      42.910  27.740  33.361  1.00  0.00     0.031 C 
ATOM     48  C   UNL A   1      37.717  30.907  30.130  1.00  0.00     0.029 A 
ATOM     49  C   UNL A   1      38.152  31.531  31.375  1.00  0.00     0.049 A 
ATOM     50  H   UNL A   1      39.643  30.857  32.669  1.00  0.00     0.167 HD
ATOM     51  C   UNL A   1      42.894  29.398  35.199  1.00  0.00     0.031 A 
ATOM     52  C   UNL A   1      37.629  32.654  31.910  1.00  0.00     0.031 A 
ATOM     53  C   UNL A   1      42.388  30.565  35.866  1.00  0.00     0.049 A 
ATOM     54  C   UNL A   1      38.171  33.152  33.224  1.00  0.00     0.074 A 
ATOM     55  C   UNL A   1      42.807  31.124  37.060  1.00  0.00     0.029 A 
ATOM     56  N   UNL A   1      41.346  31.354  35.400  1.00  0.00    -0.354 N 
ATOM     57  N   UNL A   1      39.148  32.662  33.950  1.00  0.00    -0.248 NA
ATOM     58  C   UNL A   1      37.537  34.348  33.796  1.00  0.00     0.031 C 
ATOM     59  C   UNL A   1      41.988  32.223  37.340  1.00  0.00     0.029 A 
ATOM     60  C   UNL A   1      41.100  32.387  36.288  1.00  0.00     0.049 A 
ATOM     61  H   UNL A   1      40.855  31.202  34.560  1.00  0.00     0.167 HD
ATOM     62  C   UNL A   1      39.258  33.500  35.054  1.00  0.00     0.074 A 
ATOM     63  C   UNL A   1      38.262  34.539  34.890  1.00  0.00     0.031 C 
ATOM     64  C   UNL A   1      40.105  33.415  36.110  1.00  0.00     0.031 A 
BRANCH  51  65
ATOM     65  C   UNL A   1      44.004  28.613  35.844  1.00  0.00    -0.014 A 
ATOM     66  C   UNL A   1      45.350  28.839  35.502  1.00  0.00     0.010 A 
ATOM     67  C   UNL A   1      43.695  27.625  36.796  1.00  0.00     0.010 A 
ATOM     68  C   UNL A   1      46.361  28.053  36.058  1.00  0.00     0.020 A 
ATOM     69  C   UNL A   1      44.708  26.860  37.380  1.00  0.00     0.020 A 
ATOM     70  C   UNL A   1      46.032  27.063  36.989  1.00  0.00     0.054 A 
BRANCH  70  71
ATOM     71  S   UNL A   1      47.365  26.056  37.694  1.00  0.00     0.124 S 
ATOM     72  O   UNL A   1      47.334  24.875  36.835  1.00  0.00    -0.237 OA
ATOM     73  O   UNL A   1      48.535  26.916  37.537  1.00  0.00    -0.237 OA
ATOM     74  O   UNL A   1      46.939  25.834  39.073  1.00  0.00    -0.744 OA
ENDBRANCH  70  71
ENDBRANCH  51  65
BRANCH  52  75
ATOM     75  C   UNL A   1      36.525  33.382  31.218  1.00  0.00    -0.014 A 
ATOM     76  C   UNL A   1      36.728  33.961  29.952  1.00  0.00     0.010 A 
ATOM     77  C   UNL A   1      35.262  33.507  31.825  1.00  0.00     0.010 A 
ATOM     78  C   UNL A   1      35.697  34.664  29.316  1.00  0.00     0.020 A 
ATOM     79  C   UNL A   1      34.220  34.180  31.179  1.00  0.00     0.020 A 
ATOM     80  C   UNL A   1      34.447  34.765  29.933  1.00  0.00     0.054 A 
BRANCH  80  81
ATOM     81  S   UNL A   1      33.107  35.632  29.068  1.00  0.00     0.124 S 
ATOM     82  O   UNL A   1      33.840  36.618  28.282  1.00  0.00    -0.237 OA
ATOM     83  O   UNL A   1      32.475  34.557  28.307  1.00  0.00    -0.237 OA
ATOM     84  O   UNL A   1      32.295  36.175  30.155  1.00  0.00    -0.744 OA
ENDBRANCH  80  81
ENDBRANCH  52  75
BRANCH  64  85
ATOM     85  C   UNL A   1      40.027  34.497  37.152  1.00  0.00    -0.014 A 
ATOM     86  C   UNL A   1      40.806  35.664  37.061  1.00  0.00     0.010 A 
ATOM     87  C   UNL A   1      39.110  34.366  38.211  1.00  0.00     0.010 A 
ATOM     88  C   UNL A   1      40.692  36.666  38.029  1.00  0.00     0.020 A 
ATOM     89  C   UNL A   1      38.973  35.377  39.165  1.00  0.00     0.020 A 
ATOM     90  C   UNL A   1      39.775  36.516  39.075  1.00  0.00     0.054 A 
BRANCH  90  91
ATOM     91  S   UNL A   1      39.614  37.849  40.295  1.00  0.00     0.124 S 
ATOM     92  O   UNL A   1      39.848  37.141  41.550  1.00  0.00    -0.237 OA
ATOM     93  O   UNL A   1      40.665  38.780  39.893  1.00  0.00    -0.237 OA
ATOM     94  O   UNL A   1      38.250  38.336  40.097  1.00  0.00    -0.744 OA
ENDBRANCH  90  91
ENDBRANCH  64  85
ENDBRANCH  38  39
ENDBRANCH  31  33
ENDBRANCH  30  31
ENDBRANCH  29  30
ENDBRANCH  28  29
ENDBRANCH   1  28
TORSDOF 21
ENDMDL
MODEL 3
REMARK VINA RESULT:     -10.2      6.312     11.377
REMARK SMILES Cc1c(Cl)cccc1NC(=O)C[C@](C)(C(=O)OCCOCCOC(=O)c1ccc(-c2c3nc(c(-c4ccc(S(=O)(=O)[O-])cc4)c4ccc([nH]4)c(-c4ccc(S(=O)(=O)[O-])cc4)c4nc(c(-c5ccc(S(=O)(=O)[O-])cc5)c5ccc2[nH]5)C=C4)C=C3)cc1)c1ccccc1
REMARK SMILES IDX 20 1 19 2 18 3 17 4 15 5 16 6 13 7 14 8 12 9 10 10 9 11
REMARK SMILES IDX 11 13 8 14 1 15 2 16 3 17 4 18 5 19 7 20 6 21 86 22 87 23
REMARK SMILES IDX 91 24 88 25 90 26 89 27 21 28 22 29 23 30 24 31 25 32 26 33
REMARK SMILES IDX 27 34 85 35 28 36 84 37 29 38 30 39 31 40 78 41 32 42 83 43
REMARK SMILES IDX 77 44 79 45 33 46 82 47 76 48 75 49 34 51 64 52 45 53 63 54
REMARK SMILES IDX 46 55 49 56 62 57 80 58 47 59 48 60 61 62 81 63 50 64 35 65
REMARK SMILES IDX 36 66 44 67 37 68 43 69 38 70 39 71 40 72 41 73 42 74 65 75
REMARK SMILES IDX 66 76 74 77 67 78 73 79 68 80 69 81 70 82 71 83 72 84 51 85
REMARK SMILES IDX 52 86 60 87 53 88 59 89 54 90 55 91 56 92 57 93 58 94
REMARK H PARENT 9 12 79 50 49 61
REMARK Flexibility Score: inf
ROOT
ATOM      1  O   UNL A   1      35.092  31.385  27.717  1.00  0.00    -0.374 OA
ENDROOT
BRANCH   1   2
ATOM      2  C   UNL A   1      33.843  30.875  27.245  1.00  0.00     0.202 C 
BRANCH   2   3
ATOM      3  C   UNL A   1      33.698  29.352  27.264  1.00  0.00     0.261 C 
BRANCH   3   4
ATOM      4  O   UNL A   1      32.683  28.931  26.337  1.00  0.00    -0.463 OA
BRANCH   4   5
ATOM      5  C   UNL A   1      32.016  27.792  26.659  1.00  0.00     0.316 C 
ATOM      6  O   UNL A   1      31.433  27.632  27.727  1.00  0.00    -0.251 OA
BRANCH   5   7
ATOM      7  C   UNL A   1      32.029  26.740  25.517  1.00  0.00     0.099 C 
ATOM      8  C   UNL A   1      30.981  27.037  24.403  1.00  0.00     0.029 C 
BRANCH   7   9
ATOM      9  C   UNL A   1      33.454  26.699  24.870  1.00  0.00     0.123 C 
BRANCH   9  10
ATOM     10  C   UNL A   1      33.591  26.460  23.375  1.00  0.00     0.225 C 
ATOM     11  N   UNL A   1      33.478  25.240  22.785  1.00  0.00    -0.326 N 
ATOM     12  H   UNL A   1      33.506  25.281  21.801  1.00  0.00     0.169 HD
ATOM     13  O   UNL A   1      33.801  27.423  22.628  1.00  0.00    -0.275 OA
BRANCH  11  14
ATOM     14  C   UNL A   1      33.332  23.935  23.281  1.00  0.00     0.045 A 
ATOM     15  C   UNL A   1      35.732  24.019  24.222  1.00  0.00     0.048 C 
ATOM     16  C   UNL A   1      34.435  23.314  23.908  1.00  0.00    -0.009 A 
ATOM     17  C   UNL A   1      34.337  21.944  24.216  1.00  0.00     0.046 A 
ATOM     18  Cl  UNL A   1      35.743  21.053  24.687  1.00  0.00    -0.084 Cl
ATOM     19  C   UNL A   1      33.136  21.253  24.063  1.00  0.00     0.021 A 
ATOM     20  C   UNL A   1      32.123  23.238  23.163  1.00  0.00     0.026 A 
ATOM     21  C   UNL A   1      32.020  21.906  23.562  1.00  0.00     0.004 A 
ENDBRANCH  11  14
ENDBRANCH   9  10
ENDBRANCH   7   9
BRANCH   7  22
ATOM     22  C   UNL A   1      31.630  25.324  26.049  1.00  0.00    -0.030 A 
ATOM     23  C   UNL A   1      30.284  24.901  25.998  1.00  0.00     0.005 A 
ATOM     24  C   UNL A   1      32.555  24.455  26.659  1.00  0.00     0.005 A 
ATOM     25  C   UNL A   1      29.891  23.662  26.511  1.00  0.00     0.000 A 
ATOM     26  C   UNL A   1      32.159  23.212  27.164  1.00  0.00     0.000 A 
ATOM     27  C   UNL A   1      30.828  22.815  27.090  1.00  0.00     0.000 A 
ENDBRANCH   7  22
ENDBRANCH   5   7
ENDBRANCH   4   5
ENDBRANCH   3   4
ENDBRANCH   2   3
ENDBRANCH   1   2
BRANCH   1  28
ATOM     28  C   UNL A   1      35.047  32.449  28.663  1.00  0.00     0.202 C 
BRANCH  28  29
ATOM     29  C   UNL A   1      34.984  32.073  30.151  1.00  0.00     0.261 C 
BRANCH  29  30
ATOM     30  O   UNL A   1      36.262  31.974  30.806  1.00  0.00    -0.460 OA
BRANCH  30  31
ATOM     31  C   UNL A   1      36.713  30.705  30.963  1.00  0.00     0.338 C 
ATOM     32  O   UNL A   1      36.054  29.733  31.326  1.00  0.00    -0.246 OA
BRANCH  31  33
ATOM     33  C   UNL A   1      38.115  30.575  30.524  1.00  0.00     0.060 A 
ATOM     34  C   UNL A   1      38.390  30.722  29.159  1.00  0.00     0.016 A 
ATOM     35  C   UNL A   1      39.132  30.201  31.408  1.00  0.00     0.016 A 
ATOM     36  C   UNL A   1      39.671  30.461  28.669  1.00  0.00     0.010 A 
ATOM     37  C   UNL A   1      40.418  29.935  30.911  1.00  0.00     0.010 A 
ATOM     38  C   UNL A   1      40.689  30.035  29.534  1.00  0.00    -0.014 A 
BRANCH  38  39
ATOM     39  C   UNL A   1      41.960  29.516  28.953  1.00  0.00     0.031 A 
ATOM     40  C   UNL A   1      43.157  30.421  28.930  1.00  0.00     0.074 A 
ATOM     41  C   UNL A   1      42.079  28.247  28.517  1.00  0.00     0.049 A 
ATOM     42  N   UNL A   1      44.380  30.164  28.544  1.00  0.00    -0.248 NA
ATOM     43  C   UNL A   1      42.943  31.806  29.380  1.00  0.00     0.031 C 
ATOM     44  C   UNL A   1      40.991  27.282  28.454  1.00  0.00     0.029 A 
ATOM     45  N   UNL A   1      43.168  27.541  28.065  1.00  0.00    -0.354 N 
ATOM     46  C   UNL A   1      45.076  31.357  28.687  1.00  0.00     0.074 A 
ATOM     47  C   UNL A   1      44.132  32.345  29.161  1.00  0.00     0.031 C 
ATOM     48  C   UNL A   1      41.469  26.087  28.072  1.00  0.00     0.029 A 
ATOM     49  C   UNL A   1      42.896  26.216  27.795  1.00  0.00     0.049 A 
ATOM     50  H   UNL A   1      44.058  27.942  27.945  1.00  0.00     0.167 HD
ATOM     51  C   UNL A   1      46.385  31.607  28.451  1.00  0.00     0.031 A 
ATOM     52  C   UNL A   1      43.701  25.222  27.366  1.00  0.00     0.031 A 
ATOM     53  C   UNL A   1      47.318  30.628  27.964  1.00  0.00     0.049 A 
ATOM     54  C   UNL A   1      45.151  25.529  27.096  1.00  0.00     0.074 A 
ATOM     55  C   UNL A   1      48.665  30.785  27.691  1.00  0.00     0.029 A 
ATOM     56  N   UNL A   1      47.001  29.309  27.674  1.00  0.00    -0.354 N 
ATOM     57  N   UNL A   1      45.796  26.660  27.256  1.00  0.00    -0.248 NA
ATOM     58  C   UNL A   1      45.980  24.430  26.580  1.00  0.00     0.031 C 
ATOM     59  C   UNL A   1      49.152  29.572  27.190  1.00  0.00     0.029 A 
ATOM     60  C   UNL A   1      48.124  28.643  27.213  1.00  0.00     0.049 A 
ATOM     61  H   UNL A   1      46.109  28.905  27.782  1.00  0.00     0.167 HD
ATOM     62  C   UNL A   1      47.110  26.404  26.878  1.00  0.00     0.074 A 
ATOM     63  C   UNL A   1      47.171  25.006  26.501  1.00  0.00     0.031 C 
ATOM     64  C   UNL A   1      48.169  27.251  26.843  1.00  0.00     0.031 A 
BRANCH  51  65
ATOM     65  C   UNL A   1      46.860  33.016  28.684  1.00  0.00    -0.014 A 
ATOM     66  C   UNL A   1      47.359  33.418  29.935  1.00  0.00     0.010 A 
ATOM     67  C   UNL A   1      46.794  33.954  27.638  1.00  0.00     0.010 A 
ATOM     68  C   UNL A   1      47.731  34.746  30.154  1.00  0.00     0.020 A 
ATOM     69  C   UNL A   1      47.196  35.276  27.843  1.00  0.00     0.020 A 
ATOM     70  C   UNL A   1      47.639  35.669  29.107  1.00  0.00     0.054 A 
BRANCH  70  71
ATOM     71  S   UNL A   1      48.125  37.387  29.418  1.00  0.00     0.124 S 
ATOM     72  O   UNL A   1      49.579  37.316  29.291  1.00  0.00    -0.237 OA
ATOM     73  O   UNL A   1      47.438  38.113  28.354  1.00  0.00    -0.237 OA
ATOM     74  O   UNL A   1      47.631  37.648  30.767  1.00  0.00    -0.744 OA
ENDBRANCH  70  71
ENDBRANCH  51  65
BRANCH  52  75
ATOM     75  C   UNL A   1      43.162  23.847  27.153  1.00  0.00    -0.014 A 
ATOM     76  C   UNL A   1      43.154  22.906  28.199  1.00  0.00     0.010 A 
ATOM     77  C   UNL A   1      42.658  23.466  25.895  1.00  0.00     0.010 A 
ATOM     78  C   UNL A   1      42.669  21.610  27.988  1.00  0.00     0.020 A 
ATOM     79  C   UNL A   1      42.143  22.182  25.689  1.00  0.00     0.020 A 
ATOM     80  C   UNL A   1      42.162  21.257  26.734  1.00  0.00     0.054 A 
BRANCH  80  81
ATOM     81  S   UNL A   1      41.487  19.589  26.495  1.00  0.00     0.124 S 
ATOM     82  O   UNL A   1      40.172  19.871  25.930  1.00  0.00    -0.237 OA
ATOM     83  O   UNL A   1      42.454  18.984  25.582  1.00  0.00    -0.237 OA
ATOM     84  O   UNL A   1      41.482  19.027  27.845  1.00  0.00    -0.744 OA
ENDBRANCH  80  81
ENDBRANCH  52  75
BRANCH  64  85
ATOM     85  C   UNL A   1      49.498  26.683  26.425  1.00  0.00    -0.014 A 
ATOM     86  C   UNL A   1      50.001  26.870  25.125  1.00  0.00     0.010 A 
ATOM     87  C   UNL A   1      50.282  25.999  27.372  1.00  0.00     0.010 A 
ATOM     88  C   UNL A   1      51.253  26.355  24.773  1.00  0.00     0.020 A 
ATOM     89  C   UNL A   1      51.544  25.507  27.032  1.00  0.00     0.020 A 
ATOM     90  C   UNL A   1      52.016  25.677  25.729  1.00  0.00     0.054 A 
BRANCH  90  91
ATOM     91  S   UNL A   1      53.654  25.055  25.259  1.00  0.00     0.124 S 
ATOM     92  O   UNL A   1      54.489  25.544  26.354  1.00  0.00    -0.237 OA
ATOM     93  O   UNL A   1      53.450  23.610  25.221  1.00  0.00    -0.237 OA
ATOM     94  O   UNL A   1      53.902  25.678  23.961  1.00  0.00    -0.744 OA
ENDBRANCH  90  91
ENDBRANCH  64  85
ENDBRANCH  38  39
ENDBRANCH  31  33
ENDBRANCH  30  31
ENDBRANCH  29  30
ENDBRANCH  28  29
ENDBRANCH   1  28
TORSDOF 21
ENDMDL
