MODEL 1
REMARK VINA RESULT:      -9.3      0.000      0.000
REMARK SMILES Cc1cc(NCc2ccco2)cc(C(=O)OCCOCCOC(=O)c2ccc(-c3c4nc(c(-c5ccc(S(=O)(=O)[O-])cc5)c5ccc([nH]5)c(-c5ccc(S(=O)(=O)[O-])cc5)c5nc(c(-c6ccc(S(=O)(=O)[O-])cc6)c6ccc3[nH]6)C=C5)C=C4)cc2)c1N
REMARK SMILES IDX 19 1 18 2 17 3 16 4 14 5 15 6 13 7 1 8 2 9 3 10 85 11 4 12
REMARK SMILES IDX 12 13 86 14 5 17 6 19 7 20 8 21 11 22 9 23 10 24 20 25 21 26
REMARK SMILES IDX 22 27 23 28 24 29 25 30 26 31 84 32 27 33 83 34 28 35 29 36
REMARK SMILES IDX 30 37 77 38 31 39 82 40 76 41 78 42 32 43 81 44 75 45 74 46
REMARK SMILES IDX 33 48 63 49 44 50 62 51 45 52 48 53 61 54 79 55 46 56 47 57
REMARK SMILES IDX 60 59 80 60 49 61 34 62 35 63 43 64 36 65 42 66 37 67 38 68
REMARK SMILES IDX 39 69 40 70 41 71 64 72 65 73 73 74 66 75 72 76 67 77 68 78
REMARK SMILES IDX 69 79 70 80 71 81 50 82 51 83 59 84 52 85 58 86 53 87 54 88
REMARK SMILES IDX 55 89 56 90 57 91
REMARK H PARENT 86 15 86 16 5 18 78 47 48 58
REMARK Flexibility Score: inf
ROOT
ATOM      1  O   UNL A   1      33.826  31.523  27.963  1.00  0.00    -0.374 OA
ENDROOT
BRANCH   1   2
ATOM      2  C   UNL A   1      34.153  30.243  27.415  1.00  0.00     0.202 C 
BRANCH   2   3
ATOM      3  C   UNL A   1      32.984  29.268  27.259  1.00  0.00     0.261 C 
BRANCH   3   4
ATOM      4  O   UNL A   1      33.338  28.171  26.399  1.00  0.00    -0.460 OA
BRANCH   4   5
ATOM      5  C   UNL A   1      32.380  27.221  26.263  1.00  0.00     0.340 C 
ATOM      6  O   UNL A   1      31.750  26.698  27.172  1.00  0.00    -0.246 OA
BRANCH   5   7
ATOM      7  C   UNL A   1      32.061  27.001  24.827  1.00  0.00     0.085 A 
ATOM      8  C   UNL A   1      32.596  24.337  22.147  1.00  0.00     0.047 C 
ATOM      9  C   UNL A   1      32.199  25.598  22.862  1.00  0.00    -0.025 A 
ATOM     10  C   UNL A   1      31.504  26.593  22.151  1.00  0.00     0.031 A 
ATOM     11  C   UNL A   1      32.484  25.794  24.222  1.00  0.00     0.049 A 
ATOM     12  C   UNL A   1      31.069  27.789  22.744  1.00  0.00     0.036 A 
ATOM     13  C   UNL A   1      31.353  27.975  24.097  1.00  0.00     0.043 A 
BRANCH  11  14
ATOM     14  N   UNL A   1      32.989  24.738  24.990  1.00  0.00    -0.398 N 
ATOM     15  H   UNL A   1      32.370  24.115  25.437  1.00  0.00     0.156 HD
ATOM     16  H   UNL A   1      33.962  24.617  25.083  1.00  0.00     0.156 HD
ENDBRANCH  11  14
BRANCH  12  17
ATOM     17  N   UNL A   1      30.304  28.645  21.979  1.00  0.00    -0.378 N 
ATOM     18  H   UNL A   1      30.712  28.979  21.148  1.00  0.00     0.161 HD
BRANCH  17  19
ATOM     19  C   UNL A   1      28.956  29.104  22.275  1.00  0.00     0.188 C 
BRANCH  19  20
ATOM     20  C   UNL A   1      28.803  30.581  22.364  1.00  0.00     0.122 A 
ATOM     21  C   UNL A   1      28.517  31.561  21.437  1.00  0.00     0.047 A 
ATOM     22  O   UNL A   1      29.011  31.148  23.591  1.00  0.00    -0.467 OA
ATOM     23  C   UNL A   1      28.548  32.793  22.134  1.00  0.00     0.042 A 
ATOM     24  C   UNL A   1      28.849  32.487  23.440  1.00  0.00     0.195 A 
ENDBRANCH  19  20
ENDBRANCH  17  19
ENDBRANCH  12  17
ENDBRANCH   5   7
ENDBRANCH   4   5
ENDBRANCH   3   4
ENDBRANCH   2   3
ENDBRANCH   1   2
BRANCH   1  25
ATOM     25  C   UNL A   1      32.616  32.127  27.497  1.00  0.00     0.202 C 
BRANCH  25  26
ATOM     26  C   UNL A   1      32.614  33.660  27.432  1.00  0.00     0.261 C 
BRANCH  26  27
ATOM     27  O   UNL A   1      32.467  34.250  28.737  1.00  0.00    -0.460 OA
BRANCH  27  28
ATOM     28  C   UNL A   1      33.465  35.090  29.101  1.00  0.00     0.338 C 
ATOM     29  O   UNL A   1      33.425  36.312  29.134  1.00  0.00    -0.246 OA
BRANCH  28  30
ATOM     30  C   UNL A   1      34.598  34.318  29.647  1.00  0.00     0.060 A 
ATOM     31  C   UNL A   1      34.355  33.528  30.778  1.00  0.00     0.016 A 
ATOM     32  C   UNL A   1      35.882  34.402  29.104  1.00  0.00     0.016 A 
ATOM     33  C   UNL A   1      35.406  32.859  31.403  1.00  0.00     0.010 A 
ATOM     34  C   UNL A   1      36.938  33.735  29.738  1.00  0.00     0.010 A 
ATOM     35  C   UNL A   1      36.710  32.991  30.909  1.00  0.00    -0.014 A 
BRANCH  35  36
ATOM     36  C   UNL A   1      37.849  32.467  31.703  1.00  0.00     0.031 A 
ATOM     37  C   UNL A   1      38.592  31.258  31.202  1.00  0.00     0.074 A 
ATOM     38  C   UNL A   1      38.236  33.075  32.839  1.00  0.00     0.049 A 
ATOM     39  N   UNL A   1      39.597  30.621  31.745  1.00  0.00    -0.248 NA
ATOM     40  C   UNL A   1      38.141  30.693  29.919  1.00  0.00     0.031 C 
ATOM     41  C   UNL A   1      37.624  34.277  33.406  1.00  0.00     0.029 A 
ATOM     42  N   UNL A   1      39.238  32.760  33.721  1.00  0.00    -0.354 N 
ATOM     43  C   UNL A   1      39.898  29.580  30.874  1.00  0.00     0.074 A 
ATOM     44  C   UNL A   1      38.950  29.652  29.783  1.00  0.00     0.031 C 
ATOM     45  C   UNL A   1      38.260  34.592  34.548  1.00  0.00     0.029 A 
ATOM     46  C   UNL A   1      39.301  33.599  34.808  1.00  0.00     0.049 A 
ATOM     47  H   UNL A   1      39.854  32.004  33.588  1.00  0.00     0.167 HD
ATOM     48  C   UNL A   1      40.879  28.651  30.969  1.00  0.00     0.031 A 
ATOM     49  C   UNL A   1      40.094  33.559  35.898  1.00  0.00     0.031 A 
ATOM     50  C   UNL A   1      41.812  28.570  32.062  1.00  0.00     0.049 A 
ATOM     51  C   UNL A   1      41.133  32.474  36.016  1.00  0.00     0.074 A 
ATOM     52  C   UNL A   1      42.846  27.670  32.246  1.00  0.00     0.029 A 
ATOM     53  N   UNL A   1      41.822  29.420  33.158  1.00  0.00    -0.354 N 
ATOM     54  N   UNL A   1      41.416  31.508  35.176  1.00  0.00    -0.248 NA
ATOM     55  C   UNL A   1      41.965  32.482  37.228  1.00  0.00     0.031 C 
ATOM     56  C   UNL A   1      43.449  27.943  33.479  1.00  0.00     0.029 A 
ATOM     57  C   UNL A   1      42.828  29.050  34.034  1.00  0.00     0.049 A 
ATOM     58  H   UNL A   1      41.205  30.175  33.293  1.00  0.00     0.167 HD
ATOM     59  C   UNL A   1      42.475  30.808  35.746  1.00  0.00     0.074 A 
ATOM     60  C   UNL A   1      42.789  31.470  36.995  1.00  0.00     0.031 C 
ATOM     61  C   UNL A   1      43.130  29.717  35.275  1.00  0.00     0.031 A 
BRANCH  48  62
ATOM     62  C   UNL A   1      40.974  27.625  29.872  1.00  0.00    -0.014 A 
ATOM     63  C   UNL A   1      39.896  26.767  29.586  1.00  0.00     0.010 A 
ATOM     64  C   UNL A   1      42.142  27.542  29.093  1.00  0.00     0.010 A 
ATOM     65  C   UNL A   1      39.999  25.821  28.563  1.00  0.00     0.020 A 
ATOM     66  C   UNL A   1      42.239  26.614  28.052  1.00  0.00     0.020 A 
ATOM     67  C   UNL A   1      41.172  25.748  27.804  1.00  0.00     0.054 A 
BRANCH  67  68
ATOM     68  S   UNL A   1      41.270  24.526  26.467  1.00  0.00     0.124 S 
ATOM     69  O   UNL A   1      41.647  23.315  27.194  1.00  0.00    -0.237 OA
ATOM     70  O   UNL A   1      39.916  24.536  25.923  1.00  0.00    -0.237 OA
ATOM     71  O   UNL A   1      42.299  25.064  25.580  1.00  0.00    -0.744 OA
ENDBRANCH  67  68
ENDBRANCH  48  62
BRANCH  49  72
ATOM     72  C   UNL A   1      39.918  34.567  36.978  1.00  0.00    -0.014 A 
ATOM     73  C   UNL A   1      40.620  35.785  36.951  1.00  0.00     0.010 A 
ATOM     74  C   UNL A   1      39.042  34.307  38.048  1.00  0.00     0.010 A 
ATOM     75  C   UNL A   1      40.460  36.717  37.980  1.00  0.00     0.020 A 
ATOM     76  C   UNL A   1      38.860  35.247  39.064  1.00  0.00     0.020 A 
ATOM     77  C   UNL A   1      39.579  36.443  39.030  1.00  0.00     0.054 A 
BRANCH  77  78
ATOM     78  S   UNL A   1      39.343  37.689  40.328  1.00  0.00     0.124 S 
ATOM     79  O   UNL A   1      39.180  36.860  41.518  1.00  0.00    -0.237 OA
ATOM     80  O   UNL A   1      40.582  38.459  40.257  1.00  0.00    -0.237 OA
ATOM     81  O   UNL A   1      38.146  38.407  39.895  1.00  0.00    -0.744 OA
ENDBRANCH  77  78
ENDBRANCH  49  72
BRANCH  61  82
ATOM     82  C   UNL A   1      44.275  29.186  36.096  1.00  0.00    -0.014 A 
ATOM     83  C   UNL A   1      44.098  28.116  36.991  1.00  0.00     0.010 A 
ATOM     84  C   UNL A   1      45.561  29.730  35.923  1.00  0.00     0.010 A 
ATOM     85  C   UNL A   1      45.181  27.620  37.721  1.00  0.00     0.020 A 
ATOM     86  C   UNL A   1      46.651  29.219  36.632  1.00  0.00     0.020 A 
ATOM     87  C   UNL A   1      46.451  28.175  37.538  1.00  0.00     0.054 A 
BRANCH  87  88
ATOM     88  S   UNL A   1      47.849  27.486  38.466  1.00  0.00     0.124 S 
ATOM     89  O   UNL A   1      47.547  27.908  39.830  1.00  0.00    -0.237 OA
ATOM     90  O   UNL A   1      47.729  26.053  38.211  1.00  0.00    -0.237 OA
ATOM     91  O   UNL A   1      49.015  28.123  37.860  1.00  0.00    -0.744 OA
ENDBRANCH  87  88
ENDBRANCH  61  82
ENDBRANCH  35  36
ENDBRANCH  28  30
ENDBRANCH  27  28
ENDBRANCH  26  27
ENDBRANCH  25  26
ENDBRANCH   1  25
TORSDOF 21
ENDMDL
MODEL 2
REMARK VINA RESULT:      -9.1      4.823     13.097
REMARK SMILES Cc1cc(NCc2ccco2)cc(C(=O)OCCOCCOC(=O)c2ccc(-c3c4nc(c(-c5ccc(S(=O)(=O)[O-])cc5)c5ccc([nH]5)c(-c5ccc(S(=O)(=O)[O-])cc5)c5nc(c(-c6ccc(S(=O)(=O)[O-])cc6)c6ccc3[nH]6)C=C5)C=C4)cc2)c1N
REMARK SMILES IDX 19 1 18 2 17 3 16 4 14 5 15 6 13 7 1 8 2 9 3 10 85 11 4 12
REMARK SMILES IDX 12 13 86 14 5 17 6 19 7 20 8 21 11 22 9 23 10 24 20 25 21 26
REMARK SMILES IDX 22 27 23 28 24 29 25 30 26 31 84 32 27 33 83 34 28 35 29 36
REMARK SMILES IDX 30 37 77 38 31 39 82 40 76 41 78 42 32 43 81 44 75 45 74 46
REMARK SMILES IDX 33 48 63 49 44 50 62 51 45 52 48 53 61 54 79 55 46 56 47 57
REMARK SMILES IDX 60 59 80 60 49 61 34 62 35 63 43 64 36 65 42 66 37 67 38 68
REMARK SMILES IDX 39 69 40 70 41 71 64 72 65 73 73 74 66 75 72 76 67 77 68 78
REMARK SMILES IDX 69 79 70 80 71 81 50 82 51 83 59 84 52 85 58 86 53 87 54 88
REMARK SMILES IDX 55 89 56 90 57 91
REMARK H PARENT 86 15 86 16 5 18 78 47 48 58
REMARK Flexibility Score: inf
ROOT
ATOM      1  O   UNL A   1      49.456  24.749  39.791  1.00  0.00    -0.374 OA
ENDROOT
BRANCH   1   2
ATOM      2  C   UNL A   1      49.350  23.336  39.983  1.00  0.00     0.202 C 
BRANCH   2   3
ATOM      3  C   UNL A   1      48.698  22.557  38.839  1.00  0.00     0.261 C 
BRANCH   3   4
ATOM      4  O   UNL A   1      47.963  21.426  39.339  1.00  0.00    -0.460 OA
BRANCH   4   5
ATOM      5  C   UNL A   1      46.615  21.564  39.310  1.00  0.00     0.340 C 
ATOM      6  O   UNL A   1      45.900  21.865  40.256  1.00  0.00    -0.246 OA
BRANCH   5   7
ATOM      7  C   UNL A   1      46.108  21.467  37.914  1.00  0.00     0.085 A 
ATOM      8  C   UNL A   1      45.610  18.806  35.224  1.00  0.00     0.047 C 
ATOM      9  C   UNL A   1      45.655  20.116  35.962  1.00  0.00    -0.025 A 
ATOM     10  C   UNL A   1      45.202  21.277  35.310  1.00  0.00     0.031 A 
ATOM     11  C   UNL A   1      46.114  20.200  37.284  1.00  0.00     0.049 A 
ATOM     12  C   UNL A   1      45.180  22.537  35.930  1.00  0.00     0.036 A 
ATOM     13  C   UNL A   1      45.635  22.613  37.246  1.00  0.00     0.043 A 
BRANCH  11  14
ATOM     14  N   UNL A   1      46.374  19.032  38.011  1.00  0.00    -0.398 N 
ATOM     15  H   UNL A   1      46.434  18.166  37.545  1.00  0.00     0.156 HD
ATOM     16  H   UNL A   1      46.498  19.076  38.987  1.00  0.00     0.156 HD
ENDBRANCH  11  14
BRANCH  12  17
ATOM     17  N   UNL A   1      44.615  23.586  35.234  1.00  0.00    -0.378 N 
ATOM     18  H   UNL A   1      45.225  24.302  34.945  1.00  0.00     0.161 HD
BRANCH  17  19
ATOM     19  C   UNL A   1      43.212  23.742  34.885  1.00  0.00     0.188 C 
BRANCH  19  20
ATOM     20  C   UNL A   1      42.524  24.883  35.547  1.00  0.00     0.122 A 
ATOM     21  C   UNL A   1      41.861  25.993  35.071  1.00  0.00     0.047 A 
ATOM     22  O   UNL A   1      42.553  24.907  36.914  1.00  0.00    -0.467 OA
ATOM     23  C   UNL A   1      41.458  26.737  36.206  1.00  0.00     0.042 A 
ATOM     24  C   UNL A   1      41.899  26.033  37.301  1.00  0.00     0.195 A 
ENDBRANCH  19  20
ENDBRANCH  17  19
ENDBRANCH  12  17
ENDBRANCH   5   7
ENDBRANCH   4   5
ENDBRANCH   3   4
ENDBRANCH   2   3
ENDBRANCH   1   2
BRANCH   1  25
ATOM     25  C   UNL A   1      50.498  25.200  38.921  1.00  0.00     0.202 C 
BRANCH  25  26
ATOM     26  C   UNL A   1      50.254  26.545  38.224  1.00  0.00     0.261 C 
BRANCH  26  27
ATOM     27  O   UNL A   1      48.902  26.662  37.743  1.00  0.00    -0.460 OA
BRANCH  27  28
ATOM     28  C   UNL A   1      48.209  27.717  38.232  1.00  0.00     0.338 C 
ATOM     29  O   UNL A   1      48.509  28.415  39.192  1.00  0.00    -0.246 OA
BRANCH  28  30
ATOM     30  C   UNL A   1      47.096  28.052  37.324  1.00  0.00     0.060 A 
ATOM     31  C   UNL A   1      47.242  29.186  36.515  1.00  0.00     0.016 A 
ATOM     32  C   UNL A   1      45.911  27.312  37.298  1.00  0.00     0.016 A 
ATOM     33  C   UNL A   1      46.186  29.616  35.714  1.00  0.00     0.010 A 
ATOM     34  C   UNL A   1      44.848  27.749  36.499  1.00  0.00     0.010 A 
ATOM     35  C   UNL A   1      44.969  28.921  35.732  1.00  0.00    -0.014 A 
BRANCH  35  36
ATOM     36  C   UNL A   1      43.783  29.507  35.058  1.00  0.00     0.031 A 
ATOM     37  C   UNL A   1      43.468  29.093  33.646  1.00  0.00     0.074 A 
ATOM     38  C   UNL A   1      42.980  30.373  35.703  1.00  0.00     0.049 A 
ATOM     39  N   UNL A   1      42.501  29.494  32.862  1.00  0.00    -0.248 NA
ATOM     40  C   UNL A   1      44.363  28.094  33.037  1.00  0.00     0.031 C 
ATOM     41  C   UNL A   1      43.155  30.820  37.085  1.00  0.00     0.029 A 
ATOM     42  N   UNL A   1      41.857  31.034  35.276  1.00  0.00    -0.354 N 
ATOM     43  C   UNL A   1      42.670  28.801  31.669  1.00  0.00     0.074 A 
ATOM     44  C   UNL A   1      43.850  27.978  31.821  1.00  0.00     0.031 C 
ATOM     45  C   UNL A   1      42.176  31.690  37.388  1.00  0.00     0.029 A 
ATOM     46  C   UNL A   1      41.326  31.885  36.215  1.00  0.00     0.049 A 
ATOM     47  H   UNL A   1      41.467  30.910  34.380  1.00  0.00     0.167 HD
ATOM     48  C   UNL A   1      41.909  28.841  30.549  1.00  0.00     0.031 A 
ATOM     49  C   UNL A   1      40.285  32.738  36.133  1.00  0.00     0.031 A 
ATOM     50  C   UNL A   1      40.744  29.672  30.393  1.00  0.00     0.049 A 
ATOM     51  C   UNL A   1      39.495  32.817  34.853  1.00  0.00     0.074 A 
ATOM     52  C   UNL A   1      39.903  29.778  29.301  1.00  0.00     0.029 A 
ATOM     53  N   UNL A   1      40.259  30.542  31.358  1.00  0.00    -0.354 N 
ATOM     54  N   UNL A   1      39.658  32.143  33.740  1.00  0.00    -0.248 NA
ATOM     55  C   UNL A   1      38.374  33.768  34.822  1.00  0.00     0.031 C 
ATOM     56  C   UNL A   1      38.938  30.750  29.584  1.00  0.00     0.029 A 
ATOM     57  C   UNL A   1      39.144  31.207  30.875  1.00  0.00     0.049 A 
ATOM     58  H   UNL A   1      40.649  30.669  32.252  1.00  0.00     0.167 HD
ATOM     59  C   UNL A   1      38.645  32.569  32.886  1.00  0.00     0.074 A 
ATOM     60  C   UNL A   1      37.868  33.550  33.617  1.00  0.00     0.031 C 
ATOM     61  C   UNL A   1      38.381  32.182  31.613  1.00  0.00     0.031 A 
BRANCH  48  62
ATOM     62  C   UNL A   1      42.332  27.979  29.390  1.00  0.00    -0.014 A 
ATOM     63  C   UNL A   1      41.751  26.717  29.173  1.00  0.00     0.010 A 
ATOM     64  C   UNL A   1      43.298  28.454  28.484  1.00  0.00     0.010 A 
ATOM     65  C   UNL A   1      42.154  25.930  28.091  1.00  0.00     0.020 A 
ATOM     66  C   UNL A   1      43.685  27.681  27.387  1.00  0.00     0.020 A 
ATOM     67  C   UNL A   1      43.122  26.416  27.205  1.00  0.00     0.054 A 
BRANCH  67  68
ATOM     68  S   UNL A   1      43.611  25.384  25.796  1.00  0.00     0.124 S 
ATOM     69  O   UNL A   1      43.774  24.075  26.425  1.00  0.00    -0.237 OA
ATOM     70  O   UNL A   1      42.469  25.511  24.894  1.00  0.00    -0.237 OA
ATOM     71  O   UNL A   1      44.846  26.005  25.323  1.00  0.00    -0.744 OA
ENDBRANCH  67  68
ENDBRANCH  48  62
BRANCH  49  72
ATOM     72  C   UNL A   1      39.947  33.607  37.292  1.00  0.00    -0.014 A 
ATOM     73  C   UNL A   1      40.532  34.876  37.438  1.00  0.00     0.010 A 
ATOM     74  C   UNL A   1      39.030  33.161  38.263  1.00  0.00     0.010 A 
ATOM     75  C   UNL A   1      40.219  35.678  38.540  1.00  0.00     0.020 A 
ATOM     76  C   UNL A   1      38.695  33.970  39.351  1.00  0.00     0.020 A 
ATOM     77  C   UNL A   1      39.301  35.219  39.490  1.00  0.00     0.054 A 
BRANCH  77  78
ATOM     78  S   UNL A   1      38.866  36.296  40.884  1.00  0.00     0.124 S 
ATOM     79  O   UNL A   1      40.135  36.393  41.599  1.00  0.00    -0.237 OA
ATOM     80  O   UNL A   1      38.420  37.516  40.215  1.00  0.00    -0.237 OA
ATOM     81  O   UNL A   1      37.813  35.552  41.572  1.00  0.00    -0.744 OA
ENDBRANCH  77  78
ENDBRANCH  49  72
BRANCH  61  82
ATOM     82  C   UNL A   1      37.183  32.793  30.935  1.00  0.00    -0.014 A 
ATOM     83  C   UNL A   1      37.305  33.940  30.132  1.00  0.00     0.010 A 
ATOM     84  C   UNL A   1      35.926  32.171  31.057  1.00  0.00     0.010 A 
ATOM     85  C   UNL A   1      36.185  34.473  29.489  1.00  0.00     0.020 A 
ATOM     86  C   UNL A   1      34.810  32.687  30.394  1.00  0.00     0.020 A 
ATOM     87  C   UNL A   1      34.944  33.844  29.625  1.00  0.00     0.054 A 
BRANCH  87  88
ATOM     88  S   UNL A   1      33.513  34.530  28.745  1.00  0.00     0.124 S 
ATOM     89  O   UNL A   1      32.610  34.858  29.843  1.00  0.00    -0.237 OA
ATOM     90  O   UNL A   1      34.087  35.674  28.041  1.00  0.00    -0.237 OA
ATOM     91  O   UNL A   1      33.076  33.433  27.885  1.00  0.00    -0.744 OA
ENDBRANCH  87  88
ENDBRANCH  61  82
ENDBRANCH  35  36
ENDBRANCH  28  30
ENDBRANCH  27  28
ENDBRANCH  26  27
ENDBRANCH  25  26
ENDBRANCH   1  25
TORSDOF 21
ENDMDL
MODEL 3
REMARK VINA RESULT:      -8.9      6.436     11.388
REMARK SMILES Cc1cc(NCc2ccco2)cc(C(=O)OCCOCCOC(=O)c2ccc(-c3c4nc(c(-c5ccc(S(=O)(=O)[O-])cc5)c5ccc([nH]5)c(-c5ccc(S(=O)(=O)[O-])cc5)c5nc(c(-c6ccc(S(=O)(=O)[O-])cc6)c6ccc3[nH]6)C=C5)C=C4)cc2)c1N
REMARK SMILES IDX 19 1 18 2 17 3 16 4 14 5 15 6 13 7 1 8 2 9 3 10 85 11 4 12
REMARK SMILES IDX 12 13 86 14 5 17 6 19 7 20 8 21 11 22 9 23 10 24 20 25 21 26
REMARK SMILES IDX 22 27 23 28 24 29 25 30 26 31 84 32 27 33 83 34 28 35 29 36
REMARK SMILES IDX 30 37 77 38 31 39 82 40 76 41 78 42 32 43 81 44 75 45 74 46
REMARK SMILES IDX 33 48 63 49 44 50 62 51 45 52 48 53 61 54 79 55 46 56 47 57
REMARK SMILES IDX 60 59 80 60 49 61 34 62 35 63 43 64 36 65 42 66 37 67 38 68
REMARK SMILES IDX 39 69 40 70 41 71 64 72 65 73 73 74 66 75 72 76 67 77 68 78
REMARK SMILES IDX 69 79 70 80 71 81 50 82 51 83 59 84 52 85 58 86 53 87 54 88
REMARK SMILES IDX 55 89 56 90 57 91
REMARK H PARENT 86 15 86 16 5 18 78 47 48 58
REMARK Flexibility Score: inf
ROOT
ATOM      1  O   UNL A   1      34.005  34.004  31.864  1.00  0.00    -0.374 OA
ENDROOT
BRANCH   1   2
ATOM      2  C   UNL A   1      33.589  35.365  31.730  1.00  0.00     0.202 C 
BRANCH   2   3
ATOM      3  C   UNL A   1      32.881  35.718  30.419  1.00  0.00     0.261 C 
BRANCH   3   4
ATOM      4  O   UNL A   1      32.954  34.627  29.484  1.00  0.00    -0.460 OA
BRANCH   4   5
ATOM      5  C   UNL A   1      33.959  34.720  28.578  1.00  0.00     0.340 C 
ATOM      6  O   UNL A   1      34.319  35.737  28.002  1.00  0.00    -0.246 OA
BRANCH   5   7
ATOM      7  C   UNL A   1      34.701  33.434  28.486  1.00  0.00     0.085 A 
ATOM      8  C   UNL A   1      38.110  32.016  29.456  1.00  0.00     0.047 C 
ATOM      9  C   UNL A   1      36.718  32.169  28.906  1.00  0.00    -0.025 A 
ATOM     10  C   UNL A   1      36.106  31.061  28.292  1.00  0.00     0.031 A 
ATOM     11  C   UNL A   1      36.013  33.377  29.013  1.00  0.00     0.049 A 
ATOM     12  C   UNL A   1      34.800  31.103  27.777  1.00  0.00     0.036 A 
ATOM     13  C   UNL A   1      34.104  32.307  27.889  1.00  0.00     0.043 A 
BRANCH  11  14
ATOM     14  N   UNL A   1      36.524  34.418  29.796  1.00  0.00    -0.398 N 
ATOM     15  H   UNL A   1      36.106  35.310  29.762  1.00  0.00     0.156 HD
ATOM     16  H   UNL A   1      37.301  34.261  30.379  1.00  0.00     0.156 HD
ENDBRANCH  11  14
BRANCH  12  17
ATOM     17  N   UNL A   1      34.262  29.929  27.293  1.00  0.00    -0.378 N 
ATOM     18  H   UNL A   1      34.888  29.297  26.872  1.00  0.00     0.161 HD
BRANCH  17  19
ATOM     19  C   UNL A   1      32.864  29.530  27.341  1.00  0.00     0.188 C 
BRANCH  19  20
ATOM     20  C   UNL A   1      32.214  29.362  26.013  1.00  0.00     0.122 A 
ATOM     21  C   UNL A   1      31.292  30.107  25.310  1.00  0.00     0.047 A 
ATOM     22  O   UNL A   1      32.533  28.232  25.312  1.00  0.00    -0.467 OA
ATOM     23  C   UNL A   1      31.034  29.398  24.112  1.00  0.00     0.042 A 
ATOM     24  C   UNL A   1      31.816  28.268  24.160  1.00  0.00     0.195 A 
ENDBRANCH  19  20
ENDBRANCH  17  19
ENDBRANCH  12  17
ENDBRANCH   5   7
ENDBRANCH   4   5
ENDBRANCH   3   4
ENDBRANCH   2   3
ENDBRANCH   1   2
BRANCH   1  25
ATOM     25  C   UNL A   1      34.056  33.480  33.195  1.00  0.00     0.202 C 
BRANCH  25  26
ATOM     26  C   UNL A   1      35.392  32.861  33.621  1.00  0.00     0.261 C 
BRANCH  26  27
ATOM     27  O   UNL A   1      36.165  33.764  34.435  1.00  0.00    -0.460 OA
BRANCH  27  28
ATOM     28  C   UNL A   1      37.168  33.186  35.136  1.00  0.00     0.338 C 
ATOM     29  O   UNL A   1      37.059  32.422  36.086  1.00  0.00    -0.246 OA
BRANCH  28  30
ATOM     30  C   UNL A   1      38.462  33.456  34.480  1.00  0.00     0.060 A 
ATOM     31  C   UNL A   1      38.442  34.215  33.303  1.00  0.00     0.016 A 
ATOM     32  C   UNL A   1      39.664  32.937  34.967  1.00  0.00     0.016 A 
ATOM     33  C   UNL A   1      39.616  34.416  32.579  1.00  0.00     0.010 A 
ATOM     34  C   UNL A   1      40.841  33.133  34.235  1.00  0.00     0.010 A 
ATOM     35  C   UNL A   1      40.815  33.842  33.021  1.00  0.00    -0.014 A 
BRANCH  35  36
ATOM     36  C   UNL A   1      42.006  33.867  32.137  1.00  0.00     0.031 A 
ATOM     37  C   UNL A   1      42.956  35.031  32.225  1.00  0.00     0.074 A 
ATOM     38  C   UNL A   1      42.257  32.854  31.288  1.00  0.00     0.049 A 
ATOM     39  N   UNL A   1      44.042  35.267  31.534  1.00  0.00    -0.248 NA
ATOM     40  C   UNL A   1      42.640  36.065  33.224  1.00  0.00     0.031 C 
ATOM     41  C   UNL A   1      41.436  31.651  31.140  1.00  0.00     0.029 A 
ATOM     42  N   UNL A   1      43.276  32.678  30.386  1.00  0.00    -0.354 N 
ATOM     43  C   UNL A   1      44.536  36.475  32.011  1.00  0.00     0.074 A 
ATOM     44  C   UNL A   1      43.617  36.939  33.028  1.00  0.00     0.031 C 
ATOM     45  C   UNL A   1      41.981  30.866  30.194  1.00  0.00     0.029 A 
ATOM     46  C   UNL A   1      43.169  31.522  29.651  1.00  0.00     0.049 A 
ATOM     47  H   UNL A   1      44.014  33.319  30.277  1.00  0.00     0.167 HD
ATOM     48  C   UNL A   1      45.658  37.138  31.641  1.00  0.00     0.031 A 
ATOM     49  C   UNL A   1      43.930  31.055  28.640  1.00  0.00     0.031 A 
ATOM     50  C   UNL A   1      46.564  36.685  30.619  1.00  0.00     0.049 A 
ATOM     51  C   UNL A   1      45.134  31.845  28.197  1.00  0.00     0.074 A 
ATOM     52  C   UNL A   1      47.731  37.283  30.177  1.00  0.00     0.029 A 
ATOM     53  N   UNL A   1      46.402  35.525  29.876  1.00  0.00    -0.354 N 
ATOM     54  N   UNL A   1      45.598  32.977  28.671  1.00  0.00    -0.248 NA
ATOM     55  C   UNL A   1      45.923  31.287  27.089  1.00  0.00     0.031 C 
ATOM     56  C   UNL A   1      48.248  36.511  29.131  1.00  0.00     0.029 A 
ATOM     57  C   UNL A   1      47.435  35.402  28.962  1.00  0.00     0.049 A 
ATOM     58  H   UNL A   1      45.663  34.885  29.983  1.00  0.00     0.167 HD
ATOM     59  C   UNL A   1      46.746  33.254  27.935  1.00  0.00     0.074 A 
ATOM     60  C   UNL A   1      46.913  32.164  26.995  1.00  0.00     0.031 C 
ATOM     61  C   UNL A   1      47.588  34.313  28.031  1.00  0.00     0.031 A 
BRANCH  48  62
ATOM     62  C   UNL A   1      45.953  38.444  32.329  1.00  0.00    -0.014 A 
ATOM     63  C   UNL A   1      45.417  39.654  31.851  1.00  0.00     0.010 A 
ATOM     64  C   UNL A   1      46.746  38.458  33.491  1.00  0.00     0.010 A 
ATOM     65  C   UNL A   1      45.698  40.858  32.502  1.00  0.00     0.020 A 
ATOM     66  C   UNL A   1      47.008  39.657  34.159  1.00  0.00     0.020 A 
ATOM     67  C   UNL A   1      46.495  40.852  33.651  1.00  0.00     0.054 A 
BRANCH  67  68
ATOM     68  S   UNL A   1      46.826  42.426  34.490  1.00  0.00     0.124 S 
ATOM     69  O   UNL A   1      47.912  42.976  33.680  1.00  0.00    -0.237 OA
ATOM     70  O   UNL A   1      45.547  43.123  34.381  1.00  0.00    -0.237 OA
ATOM     71  O   UNL A   1      47.201  42.026  35.844  1.00  0.00    -0.744 OA
ENDBRANCH  67  68
ENDBRANCH  48  62
BRANCH  49  72
ATOM     72  C   UNL A   1      43.559  29.786  27.959  1.00  0.00    -0.014 A 
ATOM     73  C   UNL A   1      44.061  28.552  28.407  1.00  0.00     0.010 A 
ATOM     74  C   UNL A   1      42.695  29.808  26.847  1.00  0.00     0.010 A 
ATOM     75  C   UNL A   1      43.719  27.367  27.749  1.00  0.00     0.020 A 
ATOM     76  C   UNL A   1      42.330  28.624  26.204  1.00  0.00     0.020 A 
ATOM     77  C   UNL A   1      42.854  27.411  26.652  1.00  0.00     0.054 A 
BRANCH  77  78
ATOM     78  S   UNL A   1      42.379  25.856  25.845  1.00  0.00     0.124 S 
ATOM     79  O   UNL A   1      43.501  25.629  24.939  1.00  0.00    -0.237 OA
ATOM     80  O   UNL A   1      42.276  24.933  26.972  1.00  0.00    -0.237 OA
ATOM     81  O   UNL A   1      41.108  26.184  25.200  1.00  0.00    -0.744 OA
ENDBRANCH  77  78
ENDBRANCH  49  72
BRANCH  61  82
ATOM     82  C   UNL A   1      48.786  34.334  27.119  1.00  0.00    -0.014 A 
ATOM     83  C   UNL A   1      49.976  33.667  27.461  1.00  0.00     0.010 A 
ATOM     84  C   UNL A   1      48.697  34.984  25.874  1.00  0.00     0.010 A 
ATOM     85  C   UNL A   1      51.066  33.676  26.587  1.00  0.00     0.020 A 
ATOM     86  C   UNL A   1      49.776  34.972  24.987  1.00  0.00     0.020 A 
ATOM     87  C   UNL A   1      50.960  34.329  25.355  1.00  0.00     0.054 A 
BRANCH  87  88
ATOM     88  S   UNL A   1      52.373  34.290  24.219  1.00  0.00     0.124 S 
ATOM     89  O   UNL A   1      52.088  33.101  23.420  1.00  0.00    -0.237 OA
ATOM     90  O   UNL A   1      52.255  35.564  23.514  1.00  0.00    -0.237 OA
ATOM     91  O   UNL A   1      53.529  34.181  25.106  1.00  0.00    -0.744 OA
ENDBRANCH  87  88
ENDBRANCH  61  82
ENDBRANCH  35  36
ENDBRANCH  28  30
ENDBRANCH  27  28
ENDBRANCH  26  27
ENDBRANCH  25  26
ENDBRANCH   1  25
TORSDOF 21
ENDMDL
