MODEL 1
REMARK VINA RESULT:     -10.0      0.000      0.000
REMARK SMILES N#Cc1cccc(C(=O)N2CCC(CC(=O)OCCOCCOC(=O)c3ccc(-c4c5nc(c(-c6ccc(S(=O)(=O)[O-])cc6)c6ccc([nH]6)c(-c6ccc(S(=O)(=O)[O-])cc6)c6nc(c(-c7ccc(S(=O)(=O)[O-])cc7)c7ccc4[nH]7)C=C6)C=C5)cc3)CC2)c1
REMARK SMILES IDX 20 1 19 2 18 3 17 4 15 5 16 6 14 7 13 8 8 9 9 10 10 11 11 12
REMARK SMILES IDX 87 13 12 14 86 15 7 16 3 17 4 18 88 19 5 20 6 21 2 22 1 23
REMARK SMILES IDX 21 24 22 25 23 26 24 27 25 28 26 29 27 30 85 31 28 32 84 33
REMARK SMILES IDX 29 34 30 35 31 36 78 37 32 38 83 39 77 40 79 41 33 42 82 43
REMARK SMILES IDX 76 44 75 45 34 47 64 48 45 49 63 50 46 51 49 52 62 53 80 54
REMARK SMILES IDX 47 55 48 56 61 58 81 59 50 60 35 61 36 62 44 63 37 64 43 65
REMARK SMILES IDX 38 66 39 67 40 68 41 69 42 70 65 71 66 72 74 73 67 74 73 75
REMARK SMILES IDX 68 76 69 77 70 78 71 79 72 80 51 81 52 82 60 83 53 84 59 85
REMARK SMILES IDX 54 86 55 87 56 88 57 89 58 90
REMARK H PARENT 79 46 49 57
REMARK Flexibility Score: inf
ROOT
ATOM      1  O   UNL A   1      45.885  22.124  25.836  1.00  0.00    -0.374 OA
ENDROOT
BRANCH   1   2
ATOM      2  C   UNL A   1      44.882  21.711  24.910  1.00  0.00     0.202 C 
BRANCH   2   3
ATOM      3  C   UNL A   1      43.871  20.659  25.373  1.00  0.00     0.261 C 
BRANCH   3   4
ATOM      4  O   UNL A   1      42.777  21.260  26.087  1.00  0.00    -0.463 OA
BRANCH   4   5
ATOM      5  C   UNL A   1      41.674  20.498  26.262  1.00  0.00     0.306 C 
ATOM      6  O   UNL A   1      41.599  19.303  26.000  1.00  0.00    -0.252 OA
BRANCH   5   7
ATOM      7  C   UNL A   1      40.494  21.279  26.812  1.00  0.00     0.126 C 
BRANCH   7   8
ATOM      8  C   UNL A   1      39.484  21.937  25.844  1.00  0.00     0.003 C 
ATOM      9  C   UNL A   1      35.501  22.833  25.760  1.00  0.00     0.253 C 
ATOM     10  O   UNL A   1      35.106  21.909  26.463  1.00  0.00    -0.269 OA
ATOM     11  N   UNL A   1      36.790  22.887  25.255  1.00  0.00    -0.339 N 
ATOM     12  C   UNL A   1      37.306  21.721  24.569  1.00  0.00     0.120 C 
ATOM     13  C   UNL A   1      37.767  23.852  25.732  1.00  0.00     0.120 C 
ATOM     14  C   UNL A   1      38.358  20.992  25.391  1.00  0.00     0.026 C 
ATOM     15  C   UNL A   1      38.875  23.177  26.544  1.00  0.00     0.026 C 
BRANCH   9  16
ATOM     16  C   UNL A   1      34.538  23.857  25.245  1.00  0.00     0.041 A 
ATOM     17  C   UNL A   1      32.871  25.591  25.591  1.00  0.00     0.053 A 
ATOM     18  C   UNL A   1      32.950  25.944  24.242  1.00  0.00     0.019 A 
ATOM     19  C   UNL A   1      33.668  24.556  26.093  1.00  0.00     0.033 A 
ATOM     20  C   UNL A   1      33.816  25.256  23.392  1.00  0.00     0.002 A 
ATOM     21  C   UNL A   1      34.603  24.214  23.890  1.00  0.00     0.014 A 
BRANCH  17  22
ATOM     22  C   UNL A   1      31.982  26.292  26.474  1.00  0.00     0.099 C 
ATOM     23  N   UNL A   1      31.286  26.878  27.190  1.00  0.00    -0.192 NA
ENDBRANCH  17  22
ENDBRANCH   9  16
ENDBRANCH   7   8
ENDBRANCH   5   7
ENDBRANCH   4   5
ENDBRANCH   3   4
ENDBRANCH   2   3
ENDBRANCH   1   2
BRANCH   1  24
ATOM     24  C   UNL A   1      45.799  23.439  26.377  1.00  0.00     0.202 C 
BRANCH  24  25
ATOM     25  C   UNL A   1      45.229  24.558  25.492  1.00  0.00     0.261 C 
BRANCH  25  26
ATOM     26  O   UNL A   1      44.429  25.507  26.218  1.00  0.00    -0.460 OA
BRANCH  26  27
ATOM     27  C   UNL A   1      43.100  25.232  26.187  1.00  0.00     0.338 C 
ATOM     28  O   UNL A   1      42.564  24.276  25.650  1.00  0.00    -0.246 OA
BRANCH  27  29
ATOM     29  C   UNL A   1      42.355  26.148  27.071  1.00  0.00     0.060 A 
ATOM     30  C   UNL A   1      42.797  27.476  27.126  1.00  0.00     0.016 A 
ATOM     31  C   UNL A   1      41.333  25.704  27.912  1.00  0.00     0.016 A 
ATOM     32  C   UNL A   1      42.291  28.341  28.089  1.00  0.00     0.010 A 
ATOM     33  C   UNL A   1      40.820  26.579  28.877  1.00  0.00     0.010 A 
ATOM     34  C   UNL A   1      41.342  27.880  29.011  1.00  0.00    -0.014 A 
BRANCH  34  35
ATOM     35  C   UNL A   1      41.052  28.703  30.214  1.00  0.00     0.031 A 
ATOM     36  C   UNL A   1      41.919  28.541  31.438  1.00  0.00     0.074 A 
ATOM     37  C   UNL A   1      40.081  29.634  30.196  1.00  0.00     0.049 A 
ATOM     38  N   UNL A   1      41.863  29.170  32.584  1.00  0.00    -0.248 NA
ATOM     39  C   UNL A   1      42.994  27.537  31.360  1.00  0.00     0.031 C 
ATOM     40  C   UNL A   1      39.208  29.922  29.059  1.00  0.00     0.029 A 
ATOM     41  N   UNL A   1      39.675  30.516  31.165  1.00  0.00    -0.354 N 
ATOM     42  C   UNL A   1      42.879  28.629  33.366  1.00  0.00     0.074 A 
ATOM     43  C   UNL A   1      43.508  27.592  32.579  1.00  0.00     0.031 C 
ATOM     44  C   UNL A   1      38.374  30.923  29.393  1.00  0.00     0.029 A 
ATOM     45  C   UNL A   1      38.627  31.316  30.778  1.00  0.00     0.049 A 
ATOM     46  H   UNL A   1      40.094  30.571  32.054  1.00  0.00     0.167 HD
ATOM     47  C   UNL A   1      43.262  28.971  34.620  1.00  0.00     0.031 A 
ATOM     48  C   UNL A   1      37.939  32.250  31.464  1.00  0.00     0.031 A 
ATOM     49  C   UNL A   1      42.626  29.998  35.403  1.00  0.00     0.049 A 
ATOM     50  C   UNL A   1      38.335  32.561  32.884  1.00  0.00     0.074 A 
ATOM     51  C   UNL A   1      42.948  30.430  36.678  1.00  0.00     0.029 A 
ATOM     52  N   UNL A   1      41.536  30.750  34.992  1.00  0.00    -0.354 N 
ATOM     53  N   UNL A   1      39.309  32.052  33.602  1.00  0.00    -0.248 NA
ATOM     54  C   UNL A   1      37.548  33.588  33.580  1.00  0.00     0.031 C 
ATOM     55  C   UNL A   1      42.006  31.388  37.066  1.00  0.00     0.029 A 
ATOM     56  C   UNL A   1      41.154  31.621  36.000  1.00  0.00     0.049 A 
ATOM     57  H   UNL A   1      41.097  30.676  34.114  1.00  0.00     0.167 HD
ATOM     58  C   UNL A   1      39.277  32.729  34.818  1.00  0.00     0.074 A 
ATOM     59  C   UNL A   1      38.198  33.692  34.730  1.00  0.00     0.031 C 
ATOM     60  C   UNL A   1      40.074  32.574  35.906  1.00  0.00     0.031 A 
BRANCH  47  61
ATOM     61  C   UNL A   1      44.402  28.198  35.239  1.00  0.00    -0.014 A 
ATOM     62  C   UNL A   1      45.735  28.638  35.134  1.00  0.00     0.010 A 
ATOM     63  C   UNL A   1      44.129  27.027  35.969  1.00  0.00     0.010 A 
ATOM     64  C   UNL A   1      46.773  27.900  35.709  1.00  0.00     0.020 A 
ATOM     65  C   UNL A   1      45.161  26.305  36.577  1.00  0.00     0.020 A 
ATOM     66  C   UNL A   1      46.479  26.738  36.427  1.00  0.00     0.054 A 
BRANCH  66  67
ATOM     67  S   UNL A   1      47.845  25.812  37.180  1.00  0.00     0.124 S 
ATOM     68  O   UNL A   1      47.819  24.564  36.420  1.00  0.00    -0.237 OA
ATOM     69  O   UNL A   1      48.994  26.677  36.926  1.00  0.00    -0.237 OA
ATOM     70  O   UNL A   1      47.454  25.693  38.582  1.00  0.00    -0.744 OA
ENDBRANCH  66  67
ENDBRANCH  47  61
BRANCH  48  71
ATOM     71  C   UNL A   1      36.798  32.959  30.818  1.00  0.00    -0.014 A 
ATOM     72  C   UNL A   1      37.017  33.905  29.802  1.00  0.00     0.010 A 
ATOM     73  C   UNL A   1      35.478  32.692  31.227  1.00  0.00     0.010 A 
ATOM     74  C   UNL A   1      35.941  34.584  29.221  1.00  0.00     0.020 A 
ATOM     75  C   UNL A   1      34.397  33.341  30.625  1.00  0.00     0.020 A 
ATOM     76  C   UNL A   1      34.638  34.294  29.632  1.00  0.00     0.054 A 
BRANCH  76  77
ATOM     77  S   UNL A   1      33.256  35.150  28.827  1.00  0.00     0.124 S 
ATOM     78  O   UNL A   1      33.945  36.172  28.046  1.00  0.00    -0.237 OA
ATOM     79  O   UNL A   1      32.632  34.077  28.057  1.00  0.00    -0.237 OA
ATOM     80  O   UNL A   1      32.461  35.647  29.948  1.00  0.00    -0.744 OA
ENDBRANCH  76  77
ENDBRANCH  48  71
BRANCH  60  81
ATOM     81  C   UNL A   1      39.855  33.512  37.069  1.00  0.00    -0.014 A 
ATOM     82  C   UNL A   1      40.451  34.785  37.122  1.00  0.00     0.010 A 
ATOM     83  C   UNL A   1      39.013  33.111  38.123  1.00  0.00     0.010 A 
ATOM     84  C   UNL A   1      40.255  35.612  38.233  1.00  0.00     0.020 A 
ATOM     85  C   UNL A   1      38.781  33.950  39.215  1.00  0.00     0.020 A 
ATOM     86  C   UNL A   1      39.424  35.187  39.275  1.00  0.00     0.054 A 
BRANCH  86  87
ATOM     87  S   UNL A   1      39.182  36.281  40.701  1.00  0.00     0.124 S 
ATOM     88  O   UNL A   1      38.084  35.624  41.406  1.00  0.00    -0.237 OA
ATOM     89  O   UNL A   1      40.480  36.227  41.368  1.00  0.00    -0.237 OA
ATOM     90  O   UNL A   1      38.851  37.569  40.097  1.00  0.00    -0.744 OA
ENDBRANCH  86  87
ENDBRANCH  60  81
ENDBRANCH  34  35
ENDBRANCH  27  29
ENDBRANCH  26  27
ENDBRANCH  25  26
ENDBRANCH  24  25
ENDBRANCH   1  24
TORSDOF 20
ENDMDL
MODEL 2
REMARK VINA RESULT:      -9.6      5.244     10.353
REMARK SMILES N#Cc1cccc(C(=O)N2CCC(CC(=O)OCCOCCOC(=O)c3ccc(-c4c5nc(c(-c6ccc(S(=O)(=O)[O-])cc6)c6ccc([nH]6)c(-c6ccc(S(=O)(=O)[O-])cc6)c6nc(c(-c7ccc(S(=O)(=O)[O-])cc7)c7ccc4[nH]7)C=C6)C=C5)cc3)CC2)c1
REMARK SMILES IDX 20 1 19 2 18 3 17 4 15 5 16 6 14 7 13 8 8 9 9 10 10 11 11 12
REMARK SMILES IDX 87 13 12 14 86 15 7 16 3 17 4 18 88 19 5 20 6 21 2 22 1 23
REMARK SMILES IDX 21 24 22 25 23 26 24 27 25 28 26 29 27 30 85 31 28 32 84 33
REMARK SMILES IDX 29 34 30 35 31 36 78 37 32 38 83 39 77 40 79 41 33 42 82 43
REMARK SMILES IDX 76 44 75 45 34 47 64 48 45 49 63 50 46 51 49 52 62 53 80 54
REMARK SMILES IDX 47 55 48 56 61 58 81 59 50 60 35 61 36 62 44 63 37 64 43 65
REMARK SMILES IDX 38 66 39 67 40 68 41 69 42 70 65 71 66 72 74 73 67 74 73 75
REMARK SMILES IDX 68 76 69 77 70 78 71 79 72 80 51 81 52 82 60 83 53 84 59 85
REMARK SMILES IDX 54 86 55 87 56 88 57 89 58 90
REMARK H PARENT 79 46 49 57
REMARK Flexibility Score: inf
ROOT
ATOM      1  O   UNL A   1      35.192  23.310  24.636  1.00  0.00    -0.374 OA
ENDROOT
BRANCH   1   2
ATOM      2  C   UNL A   1      33.846  23.456  24.186  1.00  0.00     0.202 C 
BRANCH   2   3
ATOM      3  C   UNL A   1      33.614  23.707  22.694  1.00  0.00     0.261 C 
BRANCH   3   4
ATOM      4  O   UNL A   1      32.353  24.355  22.460  1.00  0.00    -0.463 OA
BRANCH   4   5
ATOM      5  C   UNL A   1      32.385  25.519  21.772  1.00  0.00     0.306 C 
ATOM      6  O   UNL A   1      33.157  25.768  20.853  1.00  0.00    -0.252 OA
BRANCH   5   7
ATOM      7  C   UNL A   1      31.362  26.527  22.263  1.00  0.00     0.126 C 
BRANCH   7   8
ATOM      8  C   UNL A   1      31.830  27.839  22.935  1.00  0.00     0.003 C 
ATOM      9  C   UNL A   1      33.344  29.036  26.533  1.00  0.00     0.253 C 
ATOM     10  O   UNL A   1      32.793  28.195  27.235  1.00  0.00    -0.269 OA
ATOM     11  N   UNL A   1      32.995  29.245  25.208  1.00  0.00    -0.339 N 
ATOM     12  C   UNL A   1      31.594  29.431  24.891  1.00  0.00     0.120 C 
ATOM     13  C   UNL A   1      33.873  28.874  24.111  1.00  0.00     0.120 C 
ATOM     14  C   UNL A   1      31.006  28.226  24.174  1.00  0.00     0.026 C 
ATOM     15  C   UNL A   1      33.320  27.682  23.327  1.00  0.00     0.026 C 
BRANCH   9  16
ATOM     16  C   UNL A   1      34.292  30.023  27.138  1.00  0.00     0.041 A 
ATOM     17  C   UNL A   1      34.757  32.086  28.336  1.00  0.00     0.053 A 
ATOM     18  C   UNL A   1      36.092  31.702  28.491  1.00  0.00     0.019 A 
ATOM     19  C   UNL A   1      33.859  31.246  27.669  1.00  0.00     0.033 A 
ATOM     20  C   UNL A   1      36.530  30.485  27.969  1.00  0.00     0.002 A 
ATOM     21  C   UNL A   1      35.636  29.651  27.292  1.00  0.00     0.014 A 
BRANCH  17  22
ATOM     22  C   UNL A   1      34.296  33.337  28.868  1.00  0.00     0.099 C 
ATOM     23  N   UNL A   1      33.930  34.359  29.272  1.00  0.00    -0.192 NA
ENDBRANCH  17  22
ENDBRANCH   9  16
ENDBRANCH   7   8
ENDBRANCH   5   7
ENDBRANCH   4   5
ENDBRANCH   3   4
ENDBRANCH   2   3
ENDBRANCH   1   2
BRANCH   1  24
ATOM     24  C   UNL A   1      35.772  22.009  24.610  1.00  0.00     0.202 C 
BRANCH  24  25
ATOM     25  C   UNL A   1      37.277  21.874  24.889  1.00  0.00     0.261 C 
BRANCH  25  26
ATOM     26  O   UNL A   1      37.673  22.426  26.156  1.00  0.00    -0.460 OA
BRANCH  26  27
ATOM     27  C   UNL A   1      39.007  22.340  26.392  1.00  0.00     0.338 C 
ATOM     28  O   UNL A   1      39.771  21.491  25.964  1.00  0.00    -0.246 OA
BRANCH  27  29
ATOM     29  C   UNL A   1      39.493  23.543  27.096  1.00  0.00     0.060 A 
ATOM     30  C   UNL A   1      38.890  24.761  26.760  1.00  0.00     0.016 A 
ATOM     31  C   UNL A   1      40.582  23.505  27.969  1.00  0.00     0.016 A 
ATOM     32  C   UNL A   1      39.434  25.957  27.215  1.00  0.00     0.010 A 
ATOM     33  C   UNL A   1      41.124  24.710  28.431  1.00  0.00     0.010 A 
ATOM     34  C   UNL A   1      40.591  25.942  28.003  1.00  0.00    -0.014 A 
BRANCH  34  35
ATOM     35  C   UNL A   1      41.335  27.212  28.211  1.00  0.00     0.031 A 
ATOM     36  C   UNL A   1      40.648  28.355  28.918  1.00  0.00     0.074 A 
ATOM     37  C   UNL A   1      42.625  27.324  27.847  1.00  0.00     0.049 A 
ATOM     38  N   UNL A   1      41.113  29.539  29.227  1.00  0.00    -0.248 NA
ATOM     39  C   UNL A   1      39.252  28.134  29.330  1.00  0.00     0.031 C 
ATOM     40  C   UNL A   1      43.415  26.276  27.203  1.00  0.00     0.029 A 
ATOM     41  N   UNL A   1      43.499  28.374  27.978  1.00  0.00    -0.354 N 
ATOM     42  C   UNL A   1      40.066  30.207  29.854  1.00  0.00     0.074 A 
ATOM     43  C   UNL A   1      38.930  29.313  29.842  1.00  0.00     0.031 C 
ATOM     44  C   UNL A   1      44.664  26.733  27.004  1.00  0.00     0.029 A 
ATOM     45  C   UNL A   1      44.749  28.116  27.468  1.00  0.00     0.049 A 
ATOM     46  H   UNL A   1      43.255  29.230  28.397  1.00  0.00     0.167 HD
ATOM     47  C   UNL A   1      40.053  31.446  30.400  1.00  0.00     0.031 A 
ATOM     48  C   UNL A   1      45.836  28.908  27.373  1.00  0.00     0.031 A 
ATOM     49  C   UNL A   1      41.184  32.337  30.400  1.00  0.00     0.049 A 
ATOM     50  C   UNL A   1      45.774  30.311  27.920  1.00  0.00     0.074 A 
ATOM     51  C   UNL A   1      41.277  33.609  30.939  1.00  0.00     0.029 A 
ATOM     52  N   UNL A   1      42.416  32.057  29.829  1.00  0.00    -0.354 N 
ATOM     53  N   UNL A   1      44.782  30.921  28.524  1.00  0.00    -0.248 NA
ATOM     54  C   UNL A   1      46.989  31.126  27.787  1.00  0.00     0.031 C 
ATOM     55  C   UNL A   1      42.538  34.125  30.628  1.00  0.00     0.029 A 
ATOM     56  C   UNL A   1      43.265  33.142  29.976  1.00  0.00     0.049 A 
ATOM     57  H   UNL A   1      42.653  31.211  29.383  1.00  0.00     0.167 HD
ATOM     58  C   UNL A   1      45.269  32.175  28.882  1.00  0.00     0.074 A 
ATOM     59  C   UNL A   1      46.647  32.228  28.438  1.00  0.00     0.031 C 
ATOM     60  C   UNL A   1      44.636  33.188  29.527  1.00  0.00     0.031 A 
BRANCH  47  61
ATOM     61  C   UNL A   1      38.758  31.929  31.010  1.00  0.00    -0.014 A 
ATOM     62  C   UNL A   1      37.957  31.087  31.803  1.00  0.00     0.010 A 
ATOM     63  C   UNL A   1      38.355  33.264  30.815  1.00  0.00     0.010 A 
ATOM     64  C   UNL A   1      36.759  31.555  32.349  1.00  0.00     0.020 A 
ATOM     65  C   UNL A   1      37.176  33.747  31.390  1.00  0.00     0.020 A 
ATOM     66  C   UNL A   1      36.377  32.883  32.139  1.00  0.00     0.054 A 
BRANCH  66  67
ATOM     67  S   UNL A   1      34.827  33.469  32.879  1.00  0.00     0.124 S 
ATOM     68  O   UNL A   1      33.843  32.583  32.260  1.00  0.00    -0.237 OA
ATOM     69  O   UNL A   1      35.055  33.255  34.305  1.00  0.00    -0.237 OA
ATOM     70  O   UNL A   1      34.751  34.868  32.465  1.00  0.00    -0.744 OA
ENDBRANCH  66  67
ENDBRANCH  47  61
BRANCH  48  71
ATOM     71  C   UNL A   1      47.077  28.395  26.728  1.00  0.00    -0.014 A 
ATOM     72  C   UNL A   1      48.171  27.971  27.503  1.00  0.00     0.010 A 
ATOM     73  C   UNL A   1      47.172  28.336  25.325  1.00  0.00     0.010 A 
ATOM     74  C   UNL A   1      49.342  27.517  26.887  1.00  0.00     0.020 A 
ATOM     75  C   UNL A   1      48.326  27.849  24.706  1.00  0.00     0.020 A 
ATOM     76  C   UNL A   1      49.410  27.452  25.493  1.00  0.00     0.054 A 
BRANCH  76  77
ATOM     77  S   UNL A   1      50.920  26.810  24.720  1.00  0.00     0.124 S 
ATOM     78  O   UNL A   1      51.086  25.527  25.394  1.00  0.00    -0.237 OA
ATOM     79  O   UNL A   1      50.543  26.743  23.310  1.00  0.00    -0.237 OA
ATOM     80  O   UNL A   1      51.926  27.821  25.041  1.00  0.00    -0.744 OA
ENDBRANCH  76  77
ENDBRANCH  48  71
BRANCH  60  81
ATOM     81  C   UNL A   1      45.446  34.420  29.853  1.00  0.00    -0.014 A 
ATOM     82  C   UNL A   1      45.503  35.525  28.985  1.00  0.00     0.010 A 
ATOM     83  C   UNL A   1      46.147  34.476  31.072  1.00  0.00     0.010 A 
ATOM     84  C   UNL A   1      46.294  36.634  29.302  1.00  0.00     0.020 A 
ATOM     85  C   UNL A   1      46.904  35.599  31.412  1.00  0.00     0.020 A 
ATOM     86  C   UNL A   1      46.993  36.662  30.514  1.00  0.00     0.054 A 
BRANCH  86  87
ATOM     87  S   UNL A   1      48.006  38.115  30.904  1.00  0.00     0.124 S 
ATOM     88  O   UNL A   1      48.665  37.703  32.140  1.00  0.00    -0.237 OA
ATOM     89  O   UNL A   1      48.873  38.223  29.734  1.00  0.00    -0.237 OA
ATOM     90  O   UNL A   1      47.027  39.190  31.049  1.00  0.00    -0.744 OA
ENDBRANCH  86  87
ENDBRANCH  60  81
ENDBRANCH  34  35
ENDBRANCH  27  29
ENDBRANCH  26  27
ENDBRANCH  25  26
ENDBRANCH  24  25
ENDBRANCH   1  24
TORSDOF 20
ENDMDL
MODEL 3
REMARK VINA RESULT:      -9.5      5.169      8.037
REMARK SMILES N#Cc1cccc(C(=O)N2CCC(CC(=O)OCCOCCOC(=O)c3ccc(-c4c5nc(c(-c6ccc(S(=O)(=O)[O-])cc6)c6ccc([nH]6)c(-c6ccc(S(=O)(=O)[O-])cc6)c6nc(c(-c7ccc(S(=O)(=O)[O-])cc7)c7ccc4[nH]7)C=C6)C=C5)cc3)CC2)c1
REMARK SMILES IDX 20 1 19 2 18 3 17 4 15 5 16 6 14 7 13 8 8 9 9 10 10 11 11 12
REMARK SMILES IDX 87 13 12 14 86 15 7 16 3 17 4 18 88 19 5 20 6 21 2 22 1 23
REMARK SMILES IDX 21 24 22 25 23 26 24 27 25 28 26 29 27 30 85 31 28 32 84 33
REMARK SMILES IDX 29 34 30 35 31 36 78 37 32 38 83 39 77 40 79 41 33 42 82 43
REMARK SMILES IDX 76 44 75 45 34 47 64 48 45 49 63 50 46 51 49 52 62 53 80 54
REMARK SMILES IDX 47 55 48 56 61 58 81 59 50 60 35 61 36 62 44 63 37 64 43 65
REMARK SMILES IDX 38 66 39 67 40 68 41 69 42 70 65 71 66 72 74 73 67 74 73 75
REMARK SMILES IDX 68 76 69 77 70 78 71 79 72 80 51 81 52 82 60 83 53 84 59 85
REMARK SMILES IDX 54 86 55 87 56 88 57 89 58 90
REMARK H PARENT 79 46 49 57
REMARK Flexibility Score: inf
ROOT
ATOM      1  O   UNL A   1      35.660  23.701  25.171  1.00  0.00    -0.374 OA
ENDROOT
BRANCH   1   2
ATOM      2  C   UNL A   1      34.289  23.823  24.800  1.00  0.00     0.202 C 
BRANCH   2   3
ATOM      3  C   UNL A   1      33.888  23.386  23.389  1.00  0.00     0.261 C 
BRANCH   3   4
ATOM      4  O   UNL A   1      32.599  23.906  23.024  1.00  0.00    -0.463 OA
BRANCH   4   5
ATOM      5  C   UNL A   1      32.555  24.722  21.946  1.00  0.00     0.306 C 
ATOM      6  O   UNL A   1      33.310  24.652  20.984  1.00  0.00    -0.252 OA
BRANCH   5   7
ATOM      7  C   UNL A   1      31.465  25.774  22.043  1.00  0.00     0.126 C 
BRANCH   7   8
ATOM      8  C   UNL A   1      31.778  27.157  22.662  1.00  0.00     0.003 C 
ATOM      9  C   UNL A   1      32.992  28.671  26.254  1.00  0.00     0.253 C 
ATOM     10  O   UNL A   1      32.485  27.819  26.976  1.00  0.00    -0.269 OA
ATOM     11  N   UNL A   1      32.693  28.779  24.906  1.00  0.00    -0.339 N 
ATOM     12  C   UNL A   1      31.300  28.817  24.514  1.00  0.00     0.120 C 
ATOM     13  C   UNL A   1      33.656  28.436  23.871  1.00  0.00     0.120 C 
ATOM     14  C   UNL A   1      30.860  27.527  23.839  1.00  0.00     0.026 C 
ATOM     15  C   UNL A   1      33.254  27.159  23.130  1.00  0.00     0.026 C 
BRANCH   9  16
ATOM     16  C   UNL A   1      33.815  29.771  26.847  1.00  0.00     0.041 A 
ATOM     17  C   UNL A   1      34.040  31.977  27.844  1.00  0.00     0.053 A 
ATOM     18  C   UNL A   1      35.361  31.689  28.195  1.00  0.00     0.019 A 
ATOM     19  C   UNL A   1      33.267  31.017  27.179  1.00  0.00     0.033 A 
ATOM     20  C   UNL A   1      35.913  30.449  27.872  1.00  0.00     0.002 A 
ATOM     21  C   UNL A   1      35.146  29.496  27.197  1.00  0.00     0.014 A 
BRANCH  17  22
ATOM     22  C   UNL A   1      33.462  33.249  28.170  1.00  0.00     0.099 C 
ATOM     23  N   UNL A   1      33.017  34.289  28.417  1.00  0.00    -0.192 NA
ENDBRANCH  17  22
ENDBRANCH   9  16
ENDBRANCH   7   8
ENDBRANCH   5   7
ENDBRANCH   4   5
ENDBRANCH   3   4
ENDBRANCH   2   3
ENDBRANCH   1   2
BRANCH   1  24
ATOM     24  C   UNL A   1      36.266  22.414  25.093  1.00  0.00     0.202 C 
BRANCH  24  25
ATOM     25  C   UNL A   1      37.793  22.316  25.229  1.00  0.00     0.261 C 
BRANCH  25  26
ATOM     26  O   UNL A   1      38.259  22.512  26.575  1.00  0.00    -0.460 OA
BRANCH  26  27
ATOM     27  C   UNL A   1      39.609  22.607  26.674  1.00  0.00     0.338 C 
ATOM     28  O   UNL A   1      40.434  21.904  26.113  1.00  0.00    -0.246 OA
BRANCH  27  29
ATOM     29  C   UNL A   1      39.996  23.825  27.412  1.00  0.00     0.060 A 
ATOM     30  C   UNL A   1      39.201  24.962  27.220  1.00  0.00     0.016 A 
ATOM     31  C   UNL A   1      41.164  23.894  28.174  1.00  0.00     0.016 A 
ATOM     32  C   UNL A   1      39.621  26.195  27.705  1.00  0.00     0.010 A 
ATOM     33  C   UNL A   1      41.581  25.136  28.667  1.00  0.00     0.010 A 
ATOM     34  C   UNL A   1      40.844  26.302  28.379  1.00  0.00    -0.014 A 
BRANCH  34  35
ATOM     35  C   UNL A   1      41.424  27.651  28.605  1.00  0.00     0.031 A 
ATOM     36  C   UNL A   1      42.839  27.924  28.157  1.00  0.00     0.074 A 
ATOM     37  C   UNL A   1      40.683  28.642  29.132  1.00  0.00     0.049 A 
ATOM     38  N   UNL A   1      43.535  29.030  28.232  1.00  0.00    -0.248 NA
ATOM     39  C   UNL A   1      43.567  26.800  27.544  1.00  0.00     0.031 C 
ATOM     40  C   UNL A   1      39.289  28.520  29.557  1.00  0.00     0.029 A 
ATOM     41  N   UNL A   1      41.000  29.952  29.388  1.00  0.00    -0.354 N 
ATOM     42  C   UNL A   1      44.782  28.732  27.692  1.00  0.00     0.074 A 
ATOM     43  C   UNL A   1      44.762  27.332  27.333  1.00  0.00     0.031 C 
ATOM     44  C   UNL A   1      38.867  29.713  30.013  1.00  0.00     0.029 A 
ATOM     45  C   UNL A   1      39.970  30.669  29.950  1.00  0.00     0.049 A 
ATOM     46  H   UNL A   1      41.881  30.342  29.189  1.00  0.00     0.167 HD
ATOM     47  C   UNL A   1      45.844  29.551  27.500  1.00  0.00     0.031 A 
ATOM     48  C   UNL A   1      39.925  31.946  30.377  1.00  0.00     0.031 A 
ATOM     49  C   UNL A   1      45.863  30.943  27.869  1.00  0.00     0.049 A 
ATOM     50  C   UNL A   1      41.144  32.818  30.224  1.00  0.00     0.074 A 
ATOM     51  C   UNL A   1      46.885  31.862  27.704  1.00  0.00     0.029 A 
ATOM     52  N   UNL A   1      44.817  31.617  28.481  1.00  0.00    -0.354 N 
ATOM     53  N   UNL A   1      42.310  32.526  29.695  1.00  0.00    -0.248 NA
ATOM     54  C   UNL A   1      41.033  34.200  30.708  1.00  0.00     0.031 C 
ATOM     55  C   UNL A   1      46.485  33.069  28.285  1.00  0.00     0.029 A 
ATOM     56  C   UNL A   1      45.180  32.931  28.728  1.00  0.00     0.049 A 
ATOM     57  H   UNL A   1      43.945  31.220  28.707  1.00  0.00     0.167 HD
ATOM     58  C   UNL A   1      43.054  33.701  29.746  1.00  0.00     0.074 A 
ATOM     59  C   UNL A   1      42.200  34.708  30.342  1.00  0.00     0.031 C 
ATOM     60  C   UNL A   1      44.325  33.928  29.327  1.00  0.00     0.031 A 
BRANCH  47  61
ATOM     61  C   UNL A   1      47.092  28.951  26.898  1.00  0.00    -0.014 A 
ATOM     62  C   UNL A   1      48.309  28.918  27.602  1.00  0.00     0.010 A 
ATOM     63  C   UNL A   1      47.034  28.377  25.614  1.00  0.00     0.010 A 
ATOM     64  C   UNL A   1      49.452  28.365  27.019  1.00  0.00     0.020 A 
ATOM     65  C   UNL A   1      48.166  27.790  25.041  1.00  0.00     0.020 A 
ATOM     66  C   UNL A   1      49.373  27.804  25.741  1.00  0.00     0.054 A 
BRANCH  66  67
ATOM     67  S   UNL A   1      50.868  27.074  25.018  1.00  0.00     0.124 S 
ATOM     68  O   UNL A   1      51.922  27.679  25.829  1.00  0.00    -0.237 OA
ATOM     69  O   UNL A   1      50.657  25.644  25.228  1.00  0.00    -0.237 OA
ATOM     70  O   UNL A   1      50.829  27.509  23.624  1.00  0.00    -0.744 OA
ENDBRANCH  66  67
ENDBRANCH  47  61
BRANCH  48  71
ATOM     71  C   UNL A   1      38.680  32.479  30.999  1.00  0.00    -0.014 A 
ATOM     72  C   UNL A   1      37.781  33.265  30.257  1.00  0.00     0.010 A 
ATOM     73  C   UNL A   1      38.391  32.205  32.349  1.00  0.00     0.010 A 
ATOM     74  C   UNL A   1      36.629  33.784  30.857  1.00  0.00     0.020 A 
ATOM     75  C   UNL A   1      37.223  32.691  32.943  1.00  0.00     0.020 A 
ATOM     76  C   UNL A   1      36.354  33.488  32.194  1.00  0.00     0.054 A 
BRANCH  76  77
ATOM     77  S   UNL A   1      34.827  34.128  32.935  1.00  0.00     0.124 S 
ATOM     78  O   UNL A   1      35.232  35.463  33.362  1.00  0.00    -0.237 OA
ATOM     79  O   UNL A   1      33.892  34.076  31.814  1.00  0.00    -0.237 OA
ATOM     80  O   UNL A   1      34.547  33.183  34.014  1.00  0.00    -0.744 OA
ENDBRANCH  76  77
ENDBRANCH  48  71
BRANCH  60  81
ATOM     81  C   UNL A   1      44.854  35.338  29.438  1.00  0.00    -0.014 A 
ATOM     82  C   UNL A   1      44.672  36.284  28.413  1.00  0.00     0.010 A 
ATOM     83  C   UNL A   1      45.529  35.727  30.611  1.00  0.00     0.010 A 
ATOM     84  C   UNL A   1      45.208  37.571  28.535  1.00  0.00     0.020 A 
ATOM     85  C   UNL A   1      46.029  37.023  30.754  1.00  0.00     0.020 A 
ATOM     86  C   UNL A   1      45.887  37.931  29.704  1.00  0.00     0.054 A 
BRANCH  86  87
ATOM     87  S   UNL A   1      46.566  39.607  29.839  1.00  0.00     0.124 S 
ATOM     88  O   UNL A   1      47.294  39.742  28.580  1.00  0.00    -0.237 OA
ATOM     89  O   UNL A   1      45.364  40.428  29.963  1.00  0.00    -0.237 OA
ATOM     90  O   UNL A   1      47.400  39.547  31.037  1.00  0.00    -0.744 OA
ENDBRANCH  86  87
ENDBRANCH  60  81
ENDBRANCH  34  35
ENDBRANCH  27  29
ENDBRANCH  26  27
ENDBRANCH  25  26
ENDBRANCH  24  25
ENDBRANCH   1  24
TORSDOF 20
ENDMDL
