MODEL 1
REMARK VINA RESULT:     -10.5      0.000      0.000
REMARK SMILES O=C(CC[NH+]1CCN(C(=O)c2n[nH]c3ccccc23)CC1)OCCOCCOC(=O)c1ccc(-c2c3nc(c(-c4ccc(S(=O)(=O)[O-])cc4)c4ccc([nH]4)c(-c4ccc(S(=O)(=O)[O-])cc4)c4nc(c(-c5ccc(S(=O)(=O)[O-])cc5)c5ccc2[nH]5)C=C4)C=C3)cc1
REMARK SMILES IDX 25 1 24 2 23 3 22 4 2 5 1 6 3 7 4 8 5 9 6 10 21 11 7 13
REMARK SMILES IDX 20 14 8 15 9 16 10 17 11 18 12 19 19 20 13 21 14 22 18 23
REMARK SMILES IDX 15 25 17 26 16 27 26 28 27 29 28 30 29 31 30 32 31 33 32 34
REMARK SMILES IDX 90 35 33 36 89 37 34 38 35 39 36 40 83 41 37 42 88 43 82 44
REMARK SMILES IDX 84 45 38 46 87 47 81 48 80 49 39 51 69 52 50 53 68 54 51 55
REMARK SMILES IDX 54 56 67 57 85 58 52 59 53 60 66 62 86 63 55 64 40 65 41 66
REMARK SMILES IDX 49 67 42 68 48 69 43 70 44 71 45 72 46 73 47 74 70 75 71 76
REMARK SMILES IDX 79 77 72 78 78 79 73 80 74 81 75 82 76 83 77 84 56 85 57 86
REMARK SMILES IDX 65 87 58 88 64 89 59 90 60 91 61 92 62 93 63 94
REMARK H PARENT 5 12 13 24 84 50 54 61
REMARK Flexibility Score: inf
ROOT
ATOM      1  O   UNL A   1      37.422  20.524  25.455  1.00  0.00    -0.374 OA
ENDROOT
BRANCH   1   2
ATOM      2  C   UNL A   1      36.197  21.184  25.158  1.00  0.00     0.202 C 
BRANCH   2   3
ATOM      3  C   UNL A   1      35.156  21.321  26.272  1.00  0.00     0.261 C 
BRANCH   3   4
ATOM      4  O   UNL A   1      33.791  21.427  25.854  1.00  0.00    -0.463 OA
BRANCH   4   5
ATOM      5  C   UNL A   1      33.235  20.624  24.923  1.00  0.00     0.311 C 
ATOM      6  O   UNL A   1      33.355  19.402  25.020  1.00  0.00    -0.252 OA
BRANCH   5   7
ATOM      7  C   UNL A   1      32.600  21.226  23.692  1.00  0.00     0.184 C 
BRANCH   7   8
ATOM      8  C   UNL A   1      32.042  22.623  23.898  1.00  0.00     0.274 C 
BRANCH   8   9
ATOM      9  N   UNL A   1      33.096  23.586  24.230  1.00  0.00    -0.332 N 
ATOM     10  C   UNL A   1      33.971  23.954  23.090  1.00  0.00     0.284 C 
ATOM     11  C   UNL A   1      32.545  24.794  24.873  1.00  0.00     0.284 C 
ATOM     12  H   UNL A   1      33.695  23.097  24.895  1.00  0.00     0.348 HD
ATOM     13  C   UNL A   1      33.394  25.009  22.116  1.00  0.00     0.181 C 
ATOM     14  C   UNL A   1      31.824  25.703  23.874  1.00  0.00     0.181 C 
ATOM     15  N   UNL A   1      32.774  26.119  22.839  1.00  0.00    -0.326 N 
ATOM     16  C   UNL A   1      33.152  27.439  22.582  1.00  0.00     0.275 C 
ATOM     17  O   UNL A   1      33.965  27.732  21.706  1.00  0.00    -0.267 OA
BRANCH  16  18
ATOM     18  C   UNL A   1      32.519  28.466  23.421  1.00  0.00     0.157 A 
ATOM     19  N   UNL A   1      31.346  29.031  23.073  1.00  0.00    -0.169 NA
ATOM     20  C   UNL A   1      32.927  28.875  24.729  1.00  0.00     0.033 A 
ATOM     21  N   UNL A   1      31.019  29.775  24.142  1.00  0.00    -0.277 N 
ATOM     22  C   UNL A   1      31.891  29.678  25.189  1.00  0.00     0.066 A 
ATOM     23  C   UNL A   1      34.006  28.595  25.591  1.00  0.00     0.013 A 
ATOM     24  H   UNL A   1      30.215  30.344  24.167  1.00  0.00     0.190 HD
ATOM     25  C   UNL A   1      31.849  30.204  26.484  1.00  0.00     0.028 A 
ATOM     26  C   UNL A   1      33.980  29.103  26.895  1.00  0.00     0.001 A 
ATOM     27  C   UNL A   1      32.913  29.887  27.334  1.00  0.00     0.002 A 
ENDBRANCH  16  18
ENDBRANCH   8   9
ENDBRANCH   7   8
ENDBRANCH   5   7
ENDBRANCH   4   5
ENDBRANCH   3   4
ENDBRANCH   2   3
ENDBRANCH   1   2
BRANCH   1  28
ATOM     28  C   UNL A   1      38.601  21.322  25.324  1.00  0.00     0.202 C 
BRANCH  28  29
ATOM     29  C   UNL A   1      39.603  21.141  26.468  1.00  0.00     0.261 C 
BRANCH  29  30
ATOM     30  O   UNL A   1      40.268  19.871  26.361  1.00  0.00    -0.460 OA
BRANCH  30  31
ATOM     31  C   UNL A   1      41.578  19.921  26.011  1.00  0.00     0.338 C 
ATOM     32  O   UNL A   1      42.178  19.144  25.285  1.00  0.00    -0.246 OA
BRANCH  31  33
ATOM     33  C   UNL A   1      42.128  21.223  26.455  1.00  0.00     0.060 A 
ATOM     34  C   UNL A   1      42.290  22.231  25.493  1.00  0.00     0.016 A 
ATOM     35  C   UNL A   1      42.409  21.475  27.799  1.00  0.00     0.016 A 
ATOM     36  C   UNL A   1      42.752  23.492  25.871  1.00  0.00     0.010 A 
ATOM     37  C   UNL A   1      42.888  22.732  28.173  1.00  0.00     0.010 A 
ATOM     38  C   UNL A   1      43.080  23.738  27.210  1.00  0.00    -0.014 A 
BRANCH  38  39
ATOM     39  C   UNL A   1      43.771  24.985  27.607  1.00  0.00     0.031 A 
ATOM     40  C   UNL A   1      42.945  26.095  28.191  1.00  0.00     0.074 A 
ATOM     41  C   UNL A   1      45.089  25.149  27.389  1.00  0.00     0.049 A 
ATOM     42  N   UNL A   1      43.285  27.329  28.454  1.00  0.00    -0.248 NA
ATOM     43  C   UNL A   1      41.541  25.775  28.507  1.00  0.00     0.031 C 
ATOM     44  C   UNL A   1      45.995  24.132  26.857  1.00  0.00     0.029 A 
ATOM     45  N   UNL A   1      45.886  26.255  27.555  1.00  0.00    -0.354 N 
ATOM     46  C   UNL A   1      42.133  27.939  28.935  1.00  0.00     0.074 A 
ATOM     47  C   UNL A   1      41.084  26.945  28.928  1.00  0.00     0.031 C 
ATOM     48  C   UNL A   1      47.218  24.672  26.706  1.00  0.00     0.029 A 
ATOM     49  C   UNL A   1      47.169  26.083  27.088  1.00  0.00     0.049 A 
ATOM     50  H   UNL A   1      45.571  27.091  27.969  1.00  0.00     0.167 HD
ATOM     51  C   UNL A   1      41.968  29.220  29.337  1.00  0.00     0.031 A 
ATOM     52  C   UNL A   1      48.169  26.975  26.941  1.00  0.00     0.031 A 
ATOM     53  C   UNL A   1      43.018  30.201  29.340  1.00  0.00     0.049 A 
ATOM     54  C   UNL A   1      47.938  28.412  27.337  1.00  0.00     0.074 A 
ATOM     55  C   UNL A   1      42.964  31.510  29.783  1.00  0.00     0.029 A 
ATOM     56  N   UNL A   1      44.301  29.987  28.865  1.00  0.00    -0.354 N 
ATOM     57  N   UNL A   1      46.863  28.962  27.852  1.00  0.00    -0.248 NA
ATOM     58  C   UNL A   1      49.050  29.351  27.127  1.00  0.00     0.031 C 
ATOM     59  C   UNL A   1      44.198  32.109  29.512  1.00  0.00     0.029 A 
ATOM     60  C   UNL A   1      45.037  31.154  28.961  1.00  0.00     0.049 A 
ATOM     61  H   UNL A   1      44.639  29.132  28.513  1.00  0.00     0.167 HD
ATOM     62  C   UNL A   1      47.178  30.304  28.044  1.00  0.00     0.074 A 
ATOM     63  C   UNL A   1      48.549  30.479  27.612  1.00  0.00     0.031 C 
ATOM     64  C   UNL A   1      46.403  31.305  28.530  1.00  0.00     0.031 A 
BRANCH  51  65
ATOM     65  C   UNL A   1      40.595  29.654  29.768  1.00  0.00    -0.014 A 
ATOM     66  C   UNL A   1      40.275  29.829  31.125  1.00  0.00     0.010 A 
ATOM     67  C   UNL A   1      39.637  29.975  28.789  1.00  0.00     0.010 A 
ATOM     68  C   UNL A   1      39.016  30.311  31.496  1.00  0.00     0.020 A 
ATOM     69  C   UNL A   1      38.386  30.478  29.154  1.00  0.00     0.020 A 
ATOM     70  C   UNL A   1      38.082  30.638  30.507  1.00  0.00     0.054 A 
BRANCH  70  71
ATOM     71  S   UNL A   1      36.485  31.331  31.015  1.00  0.00     0.124 S 
ATOM     72  O   UNL A   1      35.708  31.235  29.782  1.00  0.00    -0.237 OA
ATOM     73  O   UNL A   1      36.074  30.428  32.088  1.00  0.00    -0.237 OA
ATOM     74  O   UNL A   1      36.814  32.689  31.440  1.00  0.00    -0.744 OA
ENDBRANCH  70  71
ENDBRANCH  51  65
BRANCH  52  75
ATOM     75  C   UNL A   1      49.465  26.562  26.329  1.00  0.00    -0.014 A 
ATOM     76  C   UNL A   1      50.451  25.916  27.094  1.00  0.00     0.010 A 
ATOM     77  C   UNL A   1      49.734  26.856  24.978  1.00  0.00     0.010 A 
ATOM     78  C   UNL A   1      51.692  25.601  26.531  1.00  0.00     0.020 A 
ATOM     79  C   UNL A   1      50.961  26.515  24.403  1.00  0.00     0.020 A 
ATOM     80  C   UNL A   1      51.940  25.904  25.188  1.00  0.00     0.054 A 
BRANCH  80  81
ATOM     81  S   UNL A   1      53.548  25.464  24.473  1.00  0.00     0.124 S 
ATOM     82  O   UNL A   1      53.633  24.038  24.773  1.00  0.00    -0.237 OA
ATOM     83  O   UNL A   1      53.370  25.805  23.063  1.00  0.00    -0.237 OA
ATOM     84  O   UNL A   1      54.488  26.315  25.199  1.00  0.00    -0.744 OA
ENDBRANCH  80  81
ENDBRANCH  52  75
BRANCH  64  85
ATOM     85  C   UNL A   1      47.017  32.674  28.644  1.00  0.00    -0.014 A 
ATOM     86  C   UNL A   1      47.753  33.045  29.783  1.00  0.00     0.010 A 
ATOM     87  C   UNL A   1      46.930  33.568  27.560  1.00  0.00     0.010 A 
ATOM     88  C   UNL A   1      48.377  34.294  29.842  1.00  0.00     0.020 A 
ATOM     89  C   UNL A   1      47.577  34.805  27.605  1.00  0.00     0.020 A 
ATOM     90  C   UNL A   1      48.289  35.164  28.751  1.00  0.00     0.054 A 
BRANCH  90  91
ATOM     91  S   UNL A   1      49.165  36.750  28.828  1.00  0.00     0.124 S 
ATOM     92  O   UNL A   1      48.914  37.169  30.204  1.00  0.00    -0.237 OA
ATOM     93  O   UNL A   1      50.543  36.371  28.527  1.00  0.00    -0.237 OA
ATOM     94  O   UNL A   1      48.510  37.558  27.802  1.00  0.00    -0.744 OA
ENDBRANCH  90  91
ENDBRANCH  64  85
ENDBRANCH  38  39
ENDBRANCH  31  33
ENDBRANCH  30  31
ENDBRANCH  29  30
ENDBRANCH  28  29
ENDBRANCH   1  28
TORSDOF 20
ENDMDL
MODEL 2
REMARK VINA RESULT:     -10.5      5.599      8.622
REMARK SMILES O=C(CC[NH+]1CCN(C(=O)c2n[nH]c3ccccc23)CC1)OCCOCCOC(=O)c1ccc(-c2c3nc(c(-c4ccc(S(=O)(=O)[O-])cc4)c4ccc([nH]4)c(-c4ccc(S(=O)(=O)[O-])cc4)c4nc(c(-c5ccc(S(=O)(=O)[O-])cc5)c5ccc2[nH]5)C=C4)C=C3)cc1
REMARK SMILES IDX 25 1 24 2 23 3 22 4 2 5 1 6 3 7 4 8 5 9 6 10 21 11 7 13
REMARK SMILES IDX 20 14 8 15 9 16 10 17 11 18 12 19 19 20 13 21 14 22 18 23
REMARK SMILES IDX 15 25 17 26 16 27 26 28 27 29 28 30 29 31 30 32 31 33 32 34
REMARK SMILES IDX 90 35 33 36 89 37 34 38 35 39 36 40 83 41 37 42 88 43 82 44
REMARK SMILES IDX 84 45 38 46 87 47 81 48 80 49 39 51 69 52 50 53 68 54 51 55
REMARK SMILES IDX 54 56 67 57 85 58 52 59 53 60 66 62 86 63 55 64 40 65 41 66
REMARK SMILES IDX 49 67 42 68 48 69 43 70 44 71 45 72 46 73 47 74 70 75 71 76
REMARK SMILES IDX 79 77 72 78 78 79 73 80 74 81 75 82 76 83 77 84 56 85 57 86
REMARK SMILES IDX 65 87 58 88 64 89 59 90 60 91 61 92 62 93 63 94
REMARK H PARENT 5 12 13 24 84 50 54 61
REMARK Flexibility Score: inf
ROOT
ATOM      1  O   UNL A   1      43.116  21.948  25.505  1.00  0.00    -0.374 OA
ENDROOT
BRANCH   1   2
ATOM      2  C   UNL A   1      41.885  22.298  26.128  1.00  0.00     0.202 C 
BRANCH   2   3
ATOM      3  C   UNL A   1      40.901  21.178  26.472  1.00  0.00     0.261 C 
BRANCH   3   4
ATOM      4  O   UNL A   1      39.558  21.350  26.009  1.00  0.00    -0.463 OA
BRANCH   4   5
ATOM      5  C   UNL A   1      38.835  22.469  26.226  1.00  0.00     0.311 C 
ATOM      6  O   UNL A   1      39.135  23.220  27.155  1.00  0.00    -0.252 OA
BRANCH   5   7
ATOM      7  C   UNL A   1      37.577  22.719  25.429  1.00  0.00     0.184 C 
BRANCH   7   8
ATOM      8  C   UNL A   1      36.473  21.705  25.671  1.00  0.00     0.274 C 
BRANCH   8   9
ATOM      9  N   UNL A   1      35.407  21.813  24.670  1.00  0.00    -0.332 N 
ATOM     10  C   UNL A   1      34.366  20.760  24.768  1.00  0.00     0.284 C 
ATOM     11  C   UNL A   1      34.792  23.153  24.674  1.00  0.00     0.284 C 
ATOM     12  H   UNL A   1      35.873  21.661  23.776  1.00  0.00     0.348 HD
ATOM     13  C   UNL A   1      33.288  20.984  25.856  1.00  0.00     0.181 C 
ATOM     14  C   UNL A   1      33.880  23.368  25.885  1.00  0.00     0.181 C 
ATOM     15  N   UNL A   1      32.812  22.366  25.858  1.00  0.00    -0.326 N 
ATOM     16  C   UNL A   1      31.448  22.651  25.759  1.00  0.00     0.275 C 
ATOM     17  O   UNL A   1      30.591  21.769  25.729  1.00  0.00    -0.267 OA
BRANCH  16  18
ATOM     18  C   UNL A   1      31.090  24.075  25.693  1.00  0.00     0.157 A 
ATOM     19  N   UNL A   1      30.884  24.799  26.811  1.00  0.00    -0.169 NA
ATOM     20  C   UNL A   1      31.074  24.901  24.526  1.00  0.00     0.033 A 
ATOM     21  N   UNL A   1      30.748  26.056  26.359  1.00  0.00    -0.277 N 
ATOM     22  C   UNL A   1      30.912  26.194  25.009  1.00  0.00     0.066 A 
ATOM     23  C   UNL A   1      31.256  24.709  23.142  1.00  0.00     0.013 A 
ATOM     24  H   UNL A   1      30.547  26.816  26.952  1.00  0.00     0.190 HD
ATOM     25  C   UNL A   1      30.946  27.326  24.189  1.00  0.00     0.028 A 
ATOM     26  C   UNL A   1      31.305  25.829  22.304  1.00  0.00     0.001 A 
ATOM     27  C   UNL A   1      31.161  27.116  22.823  1.00  0.00     0.002 A 
ENDBRANCH  16  18
ENDBRANCH   8   9
ENDBRANCH   7   8
ENDBRANCH   5   7
ENDBRANCH   4   5
ENDBRANCH   3   4
ENDBRANCH   2   3
ENDBRANCH   1   2
BRANCH   1  28
ATOM     28  C   UNL A   1      44.184  22.881  25.679  1.00  0.00     0.202 C 
BRANCH  28  29
ATOM     29  C   UNL A   1      43.933  23.914  26.781  1.00  0.00     0.261 C 
BRANCH  29  30
ATOM     30  O   UNL A   1      44.076  25.248  26.267  1.00  0.00    -0.460 OA
BRANCH  30  31
ATOM     31  C   UNL A   1      42.918  25.887  25.961  1.00  0.00     0.338 C 
ATOM     32  O   UNL A   1      42.253  25.763  24.945  1.00  0.00    -0.246 OA
BRANCH  31  33
ATOM     33  C   UNL A   1      42.444  26.595  27.172  1.00  0.00     0.060 A 
ATOM     34  C   UNL A   1      43.076  27.798  27.522  1.00  0.00     0.016 A 
ATOM     35  C   UNL A   1      41.353  26.129  27.909  1.00  0.00     0.016 A 
ATOM     36  C   UNL A   1      42.630  28.530  28.622  1.00  0.00     0.010 A 
ATOM     37  C   UNL A   1      40.919  26.853  29.020  1.00  0.00     0.010 A 
ATOM     38  C   UNL A   1      41.567  28.045  29.393  1.00  0.00    -0.014 A 
BRANCH  38  39
ATOM     39  C   UNL A   1      41.210  28.679  30.682  1.00  0.00     0.031 A 
ATOM     40  C   UNL A   1      40.049  29.632  30.702  1.00  0.00     0.074 A 
ATOM     41  C   UNL A   1      41.945  28.465  31.789  1.00  0.00     0.049 A 
ATOM     42  N   UNL A   1      39.652  30.432  31.656  1.00  0.00    -0.248 NA
ATOM     43  C   UNL A   1      39.233  29.702  29.477  1.00  0.00     0.031 C 
ATOM     44  C   UNL A   1      43.072  27.540  31.894  1.00  0.00     0.029 A 
ATOM     45  N   UNL A   1      41.870  29.046  33.031  1.00  0.00    -0.354 N 
ATOM     46  C   UNL A   1      38.565  31.122  31.136  1.00  0.00     0.074 A 
ATOM     47  C   UNL A   1      38.361  30.650  29.785  1.00  0.00     0.031 C 
ATOM     48  C   UNL A   1      43.608  27.643  33.123  1.00  0.00     0.029 A 
ATOM     49  C   UNL A   1      42.889  28.671  33.875  1.00  0.00     0.049 A 
ATOM     50  H   UNL A   1      41.155  29.671  33.292  1.00  0.00     0.167 HD
ATOM     51  C   UNL A   1      37.811  32.072  31.734  1.00  0.00     0.031 A 
ATOM     52  C   UNL A   1      43.230  29.142  35.092  1.00  0.00     0.031 A 
ATOM     53  C   UNL A   1      38.021  32.534  33.078  1.00  0.00     0.049 A 
ATOM     54  C   UNL A   1      42.410  30.247  35.709  1.00  0.00     0.074 A 
ATOM     55  C   UNL A   1      37.274  33.453  33.794  1.00  0.00     0.029 A 
ATOM     56  N   UNL A   1      39.059  32.128  33.900  1.00  0.00    -0.354 N 
ATOM     57  N   UNL A   1      41.343  30.846  35.233  1.00  0.00    -0.248 NA
ATOM     58  C   UNL A   1      42.842  30.746  37.024  1.00  0.00     0.031 C 
ATOM     59  C   UNL A   1      37.902  33.653  35.027  1.00  0.00     0.029 A 
ATOM     60  C   UNL A   1      39.001  32.812  35.101  1.00  0.00     0.049 A 
ATOM     61  H   UNL A   1      39.736  31.454  33.665  1.00  0.00     0.167 HD
ATOM     62  C   UNL A   1      40.968  31.776  36.199  1.00  0.00     0.074 A 
ATOM     63  C   UNL A   1      41.906  31.646  37.293  1.00  0.00     0.031 C 
ATOM     64  C   UNL A   1      39.942  32.663  36.181  1.00  0.00     0.031 A 
BRANCH  51  65
ATOM     65  C   UNL A   1      36.712  32.712  30.931  1.00  0.00    -0.014 A 
ATOM     66  C   UNL A   1      35.366  32.354  31.118  1.00  0.00     0.010 A 
ATOM     67  C   UNL A   1      37.030  33.751  30.038  1.00  0.00     0.010 A 
ATOM     68  C   UNL A   1      34.356  33.021  30.418  1.00  0.00     0.020 A 
ATOM     69  C   UNL A   1      36.022  34.435  29.353  1.00  0.00     0.020 A 
ATOM     70  C   UNL A   1      34.691  34.061  29.544  1.00  0.00     0.054 A 
BRANCH  70  71
ATOM     71  S   UNL A   1      33.355  34.956  28.706  1.00  0.00     0.124 S 
ATOM     72  O   UNL A   1      32.574  35.458  29.834  1.00  0.00    -0.237 OA
ATOM     73  O   UNL A   1      34.081  35.970  27.944  1.00  0.00    -0.237 OA
ATOM     74  O   UNL A   1      32.698  33.928  27.902  1.00  0.00    -0.744 OA
ENDBRANCH  70  71
ENDBRANCH  51  65
BRANCH  52  75
ATOM     75  C   UNL A   1      44.443  28.625  35.789  1.00  0.00    -0.014 A 
ATOM     76  C   UNL A   1      45.728  29.050  35.412  1.00  0.00     0.010 A 
ATOM     77  C   UNL A   1      44.316  27.666  36.812  1.00  0.00     0.010 A 
ATOM     78  C   UNL A   1      46.863  28.504  36.020  1.00  0.00     0.020 A 
ATOM     79  C   UNL A   1      45.446  27.140  37.444  1.00  0.00     0.020 A 
ATOM     80  C   UNL A   1      46.714  27.550  37.031  1.00  0.00     0.054 A 
BRANCH  80  81
ATOM     81  S   UNL A   1      48.200  26.873  37.823  1.00  0.00     0.124 S 
ATOM     82  O   UNL A   1      47.768  25.524  38.174  1.00  0.00    -0.237 OA
ATOM     83  O   UNL A   1      49.194  26.962  36.756  1.00  0.00    -0.237 OA
ATOM     84  O   UNL A   1      48.425  27.773  38.951  1.00  0.00    -0.744 OA
ENDBRANCH  80  81
ENDBRANCH  52  75
BRANCH  64  85
ATOM     85  C   UNL A   1      39.760  33.548  37.384  1.00  0.00    -0.014 A 
ATOM     86  C   UNL A   1      40.179  34.889  37.367  1.00  0.00     0.010 A 
ATOM     87  C   UNL A   1      39.082  33.054  38.515  1.00  0.00     0.010 A 
ATOM     88  C   UNL A   1      39.937  35.718  38.466  1.00  0.00     0.020 A 
ATOM     89  C   UNL A   1      38.814  33.886  39.603  1.00  0.00     0.020 A 
ATOM     90  C   UNL A   1      39.253  35.212  39.576  1.00  0.00     0.054 A 
BRANCH  90  91
ATOM     91  S   UNL A   1      38.893  36.326  40.961  1.00  0.00     0.124 S 
ATOM     92  O   UNL A   1      38.471  37.542  40.269  1.00  0.00    -0.237 OA
ATOM     93  O   UNL A   1      37.839  35.615  41.680  1.00  0.00    -0.237 OA
ATOM     94  O   UNL A   1      40.167  36.423  41.669  1.00  0.00    -0.744 OA
ENDBRANCH  90  91
ENDBRANCH  64  85
ENDBRANCH  38  39
ENDBRANCH  31  33
ENDBRANCH  30  31
ENDBRANCH  29  30
ENDBRANCH  28  29
ENDBRANCH   1  28
TORSDOF 20
ENDMDL
MODEL 3
REMARK VINA RESULT:     -10.2      4.574     10.481
REMARK SMILES O=C(CC[NH+]1CCN(C(=O)c2n[nH]c3ccccc23)CC1)OCCOCCOC(=O)c1ccc(-c2c3nc(c(-c4ccc(S(=O)(=O)[O-])cc4)c4ccc([nH]4)c(-c4ccc(S(=O)(=O)[O-])cc4)c4nc(c(-c5ccc(S(=O)(=O)[O-])cc5)c5ccc2[nH]5)C=C4)C=C3)cc1
REMARK SMILES IDX 25 1 24 2 23 3 22 4 2 5 1 6 3 7 4 8 5 9 6 10 21 11 7 13
REMARK SMILES IDX 20 14 8 15 9 16 10 17 11 18 12 19 19 20 13 21 14 22 18 23
REMARK SMILES IDX 15 25 17 26 16 27 26 28 27 29 28 30 29 31 30 32 31 33 32 34
REMARK SMILES IDX 90 35 33 36 89 37 34 38 35 39 36 40 83 41 37 42 88 43 82 44
REMARK SMILES IDX 84 45 38 46 87 47 81 48 80 49 39 51 69 52 50 53 68 54 51 55
REMARK SMILES IDX 54 56 67 57 85 58 52 59 53 60 66 62 86 63 55 64 40 65 41 66
REMARK SMILES IDX 49 67 42 68 48 69 43 70 44 71 45 72 46 73 47 74 70 75 71 76
REMARK SMILES IDX 79 77 72 78 78 79 73 80 74 81 75 82 76 83 77 84 56 85 57 86
REMARK SMILES IDX 65 87 58 88 64 89 59 90 60 91 61 92 62 93 63 94
REMARK H PARENT 5 12 13 24 84 50 54 61
REMARK Flexibility Score: inf
ROOT
ATOM      1  O   UNL A   1      33.333  33.664  29.057  1.00  0.00    -0.374 OA
ENDROOT
BRANCH   1   2
ATOM      2  C   UNL A   1      34.490  34.469  29.248  1.00  0.00     0.202 C 
BRANCH   2   3
ATOM      3  C   UNL A   1      35.414  34.147  30.424  1.00  0.00     0.261 C 
BRANCH   3   4
ATOM      4  O   UNL A   1      35.089  34.765  31.673  1.00  0.00    -0.463 OA
BRANCH   4   5
ATOM      5  C   UNL A   1      34.099  34.330  32.482  1.00  0.00     0.311 C 
ATOM      6  O   UNL A   1      32.950  34.738  32.312  1.00  0.00    -0.252 OA
BRANCH   5   7
ATOM      7  C   UNL A   1      34.428  33.470  33.678  1.00  0.00     0.184 C 
BRANCH   7   8
ATOM      8  C   UNL A   1      35.743  33.816  34.354  1.00  0.00     0.274 C 
BRANCH   8   9
ATOM      9  N   UNL A   1      36.893  33.448  33.524  1.00  0.00    -0.332 N 
ATOM     10  C   UNL A   1      38.016  34.418  33.565  1.00  0.00     0.284 C 
ATOM     11  C   UNL A   1      37.372  32.087  33.831  1.00  0.00     0.284 C 
ATOM     12  H   UNL A   1      36.542  33.469  32.567  1.00  0.00     0.348 HD
ATOM     13  C   UNL A   1      38.945  34.314  34.799  1.00  0.00     0.181 C 
ATOM     14  C   UNL A   1      38.126  32.027  35.164  1.00  0.00     0.181 C 
ATOM     15  N   UNL A   1      39.283  32.923  35.095  1.00  0.00    -0.326 N 
ATOM     16  C   UNL A   1      40.616  32.522  35.213  1.00  0.00     0.275 C 
ATOM     17  O   UNL A   1      41.552  33.316  35.136  1.00  0.00    -0.267 OA
BRANCH  16  18
ATOM     18  C   UNL A   1      40.839  31.086  35.436  1.00  0.00     0.157 A 
ATOM     19  N   UNL A   1      40.117  30.396  36.342  1.00  0.00    -0.169 NA
ATOM     20  C   UNL A   1      41.675  30.219  34.666  1.00  0.00     0.033 A 
ATOM     21  N   UNL A   1      40.485  29.121  36.141  1.00  0.00    -0.277 N 
ATOM     22  C   UNL A   1      41.367  28.940  35.113  1.00  0.00     0.066 A 
ATOM     23  C   UNL A   1      42.585  30.367  33.600  1.00  0.00     0.013 A 
ATOM     24  H   UNL A   1      40.146  28.377  36.690  1.00  0.00     0.190 HD
ATOM     25  C   UNL A   1      41.898  27.781  34.539  1.00  0.00     0.028 A 
ATOM     26  C   UNL A   1      43.121  29.220  33.003  1.00  0.00     0.001 A 
ATOM     27  C   UNL A   1      42.774  27.949  33.462  1.00  0.00     0.002 A 
ENDBRANCH  16  18
ENDBRANCH   8   9
ENDBRANCH   7   8
ENDBRANCH   5   7
ENDBRANCH   4   5
ENDBRANCH   3   4
ENDBRANCH   2   3
ENDBRANCH   1   2
BRANCH   1  28
ATOM     28  C   UNL A   1      32.973  33.412  27.697  1.00  0.00     0.202 C 
BRANCH  28  29
ATOM     29  C   UNL A   1      33.147  31.952  27.269  1.00  0.00     0.261 C 
BRANCH  29  30
ATOM     30  O   UNL A   1      33.909  31.225  28.247  1.00  0.00    -0.460 OA
BRANCH  30  31
ATOM     31  C   UNL A   1      34.243  29.955  27.906  1.00  0.00     0.338 C 
ATOM     32  O   UNL A   1      33.578  29.167  27.252  1.00  0.00    -0.246 OA
BRANCH  31  33
ATOM     33  C   UNL A   1      35.668  29.742  28.247  1.00  0.00     0.060 A 
ATOM     34  C   UNL A   1      36.623  29.931  27.236  1.00  0.00     0.016 A 
ATOM     35  C   UNL A   1      36.069  29.436  29.549  1.00  0.00     0.016 A 
ATOM     36  C   UNL A   1      37.982  29.797  27.521  1.00  0.00     0.010 A 
ATOM     37  C   UNL A   1      37.428  29.285  29.829  1.00  0.00     0.010 A 
ATOM     38  C   UNL A   1      38.388  29.445  28.813  1.00  0.00    -0.014 A 
BRANCH  38  39
ATOM     39  C   UNL A   1      39.795  29.085  29.097  1.00  0.00     0.031 A 
ATOM     40  C   UNL A   1      40.719  30.170  29.574  1.00  0.00     0.074 A 
ATOM     41  C   UNL A   1      40.255  27.841  28.869  1.00  0.00     0.049 A 
ATOM     42  N   UNL A   1      42.016  30.144  29.724  1.00  0.00    -0.248 NA
ATOM     43  C   UNL A   1      40.097  31.462  29.913  1.00  0.00     0.031 C 
ATOM     44  C   UNL A   1      39.444  26.703  28.436  1.00  0.00     0.029 A 
ATOM     45  N   UNL A   1      41.530  27.338  28.936  1.00  0.00    -0.354 N 
ATOM     46  C   UNL A   1      42.369  31.421  30.143  1.00  0.00     0.074 A 
ATOM     47  C   UNL A   1      41.153  32.199  30.223  1.00  0.00     0.031 C 
ATOM     48  C   UNL A   1      40.250  25.643  28.241  1.00  0.00     0.029 A 
ATOM     49  C   UNL A   1      41.634  26.041  28.492  1.00  0.00     0.049 A 
ATOM     50  H   UNL A   1      42.298  27.857  29.271  1.00  0.00     0.167 HD
ATOM     51  C   UNL A   1      43.602  31.900  30.425  1.00  0.00     0.031 A 
ATOM     52  C   UNL A   1      42.726  25.282  28.266  1.00  0.00     0.031 A 
ATOM     53  C   UNL A   1      44.804  31.119  30.342  1.00  0.00     0.049 A 
ATOM     54  C   UNL A   1      44.093  25.863  28.529  1.00  0.00     0.074 A 
ATOM     55  C   UNL A   1      46.095  31.498  30.663  1.00  0.00     0.029 A 
ATOM     56  N   UNL A   1      44.867  29.810  29.893  1.00  0.00    -0.354 N 
ATOM     57  N   UNL A   1      44.409  27.052  28.988  1.00  0.00    -0.248 NA
ATOM     58  C   UNL A   1      45.252  25.005  28.237  1.00  0.00     0.031 C 
ATOM     59  C   UNL A   1      46.949  30.439  30.343  1.00  0.00     0.029 A 
ATOM     60  C   UNL A   1      46.181  29.380  29.884  1.00  0.00     0.049 A 
ATOM     61  H   UNL A   1      44.092  29.267  29.622  1.00  0.00     0.167 HD
ATOM     62  C   UNL A   1      45.799  27.074  29.057  1.00  0.00     0.074 A 
ATOM     63  C   UNL A   1      46.262  25.776  28.615  1.00  0.00     0.031 C 
ATOM     64  C   UNL A   1      46.621  28.080  29.446  1.00  0.00     0.031 A 
BRANCH  51  65
ATOM     65  C   UNL A   1      43.726  33.349  30.810  1.00  0.00    -0.014 A 
ATOM     66  C   UNL A   1      43.684  33.755  32.155  1.00  0.00     0.010 A 
ATOM     67  C   UNL A   1      43.977  34.306  29.810  1.00  0.00     0.010 A 
ATOM     68  C   UNL A   1      43.883  35.096  32.491  1.00  0.00     0.020 A 
ATOM     69  C   UNL A   1      44.198  35.644  30.144  1.00  0.00     0.020 A 
ATOM     70  C   UNL A   1      44.144  36.031  31.484  1.00  0.00     0.054 A 
BRANCH  70  71
ATOM     71  S   UNL A   1      44.472  37.752  31.958  1.00  0.00     0.124 S 
ATOM     72  O   UNL A   1      43.854  38.490  30.860  1.00  0.00    -0.237 OA
ATOM     73  O   UNL A   1      43.793  37.860  33.248  1.00  0.00    -0.237 OA
ATOM     74  O   UNL A   1      45.929  37.825  32.015  1.00  0.00    -0.744 OA
ENDBRANCH  70  71
ENDBRANCH  51  65
BRANCH  52  75
ATOM     75  C   UNL A   1      42.588  23.910  27.699  1.00  0.00    -0.014 A 
ATOM     76  C   UNL A   1      42.379  22.800  28.536  1.00  0.00     0.010 A 
ATOM     77  C   UNL A   1      42.708  23.702  26.312  1.00  0.00     0.010 A 
ATOM     78  C   UNL A   1      42.326  21.509  28.002  1.00  0.00     0.020 A 
ATOM     79  C   UNL A   1      42.625  22.417  25.770  1.00  0.00     0.020 A 
ATOM     80  C   UNL A   1      42.451  21.325  26.622  1.00  0.00     0.054 A 
BRANCH  80  81
ATOM     81  S   UNL A   1      42.355  19.643  25.949  1.00  0.00     0.124 S 
ATOM     82  O   UNL A   1      43.372  19.676  24.903  1.00  0.00    -0.237 OA
ATOM     83  O   UNL A   1      42.670  18.819  27.114  1.00  0.00    -0.237 OA
ATOM     84  O   UNL A   1      40.975  19.542  25.479  1.00  0.00    -0.744 OA
ENDBRANCH  80  81
ENDBRANCH  52  75
BRANCH  64  85
ATOM     85  C   UNL A   1      48.103  27.818  29.437  1.00  0.00    -0.014 A 
ATOM     86  C   UNL A   1      48.728  27.159  30.509  1.00  0.00     0.010 A 
ATOM     87  C   UNL A   1      48.862  28.157  28.300  1.00  0.00     0.010 A 
ATOM     88  C   UNL A   1      50.092  26.859  30.452  1.00  0.00     0.020 A 
ATOM     89  C   UNL A   1      50.218  27.832  28.229  1.00  0.00     0.020 A 
ATOM     90  C   UNL A   1      50.827  27.194  29.311  1.00  0.00     0.054 A 
BRANCH  90  91
ATOM     91  S   UNL A   1      52.580  26.731  29.236  1.00  0.00     0.124 S 
ATOM     92  O   UNL A   1      52.729  25.913  30.436  1.00  0.00    -0.237 OA
ATOM     93  O   UNL A   1      52.667  26.011  27.968  1.00  0.00    -0.237 OA
ATOM     94  O   UNL A   1      53.278  28.014  29.266  1.00  0.00    -0.744 OA
ENDBRANCH  90  91
ENDBRANCH  64  85
ENDBRANCH  38  39
ENDBRANCH  31  33
ENDBRANCH  30  31
ENDBRANCH  29  30
ENDBRANCH  28  29
ENDBRANCH   1  28
TORSDOF 20
ENDMDL
