MODEL 1
REMARK VINA RESULT:     -10.4      0.000      0.000
REMARK SMILES CC[C@@](C)(NC(=O)c1c(C)cc(C)[nH]c1=O)C(=O)OCCOCCOC(=O)c1ccc(-c2c3nc(c(-c4ccc(S(=O)(=O)[O-])cc4)c4ccc([nH]4)c(-c4ccc(S(=O)(=O)[O-])cc4)c4nc(c(-c5ccc(S(=O)(=O)[O-])cc5)c5ccc2[nH]5)C=C4)C=C3)cc1
REMARK SMILES IDX 23 1 22 2 21 3 20 4 19 5 17 6 18 7 3 8 4 9 2 10 1 11 5 12
REMARK SMILES IDX 6 13 7 15 8 16 9 17 15 18 10 19 11 20 14 21 16 22 12 23
REMARK SMILES IDX 13 25 24 26 25 27 26 28 27 29 28 30 29 31 87 32 30 33 86 34
REMARK SMILES IDX 31 35 32 36 33 37 80 38 34 39 85 40 79 41 81 42 35 43 84 44
REMARK SMILES IDX 78 45 77 46 36 48 66 49 47 50 65 51 48 52 51 53 64 54 82 55
REMARK SMILES IDX 49 56 50 57 63 59 83 60 52 61 37 62 38 63 46 64 39 65 45 66
REMARK SMILES IDX 40 67 41 68 42 69 43 70 44 71 67 72 68 73 76 74 69 75 75 76
REMARK SMILES IDX 70 77 71 78 72 79 73 80 74 81 53 82 54 83 62 84 55 85 61 86
REMARK SMILES IDX 56 87 57 88 58 89 59 90 60 91
REMARK H PARENT 5 14 14 24 81 47 51 58
REMARK Flexibility Score: inf
ROOT
ATOM      1  C   UNL A   1      32.219  29.668  25.347  1.00  0.00     0.202 C 
ENDROOT
BRANCH   1   2
ATOM      2  O   UNL A   1      31.011  29.538  24.585  1.00  0.00    -0.374 OA
BRANCH   2   3
ATOM      3  C   UNL A   1      31.033  29.066  23.217  1.00  0.00     0.202 C 
BRANCH   3   4
ATOM      4  C   UNL A   1      30.209  27.791  22.887  1.00  0.00     0.261 C 
BRANCH   4   5
ATOM      5  O   UNL A   1      31.055  26.785  22.362  1.00  0.00    -0.462 OA
BRANCH   5   6
ATOM      6  C   UNL A   1      31.440  25.787  23.168  1.00  0.00     0.331 C 
ATOM      7  O   UNL A   1      30.668  25.131  23.861  1.00  0.00    -0.249 OA
BRANCH   6   8
ATOM      8  C   UNL A   1      32.961  25.588  23.029  1.00  0.00     0.135 C 
ATOM      9  C   UNL A   1      33.525  26.559  21.982  1.00  0.00     0.047 C 
BRANCH   8  10
ATOM     10  C   UNL A   1      33.666  25.970  24.414  1.00  0.00     0.037 C 
ATOM     11  C   UNL A   1      33.008  25.495  25.716  1.00  0.00     0.007 C 
ENDBRANCH   8  10
BRANCH   8  12
ATOM     12  N   UNL A   1      33.334  24.133  22.646  1.00  0.00    -0.336 N 
ATOM     13  C   UNL A   1      33.496  22.949  23.380  1.00  0.00     0.258 C 
ATOM     14  H   UNL A   1      33.491  24.014  21.681  1.00  0.00     0.165 HD
ATOM     15  O   UNL A   1      32.641  22.087  23.131  1.00  0.00    -0.269 OA
BRANCH  13  16
ATOM     16  C   UNL A   1      34.731  22.546  24.324  1.00  0.00     0.107 A 
ATOM     17  C   UNL A   1      34.959  22.187  25.657  1.00  0.00    -0.031 A 
ATOM     18  C   UNL A   1      36.024  22.882  23.569  1.00  0.00     0.261 A 
ATOM     19  C   UNL A   1      34.216  22.026  27.028  1.00  0.00     0.045 C 
ATOM     20  C   UNL A   1      36.305  21.829  26.106  1.00  0.00     0.025 A 
ATOM     21  N   UNL A   1      37.233  22.748  24.215  1.00  0.00    -0.326 N 
ATOM     22  O   UNL A   1      36.016  23.261  22.399  1.00  0.00    -0.269 OA
ATOM     23  C   UNL A   1      37.393  22.185  25.442  1.00  0.00     0.015 A 
ATOM     24  H   UNL A   1      38.038  23.083  23.756  1.00  0.00     0.169 HD
ATOM     25  C   UNL A   1      38.743  21.924  26.010  1.00  0.00     0.064 C 
ENDBRANCH  13  16
ENDBRANCH   8  12
ENDBRANCH   6   8
ENDBRANCH   5   6
ENDBRANCH   4   5
ENDBRANCH   3   4
ENDBRANCH   2   3
ENDBRANCH   1   2
BRANCH   1  26
ATOM     26  C   UNL A   1      32.282  30.533  26.757  1.00  0.00     0.261 C 
BRANCH  26  27
ATOM     27  O   UNL A   1      33.294  30.183  27.817  1.00  0.00    -0.460 OA
BRANCH  27  28
ATOM     28  C   UNL A   1      34.325  30.994  28.263  1.00  0.00     0.338 C 
ATOM     29  O   UNL A   1      34.155  32.154  28.612  1.00  0.00    -0.246 OA
BRANCH  28  30
ATOM     30  C   UNL A   1      35.718  30.313  28.391  1.00  0.00     0.060 A 
ATOM     31  C   UNL A   1      36.250  29.881  29.618  1.00  0.00     0.016 A 
ATOM     32  C   UNL A   1      36.620  30.255  27.323  1.00  0.00     0.016 A 
ATOM     33  C   UNL A   1      37.515  29.264  29.776  1.00  0.00     0.010 A 
ATOM     34  C   UNL A   1      37.938  29.711  27.482  1.00  0.00     0.010 A 
ATOM     35  C   UNL A   1      38.399  29.188  28.707  1.00  0.00    -0.014 A 
BRANCH  35  36
ATOM     36  C   UNL A   1      39.828  28.762  28.918  1.00  0.00     0.031 A 
ATOM     37  C   UNL A   1      40.813  29.755  29.493  1.00  0.00     0.074 A 
ATOM     38  C   UNL A   1      40.280  27.510  28.684  1.00  0.00     0.049 A 
ATOM     39  N   UNL A   1      42.123  29.725  29.515  1.00  0.00    -0.248 NA
ATOM     40  C   UNL A   1      40.231  30.931  30.157  1.00  0.00     0.031 C 
ATOM     41  C   UNL A   1      39.453  26.350  28.360  1.00  0.00     0.029 A 
ATOM     42  N   UNL A   1      41.568  27.007  28.684  1.00  0.00    -0.354 N 
ATOM     43  C   UNL A   1      42.523  30.896  30.155  1.00  0.00     0.074 A 
ATOM     44  C   UNL A   1      41.314  31.598  30.529  1.00  0.00     0.031 C 
ATOM     45  C   UNL A   1      40.253  25.283  28.163  1.00  0.00     0.029 A 
ATOM     46  C   UNL A   1      41.653  25.695  28.270  1.00  0.00     0.049 A 
ATOM     47  H   UNL A   1      42.352  27.536  28.956  1.00  0.00     0.167 HD
ATOM     48  C   UNL A   1      43.778  31.364  30.383  1.00  0.00     0.031 A 
ATOM     49  C   UNL A   1      42.726  24.932  27.954  1.00  0.00     0.031 A 
ATOM     50  C   UNL A   1      44.980  30.682  29.976  1.00  0.00     0.049 A 
ATOM     51  C   UNL A   1      44.113  25.531  28.016  1.00  0.00     0.074 A 
ATOM     52  C   UNL A   1      46.292  31.120  30.043  1.00  0.00     0.029 A 
ATOM     53  N   UNL A   1      45.015  29.407  29.428  1.00  0.00    -0.354 N 
ATOM     54  N   UNL A   1      44.483  26.718  28.442  1.00  0.00    -0.248 NA
ATOM     55  C   UNL A   1      45.227  24.698  27.533  1.00  0.00     0.031 C 
ATOM     56  C   UNL A   1      47.115  30.129  29.493  1.00  0.00     0.029 A 
ATOM     57  C   UNL A   1      46.324  29.047  29.145  1.00  0.00     0.049 A 
ATOM     58  H   UNL A   1      44.227  28.842  29.265  1.00  0.00     0.167 HD
ATOM     59  C   UNL A   1      45.868  26.762  28.298  1.00  0.00     0.074 A 
ATOM     60  C   UNL A   1      46.274  25.483  27.756  1.00  0.00     0.031 C 
ATOM     61  C   UNL A   1      46.724  27.774  28.595  1.00  0.00     0.031 A 
BRANCH  48  62
ATOM     62  C   UNL A   1      43.896  32.729  31.015  1.00  0.00    -0.014 A 
ATOM     63  C   UNL A   1      43.996  32.894  32.408  1.00  0.00     0.010 A 
ATOM     64  C   UNL A   1      43.882  33.873  30.193  1.00  0.00     0.010 A 
ATOM     65  C   UNL A   1      44.016  34.176  32.969  1.00  0.00     0.020 A 
ATOM     66  C   UNL A   1      43.932  35.155  30.748  1.00  0.00     0.020 A 
ATOM     67  C   UNL A   1      43.972  35.299  32.136  1.00  0.00     0.054 A 
BRANCH  67  68
ATOM     68  S   UNL A   1      43.960  36.948  32.893  1.00  0.00     0.124 S 
ATOM     69  O   UNL A   1      43.698  37.807  31.742  1.00  0.00    -0.237 OA
ATOM     70  O   UNL A   1      42.871  36.849  33.861  1.00  0.00    -0.237 OA
ATOM     71  O   UNL A   1      45.295  37.076  33.473  1.00  0.00    -0.744 OA
ENDBRANCH  67  68
ENDBRANCH  48  62
BRANCH  49  72
ATOM     72  C   UNL A   1      42.538  23.525  27.479  1.00  0.00    -0.014 A 
ATOM     73  C   UNL A   1      42.472  23.231  26.104  1.00  0.00     0.010 A 
ATOM     74  C   UNL A   1      42.435  22.464  28.399  1.00  0.00     0.010 A 
ATOM     75  C   UNL A   1      42.341  21.908  25.662  1.00  0.00     0.020 A 
ATOM     76  C   UNL A   1      42.331  21.138  27.961  1.00  0.00     0.020 A 
ATOM     77  C   UNL A   1      42.291  20.867  26.593  1.00  0.00     0.054 A 
BRANCH  77  78
ATOM     78  S   UNL A   1      42.246  19.154  25.990  1.00  0.00     0.124 S 
ATOM     79  O   UNL A   1      40.843  18.992  25.623  1.00  0.00    -0.237 OA
ATOM     80  O   UNL A   1      43.190  19.190  24.876  1.00  0.00    -0.237 OA
ATOM     81  O   UNL A   1      42.683  18.370  27.144  1.00  0.00    -0.744 OA
ENDBRANCH  77  78
ENDBRANCH  49  72
BRANCH  61  82
ATOM     82  C   UNL A   1      48.199  27.531  28.387  1.00  0.00    -0.014 A 
ATOM     83  C   UNL A   1      48.996  26.931  29.378  1.00  0.00     0.010 A 
ATOM     84  C   UNL A   1      48.787  27.867  27.152  1.00  0.00     0.010 A 
ATOM     85  C   UNL A   1      50.360  26.709  29.154  1.00  0.00     0.020 A 
ATOM     86  C   UNL A   1      50.143  27.622  26.914  1.00  0.00     0.020 A 
ATOM     87  C   UNL A   1      50.925  27.060  27.924  1.00  0.00     0.054 A 
BRANCH  87  88
ATOM     88  S   UNL A   1      52.692  26.745  27.651  1.00  0.00     0.124 S 
ATOM     89  O   UNL A   1      52.666  25.495  26.896  1.00  0.00    -0.237 OA
ATOM     90  O   UNL A   1      53.116  27.924  26.901  1.00  0.00    -0.237 OA
ATOM     91  O   UNL A   1      53.240  26.644  29.002  1.00  0.00    -0.744 OA
ENDBRANCH  87  88
ENDBRANCH  61  82
ENDBRANCH  35  36
ENDBRANCH  28  30
ENDBRANCH  27  28
ENDBRANCH  26  27
ENDBRANCH   1  26
TORSDOF 20
ENDMDL
MODEL 2
REMARK VINA RESULT:      -9.8      4.904      9.823
REMARK SMILES CC[C@@](C)(NC(=O)c1c(C)cc(C)[nH]c1=O)C(=O)OCCOCCOC(=O)c1ccc(-c2c3nc(c(-c4ccc(S(=O)(=O)[O-])cc4)c4ccc([nH]4)c(-c4ccc(S(=O)(=O)[O-])cc4)c4nc(c(-c5ccc(S(=O)(=O)[O-])cc5)c5ccc2[nH]5)C=C4)C=C3)cc1
REMARK SMILES IDX 23 1 22 2 21 3 20 4 19 5 17 6 18 7 3 8 4 9 2 10 1 11 5 12
REMARK SMILES IDX 6 13 7 15 8 16 9 17 15 18 10 19 11 20 14 21 16 22 12 23
REMARK SMILES IDX 13 25 24 26 25 27 26 28 27 29 28 30 29 31 87 32 30 33 86 34
REMARK SMILES IDX 31 35 32 36 33 37 80 38 34 39 85 40 79 41 81 42 35 43 84 44
REMARK SMILES IDX 78 45 77 46 36 48 66 49 47 50 65 51 48 52 51 53 64 54 82 55
REMARK SMILES IDX 49 56 50 57 63 59 83 60 52 61 37 62 38 63 46 64 39 65 45 66
REMARK SMILES IDX 40 67 41 68 42 69 43 70 44 71 67 72 68 73 76 74 69 75 75 76
REMARK SMILES IDX 70 77 71 78 72 79 73 80 74 81 53 82 54 83 62 84 55 85 61 86
REMARK SMILES IDX 56 87 57 88 58 89 59 90 60 91
REMARK H PARENT 5 14 14 24 81 47 51 58
REMARK Flexibility Score: inf
ROOT
ATOM      1  C   UNL A   1      31.777  31.117  26.556  1.00  0.00     0.202 C 
ENDROOT
BRANCH   1   2
ATOM      2  O   UNL A   1      32.132  30.229  25.489  1.00  0.00    -0.374 OA
BRANCH   2   3
ATOM      3  C   UNL A   1      33.260  29.328  25.605  1.00  0.00     0.202 C 
BRANCH   3   4
ATOM      4  C   UNL A   1      33.024  27.977  26.334  1.00  0.00     0.261 C 
BRANCH   4   5
ATOM      5  O   UNL A   1      32.493  27.022  25.435  1.00  0.00    -0.462 OA
BRANCH   5   6
ATOM      6  C   UNL A   1      31.203  26.681  25.551  1.00  0.00     0.331 C 
ATOM      7  O   UNL A   1      30.611  26.597  26.623  1.00  0.00    -0.249 OA
BRANCH   6   8
ATOM      8  C   UNL A   1      30.609  26.474  24.145  1.00  0.00     0.135 C 
ATOM      9  C   UNL A   1      29.107  26.177  24.247  1.00  0.00     0.047 C 
BRANCH   8  10
ATOM     10  C   UNL A   1      30.737  27.839  23.319  1.00  0.00     0.037 C 
ATOM     11  C   UNL A   1      29.462  28.656  23.070  1.00  0.00     0.007 C 
ENDBRANCH   8  10
BRANCH   8  12
ATOM     12  N   UNL A   1      31.315  25.334  23.367  1.00  0.00    -0.336 N 
ATOM     13  C   UNL A   1      31.800  24.070  23.728  1.00  0.00     0.258 C 
ATOM     14  H   UNL A   1      31.454  25.544  22.414  1.00  0.00     0.165 HD
ATOM     15  O   UNL A   1      31.175  23.130  23.213  1.00  0.00    -0.269 OA
BRANCH  13  16
ATOM     16  C   UNL A   1      33.137  23.734  24.551  1.00  0.00     0.107 A 
ATOM     17  C   UNL A   1      33.500  23.306  25.834  1.00  0.00    -0.031 A 
ATOM     18  C   UNL A   1      34.328  24.259  23.739  1.00  0.00     0.261 A 
ATOM     19  C   UNL A   1      32.884  22.970  27.234  1.00  0.00     0.045 C 
ATOM     20  C   UNL A   1      34.906  23.064  26.160  1.00  0.00     0.025 A 
ATOM     21  N   UNL A   1      35.590  24.209  24.290  1.00  0.00    -0.326 N 
ATOM     22  O   UNL A   1      34.193  24.719  22.606  1.00  0.00    -0.269 OA
ATOM     23  C   UNL A   1      35.899  23.580  25.454  1.00  0.00     0.015 A 
ATOM     24  H   UNL A   1      36.320  24.660  23.805  1.00  0.00     0.169 HD
ATOM     25  C   UNL A   1      37.307  23.424  25.907  1.00  0.00     0.064 C 
ENDBRANCH  13  16
ENDBRANCH   8  12
ENDBRANCH   6   8
ENDBRANCH   5   6
ENDBRANCH   4   5
ENDBRANCH   3   4
ENDBRANCH   2   3
ENDBRANCH   1   2
BRANCH   1  26
ATOM     26  C   UNL A   1      32.896  32.073  27.316  1.00  0.00     0.261 C 
BRANCH  26  27
ATOM     27  O   UNL A   1      32.579  33.512  27.626  1.00  0.00    -0.460 OA
BRANCH  27  28
ATOM     28  C   UNL A   1      33.165  34.284  28.616  1.00  0.00     0.338 C 
ATOM     29  O   UNL A   1      32.657  35.311  29.045  1.00  0.00    -0.246 OA
BRANCH  28  30
ATOM     30  C   UNL A   1      34.476  33.720  29.232  1.00  0.00     0.060 A 
ATOM     31  C   UNL A   1      34.493  32.866  30.348  1.00  0.00     0.016 A 
ATOM     32  C   UNL A   1      35.741  34.173  28.838  1.00  0.00     0.016 A 
ATOM     33  C   UNL A   1      35.665  32.337  30.942  1.00  0.00     0.010 A 
ATOM     34  C   UNL A   1      36.937  33.713  29.483  1.00  0.00     0.010 A 
ATOM     35  C   UNL A   1      36.919  32.772  30.533  1.00  0.00    -0.014 A 
BRANCH  35  36
ATOM     36  C   UNL A   1      38.154  32.408  31.313  1.00  0.00     0.031 A 
ATOM     37  C   UNL A   1      39.060  31.317  30.786  1.00  0.00     0.074 A 
ATOM     38  C   UNL A   1      38.548  33.047  32.437  1.00  0.00     0.049 A 
ATOM     39  N   UNL A   1      40.010  30.646  31.390  1.00  0.00    -0.248 NA
ATOM     40  C   UNL A   1      38.882  30.957  29.371  1.00  0.00     0.031 C 
ATOM     41  C   UNL A   1      37.956  34.268  32.976  1.00  0.00     0.029 A 
ATOM     42  N   UNL A   1      39.554  32.744  33.335  1.00  0.00    -0.354 N 
ATOM     43  C   UNL A   1      40.511  29.755  30.445  1.00  0.00     0.074 A 
ATOM     44  C   UNL A   1      39.779  29.994  29.220  1.00  0.00     0.031 C 
ATOM     45  C   UNL A   1      38.587  34.592  34.123  1.00  0.00     0.029 A 
ATOM     46  C   UNL A   1      39.576  33.562  34.444  1.00  0.00     0.049 A 
ATOM     47  H   UNL A   1      40.197  32.011  33.195  1.00  0.00     0.167 HD
ATOM     48  C   UNL A   1      41.469  28.803  30.587  1.00  0.00     0.031 A 
ATOM     49  C   UNL A   1      40.263  33.463  35.606  1.00  0.00     0.031 A 
ATOM     50  C   UNL A   1      42.172  28.541  31.818  1.00  0.00     0.049 A 
ATOM     51  C   UNL A   1      41.179  32.281  35.835  1.00  0.00     0.074 A 
ATOM     52  C   UNL A   1      43.067  27.525  32.108  1.00  0.00     0.029 A 
ATOM     53  N   UNL A   1      42.060  29.310  32.967  1.00  0.00    -0.354 N 
ATOM     54  N   UNL A   1      41.510  31.320  35.004  1.00  0.00    -0.248 NA
ATOM     55  C   UNL A   1      41.794  32.157  37.167  1.00  0.00     0.031 C 
ATOM     56  C   UNL A   1      43.460  27.653  33.446  1.00  0.00     0.029 A 
ATOM     57  C   UNL A   1      42.862  28.788  33.970  1.00  0.00     0.049 A 
ATOM     58  H   UNL A   1      41.495  30.110  33.056  1.00  0.00     0.167 HD
ATOM     59  C   UNL A   1      42.386  30.493  35.705  1.00  0.00     0.074 A 
ATOM     60  C   UNL A   1      42.542  31.070  37.023  1.00  0.00     0.031 C 
ATOM     61  C   UNL A   1      43.008  29.360  35.286  1.00  0.00     0.031 A 
BRANCH  48  62
ATOM     62  C   UNL A   1      41.731  27.910  29.399  1.00  0.00    -0.014 A 
ATOM     63  C   UNL A   1      40.937  26.778  29.134  1.00  0.00     0.010 A 
ATOM     64  C   UNL A   1      42.811  28.198  28.543  1.00  0.00     0.010 A 
ATOM     65  C   UNL A   1      41.258  25.921  28.076  1.00  0.00     0.020 A 
ATOM     66  C   UNL A   1      43.117  27.359  27.467  1.00  0.00     0.020 A 
ATOM     67  C   UNL A   1      42.354  26.210  27.256  1.00  0.00     0.054 A 
BRANCH  67  68
ATOM     68  S   UNL A   1      42.769  25.060  25.916  1.00  0.00     0.124 S 
ATOM     69  O   UNL A   1      44.178  24.780  26.183  1.00  0.00    -0.237 OA
ATOM     70  O   UNL A   1      41.854  23.947  26.153  1.00  0.00    -0.237 OA
ATOM     71  O   UNL A   1      42.508  25.829  24.701  1.00  0.00    -0.744 OA
ENDBRANCH  67  68
ENDBRANCH  48  62
BRANCH  49  72
ATOM     72  C   UNL A   1      40.067  34.480  36.687  1.00  0.00    -0.014 A 
ATOM     73  C   UNL A   1      39.119  34.275  37.706  1.00  0.00     0.010 A 
ATOM     74  C   UNL A   1      40.838  35.659  36.713  1.00  0.00     0.010 A 
ATOM     75  C   UNL A   1      38.970  35.208  38.742  1.00  0.00     0.020 A 
ATOM     76  C   UNL A   1      40.711  36.580  37.759  1.00  0.00     0.020 A 
ATOM     77  C   UNL A   1      39.781  36.345  38.773  1.00  0.00     0.054 A 
BRANCH  77  78
ATOM     78  S   UNL A   1      39.653  37.474  40.190  1.00  0.00     0.124 S 
ATOM     79  O   UNL A   1      38.294  37.991  40.053  1.00  0.00    -0.237 OA
ATOM     80  O   UNL A   1      39.876  36.580  41.323  1.00  0.00    -0.237 OA
ATOM     81  O   UNL A   1      40.717  38.447  39.955  1.00  0.00    -0.744 OA
ENDBRANCH  77  78
ENDBRANCH  49  72
BRANCH  61  82
ATOM     82  C   UNL A   1      43.957  28.684  36.246  1.00  0.00    -0.014 A 
ATOM     83  C   UNL A   1      45.261  29.167  36.458  1.00  0.00     0.010 A 
ATOM     84  C   UNL A   1      43.515  27.570  36.985  1.00  0.00     0.010 A 
ATOM     85  C   UNL A   1      46.116  28.525  37.361  1.00  0.00     0.020 A 
ATOM     86  C   UNL A   1      44.358  26.942  37.908  1.00  0.00     0.020 A 
ATOM     87  C   UNL A   1      45.660  27.414  38.077  1.00  0.00     0.054 A 
BRANCH  87  88
ATOM     88  S   UNL A   1      46.783  26.611  39.255  1.00  0.00     0.124 S 
ATOM     89  O   UNL A   1      45.850  25.976  40.182  1.00  0.00    -0.237 OA
ATOM     90  O   UNL A   1      47.542  25.699  38.404  1.00  0.00    -0.237 OA
ATOM     91  O   UNL A   1      47.554  27.720  39.813  1.00  0.00    -0.744 OA
ENDBRANCH  87  88
ENDBRANCH  61  82
ENDBRANCH  35  36
ENDBRANCH  28  30
ENDBRANCH  27  28
ENDBRANCH  26  27
ENDBRANCH   1  26
TORSDOF 20
ENDMDL
MODEL 3
REMARK VINA RESULT:      -9.6      2.887      8.238
REMARK SMILES CC[C@@](C)(NC(=O)c1c(C)cc(C)[nH]c1=O)C(=O)OCCOCCOC(=O)c1ccc(-c2c3nc(c(-c4ccc(S(=O)(=O)[O-])cc4)c4ccc([nH]4)c(-c4ccc(S(=O)(=O)[O-])cc4)c4nc(c(-c5ccc(S(=O)(=O)[O-])cc5)c5ccc2[nH]5)C=C4)C=C3)cc1
REMARK SMILES IDX 23 1 22 2 21 3 20 4 19 5 17 6 18 7 3 8 4 9 2 10 1 11 5 12
REMARK SMILES IDX 6 13 7 15 8 16 9 17 15 18 10 19 11 20 14 21 16 22 12 23
REMARK SMILES IDX 13 25 24 26 25 27 26 28 27 29 28 30 29 31 87 32 30 33 86 34
REMARK SMILES IDX 31 35 32 36 33 37 80 38 34 39 85 40 79 41 81 42 35 43 84 44
REMARK SMILES IDX 78 45 77 46 36 48 66 49 47 50 65 51 48 52 51 53 64 54 82 55
REMARK SMILES IDX 49 56 50 57 63 59 83 60 52 61 37 62 38 63 46 64 39 65 45 66
REMARK SMILES IDX 40 67 41 68 42 69 43 70 44 71 67 72 68 73 76 74 69 75 75 76
REMARK SMILES IDX 70 77 71 78 72 79 73 80 74 81 53 82 54 83 62 84 55 85 61 86
REMARK SMILES IDX 56 87 57 88 58 89 59 90 60 91
REMARK H PARENT 5 14 14 24 81 47 51 58
REMARK Flexibility Score: inf
ROOT
ATOM      1  C   UNL A   1      38.607  22.414  25.586  1.00  0.00     0.202 C 
ENDROOT
BRANCH   1   2
ATOM      2  O   UNL A   1      37.206  22.313  25.301  1.00  0.00    -0.374 OA
BRANCH   2   3
ATOM      3  C   UNL A   1      36.517  21.041  25.356  1.00  0.00     0.202 C 
BRANCH   3   4
ATOM      4  C   UNL A   1      35.112  20.959  24.700  1.00  0.00     0.261 C 
BRANCH   4   5
ATOM      5  O   UNL A   1      34.522  22.244  24.642  1.00  0.00    -0.462 OA
BRANCH   5   6
ATOM      6  C   UNL A   1      34.294  22.790  23.441  1.00  0.00     0.331 C 
ATOM      7  O   UNL A   1      35.176  23.048  22.628  1.00  0.00    -0.249 OA
BRANCH   6   8
ATOM      8  C   UNL A   1      32.777  22.978  23.256  1.00  0.00     0.135 C 
ATOM      9  C   UNL A   1      32.157  21.705  22.663  1.00  0.00     0.047 C 
BRANCH   8  10
ATOM     10  C   UNL A   1      32.095  23.177  24.690  1.00  0.00     0.037 C 
ATOM     11  C   UNL A   1      30.643  23.672  24.739  1.00  0.00     0.007 C 
ENDBRANCH   8  10
BRANCH   8  12
ATOM     12  N   UNL A   1      32.438  24.192  22.353  1.00  0.00    -0.336 N 
ATOM     13  C   UNL A   1      32.819  25.541  22.359  1.00  0.00     0.258 C 
ATOM     14  H   UNL A   1      31.822  23.968  21.617  1.00  0.00     0.165 HD
ATOM     15  O   UNL A   1      33.521  25.866  21.390  1.00  0.00    -0.269 OA
BRANCH  13  16
ATOM     16  C   UNL A   1      32.304  26.697  23.347  1.00  0.00     0.107 A 
ATOM     17  C   UNL A   1      31.374  27.744  23.344  1.00  0.00    -0.031 A 
ATOM     18  C   UNL A   1      33.290  26.781  24.520  1.00  0.00     0.261 A 
ATOM     19  C   UNL A   1      30.348  28.469  22.407  1.00  0.00     0.045 C 
ATOM     20  C   UNL A   1      31.182  28.564  24.540  1.00  0.00     0.025 A 
ATOM     21  N   UNL A   1      33.144  27.787  25.449  1.00  0.00    -0.326 N 
ATOM     22  O   UNL A   1      34.205  25.972  24.661  1.00  0.00    -0.269 OA
ATOM     23  C   UNL A   1      32.086  28.639  25.503  1.00  0.00     0.015 A 
ATOM     24  H   UNL A   1      33.854  27.897  26.123  1.00  0.00     0.169 HD
ATOM     25  C   UNL A   1      31.911  29.595  26.629  1.00  0.00     0.064 C 
ENDBRANCH  13  16
ENDBRANCH   8  12
ENDBRANCH   6   8
ENDBRANCH   5   6
ENDBRANCH   4   5
ENDBRANCH   3   4
ENDBRANCH   2   3
ENDBRANCH   1   2
BRANCH   1  26
ATOM     26  C   UNL A   1      39.376  21.362  26.608  1.00  0.00     0.261 C 
BRANCH  26  27
ATOM     27  O   UNL A   1      40.082  20.150  26.059  1.00  0.00    -0.460 OA
BRANCH  27  28
ATOM     28  C   UNL A   1      41.452  19.942  26.036  1.00  0.00     0.338 C 
ATOM     29  O   UNL A   1      41.956  18.878  25.706  1.00  0.00    -0.246 OA
BRANCH  28  30
ATOM     30  C   UNL A   1      42.333  21.180  26.365  1.00  0.00     0.060 A 
ATOM     31  C   UNL A   1      42.680  21.548  27.677  1.00  0.00     0.016 A 
ATOM     32  C   UNL A   1      42.687  22.123  25.394  1.00  0.00     0.016 A 
ATOM     33  C   UNL A   1      43.474  22.669  28.017  1.00  0.00     0.010 A 
ATOM     34  C   UNL A   1      43.419  23.310  25.731  1.00  0.00     0.010 A 
ATOM     35  C   UNL A   1      43.842  23.592  27.046  1.00  0.00    -0.014 A 
BRANCH  35  36
ATOM     36  C   UNL A   1      44.471  24.905  27.429  1.00  0.00     0.031 A 
ATOM     37  C   UNL A   1      43.597  25.998  28.001  1.00  0.00     0.074 A 
ATOM     38  C   UNL A   1      45.798  25.151  27.355  1.00  0.00     0.049 A 
ATOM     39  N   UNL A   1      43.838  27.278  28.150  1.00  0.00    -0.248 NA
ATOM     40  C   UNL A   1      42.278  25.578  28.496  1.00  0.00     0.031 C 
ATOM     41  C   UNL A   1      46.835  24.165  27.062  1.00  0.00     0.029 A 
ATOM     42  N   UNL A   1      46.501  26.330  27.524  1.00  0.00    -0.354 N 
ATOM     43  C   UNL A   1      42.686  27.822  28.714  1.00  0.00     0.074 A 
ATOM     44  C   UNL A   1      41.760  26.726  28.906  1.00  0.00     0.031 C 
ATOM     45  C   UNL A   1      48.034  24.782  27.041  1.00  0.00     0.029 A 
ATOM     46  C   UNL A   1      47.847  26.220  27.241  1.00  0.00     0.049 A 
ATOM     47  H   UNL A   1      46.081  27.169  27.819  1.00  0.00     0.167 HD
ATOM     48  C   UNL A   1      42.408  29.117  29.016  1.00  0.00     0.031 A 
ATOM     49  C   UNL A   1      48.804  27.167  27.100  1.00  0.00     0.031 A 
ATOM     50  C   UNL A   1      43.317  30.212  28.788  1.00  0.00     0.049 A 
ATOM     51  C   UNL A   1      48.436  28.628  27.238  1.00  0.00     0.074 A 
ATOM     52  C   UNL A   1      43.095  31.571  28.939  1.00  0.00     0.029 A 
ATOM     53  N   UNL A   1      44.631  30.070  28.366  1.00  0.00    -0.354 N 
ATOM     54  N   UNL A   1      47.287  29.162  27.586  1.00  0.00    -0.248 NA
ATOM     55  C   UNL A   1      49.486  29.615  26.941  1.00  0.00     0.031 C 
ATOM     56  C   UNL A   1      44.259  32.252  28.563  1.00  0.00     0.029 A 
ATOM     57  C   UNL A   1      45.229  31.315  28.242  1.00  0.00     0.049 A 
ATOM     58  H   UNL A   1      45.074  29.212  28.182  1.00  0.00     0.167 HD
ATOM     59  C   UNL A   1      47.485  30.541  27.570  1.00  0.00     0.074 A 
ATOM     60  C   UNL A   1      48.864  30.761  27.188  1.00  0.00     0.031 C 
ATOM     61  C   UNL A   1      46.600  31.533  27.852  1.00  0.00     0.031 A 
BRANCH  48  62
ATOM     62  C   UNL A   1      41.021  29.420  29.527  1.00  0.00    -0.014 A 
ATOM     63  C   UNL A   1      39.937  29.620  28.654  1.00  0.00     0.010 A 
ATOM     64  C   UNL A   1      40.807  29.530  30.915  1.00  0.00     0.010 A 
ATOM     65  C   UNL A   1      38.683  29.986  29.155  1.00  0.00     0.020 A 
ATOM     66  C   UNL A   1      39.547  29.867  31.421  1.00  0.00     0.020 A 
ATOM     67  C   UNL A   1      38.499  30.118  30.535  1.00  0.00     0.054 A 
BRANCH  67  68
ATOM     68  S   UNL A   1      36.872  30.632  31.154  1.00  0.00     0.124 S 
ATOM     69  O   UNL A   1      37.177  31.919  31.773  1.00  0.00    -0.237 OA
ATOM     70  O   UNL A   1      36.071  30.697  29.934  1.00  0.00    -0.237 OA
ATOM     71  O   UNL A   1      36.500  29.567  32.084  1.00  0.00    -0.744 OA
ENDBRANCH  67  68
ENDBRANCH  48  62
BRANCH  49  72
ATOM     72  C   UNL A   1      50.203  26.777  26.741  1.00  0.00    -0.014 A 
ATOM     73  C   UNL A   1      51.145  26.469  27.740  1.00  0.00     0.010 A 
ATOM     74  C   UNL A   1      50.604  26.699  25.392  1.00  0.00     0.010 A 
ATOM     75  C   UNL A   1      52.442  26.061  27.399  1.00  0.00     0.020 A 
ATOM     76  C   UNL A   1      51.890  26.266  25.047  1.00  0.00     0.020 A 
ATOM     77  C   UNL A   1      52.800  25.943  26.054  1.00  0.00     0.054 A 
BRANCH  77  78
ATOM     78  S   UNL A   1      54.446  25.294  25.640  1.00  0.00     0.124 S 
ATOM     79  O   UNL A   1      54.715  25.931  24.355  1.00  0.00    -0.237 OA
ATOM     80  O   UNL A   1      55.257  25.763  26.760  1.00  0.00    -0.237 OA
ATOM     81  O   UNL A   1      54.244  23.847  25.589  1.00  0.00    -0.744 OA
ENDBRANCH  77  78
ENDBRANCH  49  72
BRANCH  61  82
ATOM     82  C   UNL A   1      47.103  32.955  27.807  1.00  0.00    -0.014 A 
ATOM     83  C   UNL A   1      47.016  33.733  26.639  1.00  0.00     0.010 A 
ATOM     84  C   UNL A   1      47.629  33.539  28.976  1.00  0.00     0.010 A 
ATOM     85  C   UNL A   1      47.482  35.053  26.629  1.00  0.00     0.020 A 
ATOM     86  C   UNL A   1      48.071  34.865  28.978  1.00  0.00     0.020 A 
ATOM     87  C   UNL A   1      48.010  35.609  27.798  1.00  0.00     0.054 A 
BRANCH  87  88
ATOM     88  S   UNL A   1      48.591  37.328  27.764  1.00  0.00     0.124 S 
ATOM     89  O   UNL A   1      47.871  37.916  28.891  1.00  0.00    -0.237 OA
ATOM     90  O   UNL A   1      50.033  37.184  27.946  1.00  0.00    -0.237 OA
ATOM     91  O   UNL A   1      48.180  37.808  26.446  1.00  0.00    -0.744 OA
ENDBRANCH  87  88
ENDBRANCH  61  82
ENDBRANCH  35  36
ENDBRANCH  28  30
ENDBRANCH  27  28
ENDBRANCH  26  27
ENDBRANCH   1  26
TORSDOF 20
ENDMDL
