MODEL 1
REMARK VINA RESULT:      -9.3      0.000      0.000
REMARK SMILES CCn1cnc(S(=O)(=O)N[C@H](Cc2cnc[nH]2)C(=O)OCCOCCOC(=O)c2ccc(-c3c4nc(c(-c5ccc(S(=O)(=O)[O-])cc5)c5ccc([nH]5)c(-c5ccc(S(=O)(=O)[O-])cc5)c5nc(c(-c6ccc(S(=O)(=O)[O-])cc6)c6ccc3[nH]6)C=C5)C=C4)cc2)c1
REMARK SMILES IDX 22 1 21 2 20 3 18 4 19 5 11 6 10 7 7 9 8 10 9 11 6 12 3 13
REMARK SMILES IDX 4 14 89 15 5 16 2 17 1 18 12 19 13 20 14 21 17 22 15 23
REMARK SMILES IDX 16 24 23 26 24 27 25 28 26 29 27 30 28 31 29 32 30 33 88 34
REMARK SMILES IDX 31 35 87 36 32 37 33 38 34 39 81 40 35 41 86 42 80 43 82 44
REMARK SMILES IDX 36 45 85 46 79 47 78 48 37 50 67 51 48 52 66 53 49 54 52 55
REMARK SMILES IDX 65 56 83 57 50 58 51 59 64 61 84 62 53 63 38 64 39 65 47 66
REMARK SMILES IDX 40 67 46 68 41 69 42 70 43 71 44 72 45 73 68 74 69 75 77 76
REMARK SMILES IDX 70 77 76 78 71 79 72 80 73 81 74 82 75 83 54 84 55 85 63 86
REMARK SMILES IDX 56 87 62 88 57 89 58 90 59 91 60 92 61 93
REMARK H PARENT 10 8 17 25 82 49 52 60
REMARK Flexibility Score: inf
ROOT
ATOM      1  C   UNL A   1      39.029  21.492  25.894  1.00  0.00     0.202 C 
ENDROOT
BRANCH   1   2
ATOM      2  C   UNL A   1      37.987  22.612  25.894  1.00  0.00     0.261 C 
BRANCH   2   3
ATOM      3  O   UNL A   1      36.664  22.107  25.625  1.00  0.00    -0.462 OA
BRANCH   3   4
ATOM      4  C   UNL A   1      36.115  22.483  24.449  1.00  0.00     0.324 C 
ATOM      5  O   UNL A   1      36.674  22.453  23.358  1.00  0.00    -0.250 OA
BRANCH   4   6
ATOM      6  C   UNL A   1      34.682  22.952  24.600  1.00  0.00     0.185 C 
BRANCH   6   7
ATOM      7  N   UNL A   1      33.749  22.771  23.452  1.00  0.00    -0.195 NA
ATOM      8  H   UNL A   1      33.368  23.689  23.224  1.00  0.00     0.142 HD
BRANCH   7   9
ATOM      9  S   UNL A   1      32.427  21.709  23.645  1.00  0.00     0.260 S 
ATOM     10  O   UNL A   1      31.812  21.639  22.340  1.00  0.00    -0.205 OA
ATOM     11  O   UNL A   1      31.711  22.169  24.815  1.00  0.00    -0.205 OA
BRANCH   9  12
ATOM     12  C   UNL A   1      32.906  20.075  24.023  1.00  0.00     0.188 A 
ATOM     13  N   UNL A   1      34.075  18.306  24.538  1.00  0.00    -0.336 N 
ATOM     14  C   UNL A   1      32.907  17.933  23.930  1.00  0.00     0.201 A 
ATOM     15  C   UNL A   1      34.047  19.666  24.689  1.00  0.00     0.129 A 
ATOM     16  N   UNL A   1      32.181  18.972  23.602  1.00  0.00    -0.224 NA
BRANCH  13  17
ATOM     17  C   UNL A   1      35.136  17.375  24.868  1.00  0.00     0.120 C 
ATOM     18  C   UNL A   1      34.770  15.902  24.815  1.00  0.00     0.027 C 
ENDBRANCH  13  17
ENDBRANCH   9  12
ENDBRANCH   7   9
ENDBRANCH   6   7
BRANCH   6  19
ATOM     19  C   UNL A   1      34.579  24.374  25.186  1.00  0.00     0.087 C 
BRANCH  19  20
ATOM     20  C   UNL A   1      33.203  24.883  25.458  1.00  0.00     0.037 A 
ATOM     21  C   UNL A   1      32.482  25.014  26.626  1.00  0.00     0.134 A 
ATOM     22  N   UNL A   1      32.326  25.274  24.471  1.00  0.00    -0.348 N 
ATOM     23  N   UNL A   1      31.217  25.468  26.373  1.00  0.00    -0.245 NA
ATOM     24  C   UNL A   1      31.153  25.627  25.073  1.00  0.00     0.196 A 
ATOM     25  H   UNL A   1      32.513  25.296  23.504  1.00  0.00     0.167 HD
ENDBRANCH  19  20
ENDBRANCH   6  19
ENDBRANCH   4   6
ENDBRANCH   3   4
ENDBRANCH   2   3
ENDBRANCH   1   2
BRANCH   1  26
ATOM     26  O   UNL A   1      40.162  21.755  26.726  1.00  0.00    -0.374 OA
BRANCH  26  27
ATOM     27  C   UNL A   1      41.402  21.208  26.278  1.00  0.00     0.202 C 
BRANCH  27  28
ATOM     28  C   UNL A   1      42.471  22.262  25.980  1.00  0.00     0.261 C 
BRANCH  28  29
ATOM     29  O   UNL A   1      41.860  23.562  25.906  1.00  0.00    -0.460 OA
BRANCH  29  30
ATOM     30  C   UNL A   1      42.713  24.605  26.044  1.00  0.00     0.338 C 
ATOM     31  O   UNL A   1      43.709  24.828  25.378  1.00  0.00    -0.246 OA
BRANCH  30  32
ATOM     32  C   UNL A   1      42.161  25.570  27.022  1.00  0.00     0.060 A 
ATOM     33  C   UNL A   1      42.778  26.825  27.098  1.00  0.00     0.016 A 
ATOM     34  C   UNL A   1      41.079  25.267  27.852  1.00  0.00     0.016 A 
ATOM     35  C   UNL A   1      42.357  27.755  28.045  1.00  0.00     0.010 A 
ATOM     36  C   UNL A   1      40.655  26.201  28.802  1.00  0.00     0.010 A 
ATOM     37  C   UNL A   1      41.322  27.431  28.931  1.00  0.00    -0.014 A 
BRANCH  37  38
ATOM     38  C   UNL A   1      41.077  28.305  30.103  1.00  0.00     0.031 A 
ATOM     39  C   UNL A   1      41.971  28.160  31.305  1.00  0.00     0.074 A 
ATOM     40  C   UNL A   1      40.118  29.248  30.082  1.00  0.00     0.049 A 
ATOM     41  N   UNL A   1      41.970  28.836  32.424  1.00  0.00    -0.248 NA
ATOM     42  C   UNL A   1      43.007  27.116  31.232  1.00  0.00     0.031 C 
ATOM     43  C   UNL A   1      39.211  29.512  28.967  1.00  0.00     0.029 A 
ATOM     44  N   UNL A   1      39.756  30.165  31.038  1.00  0.00    -0.354 N 
ATOM     45  C   UNL A   1      43.002  28.301  33.187  1.00  0.00     0.074 A 
ATOM     46  C   UNL A   1      43.588  27.226  32.416  1.00  0.00     0.031 C 
ATOM     47  C   UNL A   1      38.394  30.528  29.302  1.00  0.00     0.029 A 
ATOM     48  C   UNL A   1      38.705  30.966  30.661  1.00  0.00     0.049 A 
ATOM     49  H   UNL A   1      40.206  30.241  31.910  1.00  0.00     0.167 HD
ATOM     50  C   UNL A   1      43.430  28.673  34.416  1.00  0.00     0.031 A 
ATOM     51  C   UNL A   1      38.060  31.934  31.343  1.00  0.00     0.031 A 
ATOM     52  C   UNL A   1      42.839  29.727  35.192  1.00  0.00     0.049 A 
ATOM     53  C   UNL A   1      38.507  32.283  32.738  1.00  0.00     0.074 A 
ATOM     54  C   UNL A   1      43.208  30.185  36.445  1.00  0.00     0.029 A 
ATOM     55  N   UNL A   1      41.748  30.484  34.794  1.00  0.00    -0.354 N 
ATOM     56  N   UNL A   1      39.503  31.788  33.434  1.00  0.00    -0.248 NA
ATOM     57  C   UNL A   1      37.744  33.327  33.440  1.00  0.00     0.031 C 
ATOM     58  C   UNL A   1      42.311  31.189  36.824  1.00  0.00     0.029 A 
ATOM     59  C   UNL A   1      41.413  31.388  35.787  1.00  0.00     0.049 A 
ATOM     60  H   UNL A   1      41.280  30.391  33.933  1.00  0.00     0.167 HD
ATOM     61  C   UNL A   1      39.498  32.472  34.646  1.00  0.00     0.074 A 
ATOM     62  C   UNL A   1      38.409  33.424  34.585  1.00  0.00     0.031 C 
ATOM     63  C   UNL A   1      40.324  32.329  35.710  1.00  0.00     0.031 A 
BRANCH  50  64
ATOM     64  C   UNL A   1      44.578  27.903  35.004  1.00  0.00    -0.014 A 
ATOM     65  C   UNL A   1      45.909  28.265  34.730  1.00  0.00     0.010 A 
ATOM     66  C   UNL A   1      44.324  26.810  35.853  1.00  0.00     0.010 A 
ATOM     67  C   UNL A   1      46.967  27.524  35.265  1.00  0.00     0.020 A 
ATOM     68  C   UNL A   1      45.379  26.080  36.405  1.00  0.00     0.020 A 
ATOM     69  C   UNL A   1      46.694  26.431  36.094  1.00  0.00     0.054 A 
BRANCH  69  70
ATOM     70  S   UNL A   1      48.082  25.489  36.782  1.00  0.00     0.124 S 
ATOM     71  O   UNL A   1      47.874  24.170  36.189  1.00  0.00    -0.237 OA
ATOM     72  O   UNL A   1      49.246  26.220  36.289  1.00  0.00    -0.237 OA
ATOM     73  O   UNL A   1      47.869  25.564  38.225  1.00  0.00    -0.744 OA
ENDBRANCH  69  70
ENDBRANCH  50  64
BRANCH  51  74
ATOM     74  C   UNL A   1      36.904  32.635  30.722  1.00  0.00    -0.014 A 
ATOM     75  C   UNL A   1      37.104  33.646  29.767  1.00  0.00     0.010 A 
ATOM     76  C   UNL A   1      35.591  32.292  31.093  1.00  0.00     0.010 A 
ATOM     77  C   UNL A   1      36.012  34.315  29.205  1.00  0.00     0.020 A 
ATOM     78  C   UNL A   1      34.495  32.944  30.517  1.00  0.00     0.020 A 
ATOM     79  C   UNL A   1      34.714  33.960  29.586  1.00  0.00     0.054 A 
BRANCH  79  80
ATOM     80  S   UNL A   1      33.308  34.810  28.815  1.00  0.00     0.124 S 
ATOM     81  O   UNL A   1      32.447  35.074  29.963  1.00  0.00    -0.237 OA
ATOM     82  O   UNL A   1      33.935  35.983  28.211  1.00  0.00    -0.237 OA
ATOM     83  O   UNL A   1      32.797  33.826  27.862  1.00  0.00    -0.744 OA
ENDBRANCH  79  80
ENDBRANCH  51  74
BRANCH  63  84
ATOM     84  C   UNL A   1      40.102  33.233  36.892  1.00  0.00    -0.014 A 
ATOM     85  C   UNL A   1      40.811  34.439  37.026  1.00  0.00     0.010 A 
ATOM     86  C   UNL A   1      39.119  32.905  37.843  1.00  0.00     0.010 A 
ATOM     87  C   UNL A   1      40.557  35.292  38.103  1.00  0.00     0.020 A 
ATOM     88  C   UNL A   1      38.847  33.765  38.909  1.00  0.00     0.020 A 
ATOM     89  C   UNL A   1      39.576  34.949  39.039  1.00  0.00     0.054 A 
BRANCH  89  90
ATOM     90  S   UNL A   1      39.221  36.098  40.399  1.00  0.00     0.124 S 
ATOM     91  O   UNL A   1      38.254  35.342  41.189  1.00  0.00    -0.237 OA
ATOM     92  O   UNL A   1      40.531  36.283  41.017  1.00  0.00    -0.237 OA
ATOM     93  O   UNL A   1      38.688  37.278  39.722  1.00  0.00    -0.744 OA
ENDBRANCH  89  90
ENDBRANCH  63  84
ENDBRANCH  37  38
ENDBRANCH  30  32
ENDBRANCH  29  30
ENDBRANCH  28  29
ENDBRANCH  27  28
ENDBRANCH  26  27
ENDBRANCH   1  26
TORSDOF 23
ENDMDL
MODEL 2
REMARK VINA RESULT:      -9.2      5.901     11.060
REMARK SMILES CCn1cnc(S(=O)(=O)N[C@H](Cc2cnc[nH]2)C(=O)OCCOCCOC(=O)c2ccc(-c3c4nc(c(-c5ccc(S(=O)(=O)[O-])cc5)c5ccc([nH]5)c(-c5ccc(S(=O)(=O)[O-])cc5)c5nc(c(-c6ccc(S(=O)(=O)[O-])cc6)c6ccc3[nH]6)C=C5)C=C4)cc2)c1
REMARK SMILES IDX 22 1 21 2 20 3 18 4 19 5 11 6 10 7 7 9 8 10 9 11 6 12 3 13
REMARK SMILES IDX 4 14 89 15 5 16 2 17 1 18 12 19 13 20 14 21 17 22 15 23
REMARK SMILES IDX 16 24 23 26 24 27 25 28 26 29 27 30 28 31 29 32 30 33 88 34
REMARK SMILES IDX 31 35 87 36 32 37 33 38 34 39 81 40 35 41 86 42 80 43 82 44
REMARK SMILES IDX 36 45 85 46 79 47 78 48 37 50 67 51 48 52 66 53 49 54 52 55
REMARK SMILES IDX 65 56 83 57 50 58 51 59 64 61 84 62 53 63 38 64 39 65 47 66
REMARK SMILES IDX 40 67 46 68 41 69 42 70 43 71 44 72 45 73 68 74 69 75 77 76
REMARK SMILES IDX 70 77 76 78 71 79 72 80 73 81 74 82 75 83 54 84 55 85 63 86
REMARK SMILES IDX 56 87 62 88 57 89 58 90 59 91 60 92 61 93
REMARK H PARENT 10 8 17 25 82 49 52 60
REMARK Flexibility Score: inf
ROOT
ATOM      1  C   UNL A   1      36.828  22.920  24.607  1.00  0.00     0.202 C 
ENDROOT
BRANCH   1   2
ATOM      2  C   UNL A   1      35.316  22.971  24.840  1.00  0.00     0.261 C 
BRANCH   2   3
ATOM      3  O   UNL A   1      34.800  24.308  24.688  1.00  0.00    -0.462 OA
BRANCH   3   4
ATOM      4  C   UNL A   1      33.992  24.513  23.624  1.00  0.00     0.324 C 
ATOM      5  O   UNL A   1      34.347  24.527  22.450  1.00  0.00    -0.250 OA
BRANCH   4   6
ATOM      6  C   UNL A   1      32.545  24.717  24.024  1.00  0.00     0.185 C 
BRANCH   6   7
ATOM      7  N   UNL A   1      32.238  25.038  25.447  1.00  0.00    -0.195 NA
ATOM      8  H   UNL A   1      31.324  24.637  25.657  1.00  0.00     0.142 HD
BRANCH   7   9
ATOM      9  S   UNL A   1      32.189  26.679  25.913  1.00  0.00     0.260 S 
ATOM     10  O   UNL A   1      33.570  27.047  26.121  1.00  0.00    -0.205 OA
ATOM     11  O   UNL A   1      31.197  26.769  26.961  1.00  0.00    -0.205 OA
BRANCH   9  12
ATOM     12  C   UNL A   1      31.609  27.735  24.651  1.00  0.00     0.188 A 
ATOM     13  N   UNL A   1      30.345  28.743  23.186  1.00  0.00    -0.336 N 
ATOM     14  C   UNL A   1      31.662  28.884  22.842  1.00  0.00     0.201 A 
ATOM     15  C   UNL A   1      30.299  28.092  24.389  1.00  0.00     0.129 A 
ATOM     16  N   UNL A   1      32.451  28.286  23.700  1.00  0.00    -0.224 NA
BRANCH  13  17
ATOM     17  C   UNL A   1      29.249  29.170  22.340  1.00  0.00     0.120 C 
ATOM     18  C   UNL A   1      29.231  30.643  21.965  1.00  0.00     0.027 C 
ENDBRANCH  13  17
ENDBRANCH   9  12
ENDBRANCH   7   9
ENDBRANCH   6   7
BRANCH   6  19
ATOM     19  C   UNL A   1      31.617  23.609  23.487  1.00  0.00     0.087 C 
BRANCH  19  20
ATOM     20  C   UNL A   1      31.872  22.227  23.990  1.00  0.00     0.037 A 
ATOM     21  C   UNL A   1      31.751  21.664  25.242  1.00  0.00     0.134 A 
ATOM     22  N   UNL A   1      32.388  21.217  23.209  1.00  0.00    -0.348 N 
ATOM     23  N   UNL A   1      32.172  20.363  25.237  1.00  0.00    -0.245 NA
ATOM     24  C   UNL A   1      32.538  20.116  24.002  1.00  0.00     0.196 A 
ATOM     25  H   UNL A   1      32.608  21.278  22.252  1.00  0.00     0.167 HD
ENDBRANCH  19  20
ENDBRANCH   6  19
ENDBRANCH   4   6
ENDBRANCH   3   4
ENDBRANCH   2   3
ENDBRANCH   1   2
BRANCH   1  26
ATOM     26  O   UNL A   1      37.404  21.629  24.821  1.00  0.00    -0.374 OA
BRANCH  26  27
ATOM     27  C   UNL A   1      38.548  21.593  25.675  1.00  0.00     0.202 C 
BRANCH  27  28
ATOM     28  C   UNL A   1      39.219  20.221  25.751  1.00  0.00     0.261 C 
BRANCH  28  29
ATOM     29  O   UNL A   1      40.186  20.215  26.816  1.00  0.00    -0.460 OA
BRANCH  29  30
ATOM     30  C   UNL A   1      41.449  19.898  26.442  1.00  0.00     0.338 C 
ATOM     31  O   UNL A   1      41.827  18.840  25.968  1.00  0.00    -0.246 OA
BRANCH  30  32
ATOM     32  C   UNL A   1      42.305  21.103  26.516  1.00  0.00     0.060 A 
ATOM     33  C   UNL A   1      42.656  21.559  27.793  1.00  0.00     0.016 A 
ATOM     34  C   UNL A   1      42.750  21.782  25.379  1.00  0.00     0.016 A 
ATOM     35  C   UNL A   1      43.399  22.729  27.938  1.00  0.00     0.010 A 
ATOM     36  C   UNL A   1      43.497  22.956  25.525  1.00  0.00     0.010 A 
ATOM     37  C   UNL A   1      43.785  23.457  26.805  1.00  0.00    -0.014 A 
BRANCH  37  38
ATOM     38  C   UNL A   1      44.321  24.828  26.978  1.00  0.00     0.031 A 
ATOM     39  C   UNL A   1      43.376  25.917  27.410  1.00  0.00     0.074 A 
ATOM     40  C   UNL A   1      45.629  25.093  26.812  1.00  0.00     0.049 A 
ATOM     41  N   UNL A   1      43.622  27.176  27.659  1.00  0.00    -0.248 NA
ATOM     42  C   UNL A   1      41.965  25.532  27.587  1.00  0.00     0.031 C 
ATOM     43  C   UNL A   1      46.650  24.120  26.432  1.00  0.00     0.029 A 
ATOM     44  N   UNL A   1      46.319  26.271  26.953  1.00  0.00    -0.354 N 
ATOM     45  C   UNL A   1      42.401  27.733  28.023  1.00  0.00     0.074 A 
ATOM     46  C   UNL A   1      41.411  26.683  27.934  1.00  0.00     0.031 C 
ATOM     47  C   UNL A   1      47.842  24.742  26.368  1.00  0.00     0.029 A 
ATOM     48  C   UNL A   1      47.661  26.158  26.680  1.00  0.00     0.049 A 
ATOM     49  H   UNL A   1      45.893  27.117  27.222  1.00  0.00     0.167 HD
ATOM     50  C   UNL A   1      42.127  29.003  28.404  1.00  0.00     0.031 A 
ATOM     51  C   UNL A   1      48.630  27.096  26.672  1.00  0.00     0.031 A 
ATOM     52  C   UNL A   1      43.104  30.053  28.477  1.00  0.00     0.049 A 
ATOM     53  C   UNL A   1      48.288  28.519  27.030  1.00  0.00     0.074 A 
ATOM     54  C   UNL A   1      42.926  31.370  28.860  1.00  0.00     0.029 A 
ATOM     55  N   UNL A   1      44.444  29.909  28.149  1.00  0.00    -0.354 N 
ATOM     56  N   UNL A   1      47.135  29.024  27.399  1.00  0.00    -0.248 NA
ATOM     57  C   UNL A   1      49.383  29.500  26.972  1.00  0.00     0.031 C 
ATOM     58  C   UNL A   1      44.149  32.035  28.723  1.00  0.00     0.029 A 
ATOM     59  C   UNL A   1      45.098  31.119  28.297  1.00  0.00     0.049 A 
ATOM     60  H   UNL A   1      44.866  29.070  27.854  1.00  0.00     0.167 HD
ATOM     61  C   UNL A   1      47.369  30.374  27.638  1.00  0.00     0.074 A 
ATOM     62  C   UNL A   1      48.776  30.607  27.382  1.00  0.00     0.031 C 
ATOM     63  C   UNL A   1      46.500  31.334  28.037  1.00  0.00     0.031 A 
BRANCH  50  64
ATOM     64  C   UNL A   1      40.698  29.325  28.740  1.00  0.00    -0.014 A 
ATOM     65  C   UNL A   1      40.290  29.498  30.075  1.00  0.00     0.010 A 
ATOM     66  C   UNL A   1      39.754  29.469  27.708  1.00  0.00     0.010 A 
ATOM     67  C   UNL A   1      38.952  29.773  30.373  1.00  0.00     0.020 A 
ATOM     68  C   UNL A   1      38.421  29.764  28.001  1.00  0.00     0.020 A 
ATOM     69  C   UNL A   1      38.024  29.896  29.334  1.00  0.00     0.054 A 
BRANCH  69  70
ATOM     70  S   UNL A   1      36.296  30.261  29.744  1.00  0.00     0.124 S 
ATOM     71  O   UNL A   1      35.600  29.803  28.544  1.00  0.00    -0.237 OA
ATOM     72  O   UNL A   1      36.072  29.458  30.943  1.00  0.00    -0.237 OA
ATOM     73  O   UNL A   1      36.288  31.706  29.957  1.00  0.00    -0.744 OA
ENDBRANCH  69  70
ENDBRANCH  50  64
BRANCH  51  74
ATOM     74  C   UNL A   1      50.019  26.725  26.292  1.00  0.00    -0.014 A 
ATOM     75  C   UNL A   1      50.414  26.702  24.944  1.00  0.00     0.010 A 
ATOM     76  C   UNL A   1      50.955  26.385  27.287  1.00  0.00     0.010 A 
ATOM     77  C   UNL A   1      51.716  26.329  24.594  1.00  0.00     0.020 A 
ATOM     78  C   UNL A   1      52.264  26.033  26.943  1.00  0.00     0.020 A 
ATOM     79  C   UNL A   1      52.632  25.996  25.596  1.00  0.00     0.054 A 
BRANCH  79  80
ATOM     80  S   UNL A   1      54.329  25.556  25.127  1.00  0.00     0.124 S 
ATOM     81  O   UNL A   1      54.526  26.354  23.922  1.00  0.00    -0.237 OA
ATOM     82  O   UNL A   1      55.101  25.972  26.295  1.00  0.00    -0.237 OA
ATOM     83  O   UNL A   1      54.260  24.111  24.918  1.00  0.00    -0.744 OA
ENDBRANCH  79  80
ENDBRANCH  51  74
BRANCH  63  84
ATOM     84  C   UNL A   1      47.041  32.722  28.246  1.00  0.00    -0.014 A 
ATOM     85  C   UNL A   1      47.588  33.109  29.480  1.00  0.00     0.010 A 
ATOM     86  C   UNL A   1      47.065  33.627  27.169  1.00  0.00     0.010 A 
ATOM     87  C   UNL A   1      48.132  34.386  29.642  1.00  0.00     0.020 A 
ATOM     88  C   UNL A   1      47.628  34.896  27.320  1.00  0.00     0.020 A 
ATOM     89  C   UNL A   1      48.148  35.273  28.560  1.00  0.00     0.054 A 
BRANCH  89  90
ATOM     90  S   UNL A   1      48.911  36.905  28.775  1.00  0.00     0.124 S 
ATOM     91  O   UNL A   1      50.255  36.555  29.225  1.00  0.00    -0.237 OA
ATOM     92  O   UNL A   1      48.828  37.481  27.436  1.00  0.00    -0.237 OA
ATOM     93  O   UNL A   1      48.066  37.552  29.777  1.00  0.00    -0.744 OA
ENDBRANCH  89  90
ENDBRANCH  63  84
ENDBRANCH  37  38
ENDBRANCH  30  32
ENDBRANCH  29  30
ENDBRANCH  28  29
ENDBRANCH  27  28
ENDBRANCH  26  27
ENDBRANCH   1  26
TORSDOF 23
ENDMDL
MODEL 3
REMARK VINA RESULT:      -9.0      5.362      7.374
REMARK SMILES CCn1cnc(S(=O)(=O)N[C@H](Cc2cnc[nH]2)C(=O)OCCOCCOC(=O)c2ccc(-c3c4nc(c(-c5ccc(S(=O)(=O)[O-])cc5)c5ccc([nH]5)c(-c5ccc(S(=O)(=O)[O-])cc5)c5nc(c(-c6ccc(S(=O)(=O)[O-])cc6)c6ccc3[nH]6)C=C5)C=C4)cc2)c1
REMARK SMILES IDX 22 1 21 2 20 3 18 4 19 5 11 6 10 7 7 9 8 10 9 11 6 12 3 13
REMARK SMILES IDX 4 14 89 15 5 16 2 17 1 18 12 19 13 20 14 21 17 22 15 23
REMARK SMILES IDX 16 24 23 26 24 27 25 28 26 29 27 30 28 31 29 32 30 33 88 34
REMARK SMILES IDX 31 35 87 36 32 37 33 38 34 39 81 40 35 41 86 42 80 43 82 44
REMARK SMILES IDX 36 45 85 46 79 47 78 48 37 50 67 51 48 52 66 53 49 54 52 55
REMARK SMILES IDX 65 56 83 57 50 58 51 59 64 61 84 62 53 63 38 64 39 65 47 66
REMARK SMILES IDX 40 67 46 68 41 69 42 70 43 71 44 72 45 73 68 74 69 75 77 76
REMARK SMILES IDX 70 77 76 78 71 79 72 80 73 81 74 82 75 83 54 84 55 85 63 86
REMARK SMILES IDX 56 87 62 88 57 89 58 90 59 91 60 92 61 93
REMARK H PARENT 10 8 17 25 82 49 52 60
REMARK Flexibility Score: inf
ROOT
ATOM      1  C   UNL A   1      36.740  22.534  23.654  1.00  0.00     0.202 C 
ENDROOT
BRANCH   1   2
ATOM      2  C   UNL A   1      35.283  22.915  23.926  1.00  0.00     0.261 C 
BRANCH   2   3
ATOM      3  O   UNL A   1      34.845  23.986  23.068  1.00  0.00    -0.462 OA
BRANCH   3   4
ATOM      4  C   UNL A   1      33.616  23.843  22.523  1.00  0.00     0.324 C 
ATOM      5  O   UNL A   1      33.376  23.358  21.422  1.00  0.00    -0.250 OA
BRANCH   4   6
ATOM      6  C   UNL A   1      32.514  24.341  23.435  1.00  0.00     0.185 C 
BRANCH   6   7
ATOM      7  N   UNL A   1      32.816  25.462  24.370  1.00  0.00    -0.195 NA
ATOM      8  H   UNL A   1      32.084  25.467  25.081  1.00  0.00     0.142 HD
BRANCH   7   9
ATOM      9  S   UNL A   1      32.913  27.042  23.733  1.00  0.00     0.260 S 
ATOM     10  O   UNL A   1      33.677  26.905  22.515  1.00  0.00    -0.205 OA
ATOM     11  O   UNL A   1      33.339  27.889  24.825  1.00  0.00    -0.205 OA
BRANCH   9  12
ATOM     12  C   UNL A   1      31.365  27.682  23.244  1.00  0.00     0.188 A 
ATOM     13  N   UNL A   1      29.783  28.998  22.519  1.00  0.00    -0.336 N 
ATOM     14  C   UNL A   1      29.244  27.990  23.272  1.00  0.00     0.201 A 
ATOM     15  C   UNL A   1      31.127  28.763  22.414  1.00  0.00     0.129 A 
ATOM     16  N   UNL A   1      30.168  27.182  23.728  1.00  0.00    -0.224 NA
BRANCH  13  17
ATOM     17  C   UNL A   1      29.013  30.119  22.017  1.00  0.00     0.120 C 
ATOM     18  C   UNL A   1      27.579  30.216  22.511  1.00  0.00     0.027 C 
ENDBRANCH  13  17
ENDBRANCH   9  12
ENDBRANCH   7   9
ENDBRANCH   6   7
BRANCH   6  19
ATOM     19  C   UNL A   1      31.773  23.195  24.154  1.00  0.00     0.087 C 
BRANCH  19  20
ATOM     20  C   UNL A   1      30.915  23.583  25.312  1.00  0.00     0.037 A 
ATOM     21  C   UNL A   1      30.623  22.943  26.498  1.00  0.00     0.134 A 
ATOM     22  N   UNL A   1      30.151  24.728  25.344  1.00  0.00    -0.348 N 
ATOM     23  N   UNL A   1      29.719  23.661  27.232  1.00  0.00    -0.245 NA
ATOM     24  C   UNL A   1      29.461  24.733  26.522  1.00  0.00     0.196 A 
ATOM     25  H   UNL A   1      30.110  25.418  24.643  1.00  0.00     0.167 HD
ENDBRANCH  19  20
ENDBRANCH   6  19
ENDBRANCH   4   6
ENDBRANCH   3   4
ENDBRANCH   2   3
ENDBRANCH   1   2
BRANCH   1  26
ATOM     26  O   UNL A   1      37.194  21.406  24.406  1.00  0.00    -0.374 OA
BRANCH  26  27
ATOM     27  C   UNL A   1      38.097  21.694  25.474  1.00  0.00     0.202 C 
BRANCH  27  28
ATOM     28  C   UNL A   1      39.126  20.592  25.728  1.00  0.00     0.261 C 
BRANCH  28  29
ATOM     29  O   UNL A   1      39.947  20.947  26.854  1.00  0.00    -0.460 OA
BRANCH  29  30
ATOM     30  C   UNL A   1      41.199  21.362  26.544  1.00  0.00     0.338 C 
ATOM     31  O   UNL A   1      41.994  20.799  25.812  1.00  0.00    -0.246 OA
BRANCH  30  32
ATOM     32  C   UNL A   1      41.417  22.724  27.082  1.00  0.00     0.060 A 
ATOM     33  C   UNL A   1      41.183  23.797  26.214  1.00  0.00     0.016 A 
ATOM     34  C   UNL A   1      41.847  22.957  28.391  1.00  0.00     0.016 A 
ATOM     35  C   UNL A   1      41.437  25.102  26.631  1.00  0.00     0.010 A 
ATOM     36  C   UNL A   1      42.102  24.267  28.810  1.00  0.00     0.010 A 
ATOM     37  C   UNL A   1      41.940  25.340  27.917  1.00  0.00    -0.014 A 
BRANCH  37  38
ATOM     38  C   UNL A   1      42.468  26.685  28.246  1.00  0.00     0.031 A 
ATOM     39  C   UNL A   1      43.925  26.964  27.991  1.00  0.00     0.074 A 
ATOM     40  C   UNL A   1      41.663  27.657  28.709  1.00  0.00     0.049 A 
ATOM     41  N   UNL A   1      44.599  28.070  28.165  1.00  0.00    -0.248 NA
ATOM     42  C   UNL A   1      44.727  25.847  27.465  1.00  0.00     0.031 C 
ATOM     43  C   UNL A   1      40.231  27.524  28.964  1.00  0.00     0.029 A 
ATOM     44  N   UNL A   1      41.946  28.959  29.041  1.00  0.00    -0.354 N 
ATOM     45  C   UNL A   1      45.901  27.785  27.771  1.00  0.00     0.074 A 
ATOM     46  C   UNL A   1      45.930  26.393  27.375  1.00  0.00     0.031 C 
ATOM     47  C   UNL A   1      39.757  28.700  29.414  1.00  0.00     0.029 A 
ATOM     48  C   UNL A   1      40.857  29.659  29.500  1.00  0.00     0.049 A 
ATOM     49  H   UNL A   1      42.844  29.353  28.959  1.00  0.00     0.167 HD
ATOM     50  C   UNL A   1      46.977  28.605  27.733  1.00  0.00     0.031 A 
ATOM     51  C   UNL A   1      40.763  30.926  29.951  1.00  0.00     0.031 A 
ATOM     52  C   UNL A   1      46.957  29.983  28.141  1.00  0.00     0.049 A 
ATOM     53  C   UNL A   1      41.989  31.801  29.968  1.00  0.00     0.074 A 
ATOM     54  C   UNL A   1      47.993  30.898  28.132  1.00  0.00     0.029 A 
ATOM     55  N   UNL A   1      45.844  30.640  28.643  1.00  0.00    -0.354 N 
ATOM     56  N   UNL A   1      43.206  31.524  29.564  1.00  0.00    -0.248 NA
ATOM     57  C   UNL A   1      41.826  33.163  30.499  1.00  0.00     0.031 C 
ATOM     58  C   UNL A   1      47.519  32.100  28.669  1.00  0.00     0.029 A 
ATOM     59  C   UNL A   1      46.175  31.944  28.970  1.00  0.00     0.049 A 
ATOM     60  H   UNL A   1      44.952  30.240  28.751  1.00  0.00     0.167 HD
ATOM     61  C   UNL A   1      43.949  32.682  29.773  1.00  0.00     0.074 A 
ATOM     62  C   UNL A   1      43.043  33.666  30.328  1.00  0.00     0.031 C 
ATOM     63  C   UNL A   1      45.261  32.911  29.523  1.00  0.00     0.031 A 
BRANCH  50  64
ATOM     64  C   UNL A   1      48.274  28.014  27.260  1.00  0.00    -0.014 A 
ATOM     65  C   UNL A   1      48.681  28.140  25.919  1.00  0.00     0.010 A 
ATOM     66  C   UNL A   1      49.104  27.334  28.169  1.00  0.00     0.010 A 
ATOM     67  C   UNL A   1      49.879  27.564  25.488  1.00  0.00     0.020 A 
ATOM     68  C   UNL A   1      50.312  26.775  27.746  1.00  0.00     0.020 A 
ATOM     69  C   UNL A   1      50.683  26.877  26.403  1.00  0.00     0.054 A 
BRANCH  69  70
ATOM     70  S   UNL A   1      52.237  26.144  25.823  1.00  0.00     0.124 S 
ATOM     71  O   UNL A   1      53.230  27.032  26.422  1.00  0.00    -0.237 OA
ATOM     72  O   UNL A   1      52.186  24.795  26.379  1.00  0.00    -0.237 OA
ATOM     73  O   UNL A   1      52.132  26.218  24.368  1.00  0.00    -0.744 OA
ENDBRANCH  69  70
ENDBRANCH  50  64
BRANCH  51  74
ATOM     74  C   UNL A   1      39.458  31.444  30.444  1.00  0.00    -0.014 A 
ATOM     75  C   UNL A   1      39.092  31.301  31.793  1.00  0.00     0.010 A 
ATOM     76  C   UNL A   1      38.571  32.080  29.556  1.00  0.00     0.010 A 
ATOM     77  C   UNL A   1      37.854  31.770  32.244  1.00  0.00     0.020 A 
ATOM     78  C   UNL A   1      37.341  32.570  30.007  1.00  0.00     0.020 A 
ATOM     79  C   UNL A   1      36.986  32.400  31.347  1.00  0.00     0.054 A 
BRANCH  79  80
ATOM     80  S   UNL A   1      35.401  33.040  31.958  1.00  0.00     0.124 S 
ATOM     81  O   UNL A   1      35.587  34.482  31.827  1.00  0.00    -0.237 OA
ATOM     82  O   UNL A   1      34.438  32.440  31.038  1.00  0.00    -0.237 OA
ATOM     83  O   UNL A   1      35.338  32.538  33.329  1.00  0.00    -0.744 OA
ENDBRANCH  79  80
ENDBRANCH  51  74
BRANCH  63  84
ATOM     84  C   UNL A   1      45.799  34.283  29.825  1.00  0.00    -0.014 A 
ATOM     85  C   UNL A   1      46.384  34.575  31.069  1.00  0.00     0.010 A 
ATOM     86  C   UNL A   1      45.782  35.272  28.824  1.00  0.00     0.010 A 
ATOM     87  C   UNL A   1      46.924  35.840  31.315  1.00  0.00     0.020 A 
ATOM     88  C   UNL A   1      46.341  36.530  29.059  1.00  0.00     0.020 A 
ATOM     89  C   UNL A   1      46.899  36.811  30.308  1.00  0.00     0.054 A 
BRANCH  89  90
ATOM     90  S   UNL A   1      47.657  38.428  30.629  1.00  0.00     0.124 S 
ATOM     91  O   UNL A   1      47.693  39.017  29.293  1.00  0.00    -0.237 OA
ATOM     92  O   UNL A   1      46.720  39.046  31.563  1.00  0.00    -0.237 OA
ATOM     93  O   UNL A   1      48.961  38.091  31.197  1.00  0.00    -0.744 OA
ENDBRANCH  89  90
ENDBRANCH  63  84
ENDBRANCH  37  38
ENDBRANCH  30  32
ENDBRANCH  29  30
ENDBRANCH  28  29
ENDBRANCH  27  28
ENDBRANCH  26  27
ENDBRANCH   1  26
TORSDOF 23
ENDMDL
