MODEL 1
REMARK VINA RESULT:     -10.3      0.000      0.000
REMARK SMILES CSCC[C@@H](CO)n1ccnc1-c1ccccc1C(=O)OCCOCCOC(=O)c1ccc(-c2c3nc(c(-c4ccc(S(=O)(=O)[O-])cc4)c4ccc([nH]4)c(-c4ccc(S(=O)(=O)[O-])cc4)c4nc(c(-c5ccc(S(=O)(=O)[O-])cc5)c5ccc2[nH]5)C=C4)C=C3)cc1
REMARK SMILES IDX 23 1 22 2 21 3 19 4 20 5 18 6 13 7 14 8 15 9 17 10 16 11
REMARK SMILES IDX 12 12 8 13 9 14 10 15 11 16 5 17 4 18 3 19 2 20 1 21 6 22
REMARK SMILES IDX 7 23 24 25 25 26 26 27 27 28 28 29 29 30 30 31 31 32 89 33
REMARK SMILES IDX 32 34 88 35 33 36 34 37 35 38 82 39 36 40 87 41 81 42 83 43
REMARK SMILES IDX 37 44 86 45 80 46 79 47 38 49 68 50 49 51 67 52 50 53 53 54
REMARK SMILES IDX 66 55 84 56 51 57 52 58 65 60 85 61 54 62 39 63 40 64 48 65
REMARK SMILES IDX 41 66 47 67 42 68 43 69 44 70 45 71 46 72 69 73 70 74 78 75
REMARK SMILES IDX 71 76 77 77 72 78 73 79 74 80 75 81 76 82 55 83 56 84 64 85
REMARK SMILES IDX 57 86 63 87 58 88 59 89 60 90 61 91 62 92
REMARK H PARENT 7 24 83 48 53 59
REMARK Flexibility Score: inf
ROOT
ATOM      1  C   UNL A   1      36.817  21.912  25.296  1.00  0.00     0.202 C 
ENDROOT
BRANCH   1   2
ATOM      2  C   UNL A   1      36.750  23.087  24.320  1.00  0.00     0.261 C 
BRANCH   2   3
ATOM      3  O   UNL A   1      35.472  23.296  23.692  1.00  0.00    -0.460 OA
BRANCH   3   4
ATOM      4  C   UNL A   1      34.738  24.275  24.267  1.00  0.00     0.338 C 
ATOM      5  O   UNL A   1      34.974  24.786  25.357  1.00  0.00    -0.246 OA
BRANCH   4   6
ATOM      6  C   UNL A   1      33.607  24.755  23.444  1.00  0.00     0.071 A 
ATOM      7  C   UNL A   1      32.255  24.421  23.604  1.00  0.00     0.032 A 
ATOM      8  C   UNL A   1      31.322  25.058  22.750  1.00  0.00     0.013 A 
ATOM      9  C   UNL A   1      31.706  25.990  21.783  1.00  0.00     0.001 A 
ATOM     10  C   UNL A   1      33.985  25.699  22.460  1.00  0.00     0.016 A 
ATOM     11  C   UNL A   1      33.046  26.307  21.632  1.00  0.00     0.001 A 
BRANCH   7  12
ATOM     12  C   UNL A   1      31.674  23.417  24.509  1.00  0.00     0.141 A 
ATOM     13  N   UNL A   1      32.031  22.089  24.697  1.00  0.00    -0.326 N 
ATOM     14  C   UNL A   1      31.410  21.656  25.847  1.00  0.00     0.108 A 
ATOM     15  C   UNL A   1      30.635  22.702  26.270  1.00  0.00     0.131 A 
ATOM     16  N   UNL A   1      30.801  23.770  25.443  1.00  0.00    -0.237 NA
BRANCH  13  17
ATOM     17  C   UNL A   1      32.882  21.242  23.853  1.00  0.00     0.115 C 
BRANCH  17  18
ATOM     18  C   UNL A   1      33.702  20.234  24.679  1.00  0.00     0.039 C 
BRANCH  18  19
ATOM     19  C   UNL A   1      33.235  18.777  24.558  1.00  0.00     0.071 C 
BRANCH  19  20
ATOM     20  S   UNL A   1      34.553  17.550  24.247  1.00  0.00    -0.165 SA
ATOM     21  C   UNL A   1      33.969  16.161  25.243  1.00  0.00     0.085 C 
ENDBRANCH  19  20
ENDBRANCH  18  19
ENDBRANCH  17  18
BRANCH  17  22
ATOM     22  C   UNL A   1      32.058  20.611  22.705  1.00  0.00     0.181 C 
BRANCH  22  23
ATOM     23  O   UNL A   1      31.774  21.530  21.654  1.00  0.00    -0.394 OA
ATOM     24  H   UNL A   1      31.988  22.430  21.944  1.00  0.00     0.210 HD
ENDBRANCH  22  23
ENDBRANCH  17  22
ENDBRANCH  13  17
ENDBRANCH   7  12
ENDBRANCH   4   6
ENDBRANCH   3   4
ENDBRANCH   2   3
ENDBRANCH   1   2
BRANCH   1  25
ATOM     25  O   UNL A   1      37.331  20.663  24.855  1.00  0.00    -0.374 OA
BRANCH  25  26
ATOM     26  C   UNL A   1      38.642  20.249  25.226  1.00  0.00     0.202 C 
BRANCH  26  27
ATOM     27  C   UNL A   1      39.491  21.138  26.127  1.00  0.00     0.261 C 
BRANCH  27  28
ATOM     28  O   UNL A   1      40.547  20.434  26.774  1.00  0.00    -0.460 OA
BRANCH  28  29
ATOM     29  C   UNL A   1      41.696  20.413  26.073  1.00  0.00     0.338 C 
ATOM     30  O   UNL A   1      42.116  19.473  25.389  1.00  0.00    -0.246 OA
BRANCH  29  31
ATOM     31  C   UNL A   1      42.492  21.610  26.340  1.00  0.00     0.060 A 
ATOM     32  C   UNL A   1      42.811  21.830  27.682  1.00  0.00     0.016 A 
ATOM     33  C   UNL A   1      42.617  22.621  25.375  1.00  0.00     0.016 A 
ATOM     34  C   UNL A   1      43.003  23.123  28.103  1.00  0.00     0.010 A 
ATOM     35  C   UNL A   1      42.816  23.920  25.801  1.00  0.00     0.010 A 
ATOM     36  C   UNL A   1      42.894  24.160  27.172  1.00  0.00    -0.014 A 
BRANCH  36  37
ATOM     37  C   UNL A   1      42.776  25.495  27.723  1.00  0.00     0.031 A 
ATOM     38  C   UNL A   1      43.927  26.385  27.484  1.00  0.00     0.074 A 
ATOM     39  C   UNL A   1      41.690  25.900  28.405  1.00  0.00     0.049 A 
ATOM     40  N   UNL A   1      44.739  26.895  28.349  1.00  0.00    -0.248 NA
ATOM     41  C   UNL A   1      44.268  26.655  26.081  1.00  0.00     0.031 C 
ATOM     42  C   UNL A   1      40.381  25.247  28.477  1.00  0.00     0.029 A 
ATOM     43  N   UNL A   1      41.504  27.062  29.091  1.00  0.00    -0.354 N 
ATOM     44  C   UNL A   1      45.590  27.711  27.617  1.00  0.00     0.074 A 
ATOM     45  C   UNL A   1      45.350  27.416  26.224  1.00  0.00     0.031 C 
ATOM     46  C   UNL A   1      39.479  26.129  28.961  1.00  0.00     0.029 A 
ATOM     47  C   UNL A   1      40.173  27.348  29.347  1.00  0.00     0.049 A 
ATOM     48  H   UNL A   1      42.244  27.644  29.378  1.00  0.00     0.167 HD
ATOM     49  C   UNL A   1      46.276  28.741  28.181  1.00  0.00     0.031 A 
ATOM     50  C   UNL A   1      39.670  28.539  29.746  1.00  0.00     0.031 A 
ATOM     51  C   UNL A   1      46.364  28.638  29.611  1.00  0.00     0.049 A 
ATOM     52  C   UNL A   1      40.776  29.332  30.337  1.00  0.00     0.074 A 
ATOM     53  C   UNL A   1      46.903  27.723  30.491  1.00  0.00     0.029 A 
ATOM     54  N   UNL A   1      45.542  29.447  30.358  1.00  0.00    -0.354 N 
ATOM     55  N   UNL A   1      41.372  29.033  31.456  1.00  0.00    -0.248 NA
ATOM     56  C   UNL A   1      41.485  30.285  29.495  1.00  0.00     0.031 C 
ATOM     57  C   UNL A   1      46.063  27.760  31.642  1.00  0.00     0.029 A 
ATOM     58  C   UNL A   1      45.059  28.700  31.403  1.00  0.00     0.049 A 
ATOM     59  H   UNL A   1      45.335  30.393  30.176  1.00  0.00     0.167 HD
ATOM     60  C   UNL A   1      42.687  29.437  31.286  1.00  0.00     0.074 A 
ATOM     61  C   UNL A   1      42.663  30.314  30.122  1.00  0.00     0.031 C 
ATOM     62  C   UNL A   1      43.713  28.809  31.935  1.00  0.00     0.031 A 
BRANCH  49  63
ATOM     63  C   UNL A   1      46.541  30.024  27.439  1.00  0.00    -0.014 A 
ATOM     64  C   UNL A   1      47.851  30.534  27.379  1.00  0.00     0.010 A 
ATOM     65  C   UNL A   1      45.495  30.881  27.033  1.00  0.00     0.010 A 
ATOM     66  C   UNL A   1      48.092  31.856  26.979  1.00  0.00     0.020 A 
ATOM     67  C   UNL A   1      45.728  32.179  26.585  1.00  0.00     0.020 A 
ATOM     68  C   UNL A   1      47.024  32.672  26.601  1.00  0.00     0.054 A 
BRANCH  68  69
ATOM     69  S   UNL A   1      47.322  34.413  26.210  1.00  0.00     0.124 S 
ATOM     70  O   UNL A   1      46.978  35.061  27.471  1.00  0.00    -0.237 OA
ATOM     71  O   UNL A   1      48.740  34.417  25.858  1.00  0.00    -0.237 OA
ATOM     72  O   UNL A   1      46.411  34.674  25.098  1.00  0.00    -0.744 OA
ENDBRANCH  68  69
ENDBRANCH  49  63
BRANCH  50  73
ATOM     73  C   UNL A   1      38.374  29.131  29.337  1.00  0.00    -0.014 A 
ATOM     74  C   UNL A   1      37.375  29.416  30.284  1.00  0.00     0.010 A 
ATOM     75  C   UNL A   1      38.213  29.652  28.036  1.00  0.00     0.010 A 
ATOM     76  C   UNL A   1      36.282  30.234  29.952  1.00  0.00     0.020 A 
ATOM     77  C   UNL A   1      37.121  30.453  27.693  1.00  0.00     0.020 A 
ATOM     78  C   UNL A   1      36.171  30.759  28.661  1.00  0.00     0.054 A 
BRANCH  78  79
ATOM     79  S   UNL A   1      34.847  31.943  28.286  1.00  0.00     0.124 S 
ATOM     80  O   UNL A   1      34.372  32.309  29.617  1.00  0.00    -0.237 OA
ATOM     81  O   UNL A   1      35.555  32.991  27.556  1.00  0.00    -0.237 OA
ATOM     82  O   UNL A   1      33.905  31.163  27.483  1.00  0.00    -0.744 OA
ENDBRANCH  78  79
ENDBRANCH  50  73
BRANCH  62  83
ATOM     83  C   UNL A   1      43.378  27.916  33.108  1.00  0.00    -0.014 A 
ATOM     84  C   UNL A   1      43.565  26.520  33.089  1.00  0.00     0.010 A 
ATOM     85  C   UNL A   1      43.007  28.524  34.322  1.00  0.00     0.010 A 
ATOM     86  C   UNL A   1      43.363  25.751  34.243  1.00  0.00     0.020 A 
ATOM     87  C   UNL A   1      42.821  27.765  35.482  1.00  0.00     0.020 A 
ATOM     88  C   UNL A   1      42.995  26.381  35.436  1.00  0.00     0.054 A 
BRANCH  88  89
ATOM     89  S   UNL A   1      42.811  25.386  36.943  1.00  0.00     0.124 S 
ATOM     90  O   UNL A   1      42.721  26.404  37.986  1.00  0.00    -0.237 OA
ATOM     91  O   UNL A   1      41.582  24.635  36.691  1.00  0.00    -0.237 OA
ATOM     92  O   UNL A   1      44.026  24.573  36.974  1.00  0.00    -0.744 OA
ENDBRANCH  88  89
ENDBRANCH  62  83
ENDBRANCH  36  37
ENDBRANCH  29  31
ENDBRANCH  28  29
ENDBRANCH  27  28
ENDBRANCH  26  27
ENDBRANCH  25  26
ENDBRANCH   1  25
TORSDOF 24
ENDMDL
MODEL 2
REMARK VINA RESULT:     -10.2      2.799      4.156
REMARK SMILES CSCC[C@@H](CO)n1ccnc1-c1ccccc1C(=O)OCCOCCOC(=O)c1ccc(-c2c3nc(c(-c4ccc(S(=O)(=O)[O-])cc4)c4ccc([nH]4)c(-c4ccc(S(=O)(=O)[O-])cc4)c4nc(c(-c5ccc(S(=O)(=O)[O-])cc5)c5ccc2[nH]5)C=C4)C=C3)cc1
REMARK SMILES IDX 23 1 22 2 21 3 19 4 20 5 18 6 13 7 14 8 15 9 17 10 16 11
REMARK SMILES IDX 12 12 8 13 9 14 10 15 11 16 5 17 4 18 3 19 2 20 1 21 6 22
REMARK SMILES IDX 7 23 24 25 25 26 26 27 27 28 28 29 29 30 30 31 31 32 89 33
REMARK SMILES IDX 32 34 88 35 33 36 34 37 35 38 82 39 36 40 87 41 81 42 83 43
REMARK SMILES IDX 37 44 86 45 80 46 79 47 38 49 68 50 49 51 67 52 50 53 53 54
REMARK SMILES IDX 66 55 84 56 51 57 52 58 65 60 85 61 54 62 39 63 40 64 48 65
REMARK SMILES IDX 41 66 47 67 42 68 43 69 44 70 45 71 46 72 69 73 70 74 78 75
REMARK SMILES IDX 71 76 77 77 72 78 73 79 74 80 75 81 76 82 55 83 56 84 64 85
REMARK SMILES IDX 57 86 63 87 58 88 59 89 60 90 61 91 62 92
REMARK H PARENT 7 24 83 48 53 59
REMARK Flexibility Score: inf
ROOT
ATOM      1  C   UNL A   1      35.360  22.705  26.152  1.00  0.00     0.202 C 
ENDROOT
BRANCH   1   2
ATOM      2  C   UNL A   1      35.265  24.057  25.445  1.00  0.00     0.261 C 
BRANCH   2   3
ATOM      3  O   UNL A   1      34.332  24.989  26.018  1.00  0.00    -0.460 OA
BRANCH   3   4
ATOM      4  C   UNL A   1      33.967  25.981  25.175  1.00  0.00     0.338 C 
ATOM      5  O   UNL A   1      33.961  25.899  23.950  1.00  0.00    -0.246 OA
BRANCH   4   6
ATOM      6  C   UNL A   1      33.503  27.215  25.845  1.00  0.00     0.071 A 
ATOM      7  C   UNL A   1      32.178  27.658  25.957  1.00  0.00     0.032 A 
ATOM      8  C   UNL A   1      31.947  28.834  26.711  1.00  0.00     0.013 A 
ATOM      9  C   UNL A   1      32.979  29.540  27.333  1.00  0.00     0.001 A 
ATOM     10  C   UNL A   1      34.541  27.939  26.478  1.00  0.00     0.016 A 
ATOM     11  C   UNL A   1      34.285  29.094  27.210  1.00  0.00     0.001 A 
BRANCH   7  12
ATOM     12  C   UNL A   1      30.979  27.093  25.317  1.00  0.00     0.141 A 
ATOM     13  N   UNL A   1      30.460  27.335  24.053  1.00  0.00    -0.326 N 
ATOM     14  C   UNL A   1      29.520  26.360  23.803  1.00  0.00     0.108 A 
ATOM     15  C   UNL A   1      29.440  25.615  24.948  1.00  0.00     0.131 A 
ATOM     16  N   UNL A   1      30.332  26.075  25.867  1.00  0.00    -0.237 NA
BRANCH  13  17
ATOM     17  C   UNL A   1      30.786  28.421  23.121  1.00  0.00     0.115 C 
BRANCH  17  18
ATOM     18  C   UNL A   1      30.035  29.722  23.458  1.00  0.00     0.039 C 
BRANCH  18  19
ATOM     19  C   UNL A   1      29.596  30.541  22.236  1.00  0.00     0.071 C 
BRANCH  19  20
ATOM     20  S   UNL A   1      27.899  30.218  21.639  1.00  0.00    -0.165 SA
ATOM     21  C   UNL A   1      27.240  29.232  23.000  1.00  0.00     0.085 C 
ENDBRANCH  19  20
ENDBRANCH  18  19
ENDBRANCH  17  18
BRANCH  17  22
ATOM     22  C   UNL A   1      32.319  28.580  22.983  1.00  0.00     0.181 C 
BRANCH  22  23
ATOM     23  O   UNL A   1      32.850  27.889  21.856  1.00  0.00    -0.394 OA
ATOM     24  H   UNL A   1      32.493  26.987  21.831  1.00  0.00     0.210 HD
ENDBRANCH  22  23
ENDBRANCH  17  22
ENDBRANCH  13  17
ENDBRANCH   7  12
ENDBRANCH   4   6
ENDBRANCH   3   4
ENDBRANCH   2   3
ENDBRANCH   1   2
BRANCH   1  25
ATOM     25  O   UNL A   1      35.844  21.574  25.442  1.00  0.00    -0.374 OA
BRANCH  25  26
ATOM     26  C   UNL A   1      37.071  21.642  24.723  1.00  0.00     0.202 C 
BRANCH  26  27
ATOM     27  C   UNL A   1      38.389  21.401  25.448  1.00  0.00     0.261 C 
BRANCH  27  28
ATOM     28  O   UNL A   1      38.725  22.442  26.361  1.00  0.00    -0.460 OA
BRANCH  28  29
ATOM     29  C   UNL A   1      39.951  22.314  26.902  1.00  0.00     0.338 C 
ATOM     30  O   UNL A   1      40.398  21.311  27.469  1.00  0.00    -0.246 OA
BRANCH  29  31
ATOM     31  C   UNL A   1      40.667  23.589  26.877  1.00  0.00     0.060 A 
ATOM     32  C   UNL A   1      41.591  23.779  27.908  1.00  0.00     0.016 A 
ATOM     33  C   UNL A   1      40.208  24.657  26.090  1.00  0.00     0.016 A 
ATOM     34  C   UNL A   1      41.853  25.062  28.321  1.00  0.00     0.010 A 
ATOM     35  C   UNL A   1      40.479  25.946  26.504  1.00  0.00     0.010 A 
ATOM     36  C   UNL A   1      41.207  26.123  27.680  1.00  0.00    -0.014 A 
BRANCH  36  37
ATOM     37  C   UNL A   1      41.262  27.401  28.361  1.00  0.00     0.031 A 
ATOM     38  C   UNL A   1      42.477  28.199  28.115  1.00  0.00     0.074 A 
ATOM     39  C   UNL A   1      40.273  27.835  29.162  1.00  0.00     0.049 A 
ATOM     40  N   UNL A   1      43.396  28.542  28.957  1.00  0.00    -0.248 NA
ATOM     41  C   UNL A   1      42.745  28.576  26.721  1.00  0.00     0.031 C 
ATOM     42  C   UNL A   1      38.913  27.302  29.276  1.00  0.00     0.029 A 
ATOM     43  N   UNL A   1      40.253  28.934  29.965  1.00  0.00    -0.354 N 
ATOM     44  C   UNL A   1      44.270  29.344  28.239  1.00  0.00     0.074 A 
ATOM     45  C   UNL A   1      43.905  29.215  26.848  1.00  0.00     0.031 C 
ATOM     46  C   UNL A   1      38.141  28.212  29.910  1.00  0.00     0.029 A 
ATOM     47  C   UNL A   1      38.979  29.315  30.352  1.00  0.00     0.049 A 
ATOM     48  H   UNL A   1      41.067  29.412  30.246  1.00  0.00     0.167 HD
ATOM     49  C   UNL A   1      45.095  30.243  28.840  1.00  0.00     0.031 A 
ATOM     50  C   UNL A   1      38.628  30.502  30.899  1.00  0.00     0.031 A 
ATOM     51  C   UNL A   1      45.272  29.989  30.243  1.00  0.00     0.049 A 
ATOM     52  C   UNL A   1      39.846  31.125  31.472  1.00  0.00     0.074 A 
ATOM     53  C   UNL A   1      45.776  28.944  30.988  1.00  0.00     0.029 A 
ATOM     54  N   UNL A   1      44.589  30.792  31.125  1.00  0.00    -0.354 N 
ATOM     55  N   UNL A   1      40.486  30.660  32.508  1.00  0.00    -0.248 NA
ATOM     56  C   UNL A   1      40.587  32.087  30.670  1.00  0.00     0.031 C 
ATOM     57  C   UNL A   1      45.027  28.943  32.200  1.00  0.00     0.029 A 
ATOM     58  C   UNL A   1      44.108  29.992  32.131  1.00  0.00     0.049 A 
ATOM     59  H   UNL A   1      44.467  31.766  31.049  1.00  0.00     0.167 HD
ATOM     60  C   UNL A   1      41.820  30.955  32.272  1.00  0.00     0.074 A 
ATOM     61  C   UNL A   1      41.803  31.943  31.201  1.00  0.00     0.031 C 
ATOM     62  C   UNL A   1      42.821  30.172  32.776  1.00  0.00     0.031 A 
BRANCH  49  63
ATOM     63  C   UNL A   1      45.435  31.564  28.203  1.00  0.00    -0.014 A 
ATOM     64  C   UNL A   1      46.783  31.921  28.020  1.00  0.00     0.010 A 
ATOM     65  C   UNL A   1      44.469  32.580  28.029  1.00  0.00     0.010 A 
ATOM     66  C   UNL A   1      47.146  33.243  27.726  1.00  0.00     0.020 A 
ATOM     67  C   UNL A   1      44.815  33.885  27.688  1.00  0.00     0.020 A 
ATOM     68  C   UNL A   1      46.157  34.218  27.579  1.00  0.00     0.054 A 
BRANCH  68  69
ATOM     69  S   UNL A   1      46.632  35.945  27.329  1.00  0.00     0.124 S 
ATOM     70  O   UNL A   1      48.088  35.862  27.395  1.00  0.00    -0.237 OA
ATOM     71  O   UNL A   1      46.071  36.238  26.013  1.00  0.00    -0.237 OA
ATOM     72  O   UNL A   1      45.990  36.639  28.442  1.00  0.00    -0.744 OA
ENDBRANCH  68  69
ENDBRANCH  49  63
BRANCH  50  73
ATOM     73  C   UNL A   1      37.372  31.250  30.652  1.00  0.00    -0.014 A 
ATOM     74  C   UNL A   1      37.016  32.354  31.446  1.00  0.00     0.010 A 
ATOM     75  C   UNL A   1      36.641  31.031  29.465  1.00  0.00     0.010 A 
ATOM     76  C   UNL A   1      35.997  33.233  31.041  1.00  0.00     0.020 A 
ATOM     77  C   UNL A   1      35.615  31.892  29.063  1.00  0.00     0.020 A 
ATOM     78  C   UNL A   1      35.313  33.002  29.842  1.00  0.00     0.054 A 
BRANCH  78  79
ATOM     79  S   UNL A   1      34.114  34.227  29.245  1.00  0.00     0.124 S 
ATOM     80  O   UNL A   1      33.315  33.446  28.307  1.00  0.00    -0.237 OA
ATOM     81  O   UNL A   1      33.435  34.632  30.473  1.00  0.00    -0.237 OA
ATOM     82  O   UNL A   1      34.953  35.260  28.636  1.00  0.00    -0.744 OA
ENDBRANCH  78  79
ENDBRANCH  50  73
BRANCH  62  83
ATOM     83  C   UNL A   1      42.480  29.200  33.884  1.00  0.00    -0.014 A 
ATOM     84  C   UNL A   1      41.757  28.011  33.667  1.00  0.00     0.010 A 
ATOM     85  C   UNL A   1      43.040  29.419  35.156  1.00  0.00     0.010 A 
ATOM     86  C   UNL A   1      41.579  27.080  34.698  1.00  0.00     0.020 A 
ATOM     87  C   UNL A   1      42.882  28.485  36.185  1.00  0.00     0.020 A 
ATOM     88  C   UNL A   1      42.146  27.322  35.953  1.00  0.00     0.054 A 
BRANCH  88  89
ATOM     89  S   UNL A   1      41.975  26.073  37.260  1.00  0.00     0.124 S 
ATOM     90  O   UNL A   1      42.383  24.846  36.581  1.00  0.00    -0.237 OA
ATOM     91  O   UNL A   1      42.890  26.554  38.293  1.00  0.00    -0.237 OA
ATOM     92  O   UNL A   1      40.559  26.140  37.621  1.00  0.00    -0.744 OA
ENDBRANCH  88  89
ENDBRANCH  62  83
ENDBRANCH  36  37
ENDBRANCH  29  31
ENDBRANCH  28  29
ENDBRANCH  27  28
ENDBRANCH  26  27
ENDBRANCH  25  26
ENDBRANCH   1  25
TORSDOF 24
ENDMDL
MODEL 3
REMARK VINA RESULT:      -9.9      2.010      2.651
REMARK SMILES CSCC[C@@H](CO)n1ccnc1-c1ccccc1C(=O)OCCOCCOC(=O)c1ccc(-c2c3nc(c(-c4ccc(S(=O)(=O)[O-])cc4)c4ccc([nH]4)c(-c4ccc(S(=O)(=O)[O-])cc4)c4nc(c(-c5ccc(S(=O)(=O)[O-])cc5)c5ccc2[nH]5)C=C4)C=C3)cc1
REMARK SMILES IDX 23 1 22 2 21 3 19 4 20 5 18 6 13 7 14 8 15 9 17 10 16 11
REMARK SMILES IDX 12 12 8 13 9 14 10 15 11 16 5 17 4 18 3 19 2 20 1 21 6 22
REMARK SMILES IDX 7 23 24 25 25 26 26 27 27 28 28 29 29 30 30 31 31 32 89 33
REMARK SMILES IDX 32 34 88 35 33 36 34 37 35 38 82 39 36 40 87 41 81 42 83 43
REMARK SMILES IDX 37 44 86 45 80 46 79 47 38 49 68 50 49 51 67 52 50 53 53 54
REMARK SMILES IDX 66 55 84 56 51 57 52 58 65 60 85 61 54 62 39 63 40 64 48 65
REMARK SMILES IDX 41 66 47 67 42 68 43 69 44 70 45 71 46 72 69 73 70 74 78 75
REMARK SMILES IDX 71 76 77 77 72 78 73 79 74 80 75 81 76 82 55 83 56 84 64 85
REMARK SMILES IDX 57 86 63 87 58 88 59 89 60 90 61 91 62 92
REMARK H PARENT 7 24 83 48 53 59
REMARK Flexibility Score: inf
ROOT
ATOM      1  C   UNL A   1      37.127  22.828  25.776  1.00  0.00     0.202 C 
ENDROOT
BRANCH   1   2
ATOM      2  C   UNL A   1      36.670  23.638  24.562  1.00  0.00     0.261 C 
BRANCH   2   3
ATOM      3  O   UNL A   1      35.273  23.529  24.237  1.00  0.00    -0.460 OA
BRANCH   3   4
ATOM      4  C   UNL A   1      34.538  24.591  24.636  1.00  0.00     0.338 C 
ATOM      5  O   UNL A   1      34.731  25.238  25.661  1.00  0.00    -0.246 OA
BRANCH   4   6
ATOM      6  C   UNL A   1      33.465  24.981  23.697  1.00  0.00     0.071 A 
ATOM      7  C   UNL A   1      32.110  24.631  23.783  1.00  0.00     0.032 A 
ATOM      8  C   UNL A   1      31.234  25.179  22.814  1.00  0.00     0.013 A 
ATOM      9  C   UNL A   1      31.675  26.040  21.807  1.00  0.00     0.001 A 
ATOM     10  C   UNL A   1      33.901  25.852  22.671  1.00  0.00     0.016 A 
ATOM     11  C   UNL A   1      33.017  26.374  21.730  1.00  0.00     0.001 A 
BRANCH   7  12
ATOM     12  C   UNL A   1      31.478  23.689  24.720  1.00  0.00     0.141 A 
ATOM     13  N   UNL A   1      31.706  22.331  24.890  1.00  0.00    -0.326 N 
ATOM     14  C   UNL A   1      31.106  21.960  26.073  1.00  0.00     0.108 A 
ATOM     15  C   UNL A   1      30.467  23.078  26.535  1.00  0.00     0.131 A 
ATOM     16  N   UNL A   1      30.697  24.126  25.699  1.00  0.00    -0.237 NA
BRANCH  13  17
ATOM     17  C   UNL A   1      32.419  21.403  24.004  1.00  0.00     0.115 C 
BRANCH  17  18
ATOM     18  C   UNL A   1      32.478  19.977  24.581  1.00  0.00     0.039 C 
BRANCH  18  19
ATOM     19  C   UNL A   1      33.876  19.342  24.572  1.00  0.00     0.071 C 
BRANCH  19  20
ATOM     20  S   UNL A   1      33.920  17.529  24.797  1.00  0.00    -0.165 SA
ATOM     21  C   UNL A   1      33.977  16.972  23.081  1.00  0.00     0.085 C 
ENDBRANCH  19  20
ENDBRANCH  18  19
ENDBRANCH  17  18
BRANCH  17  22
ATOM     22  C   UNL A   1      31.864  21.490  22.562  1.00  0.00     0.181 C 
BRANCH  22  23
ATOM     23  O   UNL A   1      32.723  22.205  21.678  1.00  0.00    -0.394 OA
ATOM     24  H   UNL A   1      32.257  22.384  20.847  1.00  0.00     0.210 HD
ENDBRANCH  22  23
ENDBRANCH  17  22
ENDBRANCH  13  17
ENDBRANCH   7  12
ENDBRANCH   4   6
ENDBRANCH   3   4
ENDBRANCH   2   3
ENDBRANCH   1   2
BRANCH   1  25
ATOM     25  O   UNL A   1      38.003  21.725  25.593  1.00  0.00    -0.374 OA
BRANCH  25  26
ATOM     26  C   UNL A   1      39.306  21.734  26.164  1.00  0.00     0.202 C 
BRANCH  26  27
ATOM     27  C   UNL A   1      39.833  22.998  26.832  1.00  0.00     0.261 C 
BRANCH  27  28
ATOM     28  O   UNL A   1      41.227  22.942  27.118  1.00  0.00    -0.460 OA
BRANCH  28  29
ATOM     29  C   UNL A   1      42.009  23.301  26.083  1.00  0.00     0.338 C 
ATOM     30  O   UNL A   1      42.451  22.549  25.207  1.00  0.00    -0.246 OA
BRANCH  29  31
ATOM     31  C   UNL A   1      42.415  24.701  26.197  1.00  0.00     0.060 A 
ATOM     32  C   UNL A   1      43.242  24.999  27.284  1.00  0.00     0.016 A 
ATOM     33  C   UNL A   1      41.746  25.705  25.481  1.00  0.00     0.016 A 
ATOM     34  C   UNL A   1      43.192  26.264  27.814  1.00  0.00     0.010 A 
ATOM     35  C   UNL A   1      41.703  26.979  26.013  1.00  0.00     0.010 A 
ATOM     36  C   UNL A   1      42.339  27.207  27.233  1.00  0.00    -0.014 A 
BRANCH  36  37
ATOM     37  C   UNL A   1      42.081  28.397  28.019  1.00  0.00     0.031 A 
ATOM     38  C   UNL A   1      43.180  29.379  28.063  1.00  0.00     0.074 A 
ATOM     39  C   UNL A   1      40.919  28.597  28.666  1.00  0.00     0.049 A 
ATOM     40  N   UNL A   1      43.884  29.751  29.081  1.00  0.00    -0.248 NA
ATOM     41  C   UNL A   1      43.609  29.942  26.776  1.00  0.00     0.031 C 
ATOM     42  C   UNL A   1      39.659  27.870  28.491  1.00  0.00     0.029 A 
ATOM     43  N   UNL A   1      40.597  29.586  29.544  1.00  0.00    -0.354 N 
ATOM     44  C   UNL A   1      44.727  30.742  28.601  1.00  0.00     0.074 A 
ATOM     45  C   UNL A   1      44.619  30.718  27.162  1.00  0.00     0.031 C 
ATOM     46  C   UNL A   1      38.661  28.587  29.053  1.00  0.00     0.029 A 
ATOM     47  C   UNL A   1      39.232  29.740  29.729  1.00  0.00     0.049 A 
ATOM     48  H   UNL A   1      41.268  30.139  30.005  1.00  0.00     0.167 HD
ATOM     49  C   UNL A   1      45.291  31.675  29.414  1.00  0.00     0.031 A 
ATOM     50  C   UNL A   1      38.616  30.799  30.305  1.00  0.00     0.031 A 
ATOM     51  C   UNL A   1      45.275  31.294  30.799  1.00  0.00     0.049 A 
ATOM     52  C   UNL A   1      39.612  31.517  31.136  1.00  0.00     0.074 A 
ATOM     53  C   UNL A   1      45.808  30.253  31.530  1.00  0.00     0.029 A 
ATOM     54  N   UNL A   1      44.340  31.891  31.611  1.00  0.00    -0.354 N 
ATOM     55  N   UNL A   1      40.138  31.034  32.225  1.00  0.00    -0.248 NA
ATOM     56  C   UNL A   1      40.313  32.657  30.563  1.00  0.00     0.031 C 
ATOM     57  C   UNL A   1      44.881  30.013  32.585  1.00  0.00     0.029 A 
ATOM     58  C   UNL A   1      43.833  30.924  32.443  1.00  0.00     0.049 A 
ATOM     59  H   UNL A   1      44.081  32.841  31.598  1.00  0.00     0.167 HD
ATOM     60  C   UNL A   1      41.430  31.538  32.257  1.00  0.00     0.074 A 
ATOM     61  C   UNL A   1      41.434  32.626  31.288  1.00  0.00     0.031 C 
ATOM     62  C   UNL A   1      42.445  30.850  32.862  1.00  0.00     0.031 A 
BRANCH  49  63
ATOM     63  C   UNL A   1      45.520  33.093  28.963  1.00  0.00    -0.014 A 
ATOM     64  C   UNL A   1      46.833  33.586  28.858  1.00  0.00     0.010 A 
ATOM     65  C   UNL A   1      44.469  34.035  28.901  1.00  0.00     0.010 A 
ATOM     66  C   UNL A   1      47.080  34.961  28.747  1.00  0.00     0.020 A 
ATOM     67  C   UNL A   1      44.702  35.399  28.741  1.00  0.00     0.020 A 
ATOM     68  C   UNL A   1      46.010  35.858  28.706  1.00  0.00     0.054 A 
BRANCH  68  69
ATOM     69  S   UNL A   1      46.333  37.638  28.695  1.00  0.00     0.124 S 
ATOM     70  O   UNL A   1      47.758  37.680  29.005  1.00  0.00    -0.237 OA
ATOM     71  O   UNL A   1      45.966  38.015  27.333  1.00  0.00    -0.237 OA
ATOM     72  O   UNL A   1      45.447  38.151  29.737  1.00  0.00    -0.744 OA
ENDBRANCH  68  69
ENDBRANCH  49  63
BRANCH  50  73
ATOM     73  C   UNL A   1      37.315  31.387  29.903  1.00  0.00    -0.014 A 
ATOM     74  C   UNL A   1      36.387  31.821  30.864  1.00  0.00     0.010 A 
ATOM     75  C   UNL A   1      37.091  31.755  28.559  1.00  0.00     0.010 A 
ATOM     76  C   UNL A   1      35.301  32.636  30.499  1.00  0.00     0.020 A 
ATOM     77  C   UNL A   1      36.005  32.551  28.185  1.00  0.00     0.020 A 
ATOM     78  C   UNL A   1      35.127  33.007  29.162  1.00  0.00     0.054 A 
BRANCH  78  79
ATOM     79  S   UNL A   1      33.820  34.188  28.723  1.00  0.00     0.124 S 
ATOM     80  O   UNL A   1      33.035  33.434  27.751  1.00  0.00    -0.237 OA
ATOM     81  O   UNL A   1      33.171  34.435  30.007  1.00  0.00    -0.237 OA
ATOM     82  O   UNL A   1      34.557  35.327  28.176  1.00  0.00    -0.744 OA
ENDBRANCH  78  79
ENDBRANCH  50  73
BRANCH  62  83
ATOM     83  C   UNL A   1      42.085  29.724  33.804  1.00  0.00    -0.014 A 
ATOM     84  C   UNL A   1      41.660  28.457  33.359  1.00  0.00     0.010 A 
ATOM     85  C   UNL A   1      42.331  29.902  35.178  1.00  0.00     0.010 A 
ATOM     86  C   UNL A   1      41.463  27.405  34.265  1.00  0.00     0.020 A 
ATOM     87  C   UNL A   1      42.154  28.852  36.085  1.00  0.00     0.020 A 
ATOM     88  C   UNL A   1      41.715  27.609  35.624  1.00  0.00     0.054 A 
BRANCH  88  89
ATOM     89  S   UNL A   1      41.531  26.220  36.779  1.00  0.00     0.124 S 
ATOM     90  O   UNL A   1      41.131  25.126  35.898  1.00  0.00    -0.237 OA
ATOM     91  O   UNL A   1      42.866  26.101  37.362  1.00  0.00    -0.237 OA
ATOM     92  O   UNL A   1      40.498  26.675  37.709  1.00  0.00    -0.744 OA
ENDBRANCH  88  89
ENDBRANCH  62  83
ENDBRANCH  36  37
ENDBRANCH  29  31
ENDBRANCH  28  29
ENDBRANCH  27  28
ENDBRANCH  26  27
ENDBRANCH  25  26
ENDBRANCH   1  25
TORSDOF 24
ENDMDL
