MODEL 1
REMARK VINA RESULT:     -10.5      0.000      0.000
REMARK SMILES O=C(OCCOCCOC(=O)c1ccc(NC(=O)c2ccc([N+](=O)[O-])cc2Cl)cc1Cl)c1ccc(-c2c3nc(c(-c4ccc(S(=O)(=O)[O-])cc4)c4ccc([nH]4)c(-c4ccc(S(=O)(=O)[O-])cc4)c4nc(c(-c5ccc(S(=O)(=O)[O-])cc5)c5ccc2[nH]5)C=C4)C=C3)cc1
REMARK SMILES IDX 6 1 5 2 4 3 3 4 2 5 1 6 32 7 33 8 91 9 34 10 90 11 35 12
REMARK SMILES IDX 36 13 37 14 84 15 38 16 89 17 83 18 85 19 39 20 88 21 82 22
REMARK SMILES IDX 81 23 40 25 70 26 51 27 69 28 52 29 55 30 68 31 86 32 53 33
REMARK SMILES IDX 54 34 67 36 87 37 56 38 41 39 42 40 50 41 43 42 49 43 44 44
REMARK SMILES IDX 45 45 46 46 47 47 48 48 71 49 72 50 80 51 73 52 79 53 74 54
REMARK SMILES IDX 75 55 76 56 77 57 78 58 57 59 58 60 66 61 59 62 65 63 60 64
REMARK SMILES IDX 61 65 62 66 63 67 64 68 7 69 8 70 9 71 10 72 11 73 12 74
REMARK SMILES IDX 13 75 30 76 14 77 29 78 31 79 15 80 16 81 17 82 18 84 19 85
REMARK SMILES IDX 20 86 27 87 21 88 26 89 28 90 22 91 23 92 24 93 25 94
REMARK H PARENT 85 24 55 35 16 83
REMARK Flexibility Score: inf
ROOT
ATOM      1  O   UNL A   1      34.195  31.380  27.310  1.00  0.00    -0.374 OA
ENDROOT
BRANCH   1   2
ATOM      2  C   UNL A   1      34.217  32.307  28.394  1.00  0.00     0.202 C 
BRANCH   2   3
ATOM      3  C   UNL A   1      35.212  31.983  29.517  1.00  0.00     0.261 C 
BRANCH   3   4
ATOM      4  O   UNL A   1      35.730  30.649  29.370  1.00  0.00    -0.460 OA
BRANCH   4   5
ATOM      5  C   UNL A   1      36.628  30.008  30.155  1.00  0.00     0.338 C 
ATOM      6  O   UNL A   1      36.261  29.608  31.259  1.00  0.00    -0.246 OA
BRANCH   5   7
ATOM      7  C   UNL A   1      38.057  29.791  29.768  1.00  0.00     0.060 A 
ATOM      8  C   UNL A   1      39.082  29.491  30.667  1.00  0.00     0.016 A 
ATOM      9  C   UNL A   1      38.361  29.777  28.396  1.00  0.00     0.016 A 
ATOM     10  C   UNL A   1      40.371  29.225  30.240  1.00  0.00     0.010 A 
ATOM     11  C   UNL A   1      39.650  29.462  27.952  1.00  0.00     0.010 A 
ATOM     12  C   UNL A   1      40.656  29.182  28.881  1.00  0.00    -0.014 A 
BRANCH  12  13
ATOM     13  C   UNL A   1      42.038  28.868  28.491  1.00  0.00     0.031 A 
ATOM     14  C   UNL A   1      42.351  27.486  28.020  1.00  0.00     0.074 A 
ATOM     15  C   UNL A   1      42.941  29.866  28.443  1.00  0.00     0.049 A 
ATOM     16  N   UNL A   1      43.497  26.988  27.650  1.00  0.00    -0.248 NA
ATOM     17  C   UNL A   1      41.222  26.541  27.933  1.00  0.00     0.031 C 
ATOM     18  C   UNL A   1      42.664  31.272  28.767  1.00  0.00     0.029 A 
ATOM     19  N   UNL A   1      44.259  29.867  28.077  1.00  0.00    -0.354 N 
ATOM     20  C   UNL A   1      43.238  25.664  27.321  1.00  0.00     0.074 A 
ATOM     21  C   UNL A   1      41.825  25.436  27.520  1.00  0.00     0.031 C 
ATOM     22  C   UNL A   1      43.777  31.997  28.568  1.00  0.00     0.029 A 
ATOM     23  C   UNL A   1      44.857  31.101  28.181  1.00  0.00     0.049 A 
ATOM     24  H   UNL A   1      44.733  29.062  27.768  1.00  0.00     0.167 HD
ATOM     25  C   UNL A   1      44.119  24.727  26.908  1.00  0.00     0.031 A 
ATOM     26  C   UNL A   1      46.149  31.448  28.025  1.00  0.00     0.031 A 
ATOM     27  C   UNL A   1      45.520  24.994  26.730  1.00  0.00     0.049 A 
ATOM     28  C   UNL A   1      47.122  30.356  27.668  1.00  0.00     0.074 A 
ATOM     29  C   UNL A   1      46.522  24.120  26.358  1.00  0.00     0.029 A 
ATOM     30  N   UNL A   1      46.113  26.234  26.921  1.00  0.00    -0.354 N 
ATOM     31  N   UNL A   1      46.877  29.095  27.393  1.00  0.00    -0.248 NA
ATOM     32  C   UNL A   1      48.542  30.721  27.618  1.00  0.00     0.031 C 
ATOM     33  C   UNL A   1      47.733  24.819  26.386  1.00  0.00     0.029 A 
ATOM     34  C   UNL A   1      47.475  26.143  26.711  1.00  0.00     0.049 A 
ATOM     35  H   UNL A   1      45.634  27.058  27.170  1.00  0.00     0.167 HD
ATOM     36  C   UNL A   1      48.111  28.518  27.129  1.00  0.00     0.074 A 
ATOM     37  C   UNL A   1      49.097  29.576  27.243  1.00  0.00     0.031 C 
ATOM     38  C   UNL A   1      48.414  27.229  26.832  1.00  0.00     0.031 A 
BRANCH  25  39
ATOM     39  C   UNL A   1      43.612  23.327  26.715  1.00  0.00    -0.014 A 
ATOM     40  C   UNL A   1      43.469  22.759  25.437  1.00  0.00     0.010 A 
ATOM     41  C   UNL A   1      43.304  22.552  27.849  1.00  0.00     0.010 A 
ATOM     42  C   UNL A   1      43.014  21.444  25.297  1.00  0.00     0.020 A 
ATOM     43  C   UNL A   1      42.871  21.231  27.714  1.00  0.00     0.020 A 
ATOM     44  C   UNL A   1      42.723  20.687  26.437  1.00  0.00     0.054 A 
BRANCH  44  45
ATOM     45  S   UNL A   1      42.189  18.965  26.230  1.00  0.00     0.124 S 
ATOM     46  O   UNL A   1      40.817  19.128  25.755  1.00  0.00    -0.237 OA
ATOM     47  O   UNL A   1      43.139  18.455  25.245  1.00  0.00    -0.237 OA
ATOM     48  O   UNL A   1      42.319  18.396  27.570  1.00  0.00    -0.744 OA
ENDBRANCH  44  45
ENDBRANCH  25  39
BRANCH  26  49
ATOM     49  C   UNL A   1      46.610  32.838  28.307  1.00  0.00    -0.014 A 
ATOM     50  C   UNL A   1      46.703  33.801  27.287  1.00  0.00     0.010 A 
ATOM     51  C   UNL A   1      47.009  33.195  29.611  1.00  0.00     0.010 A 
ATOM     52  C   UNL A   1      47.227  35.073  27.555  1.00  0.00     0.020 A 
ATOM     53  C   UNL A   1      47.498  34.473  29.891  1.00  0.00     0.020 A 
ATOM     54  C   UNL A   1      47.629  35.397  28.855  1.00  0.00     0.054 A 
BRANCH  54  55
ATOM     55  S   UNL A   1      48.320  37.043  29.179  1.00  0.00     0.124 S 
ATOM     56  O   UNL A   1      49.716  36.865  28.792  1.00  0.00    -0.237 OA
ATOM     57  O   UNL A   1      47.524  37.900  28.305  1.00  0.00    -0.237 OA
ATOM     58  O   UNL A   1      48.087  37.235  30.609  1.00  0.00    -0.744 OA
ENDBRANCH  54  55
ENDBRANCH  26  49
BRANCH  38  59
ATOM     59  C   UNL A   1      49.862  26.911  26.591  1.00  0.00    -0.014 A 
ATOM     60  C   UNL A   1      50.707  26.543  27.653  1.00  0.00     0.010 A 
ATOM     61  C   UNL A   1      50.359  26.911  25.276  1.00  0.00     0.010 A 
ATOM     62  C   UNL A   1      52.037  26.205  27.403  1.00  0.00     0.020 A 
ATOM     63  C   UNL A   1      51.680  26.542  25.020  1.00  0.00     0.020 A 
ATOM     64  C   UNL A   1      52.514  26.202  26.088  1.00  0.00     0.054 A 
BRANCH  64  65
ATOM     65  S   UNL A   1      54.228  25.698  25.787  1.00  0.00     0.124 S 
ATOM     66  O   UNL A   1      54.852  26.961  25.405  1.00  0.00    -0.237 OA
ATOM     67  O   UNL A   1      54.635  25.159  27.081  1.00  0.00    -0.237 OA
ATOM     68  O   UNL A   1      54.114  24.710  24.715  1.00  0.00    -0.744 OA
ENDBRANCH  64  65
ENDBRANCH  38  59
ENDBRANCH  12  13
ENDBRANCH   5   7
ENDBRANCH   4   5
ENDBRANCH   3   4
ENDBRANCH   2   3
ENDBRANCH   1   2
BRANCH   1  69
ATOM     69  C   UNL A   1      32.998  30.596  27.185  1.00  0.00     0.202 C 
BRANCH  69  70
ATOM     70  C   UNL A   1      33.305  29.328  26.389  1.00  0.00     0.261 C 
BRANCH  70  71
ATOM     71  O   UNL A   1      32.114  28.526  26.404  1.00  0.00    -0.460 OA
BRANCH  71  72
ATOM     72  C   UNL A   1      31.396  28.549  25.254  1.00  0.00     0.339 C 
ATOM     73  O   UNL A   1      30.961  29.516  24.670  1.00  0.00    -0.246 OA
BRANCH  72  74
ATOM     74  C   UNL A   1      31.457  27.201  24.647  1.00  0.00     0.078 A 
ATOM     75  C   UNL A   1      30.743  26.195  25.314  1.00  0.00     0.019 A 
ATOM     76  C   UNL A   1      32.125  26.893  23.464  1.00  0.00     0.057 A 
ATOM     77  C   UNL A   1      30.670  24.901  24.788  1.00  0.00     0.027 A 
ATOM     78  C   UNL A   1      32.037  25.596  22.938  1.00  0.00     0.047 A 
ATOM     79  Cl  UNL A   1      33.116  28.020  22.607  1.00  0.00    -0.083 Cl
ATOM     80  C   UNL A   1      31.294  24.594  23.581  1.00  0.00     0.043 A 
BRANCH  80  81
ATOM     81  N   UNL A   1      31.280  23.331  22.959  1.00  0.00    -0.322 N 
ATOM     82  C   UNL A   1      32.230  22.350  22.799  1.00  0.00     0.257 C 
ATOM     83  H   UNL A   1      30.412  23.104  22.556  1.00  0.00     0.170 HD
ATOM     84  O   UNL A   1      32.023  21.406  22.038  1.00  0.00    -0.269 OA
BRANCH  82  85
ATOM     85  C   UNL A   1      33.504  22.373  23.529  1.00  0.00     0.059 A 
ATOM     86  C   UNL A   1      34.571  23.063  22.933  1.00  0.00     0.022 A 
ATOM     87  C   UNL A   1      33.673  21.731  24.763  1.00  0.00     0.060 A 
ATOM     88  C   UNL A   1      35.786  23.184  23.611  1.00  0.00     0.086 A 
ATOM     89  C   UNL A   1      34.884  21.854  25.447  1.00  0.00     0.107 A 
ATOM     90  Cl  UNL A   1      32.429  20.783  25.495  1.00  0.00    -0.083 Cl
ATOM     91  C   UNL A   1      35.928  22.597  24.876  1.00  0.00     0.270 A 
BRANCH  91  92
ATOM     92  N   UNL A   1      37.178  22.777  25.622  1.00  0.00     0.062 N 
ATOM     93  O   UNL A   1      37.986  21.838  25.620  1.00  0.00    -0.258 OA
ATOM     94  O   UNL A   1      37.345  23.859  26.198  1.00  0.00    -0.258 OA
ENDBRANCH  91  92
ENDBRANCH  82  85
ENDBRANCH  80  81
ENDBRANCH  72  74
ENDBRANCH  71  72
ENDBRANCH  70  71
ENDBRANCH  69  70
ENDBRANCH   1  69
TORSDOF 20
ENDMDL
MODEL 2
REMARK VINA RESULT:     -10.5      6.436     11.526
REMARK SMILES O=C(OCCOCCOC(=O)c1ccc(NC(=O)c2ccc([N+](=O)[O-])cc2Cl)cc1Cl)c1ccc(-c2c3nc(c(-c4ccc(S(=O)(=O)[O-])cc4)c4ccc([nH]4)c(-c4ccc(S(=O)(=O)[O-])cc4)c4nc(c(-c5ccc(S(=O)(=O)[O-])cc5)c5ccc2[nH]5)C=C4)C=C3)cc1
REMARK SMILES IDX 6 1 5 2 4 3 3 4 2 5 1 6 32 7 33 8 91 9 34 10 90 11 35 12
REMARK SMILES IDX 36 13 37 14 84 15 38 16 89 17 83 18 85 19 39 20 88 21 82 22
REMARK SMILES IDX 81 23 40 25 70 26 51 27 69 28 52 29 55 30 68 31 86 32 53 33
REMARK SMILES IDX 54 34 67 36 87 37 56 38 41 39 42 40 50 41 43 42 49 43 44 44
REMARK SMILES IDX 45 45 46 46 47 47 48 48 71 49 72 50 80 51 73 52 79 53 74 54
REMARK SMILES IDX 75 55 76 56 77 57 78 58 57 59 58 60 66 61 59 62 65 63 60 64
REMARK SMILES IDX 61 65 62 66 63 67 64 68 7 69 8 70 9 71 10 72 11 73 12 74
REMARK SMILES IDX 13 75 30 76 14 77 29 78 31 79 15 80 16 81 17 82 18 84 19 85
REMARK SMILES IDX 20 86 27 87 21 88 26 89 28 90 22 91 23 92 24 93 25 94
REMARK H PARENT 85 24 55 35 16 83
REMARK Flexibility Score: inf
ROOT
ATOM      1  O   UNL A   1      38.313  21.707  25.731  1.00  0.00    -0.374 OA
ENDROOT
BRANCH   1   2
ATOM      2  C   UNL A   1      39.648  21.516  26.198  1.00  0.00     0.202 C 
BRANCH   2   3
ATOM      3  C   UNL A   1      40.228  22.673  27.024  1.00  0.00     0.261 C 
BRANCH   3   4
ATOM      4  O   UNL A   1      39.734  23.937  26.547  1.00  0.00    -0.460 OA
BRANCH   4   5
ATOM      5  C   UNL A   1      40.376  25.129  26.517  1.00  0.00     0.338 C 
ATOM      6  O   UNL A   1      40.990  25.439  25.496  1.00  0.00    -0.246 OA
BRANCH   5   7
ATOM      7  C   UNL A   1      40.411  26.078  27.673  1.00  0.00     0.060 A 
ATOM      8  C   UNL A   1      41.241  27.197  27.751  1.00  0.00     0.016 A 
ATOM      9  C   UNL A   1      39.463  25.891  28.694  1.00  0.00     0.016 A 
ATOM     10  C   UNL A   1      41.174  28.083  28.812  1.00  0.00     0.010 A 
ATOM     11  C   UNL A   1      39.354  26.806  29.746  1.00  0.00     0.010 A 
ATOM     12  C   UNL A   1      40.214  27.907  29.801  1.00  0.00    -0.014 A 
BRANCH  12  13
ATOM     13  C   UNL A   1      40.176  28.896  30.888  1.00  0.00     0.031 A 
ATOM     14  C   UNL A   1      41.164  28.773  32.001  1.00  0.00     0.074 A 
ATOM     15  C   UNL A   1      39.347  29.952  30.776  1.00  0.00     0.049 A 
ATOM     16  N   UNL A   1      41.296  29.515  33.064  1.00  0.00    -0.248 NA
ATOM     17  C   UNL A   1      42.148  27.680  31.898  1.00  0.00     0.031 C 
ATOM     18  C   UNL A   1      38.445  30.201  29.643  1.00  0.00     0.029 A 
ATOM     19  N   UNL A   1      39.145  31.026  31.598  1.00  0.00    -0.354 N 
ATOM     20  C   UNL A   1      42.352  28.962  33.775  1.00  0.00     0.074 A 
ATOM     21  C   UNL A   1      42.837  27.830  33.020  1.00  0.00     0.031 C 
ATOM     22  C   UNL A   1      37.802  31.363  29.840  1.00  0.00     0.029 A 
ATOM     23  C   UNL A   1      38.185  31.897  31.140  1.00  0.00     0.049 A 
ATOM     24  H   UNL A   1      39.640  31.162  32.438  1.00  0.00     0.167 HD
ATOM     25  C   UNL A   1      42.849  29.365  34.964  1.00  0.00     0.031 A 
ATOM     26  C   UNL A   1      37.646  32.978  31.736  1.00  0.00     0.031 A 
ATOM     27  C   UNL A   1      42.330  30.494  35.688  1.00  0.00     0.049 A 
ATOM     28  C   UNL A   1      38.151  33.336  33.108  1.00  0.00     0.074 A 
ATOM     29  C   UNL A   1      42.719  30.978  36.922  1.00  0.00     0.029 A 
ATOM     30  N   UNL A   1      41.302  31.310  35.236  1.00  0.00    -0.354 N 
ATOM     31  N   UNL A   1      39.127  32.786  33.794  1.00  0.00    -0.248 NA
ATOM     32  C   UNL A   1      37.476  34.441  33.797  1.00  0.00     0.031 C 
ATOM     33  C   UNL A   1      41.881  32.050  37.245  1.00  0.00     0.029 A 
ATOM     34  C   UNL A   1      41.015  32.274  36.184  1.00  0.00     0.049 A 
ATOM     35  H   UNL A   1      40.845  31.216  34.369  1.00  0.00     0.167 HD
ATOM     36  C   UNL A   1      39.189  33.484  34.992  1.00  0.00     0.074 A 
ATOM     37  C   UNL A   1      38.174  34.518  34.922  1.00  0.00     0.031 C 
ATOM     38  C   UNL A   1      39.997  33.287  36.063  1.00  0.00     0.031 A 
BRANCH  25  39
ATOM     39  C   UNL A   1      43.933  28.534  35.588  1.00  0.00    -0.014 A 
ATOM     40  C   UNL A   1      45.295  28.833  35.406  1.00  0.00     0.010 A 
ATOM     41  C   UNL A   1      43.573  27.445  36.403  1.00  0.00     0.010 A 
ATOM     42  C   UNL A   1      46.277  28.049  36.020  1.00  0.00     0.020 A 
ATOM     43  C   UNL A   1      44.549  26.674  37.036  1.00  0.00     0.020 A 
ATOM     44  C   UNL A   1      45.897  26.977  36.835  1.00  0.00     0.054 A 
BRANCH  44  45
ATOM     45  S   UNL A   1      47.189  26.011  37.665  1.00  0.00     0.124 S 
ATOM     46  O   UNL A   1      48.289  26.091  36.708  1.00  0.00    -0.237 OA
ATOM     47  O   UNL A   1      47.384  26.747  38.912  1.00  0.00    -0.237 OA
ATOM     48  O   UNL A   1      46.592  24.686  37.815  1.00  0.00    -0.744 OA
ENDBRANCH  44  45
ENDBRANCH  25  39
BRANCH  26  49
ATOM     49  C   UNL A   1      36.516  33.719  31.105  1.00  0.00    -0.014 A 
ATOM     50  C   UNL A   1      35.427  34.181  31.863  1.00  0.00     0.010 A 
ATOM     51  C   UNL A   1      36.505  33.928  29.711  1.00  0.00     0.010 A 
ATOM     52  C   UNL A   1      34.333  34.792  31.238  1.00  0.00     0.020 A 
ATOM     53  C   UNL A   1      35.433  34.570  29.087  1.00  0.00     0.020 A 
ATOM     54  C   UNL A   1      34.339  34.975  29.852  1.00  0.00     0.054 A 
BRANCH  54  55
ATOM     55  S   UNL A   1      32.906  35.754  29.058  1.00  0.00     0.124 S 
ATOM     56  O   UNL A   1      33.525  36.862  28.338  1.00  0.00    -0.237 OA
ATOM     57  O   UNL A   1      32.378  34.674  28.227  1.00  0.00    -0.237 OA
ATOM     58  O   UNL A   1      32.057  36.136  30.185  1.00  0.00    -0.744 OA
ENDBRANCH  54  55
ENDBRANCH  26  49
BRANCH  38  59
ATOM     59  C   UNL A   1      39.825  34.223  37.225  1.00  0.00    -0.014 A 
ATOM     60  C   UNL A   1      38.895  33.947  38.243  1.00  0.00     0.010 A 
ATOM     61  C   UNL A   1      40.655  35.353  37.330  1.00  0.00     0.010 A 
ATOM     62  C   UNL A   1      38.782  34.804  39.338  1.00  0.00     0.020 A 
ATOM     63  C   UNL A   1      40.566  36.194  38.440  1.00  0.00     0.020 A 
ATOM     64  C   UNL A   1      39.622  35.919  39.432  1.00  0.00     0.054 A 
BRANCH  64  65
ATOM     65  S   UNL A   1      39.497  36.979  40.896  1.00  0.00     0.124 S 
ATOM     66  O   UNL A   1      38.495  37.955  40.478  1.00  0.00    -0.237 OA
ATOM     67  O   UNL A   1      39.072  36.044  41.933  1.00  0.00    -0.237 OA
ATOM     68  O   UNL A   1      40.851  37.507  41.056  1.00  0.00    -0.744 OA
ENDBRANCH  64  65
ENDBRANCH  38  59
ENDBRANCH  12  13
ENDBRANCH   5   7
ENDBRANCH   4   5
ENDBRANCH   3   4
ENDBRANCH   2   3
ENDBRANCH   1   2
BRANCH   1  69
ATOM     69  C   UNL A   1      37.763  20.627  24.960  1.00  0.00     0.202 C 
BRANCH  69  70
ATOM     70  C   UNL A   1      36.268  20.506  25.256  1.00  0.00     0.261 C 
BRANCH  70  71
ATOM     71  O   UNL A   1      35.907  21.641  26.058  1.00  0.00    -0.460 OA
BRANCH  71  72
ATOM     72  C   UNL A   1      34.580  21.769  26.303  1.00  0.00     0.339 C 
ATOM     73  O   UNL A   1      33.985  21.503  27.324  1.00  0.00    -0.246 OA
BRANCH  72  74
ATOM     74  C   UNL A   1      33.985  22.567  25.209  1.00  0.00     0.078 A 
ATOM     75  C   UNL A   1      34.867  23.409  24.515  1.00  0.00     0.019 A 
ATOM     76  C   UNL A   1      32.651  22.500  24.812  1.00  0.00     0.057 A 
ATOM     77  C   UNL A   1      34.427  24.152  23.414  1.00  0.00     0.027 A 
ATOM     78  C   UNL A   1      32.224  23.240  23.700  1.00  0.00     0.047 A 
ATOM     79  Cl  UNL A   1      31.453  21.577  25.647  1.00  0.00    -0.083 Cl
ATOM     80  C   UNL A   1      33.108  24.055  22.979  1.00  0.00     0.043 A 
BRANCH  80  81
ATOM     81  N   UNL A   1      32.563  24.751  21.883  1.00  0.00    -0.322 N 
ATOM     82  C   UNL A   1      31.994  25.995  21.745  1.00  0.00     0.257 C 
ATOM     83  H   UNL A   1      32.596  24.242  21.041  1.00  0.00     0.170 HD
ATOM     84  O   UNL A   1      31.411  26.298  20.705  1.00  0.00    -0.269 OA
BRANCH  82  85
ATOM     85  C   UNL A   1      32.070  27.006  22.807  1.00  0.00     0.059 A 
ATOM     86  C   UNL A   1      33.226  27.801  22.854  1.00  0.00     0.022 A 
ATOM     87  C   UNL A   1      31.049  27.180  23.751  1.00  0.00     0.060 A 
ATOM     88  C   UNL A   1      33.326  28.829  23.793  1.00  0.00     0.086 A 
ATOM     89  C   UNL A   1      31.142  28.210  24.689  1.00  0.00     0.107 A 
ATOM     90  Cl  UNL A   1      29.652  26.167  23.806  1.00  0.00    -0.083 Cl
ATOM     91  C   UNL A   1      32.272  29.042  24.692  1.00  0.00     0.270 A 
BRANCH  91  92
ATOM     92  N   UNL A   1      32.341  30.162  25.638  1.00  0.00     0.062 N 
ATOM     93  O   UNL A   1      33.391  30.305  26.279  1.00  0.00    -0.258 OA
ATOM     94  O   UNL A   1      31.347  30.893  25.725  1.00  0.00    -0.258 OA
ENDBRANCH  91  92
ENDBRANCH  82  85
ENDBRANCH  80  81
ENDBRANCH  72  74
ENDBRANCH  71  72
ENDBRANCH  70  71
ENDBRANCH  69  70
ENDBRANCH   1  69
TORSDOF 20
ENDMDL
MODEL 3
REMARK VINA RESULT:     -10.3      2.218      8.747
REMARK SMILES O=C(OCCOCCOC(=O)c1ccc(NC(=O)c2ccc([N+](=O)[O-])cc2Cl)cc1Cl)c1ccc(-c2c3nc(c(-c4ccc(S(=O)(=O)[O-])cc4)c4ccc([nH]4)c(-c4ccc(S(=O)(=O)[O-])cc4)c4nc(c(-c5ccc(S(=O)(=O)[O-])cc5)c5ccc2[nH]5)C=C4)C=C3)cc1
REMARK SMILES IDX 6 1 5 2 4 3 3 4 2 5 1 6 32 7 33 8 91 9 34 10 90 11 35 12
REMARK SMILES IDX 36 13 37 14 84 15 38 16 89 17 83 18 85 19 39 20 88 21 82 22
REMARK SMILES IDX 81 23 40 25 70 26 51 27 69 28 52 29 55 30 68 31 86 32 53 33
REMARK SMILES IDX 54 34 67 36 87 37 56 38 41 39 42 40 50 41 43 42 49 43 44 44
REMARK SMILES IDX 45 45 46 46 47 47 48 48 71 49 72 50 80 51 73 52 79 53 74 54
REMARK SMILES IDX 75 55 76 56 77 57 78 58 57 59 58 60 66 61 59 62 65 63 60 64
REMARK SMILES IDX 61 65 62 66 63 67 64 68 7 69 8 70 9 71 10 72 11 73 12 74
REMARK SMILES IDX 13 75 30 76 14 77 29 78 31 79 15 80 16 81 17 82 18 84 19 85
REMARK SMILES IDX 20 86 27 87 21 88 26 89 28 90 22 91 23 92 24 93 25 94
REMARK H PARENT 85 24 55 35 16 83
REMARK Flexibility Score: inf
ROOT
ATOM      1  O   UNL A   1      36.183  21.502  25.546  1.00  0.00    -0.374 OA
ENDROOT
BRANCH   1   2
ATOM      2  C   UNL A   1      37.336  20.752  25.165  1.00  0.00     0.202 C 
BRANCH   2   3
ATOM      3  C   UNL A   1      38.683  21.350  25.596  1.00  0.00     0.261 C 
BRANCH   3   4
ATOM      4  O   UNL A   1      39.492  20.362  26.258  1.00  0.00    -0.460 OA
BRANCH   4   5
ATOM      5  C   UNL A   1      40.829  20.380  26.469  1.00  0.00     0.338 C 
ATOM      6  O   UNL A   1      41.434  19.308  26.485  1.00  0.00    -0.246 OA
BRANCH   5   7
ATOM      7  C   UNL A   1      41.610  21.631  26.719  1.00  0.00     0.060 A 
ATOM      8  C   UNL A   1      41.999  22.531  25.725  1.00  0.00     0.016 A 
ATOM      9  C   UNL A   1      41.866  21.977  28.057  1.00  0.00     0.016 A 
ATOM     10  C   UNL A   1      42.653  23.712  26.027  1.00  0.00     0.010 A 
ATOM     11  C   UNL A   1      42.485  23.191  28.375  1.00  0.00     0.010 A 
ATOM     12  C   UNL A   1      42.875  24.061  27.353  1.00  0.00    -0.014 A 
BRANCH  12  13
ATOM     13  C   UNL A   1      43.552  25.341  27.609  1.00  0.00     0.031 A 
ATOM     14  C   UNL A   1      42.769  26.451  28.231  1.00  0.00     0.074 A 
ATOM     15  C   UNL A   1      44.880  25.426  27.402  1.00  0.00     0.049 A 
ATOM     16  N   UNL A   1      43.156  27.661  28.523  1.00  0.00    -0.248 NA
ATOM     17  C   UNL A   1      41.370  26.158  28.590  1.00  0.00     0.031 C 
ATOM     18  C   UNL A   1      45.731  24.330  26.918  1.00  0.00     0.029 A 
ATOM     19  N   UNL A   1      45.755  26.458  27.598  1.00  0.00    -0.354 N 
ATOM     20  C   UNL A   1      42.042  28.286  29.066  1.00  0.00     0.074 A 
ATOM     21  C   UNL A   1      40.966  27.322  29.079  1.00  0.00     0.031 C 
ATOM     22  C   UNL A   1      47.005  24.750  26.872  1.00  0.00     0.029 A 
ATOM     23  C   UNL A   1      47.050  26.156  27.246  1.00  0.00     0.049 A 
ATOM     24  H   UNL A   1      45.484  27.334  27.957  1.00  0.00     0.167 HD
ATOM     25  C   UNL A   1      41.938  29.562  29.496  1.00  0.00     0.031 A 
ATOM     26  C   UNL A   1      48.135  26.951  27.189  1.00  0.00     0.031 A 
ATOM     27  C   UNL A   1      43.033  30.493  29.459  1.00  0.00     0.049 A 
ATOM     28  C   UNL A   1      47.957  28.396  27.575  1.00  0.00     0.074 A 
ATOM     29  C   UNL A   1      43.043  31.825  29.825  1.00  0.00     0.029 A 
ATOM     30  N   UNL A   1      44.313  30.182  29.021  1.00  0.00    -0.354 N 
ATOM     31  N   UNL A   1      46.890  28.992  28.055  1.00  0.00    -0.248 NA
ATOM     32  C   UNL A   1      49.115  29.279  27.396  1.00  0.00     0.031 C 
ATOM     33  C   UNL A   1      44.315  32.336  29.548  1.00  0.00     0.029 A 
ATOM     34  C   UNL A   1      45.114  31.306  29.071  1.00  0.00     0.049 A 
ATOM     35  H   UNL A   1      44.606  29.292  28.719  1.00  0.00     0.167 HD
ATOM     36  C   UNL A   1      47.250  30.319  28.243  1.00  0.00     0.074 A 
ATOM     37  C   UNL A   1      48.644  30.430  27.858  1.00  0.00     0.031 C 
ATOM     38  C   UNL A   1      46.500  31.362  28.681  1.00  0.00     0.031 A 
BRANCH  25  39
ATOM     39  C   UNL A   1      40.588  30.040  29.948  1.00  0.00    -0.014 A 
ATOM     40  C   UNL A   1      40.314  30.322  31.298  1.00  0.00     0.010 A 
ATOM     41  C   UNL A   1      39.581  30.243  28.987  1.00  0.00     0.010 A 
ATOM     42  C   UNL A   1      39.051  30.787  31.679  1.00  0.00     0.020 A 
ATOM     43  C   UNL A   1      38.326  30.728  29.360  1.00  0.00     0.020 A 
ATOM     44  C   UNL A   1      38.066  30.991  30.706  1.00  0.00     0.054 A 
BRANCH  44  45
ATOM     45  S   UNL A   1      36.455  31.648  31.219  1.00  0.00     0.124 S 
ATOM     46  O   UNL A   1      35.768  30.442  31.675  1.00  0.00    -0.237 OA
ATOM     47  O   UNL A   1      36.819  32.599  32.267  1.00  0.00    -0.237 OA
ATOM     48  O   UNL A   1      35.918  32.246  29.999  1.00  0.00    -0.744 OA
ENDBRANCH  44  45
ENDBRANCH  25  39
BRANCH  26  49
ATOM     49  C   UNL A   1      49.432  26.443  26.657  1.00  0.00    -0.014 A 
ATOM     50  C   UNL A   1      50.361  25.792  27.487  1.00  0.00     0.010 A 
ATOM     51  C   UNL A   1      49.767  26.654  25.304  1.00  0.00     0.010 A 
ATOM     52  C   UNL A   1      51.612  25.406  26.989  1.00  0.00     0.020 A 
ATOM     53  C   UNL A   1      50.999  26.238  24.793  1.00  0.00     0.020 A 
ATOM     54  C   UNL A   1      51.926  25.639  25.646  1.00  0.00     0.054 A 
BRANCH  54  55
ATOM     55  S   UNL A   1      53.558  25.148  25.023  1.00  0.00     0.124 S 
ATOM     56  O   UNL A   1      54.453  25.879  25.914  1.00  0.00    -0.237 OA
ATOM     57  O   UNL A   1      53.539  23.697  25.194  1.00  0.00    -0.237 OA
ATOM     58  O   UNL A   1      53.545  25.606  23.635  1.00  0.00    -0.744 OA
ENDBRANCH  54  55
ENDBRANCH  26  49
BRANCH  38  59
ATOM     59  C   UNL A   1      47.186  32.695  28.784  1.00  0.00    -0.014 A 
ATOM     60  C   UNL A   1      47.163  33.603  27.710  1.00  0.00     0.010 A 
ATOM     61  C   UNL A   1      47.795  33.066  29.995  1.00  0.00     0.010 A 
ATOM     62  C   UNL A   1      47.764  34.854  27.840  1.00  0.00     0.020 A 
ATOM     63  C   UNL A   1      48.369  34.330  30.138  1.00  0.00     0.020 A 
ATOM     64  C   UNL A   1      48.359  35.212  29.055  1.00  0.00     0.054 A 
BRANCH  64  65
ATOM     65  S   UNL A   1      49.077  36.868  29.217  1.00  0.00     0.124 S 
ATOM     66  O   UNL A   1      47.950  37.723  28.858  1.00  0.00    -0.237 OA
ATOM     67  O   UNL A   1      49.476  36.907  30.621  1.00  0.00    -0.237 OA
ATOM     68  O   UNL A   1      50.182  36.859  28.260  1.00  0.00    -0.744 OA
ENDBRANCH  64  65
ENDBRANCH  38  59
ENDBRANCH  12  13
ENDBRANCH   5   7
ENDBRANCH   4   5
ENDBRANCH   3   4
ENDBRANCH   2   3
ENDBRANCH   1   2
BRANCH   1  69
ATOM     69  C   UNL A   1      34.927  21.002  25.062  1.00  0.00     0.202 C 
BRANCH  69  70
ATOM     70  C   UNL A   1      33.836  21.299  26.089  1.00  0.00     0.261 C 
BRANCH  70  71
ATOM     71  O   UNL A   1      33.200  22.520  25.684  1.00  0.00    -0.460 OA
BRANCH  71  72
ATOM     72  C   UNL A   1      31.905  22.393  25.304  1.00  0.00     0.339 C 
ATOM     73  O   UNL A   1      31.082  21.611  25.726  1.00  0.00    -0.246 OA
BRANCH  72  74
ATOM     74  C   UNL A   1      31.550  23.566  24.475  1.00  0.00     0.078 A 
ATOM     75  C   UNL A   1      30.738  24.529  25.091  1.00  0.00     0.019 A 
ATOM     76  C   UNL A   1      32.000  23.783  23.174  1.00  0.00     0.057 A 
ATOM     77  C   UNL A   1      30.403  25.713  24.426  1.00  0.00     0.027 A 
ATOM     78  C   UNL A   1      31.669  24.979  22.520  1.00  0.00     0.047 A 
ATOM     79  Cl  UNL A   1      32.922  22.629  22.279  1.00  0.00    -0.083 Cl
ATOM     80  C   UNL A   1      30.887  25.962  23.144  1.00  0.00     0.043 A 
BRANCH  80  81
ATOM     81  N   UNL A   1      30.619  27.119  22.387  1.00  0.00    -0.322 N 
ATOM     82  C   UNL A   1      30.829  28.460  22.609  1.00  0.00     0.257 C 
ATOM     83  H   UNL A   1      30.192  26.930  21.521  1.00  0.00     0.170 HD
ATOM     84  O   UNL A   1      30.322  29.298  21.866  1.00  0.00    -0.269 OA
BRANCH  82  85
ATOM     85  C   UNL A   1      31.669  28.943  23.713  1.00  0.00     0.059 A 
ATOM     86  C   UNL A   1      31.024  29.620  24.760  1.00  0.00     0.022 A 
ATOM     87  C   UNL A   1      33.058  28.757  23.736  1.00  0.00     0.060 A 
ATOM     88  C   UNL A   1      31.756  30.038  25.873  1.00  0.00     0.086 A 
ATOM     89  C   UNL A   1      33.793  29.169  24.849  1.00  0.00     0.107 A 
ATOM     90  Cl  UNL A   1      33.918  28.023  22.431  1.00  0.00    -0.083 Cl
ATOM     91  C   UNL A   1      33.135  29.790  25.921  1.00  0.00     0.270 A 
BRANCH  91  92
ATOM     92  N   UNL A   1      33.898  30.167  27.116  1.00  0.00     0.062 N 
ATOM     93  O   UNL A   1      34.593  29.293  27.651  1.00  0.00    -0.258 OA
ATOM     94  O   UNL A   1      33.803  31.338  27.504  1.00  0.00    -0.258 OA
ENDBRANCH  91  92
ENDBRANCH  82  85
ENDBRANCH  80  81
ENDBRANCH  72  74
ENDBRANCH  71  72
ENDBRANCH  70  71
ENDBRANCH  69  70
ENDBRANCH   1  69
TORSDOF 20
ENDMDL
