MODEL 1
REMARK VINA RESULT:     -10.4      0.000      0.000
REMARK SMILES Cc1cc(Br)cc2c1O[C@H](C(F)(F)F)C(C(=O)OCCOCCOC(=O)c1ccc(-c3c4nc(c(-c5ccc(S(=O)(=O)[O-])cc5)c5ccc([nH]5)c(-c5ccc(S(=O)(=O)[O-])cc5)c5nc(c(-c6ccc(S(=O)(=O)[O-])cc6)c6ccc3[nH]6)C=C5)C=C4)cc1)=C2
REMARK SMILES IDX 22 1 21 2 20 3 19 4 18 5 16 6 17 7 15 8 1 9 2 10 3 11 8 12
REMARK SMILES IDX 4 13 7 14 9 15 5 16 6 17 87 18 10 19 11 20 12 21 13 22 14 23
REMARK SMILES IDX 23 24 24 25 25 26 26 27 27 28 28 29 86 30 29 31 85 32 30 33
REMARK SMILES IDX 31 34 32 35 79 36 33 37 84 38 78 39 80 40 34 41 83 42 77 43
REMARK SMILES IDX 76 44 35 46 65 47 46 48 64 49 47 50 50 51 63 52 81 53 48 54
REMARK SMILES IDX 49 55 62 57 82 58 51 59 36 60 37 61 45 62 38 63 44 64 39 65
REMARK SMILES IDX 40 66 41 67 42 68 43 69 66 70 67 71 75 72 68 73 74 74 69 75
REMARK SMILES IDX 70 76 71 77 72 78 73 79 52 80 53 81 61 82 54 83 60 84 55 85
REMARK SMILES IDX 56 86 57 87 58 88 59 89
REMARK H PARENT 80 45 50 56
REMARK Flexibility Score: inf
ROOT
ATOM      1  C   UNL A   1      36.790  20.685  25.061  1.00  0.00     0.202 C 
ENDROOT
BRANCH   1   2
ATOM      2  O   UNL A   1      35.543  20.994  24.436  1.00  0.00    -0.374 OA
BRANCH   2   3
ATOM      3  C   UNL A   1      34.351  20.531  25.069  1.00  0.00     0.202 C 
BRANCH   3   4
ATOM      4  C   UNL A   1      33.088  21.370  24.857  1.00  0.00     0.261 C 
BRANCH   4   5
ATOM      5  O   UNL A   1      33.396  22.763  24.697  1.00  0.00    -0.460 OA
BRANCH   5   6
ATOM      6  C   UNL A   1      33.117  23.528  25.778  1.00  0.00     0.338 C 
ATOM      7  O   UNL A   1      33.178  23.193  26.951  1.00  0.00    -0.246 OA
BRANCH   6   8
ATOM      8  C   UNL A   1      32.846  24.916  25.355  1.00  0.00     0.087 C 
ATOM      9  C   UNL A   1      30.759  29.211  23.538  1.00  0.00     0.048 C 
ATOM     10  C   UNL A   1      31.783  28.879  24.586  1.00  0.00    -0.007 A 
ATOM     11  C   UNL A   1      32.277  29.887  25.429  1.00  0.00     0.023 A 
ATOM     12  C   UNL A   1      32.214  27.556  24.777  1.00  0.00     0.130 A 
ATOM     13  C   UNL A   1      33.192  29.578  26.433  1.00  0.00     0.019 A 
ATOM     14  C   UNL A   1      33.099  27.248  25.814  1.00  0.00     0.019 A 
ATOM     15  O   UNL A   1      31.731  26.615  23.910  1.00  0.00    -0.475 OA
ATOM     16  Br  UNL A   1      33.849  30.945  27.562  1.00  0.00    -0.051 Br
ATOM     17  C   UNL A   1      33.606  28.264  26.631  1.00  0.00     0.027 A 
ATOM     18  C   UNL A   1      33.432  25.865  26.095  1.00  0.00     0.027 C 
ATOM     19  C   UNL A   1      31.946  25.201  24.186  1.00  0.00     0.316 C 
BRANCH  19  20
ATOM     20  C   UNL A   1      30.570  24.530  24.311  1.00  0.00     0.430 C 
ATOM     21  F   UNL A   1      30.369  24.062  25.566  1.00  0.00    -0.167 F 
ATOM     22  F   UNL A   1      29.563  25.393  24.048  1.00  0.00    -0.167 F 
ATOM     23  F   UNL A   1      30.444  23.485  23.462  1.00  0.00    -0.167 F 
ENDBRANCH  19  20
ENDBRANCH   6   8
ENDBRANCH   5   6
ENDBRANCH   4   5
ENDBRANCH   3   4
ENDBRANCH   2   3
ENDBRANCH   1   2
BRANCH   1  24
ATOM     24  C   UNL A   1      37.952  21.662  24.841  1.00  0.00     0.261 C 
BRANCH  24  25
ATOM     25  O   UNL A   1      38.058  22.633  25.897  1.00  0.00    -0.460 OA
BRANCH  25  26
ATOM     26  C   UNL A   1      39.316  22.829  26.364  1.00  0.00     0.338 C 
ATOM     27  O   UNL A   1      40.285  22.100  26.202  1.00  0.00    -0.246 OA
BRANCH  26  28
ATOM     28  C   UNL A   1      39.425  24.172  26.958  1.00  0.00     0.060 A 
ATOM     29  C   UNL A   1      40.090  25.159  26.218  1.00  0.00     0.016 A 
ATOM     30  C   UNL A   1      38.958  24.441  28.245  1.00  0.00     0.016 A 
ATOM     31  C   UNL A   1      40.323  26.412  26.780  1.00  0.00     0.010 A 
ATOM     32  C   UNL A   1      39.205  25.697  28.813  1.00  0.00     0.010 A 
ATOM     33  C   UNL A   1      39.914  26.675  28.095  1.00  0.00    -0.014 A 
BRANCH  33  34
ATOM     34  C   UNL A   1      40.359  27.926  28.756  1.00  0.00     0.031 A 
ATOM     35  C   UNL A   1      41.783  28.032  29.233  1.00  0.00     0.074 A 
ATOM     36  C   UNL A   1      39.524  28.973  28.877  1.00  0.00     0.049 A 
ATOM     37  N   UNL A   1      42.385  29.033  29.818  1.00  0.00    -0.248 NA
ATOM     38  C   UNL A   1      42.643  26.855  29.015  1.00  0.00     0.031 C 
ATOM     39  C   UNL A   1      38.142  29.011  28.400  1.00  0.00     0.029 A 
ATOM     40  N   UNL A   1      39.723  30.213  29.429  1.00  0.00    -0.354 N 
ATOM     41  C   UNL A   1      43.694  28.616  30.029  1.00  0.00     0.074 A 
ATOM     42  C   UNL A   1      43.789  27.256  29.547  1.00  0.00     0.031 C 
ATOM     43  C   UNL A   1      37.621  30.220  28.670  1.00  0.00     0.029 A 
ATOM     44  C   UNL A   1      38.619  31.030  29.366  1.00  0.00     0.049 A 
ATOM     45  H   UNL A   1      40.577  30.493  29.833  1.00  0.00     0.167 HD
ATOM     46  C   UNL A   1      44.727  29.308  30.565  1.00  0.00     0.031 A 
ATOM     47  C   UNL A   1      38.433  32.284  29.826  1.00  0.00     0.031 A 
ATOM     48  C   UNL A   1      44.627  30.654  31.061  1.00  0.00     0.049 A 
ATOM     49  C   UNL A   1      39.568  32.993  30.516  1.00  0.00     0.074 A 
ATOM     50  C   UNL A   1      45.616  31.437  31.630  1.00  0.00     0.029 A 
ATOM     51  N   UNL A   1      43.469  31.417  31.050  1.00  0.00    -0.354 N 
ATOM     52  N   UNL A   1      40.801  32.584  30.706  1.00  0.00    -0.248 NA
ATOM     53  C   UNL A   1      39.289  34.333  31.054  1.00  0.00     0.031 C 
ATOM     54  C   UNL A   1      45.044  32.653  32.013  1.00  0.00     0.029 A 
ATOM     55  C   UNL A   1      43.712  32.651  31.627  1.00  0.00     0.049 A 
ATOM     56  H   UNL A   1      42.602  31.124  30.686  1.00  0.00     0.167 HD
ATOM     57  C   UNL A   1      41.449  33.626  31.362  1.00  0.00     0.074 A 
ATOM     58  C   UNL A   1      40.477  34.687  31.528  1.00  0.00     0.031 C 
ATOM     59  C   UNL A   1      42.734  33.697  31.786  1.00  0.00     0.031 A 
BRANCH  46  60
ATOM     60  C   UNL A   1      46.059  28.613  30.654  1.00  0.00    -0.014 A 
ATOM     61  C   UNL A   1      46.389  27.828  31.774  1.00  0.00     0.010 A 
ATOM     62  C   UNL A   1      46.967  28.697  29.584  1.00  0.00     0.010 A 
ATOM     63  C   UNL A   1      47.616  27.162  31.832  1.00  0.00     0.020 A 
ATOM     64  C   UNL A   1      48.185  28.013  29.628  1.00  0.00     0.020 A 
ATOM     65  C   UNL A   1      48.506  27.259  30.758  1.00  0.00     0.054 A 
BRANCH  65  66
ATOM     66  S   UNL A   1      50.077  26.356  30.851  1.00  0.00     0.124 S 
ATOM     67  O   UNL A   1      51.007  27.409  31.252  1.00  0.00    -0.237 OA
ATOM     68  O   UNL A   1      49.803  25.342  31.865  1.00  0.00    -0.237 OA
ATOM     69  O   UNL A   1      50.265  25.845  29.496  1.00  0.00    -0.744 OA
ENDBRANCH  65  66
ENDBRANCH  46  60
BRANCH  47  70
ATOM     70  C   UNL A   1      37.115  32.952  29.647  1.00  0.00    -0.014 A 
ATOM     71  C   UNL A   1      36.192  33.002  30.705  1.00  0.00     0.010 A 
ATOM     72  C   UNL A   1      36.779  33.549  28.417  1.00  0.00     0.010 A 
ATOM     73  C   UNL A   1      34.954  33.630  30.536  1.00  0.00     0.020 A 
ATOM     74  C   UNL A   1      35.553  34.199  28.252  1.00  0.00     0.020 A 
ATOM     75  C   UNL A   1      34.644  34.229  29.310  1.00  0.00     0.054 A 
BRANCH  75  76
ATOM     76  S   UNL A   1      33.052  35.081  29.134  1.00  0.00     0.124 S 
ATOM     77  O   UNL A   1      32.390  34.280  28.109  1.00  0.00    -0.237 OA
ATOM     78  O   UNL A   1      32.491  34.980  30.478  1.00  0.00    -0.237 OA
ATOM     79  O   UNL A   1      33.431  36.432  28.725  1.00  0.00    -0.744 OA
ENDBRANCH  75  76
ENDBRANCH  47  70
BRANCH  59  80
ATOM     80  C   UNL A   1      43.186  34.967  32.456  1.00  0.00    -0.014 A 
ATOM     81  C   UNL A   1      43.817  35.987  31.722  1.00  0.00     0.010 A 
ATOM     82  C   UNL A   1      42.880  35.186  33.812  1.00  0.00     0.010 A 
ATOM     83  C   UNL A   1      44.142  37.200  32.337  1.00  0.00     0.020 A 
ATOM     84  C   UNL A   1      43.181  36.406  34.423  1.00  0.00     0.020 A 
ATOM     85  C   UNL A   1      43.815  37.404  33.681  1.00  0.00     0.054 A 
BRANCH  85  86
ATOM     86  S   UNL A   1      44.176  39.018  34.427  1.00  0.00     0.124 S 
ATOM     87  O   UNL A   1      44.142  38.708  35.854  1.00  0.00    -0.237 OA
ATOM     88  O   UNL A   1      45.495  39.333  33.885  1.00  0.00    -0.237 OA
ATOM     89  O   UNL A   1      43.091  39.872  33.951  1.00  0.00    -0.744 OA
ENDBRANCH  85  86
ENDBRANCH  59  80
ENDBRANCH  33  34
ENDBRANCH  26  28
ENDBRANCH  25  26
ENDBRANCH  24  25
ENDBRANCH   1  24
TORSDOF 18
ENDMDL
MODEL 2
REMARK VINA RESULT:     -10.1      3.834      4.594
REMARK SMILES Cc1cc(Br)cc2c1O[C@H](C(F)(F)F)C(C(=O)OCCOCCOC(=O)c1ccc(-c3c4nc(c(-c5ccc(S(=O)(=O)[O-])cc5)c5ccc([nH]5)c(-c5ccc(S(=O)(=O)[O-])cc5)c5nc(c(-c6ccc(S(=O)(=O)[O-])cc6)c6ccc3[nH]6)C=C5)C=C4)cc1)=C2
REMARK SMILES IDX 22 1 21 2 20 3 19 4 18 5 16 6 17 7 15 8 1 9 2 10 3 11 8 12
REMARK SMILES IDX 4 13 7 14 9 15 5 16 6 17 87 18 10 19 11 20 12 21 13 22 14 23
REMARK SMILES IDX 23 24 24 25 25 26 26 27 27 28 28 29 86 30 29 31 85 32 30 33
REMARK SMILES IDX 31 34 32 35 79 36 33 37 84 38 78 39 80 40 34 41 83 42 77 43
REMARK SMILES IDX 76 44 35 46 65 47 46 48 64 49 47 50 50 51 63 52 81 53 48 54
REMARK SMILES IDX 49 55 62 57 82 58 51 59 36 60 37 61 45 62 38 63 44 64 39 65
REMARK SMILES IDX 40 66 41 67 42 68 43 69 66 70 67 71 75 72 68 73 74 74 69 75
REMARK SMILES IDX 70 76 71 77 72 78 73 79 52 80 53 81 61 82 54 83 60 84 55 85
REMARK SMILES IDX 56 86 57 87 58 88 59 89
REMARK H PARENT 80 45 50 56
REMARK Flexibility Score: inf
ROOT
ATOM      1  C   UNL A   1      39.236  22.248  26.243  1.00  0.00     0.202 C 
ENDROOT
BRANCH   1   2
ATOM      2  O   UNL A   1      38.061  22.841  25.689  1.00  0.00    -0.374 OA
BRANCH   2   3
ATOM      3  C   UNL A   1      37.153  21.990  24.992  1.00  0.00     0.202 C 
BRANCH   3   4
ATOM      4  C   UNL A   1      35.935  21.493  25.774  1.00  0.00     0.261 C 
BRANCH   4   5
ATOM      5  O   UNL A   1      34.704  21.835  25.117  1.00  0.00    -0.460 OA
BRANCH   5   6
ATOM      6  C   UNL A   1      33.820  22.506  25.891  1.00  0.00     0.338 C 
ATOM      7  O   UNL A   1      33.423  22.184  27.000  1.00  0.00    -0.246 OA
BRANCH   6   8
ATOM      8  C   UNL A   1      33.479  23.796  25.262  1.00  0.00     0.087 C 
ATOM      9  C   UNL A   1      31.340  27.561  22.550  1.00  0.00     0.048 C 
ATOM     10  C   UNL A   1      32.125  27.475  23.829  1.00  0.00    -0.007 A 
ATOM     11  C   UNL A   1      32.274  28.613  24.637  1.00  0.00     0.023 A 
ATOM     12  C   UNL A   1      32.665  26.253  24.260  1.00  0.00     0.130 A 
ATOM     13  C   UNL A   1      32.961  28.530  25.847  1.00  0.00     0.019 A 
ATOM     14  C   UNL A   1      33.316  26.170  25.495  1.00  0.00     0.019 A 
ATOM     15  O   UNL A   1      32.524  25.181  23.422  1.00  0.00    -0.475 OA
ATOM     16  Br  UNL A   1      33.154  30.069  26.928  1.00  0.00    -0.051 Br
ATOM     17  C   UNL A   1      33.482  27.315  26.281  1.00  0.00     0.027 A 
ATOM     18  C   UNL A   1      33.748  24.881  25.999  1.00  0.00     0.027 C 
ATOM     19  C   UNL A   1      32.848  23.844  23.899  1.00  0.00     0.316 C 
BRANCH  19  20
ATOM     20  C   UNL A   1      31.579  22.985  23.795  1.00  0.00     0.430 C 
ATOM     21  F   UNL A   1      31.831  21.822  23.147  1.00  0.00    -0.167 F 
ATOM     22  F   UNL A   1      31.090  22.658  25.012  1.00  0.00    -0.167 F 
ATOM     23  F   UNL A   1      30.597  23.624  23.119  1.00  0.00    -0.167 F 
ENDBRANCH  19  20
ENDBRANCH   6   8
ENDBRANCH   5   6
ENDBRANCH   4   5
ENDBRANCH   3   4
ENDBRANCH   2   3
ENDBRANCH   1   2
BRANCH   1  24
ATOM     24  C   UNL A   1      40.239  23.179  26.937  1.00  0.00     0.261 C 
BRANCH  24  25
ATOM     25  O   UNL A   1      39.595  24.287  27.591  1.00  0.00    -0.460 OA
BRANCH  25  26
ATOM     26  C   UNL A   1      40.048  25.509  27.216  1.00  0.00     0.338 C 
ATOM     27  O   UNL A   1      40.436  25.843  26.104  1.00  0.00    -0.246 OA
BRANCH  26  28
ATOM     28  C   UNL A   1      39.835  26.477  28.304  1.00  0.00     0.060 A 
ATOM     29  C   UNL A   1      40.572  27.668  28.271  1.00  0.00     0.016 A 
ATOM     30  C   UNL A   1      38.991  26.192  29.379  1.00  0.00     0.016 A 
ATOM     31  C   UNL A   1      40.496  28.564  29.334  1.00  0.00     0.010 A 
ATOM     32  C   UNL A   1      38.927  27.088  30.453  1.00  0.00     0.010 A 
ATOM     33  C   UNL A   1      39.701  28.261  30.448  1.00  0.00    -0.014 A 
BRANCH  33  34
ATOM     34  C   UNL A   1      39.798  29.109  31.661  1.00  0.00     0.031 A 
ATOM     35  C   UNL A   1      40.953  28.905  32.603  1.00  0.00     0.074 A 
ATOM     36  C   UNL A   1      38.902  30.086  31.888  1.00  0.00     0.049 A 
ATOM     37  N   UNL A   1      41.241  29.542  33.707  1.00  0.00    -0.248 NA
ATOM     38  C   UNL A   1      41.915  27.845  32.251  1.00  0.00     0.031 C 
ATOM     39  C   UNL A   1      37.776  30.419  31.017  1.00  0.00     0.029 A 
ATOM     40  N   UNL A   1      38.809  30.988  32.919  1.00  0.00    -0.354 N 
ATOM     41  C   UNL A   1      42.419  28.972  34.176  1.00  0.00     0.074 A 
ATOM     42  C   UNL A   1      42.772  27.910  33.261  1.00  0.00     0.031 C 
ATOM     43  C   UNL A   1      37.111  31.461  31.545  1.00  0.00     0.029 A 
ATOM     44  C   UNL A   1      37.743  31.848  32.805  1.00  0.00     0.049 A 
ATOM     45  H   UNL A   1      39.446  31.016  33.670  1.00  0.00     0.167 HD
ATOM     46  C   UNL A   1      43.149  29.311  35.266  1.00  0.00     0.031 A 
ATOM     47  C   UNL A   1      37.320  32.829  33.628  1.00  0.00     0.031 A 
ATOM     48  C   UNL A   1      42.788  30.356  36.186  1.00  0.00     0.049 A 
ATOM     49  C   UNL A   1      38.090  33.115  34.891  1.00  0.00     0.074 A 
ATOM     50  C   UNL A   1      43.458  30.768  37.324  1.00  0.00     0.029 A 
ATOM     51  N   UNL A   1      41.657  31.150  36.077  1.00  0.00    -0.354 N 
ATOM     52  N   UNL A   1      39.203  32.568  35.319  1.00  0.00    -0.248 NA
ATOM     53  C   UNL A   1      37.547  34.151  35.782  1.00  0.00     0.031 C 
ATOM     54  C   UNL A   1      42.705  31.776  37.933  1.00  0.00     0.029 A 
ATOM     55  C   UNL A   1      41.596  32.033  37.141  1.00  0.00     0.049 A 
ATOM     56  H   UNL A   1      40.995  31.095  35.350  1.00  0.00     0.167 HD
ATOM     57  C   UNL A   1      39.506  33.210  36.515  1.00  0.00     0.074 A 
ATOM     58  C   UNL A   1      38.466  34.194  36.739  1.00  0.00     0.031 C 
ATOM     59  C   UNL A   1      40.554  33.006  37.351  1.00  0.00     0.031 A 
BRANCH  46  60
ATOM     60  C   UNL A   1      44.410  28.534  35.529  1.00  0.00    -0.014 A 
ATOM     61  C   UNL A   1      44.389  27.372  36.322  1.00  0.00     0.010 A 
ATOM     62  C   UNL A   1      45.618  28.935  34.932  1.00  0.00     0.010 A 
ATOM     63  C   UNL A   1      45.559  26.641  36.534  1.00  0.00     0.020 A 
ATOM     64  C   UNL A   1      46.787  28.192  35.123  1.00  0.00     0.020 A 
ATOM     65  C   UNL A   1      46.752  27.056  35.933  1.00  0.00     0.054 A 
BRANCH  65  66
ATOM     66  S   UNL A   1      48.249  26.066  36.202  1.00  0.00     0.124 S 
ATOM     67  O   UNL A   1      48.971  26.874  37.182  1.00  0.00    -0.237 OA
ATOM     68  O   UNL A   1      47.711  24.805  36.704  1.00  0.00    -0.237 OA
ATOM     69  O   UNL A   1      48.863  25.997  34.879  1.00  0.00    -0.744 OA
ENDBRANCH  65  66
ENDBRANCH  46  60
BRANCH  47  70
ATOM     70  C   UNL A   1      36.105  33.616  33.283  1.00  0.00    -0.014 A 
ATOM     71  C   UNL A   1      36.222  34.906  32.739  1.00  0.00     0.010 A 
ATOM     72  C   UNL A   1      34.822  33.074  33.492  1.00  0.00     0.010 A 
ATOM     73  C   UNL A   1      35.079  35.645  32.416  1.00  0.00     0.020 A 
ATOM     74  C   UNL A   1      33.678  33.799  33.147  1.00  0.00     0.020 A 
ATOM     75  C   UNL A   1      33.814  35.084  32.618  1.00  0.00     0.054 A 
BRANCH  75  76
ATOM     76  S   UNL A   1      32.349  36.043  32.142  1.00  0.00     0.124 S 
ATOM     77  O   UNL A   1      31.261  35.167  32.566  1.00  0.00    -0.237 OA
ATOM     78  O   UNL A   1      32.512  37.270  32.917  1.00  0.00    -0.237 OA
ATOM     79  O   UNL A   1      32.498  36.202  30.697  1.00  0.00    -0.744 OA
ENDBRANCH  75  76
ENDBRANCH  47  70
BRANCH  59  80
ATOM     80  C   UNL A   1      40.653  33.868  38.581  1.00  0.00    -0.014 A 
ATOM     81  C   UNL A   1      41.266  35.132  38.531  1.00  0.00     0.010 A 
ATOM     82  C   UNL A   1      40.032  33.452  39.773  1.00  0.00     0.010 A 
ATOM     83  C   UNL A   1      41.263  35.962  39.656  1.00  0.00     0.020 A 
ATOM     84  C   UNL A   1      40.005  34.290  40.892  1.00  0.00     0.020 A 
ATOM     85  C   UNL A   1      40.627  35.538  40.827  1.00  0.00     0.054 A 
BRANCH  85  86
ATOM     86  S   UNL A   1      40.569  36.670  42.243  1.00  0.00     0.124 S 
ATOM     87  O   UNL A   1      39.455  37.545  41.889  1.00  0.00    -0.237 OA
ATOM     88  O   UNL A   1      40.327  35.767  43.365  1.00  0.00    -0.237 OA
ATOM     89  O   UNL A   1      41.885  37.306  42.234  1.00  0.00    -0.744 OA
ENDBRANCH  85  86
ENDBRANCH  59  80
ENDBRANCH  33  34
ENDBRANCH  26  28
ENDBRANCH  25  26
ENDBRANCH  24  25
ENDBRANCH   1  24
TORSDOF 18
ENDMDL
MODEL 3
REMARK VINA RESULT:     -10.0      3.791     10.101
REMARK SMILES Cc1cc(Br)cc2c1O[C@H](C(F)(F)F)C(C(=O)OCCOCCOC(=O)c1ccc(-c3c4nc(c(-c5ccc(S(=O)(=O)[O-])cc5)c5ccc([nH]5)c(-c5ccc(S(=O)(=O)[O-])cc5)c5nc(c(-c6ccc(S(=O)(=O)[O-])cc6)c6ccc3[nH]6)C=C5)C=C4)cc1)=C2
REMARK SMILES IDX 22 1 21 2 20 3 19 4 18 5 16 6 17 7 15 8 1 9 2 10 3 11 8 12
REMARK SMILES IDX 4 13 7 14 9 15 5 16 6 17 87 18 10 19 11 20 12 21 13 22 14 23
REMARK SMILES IDX 23 24 24 25 25 26 26 27 27 28 28 29 86 30 29 31 85 32 30 33
REMARK SMILES IDX 31 34 32 35 79 36 33 37 84 38 78 39 80 40 34 41 83 42 77 43
REMARK SMILES IDX 76 44 35 46 65 47 46 48 64 49 47 50 50 51 63 52 81 53 48 54
REMARK SMILES IDX 49 55 62 57 82 58 51 59 36 60 37 61 45 62 38 63 44 64 39 65
REMARK SMILES IDX 40 66 41 67 42 68 43 69 66 70 67 71 75 72 68 73 74 74 69 75
REMARK SMILES IDX 70 76 71 77 72 78 73 79 52 80 53 81 61 82 54 83 60 84 55 85
REMARK SMILES IDX 56 86 57 87 58 88 59 89
REMARK H PARENT 80 45 50 56
REMARK Flexibility Score: inf
ROOT
ATOM      1  C   UNL A   1      34.545  32.035  27.860  1.00  0.00     0.202 C 
ENDROOT
BRANCH   1   2
ATOM      2  O   UNL A   1      33.141  32.042  27.602  1.00  0.00    -0.374 OA
BRANCH   2   3
ATOM      3  C   UNL A   1      32.581  30.911  26.937  1.00  0.00     0.202 C 
BRANCH   3   4
ATOM      4  C   UNL A   1      33.100  29.535  27.361  1.00  0.00     0.261 C 
BRANCH   4   5
ATOM      5  O   UNL A   1      32.985  28.574  26.300  1.00  0.00    -0.460 OA
BRANCH   5   6
ATOM      6  C   UNL A   1      32.145  27.546  26.561  1.00  0.00     0.338 C 
ATOM      7  O   UNL A   1      31.159  27.567  27.282  1.00  0.00    -0.246 OA
BRANCH   6   8
ATOM      8  C   UNL A   1      32.504  26.380  25.730  1.00  0.00     0.087 C 
ATOM      9  C   UNL A   1      33.180  23.050  21.914  1.00  0.00     0.048 C 
ATOM     10  C   UNL A   1      33.904  23.378  23.190  1.00  0.00    -0.007 A 
ATOM     11  C   UNL A   1      35.149  22.788  23.461  1.00  0.00     0.023 A 
ATOM     12  C   UNL A   1      33.381  24.318  24.092  1.00  0.00     0.130 A 
ATOM     13  C   UNL A   1      35.847  23.123  24.620  1.00  0.00     0.019 A 
ATOM     14  C   UNL A   1      34.108  24.679  25.230  1.00  0.00     0.019 A 
ATOM     15  O   UNL A   1      32.151  24.840  23.802  1.00  0.00    -0.475 OA
ATOM     16  Br  UNL A   1      37.522  22.321  24.974  1.00  0.00    -0.051 Br
ATOM     17  C   UNL A   1      35.334  24.065  25.506  1.00  0.00     0.027 A 
ATOM     18  C   UNL A   1      33.630  25.749  26.085  1.00  0.00     0.027 C 
ATOM     19  C   UNL A   1      31.652  25.980  24.559  1.00  0.00     0.316 C 
BRANCH  19  20
ATOM     20  C   UNL A   1      31.410  27.132  23.572  1.00  0.00     0.430 C 
ATOM     21  F   UNL A   1      30.953  26.667  22.384  1.00  0.00    -0.167 F 
ATOM     22  F   UNL A   1      30.486  28.004  24.032  1.00  0.00    -0.167 F 
ATOM     23  F   UNL A   1      32.543  27.828  23.328  1.00  0.00    -0.167 F 
ENDBRANCH  19  20
ENDBRANCH   6   8
ENDBRANCH   5   6
ENDBRANCH   4   5
ENDBRANCH   3   4
ENDBRANCH   2   3
ENDBRANCH   1   2
BRANCH   1  24
ATOM     24  C   UNL A   1      35.000  32.255  29.308  1.00  0.00     0.261 C 
BRANCH  24  25
ATOM     25  O   UNL A   1      35.627  31.088  29.869  1.00  0.00    -0.460 OA
BRANCH  25  26
ATOM     26  C   UNL A   1      36.695  31.343  30.665  1.00  0.00     0.338 C 
ATOM     27  O   UNL A   1      36.694  31.945  31.730  1.00  0.00    -0.246 OA
BRANCH  26  28
ATOM     28  C   UNL A   1      37.875  30.617  30.167  1.00  0.00     0.060 A 
ATOM     29  C   UNL A   1      38.805  30.160  31.110  1.00  0.00     0.016 A 
ATOM     30  C   UNL A   1      38.109  30.456  28.800  1.00  0.00     0.016 A 
ATOM     31  C   UNL A   1      39.994  29.571  30.687  1.00  0.00     0.010 A 
ATOM     32  C   UNL A   1      39.311  29.876  28.377  1.00  0.00     0.010 A 
ATOM     33  C   UNL A   1      40.270  29.460  29.317  1.00  0.00    -0.014 A 
BRANCH  33  34
ATOM     34  C   UNL A   1      41.623  29.037  28.882  1.00  0.00     0.031 A 
ATOM     35  C   UNL A   1      42.752  30.030  28.944  1.00  0.00     0.074 A 
ATOM     36  C   UNL A   1      41.854  27.771  28.492  1.00  0.00     0.049 A 
ATOM     37  N   UNL A   1      44.011  29.870  28.631  1.00  0.00    -0.248 NA
ATOM     38  C   UNL A   1      42.419  31.381  29.430  1.00  0.00     0.031 C 
ATOM     39  C   UNL A   1      40.855  26.705  28.447  1.00  0.00     0.029 A 
ATOM     40  N   UNL A   1      43.011  27.165  28.071  1.00  0.00    -0.354 N 
ATOM     41  C   UNL A   1      44.623  31.090  28.891  1.00  0.00     0.074 A 
ATOM     42  C   UNL A   1      43.592  31.994  29.349  1.00  0.00     0.031 C 
ATOM     43  C   UNL A   1      41.446  25.571  28.034  1.00  0.00     0.029 A 
ATOM     44  C   UNL A   1      42.856  25.837  27.754  1.00  0.00     0.049 A 
ATOM     45  H   UNL A   1      43.874  27.637  28.003  1.00  0.00     0.167 HD
ATOM     46  C   UNL A   1      45.930  31.424  28.771  1.00  0.00     0.031 A 
ATOM     47  C   UNL A   1      43.746  24.940  27.283  1.00  0.00     0.031 A 
ATOM     48  C   UNL A   1      46.952  30.530  28.299  1.00  0.00     0.049 A 
ATOM     49  C   UNL A   1      45.172  25.368  27.055  1.00  0.00     0.074 A 
ATOM     50  C   UNL A   1      48.304  30.779  28.134  1.00  0.00     0.029 A 
ATOM     51  N   UNL A   1      46.737  29.216  27.912  1.00  0.00    -0.354 N 
ATOM     52  N   UNL A   1      45.736  26.526  27.308  1.00  0.00    -0.248 NA
ATOM     53  C   UNL A   1      46.085  24.368  26.479  1.00  0.00     0.031 C 
ATOM     54  C   UNL A   1      48.896  29.632  27.596  1.00  0.00     0.029 A 
ATOM     55  C   UNL A   1      47.925  28.650  27.483  1.00  0.00     0.049 A 
ATOM     56  H   UNL A   1      45.867  28.754  27.938  1.00  0.00     0.167 HD
ATOM     57  C   UNL A   1      47.071  26.385  26.946  1.00  0.00     0.074 A 
ATOM     58  C   UNL A   1      47.236  25.028  26.466  1.00  0.00     0.031 C 
ATOM     59  C   UNL A   1      48.072  27.297  27.008  1.00  0.00     0.031 A 
BRANCH  46  60
ATOM     60  C   UNL A   1      46.328  32.826  29.147  1.00  0.00    -0.014 A 
ATOM     61  C   UNL A   1      46.756  33.128  30.452  1.00  0.00     0.010 A 
ATOM     62  C   UNL A   1      46.332  33.840  28.173  1.00  0.00     0.010 A 
ATOM     63  C   UNL A   1      47.154  34.426  30.782  1.00  0.00     0.020 A 
ATOM     64  C   UNL A   1      46.752  35.134  28.493  1.00  0.00     0.020 A 
ATOM     65  C   UNL A   1      47.149  35.421  29.800  1.00  0.00     0.054 A 
BRANCH  65  66
ATOM     66  S   UNL A   1      47.701  37.089  30.252  1.00  0.00     0.124 S 
ATOM     67  O   UNL A   1      46.898  37.361  31.441  1.00  0.00    -0.237 OA
ATOM     68  O   UNL A   1      49.130  36.898  30.491  1.00  0.00    -0.237 OA
ATOM     69  O   UNL A   1      47.370  37.895  29.080  1.00  0.00    -0.744 OA
ENDBRANCH  65  66
ENDBRANCH  46  60
BRANCH  47  70
ATOM     70  C   UNL A   1      43.315  23.546  26.994  1.00  0.00    -0.014 A 
ATOM     71  C   UNL A   1      43.142  23.113  25.669  1.00  0.00     0.010 A 
ATOM     72  C   UNL A   1      43.082  22.640  28.046  1.00  0.00     0.010 A 
ATOM     73  C   UNL A   1      42.736  21.802  25.399  1.00  0.00     0.020 A 
ATOM     74  C   UNL A   1      42.701  21.322  27.780  1.00  0.00     0.020 A 
ATOM     75  C   UNL A   1      42.522  20.913  26.457  1.00  0.00     0.054 A 
BRANCH  75  76
ATOM     76  S   UNL A   1      42.046  19.204  26.078  1.00  0.00     0.124 S 
ATOM     77  O   UNL A   1      42.449  18.500  27.291  1.00  0.00    -0.237 OA
ATOM     78  O   UNL A   1      40.607  19.320  25.861  1.00  0.00    -0.237 OA
ATOM     79  O   UNL A   1      42.826  18.888  24.883  1.00  0.00    -0.744 OA
ENDBRANCH  75  76
ENDBRANCH  47  70
BRANCH  59  80
ATOM     80  C   UNL A   1      49.446  26.868  26.567  1.00  0.00    -0.014 A 
ATOM     81  C   UNL A   1      50.305  26.183  27.444  1.00  0.00     0.010 A 
ATOM     82  C   UNL A   1      49.839  27.059  25.230  1.00  0.00     0.010 A 
ATOM     83  C   UNL A   1      51.538  25.704  26.991  1.00  0.00     0.020 A 
ATOM     84  C   UNL A   1      51.060  26.559  24.767  1.00  0.00     0.020 A 
ATOM     85  C   UNL A   1      51.904  25.889  25.654  1.00  0.00     0.054 A 
BRANCH  85  86
ATOM     86  S   UNL A   1      53.474  25.185  25.078  1.00  0.00     0.124 S 
ATOM     87  O   UNL A   1      53.514  25.629  23.687  1.00  0.00    -0.237 OA
ATOM     88  O   UNL A   1      54.450  25.811  25.965  1.00  0.00    -0.237 OA
ATOM     89  O   UNL A   1      53.299  23.746  25.266  1.00  0.00    -0.744 OA
ENDBRANCH  85  86
ENDBRANCH  59  80
ENDBRANCH  33  34
ENDBRANCH  26  28
ENDBRANCH  25  26
ENDBRANCH  24  25
ENDBRANCH   1  24
TORSDOF 18
ENDMDL
