MODEL 1
REMARK VINA RESULT:     -10.8      0.000      0.000
REMARK SMILES O=C(OCCOCCOC(=O)c1ccc(-c2c3nc(c(-c4ccc(S(=O)(=O)[O-])cc4)c4ccc([nH]4)c(-c4ccc(S(=O)(=O)[O-])cc4)c4nc(c(-c5ccc(S(=O)(=O)[O-])cc5)c5ccc2[nH]5)C=C4)C=C3)cc1)/C(=C/c1ccccc1Cl)NC(=O)c1ccccc1
REMARK SMILES IDX 7 1 6 2 5 3 4 4 3 5 2 6 1 7 72 8 73 9 81 10 82 11 83 13
REMARK SMILES IDX 84 14 85 15 89 16 86 17 88 18 87 19 74 20 75 21 79 22 76 23
REMARK SMILES IDX 78 24 80 25 77 26 8 27 9 28 10 29 11 30 12 31 13 32 71 33
REMARK SMILES IDX 14 34 70 35 15 36 16 37 17 38 64 39 18 40 69 41 63 42 65 43
REMARK SMILES IDX 19 44 68 45 62 46 61 47 20 49 50 50 31 51 49 52 32 53 35 54
REMARK SMILES IDX 48 55 66 56 33 57 34 58 47 60 67 61 36 62 21 63 22 64 30 65
REMARK SMILES IDX 23 66 29 67 24 68 25 69 26 70 27 71 28 72 51 73 52 74 60 75
REMARK SMILES IDX 53 76 59 77 54 78 55 79 56 80 57 81 58 82 37 83 38 84 46 85
REMARK SMILES IDX 39 86 45 87 40 88 41 89 42 90 43 91 44 92
REMARK H PARENT 81 12 65 48 35 59
REMARK Flexibility Score: inf
ROOT
ATOM      1  C   UNL A   1      31.721  30.596  26.293  1.00  0.00     0.202 C 
ENDROOT
BRANCH   1   2
ATOM      2  O   UNL A   1      32.447  30.038  25.200  1.00  0.00    -0.374 OA
BRANCH   2   3
ATOM      3  C   UNL A   1      31.636  29.314  24.289  1.00  0.00     0.202 C 
BRANCH   3   4
ATOM      4  C   UNL A   1      31.806  27.797  24.387  1.00  0.00     0.261 C 
BRANCH   4   5
ATOM      5  O   UNL A   1      32.695  27.392  25.426  1.00  0.00    -0.459 OA
BRANCH   5   6
ATOM      6  C   UNL A   1      32.091  26.707  26.439  1.00  0.00     0.354 C 
ATOM      7  O   UNL A   1      31.739  27.243  27.481  1.00  0.00    -0.244 OA
BRANCH   6   8
ATOM      8  C   UNL A   1      32.346  25.238  26.341  1.00  0.00     0.128 C 
ATOM      9  C   UNL A   1      33.612  25.026  25.899  1.00  0.00     0.043 C 
BRANCH   8  10
ATOM     10  N   UNL A   1      31.465  24.250  26.733  1.00  0.00    -0.316 N 
ATOM     11  C   UNL A   1      30.894  23.090  26.224  1.00  0.00     0.255 C 
ATOM     12  H   UNL A   1      31.146  24.417  27.648  1.00  0.00     0.170 HD
ATOM     13  O   UNL A   1      29.974  22.596  26.888  1.00  0.00    -0.269 OA
BRANCH  11  14
ATOM     14  C   UNL A   1      31.294  22.308  25.021  1.00  0.00     0.040 A 
ATOM     15  C   UNL A   1      31.880  21.045  25.184  1.00  0.00     0.014 A 
ATOM     16  C   UNL A   1      31.462  22.918  23.776  1.00  0.00     0.014 A 
ATOM     17  C   UNL A   1      32.440  20.356  24.092  1.00  0.00     0.001 A 
ATOM     18  C   UNL A   1      31.928  22.202  22.660  1.00  0.00     0.001 A 
ATOM     19  C   UNL A   1      32.405  20.909  22.817  1.00  0.00     0.000 A 
ENDBRANCH  11  14
ENDBRANCH   8  10
BRANCH   9  20
ATOM     20  C   UNL A   1      34.492  23.860  25.650  1.00  0.00    -0.005 A 
ATOM     21  C   UNL A   1      35.005  23.786  24.334  1.00  0.00     0.010 A 
ATOM     22  C   UNL A   1      34.706  22.754  26.487  1.00  0.00     0.048 A 
ATOM     23  C   UNL A   1      35.702  22.664  23.870  1.00  0.00     0.001 A 
ATOM     24  C   UNL A   1      35.408  21.627  26.018  1.00  0.00     0.021 A 
ATOM     25  Cl  UNL A   1      34.084  22.666  28.092  1.00  0.00    -0.084 Cl
ATOM     26  C   UNL A   1      35.901  21.581  24.714  1.00  0.00     0.002 A 
ENDBRANCH   9  20
ENDBRANCH   6   8
ENDBRANCH   5   6
ENDBRANCH   4   5
ENDBRANCH   3   4
ENDBRANCH   2   3
ENDBRANCH   1   2
BRANCH   1  27
ATOM     27  C   UNL A   1      32.586  31.403  27.276  1.00  0.00     0.261 C 
BRANCH  27  28
ATOM     28  O   UNL A   1      33.987  31.025  27.246  1.00  0.00    -0.460 OA
BRANCH  28  29
ATOM     29  C   UNL A   1      34.708  31.292  28.371  1.00  0.00     0.338 C 
ATOM     30  O   UNL A   1      34.373  32.051  29.270  1.00  0.00    -0.246 OA
BRANCH  29  31
ATOM     31  C   UNL A   1      35.942  30.460  28.453  1.00  0.00     0.060 A 
ATOM     32  C   UNL A   1      36.223  29.793  29.657  1.00  0.00     0.016 A 
ATOM     33  C   UNL A   1      36.854  30.369  27.396  1.00  0.00     0.016 A 
ATOM     34  C   UNL A   1      37.431  29.102  29.833  1.00  0.00     0.010 A 
ATOM     35  C   UNL A   1      38.063  29.674  27.571  1.00  0.00     0.010 A 
ATOM     36  C   UNL A   1      38.383  29.080  28.806  1.00  0.00    -0.014 A 
BRANCH  36  37
ATOM     37  C   UNL A   1      39.788  28.662  29.091  1.00  0.00     0.031 A 
ATOM     38  C   UNL A   1      40.697  29.650  29.780  1.00  0.00     0.074 A 
ATOM     39  C   UNL A   1      40.267  27.446  28.763  1.00  0.00     0.049 A 
ATOM     40  N   UNL A   1      41.950  29.523  30.133  1.00  0.00    -0.248 NA
ATOM     41  C   UNL A   1      40.110  30.960  30.110  1.00  0.00     0.031 C 
ATOM     42  C   UNL A   1      39.501  26.373  28.139  1.00  0.00     0.029 A 
ATOM     43  N   UNL A   1      41.526  26.911  28.913  1.00  0.00    -0.354 N 
ATOM     44  C   UNL A   1      42.301  30.733  30.722  1.00  0.00     0.074 A 
ATOM     45  C   UNL A   1      41.145  31.597  30.635  1.00  0.00     0.031 C 
ATOM     46  C   UNL A   1      40.306  25.312  27.942  1.00  0.00     0.029 A 
ATOM     47  C   UNL A   1      41.650  25.631  28.423  1.00  0.00     0.049 A 
ATOM     48  H   UNL A   1      42.271  27.399  29.333  1.00  0.00     0.167 HD
ATOM     49  C   UNL A   1      43.472  31.095  31.299  1.00  0.00     0.031 A 
ATOM     50  C   UNL A   1      42.719  24.808  28.370  1.00  0.00     0.031 A 
ATOM     51  C   UNL A   1      44.631  30.249  31.380  1.00  0.00     0.049 A 
ATOM     52  C   UNL A   1      44.035  25.257  28.958  1.00  0.00     0.074 A 
ATOM     53  C   UNL A   1      45.853  30.521  31.973  1.00  0.00     0.029 A 
ATOM     54  N   UNL A   1      44.722  28.975  30.843  1.00  0.00    -0.354 N 
ATOM     55  N   UNL A   1      44.330  26.386  29.559  1.00  0.00    -0.248 NA
ATOM     56  C   UNL A   1      45.157  24.308  28.881  1.00  0.00     0.031 C 
ATOM     57  C   UNL A   1      46.702  29.434  31.739  1.00  0.00     0.029 A 
ATOM     58  C   UNL A   1      45.988  28.458  31.063  1.00  0.00     0.049 A 
ATOM     59  H   UNL A   1      43.993  28.507  30.376  1.00  0.00     0.167 HD
ATOM     60  C   UNL A   1      45.655  26.260  29.973  1.00  0.00     0.074 A 
ATOM     61  C   UNL A   1      46.101  24.947  29.556  1.00  0.00     0.031 C 
ATOM     62  C   UNL A   1      46.426  27.150  30.648  1.00  0.00     0.031 A 
BRANCH  49  63
ATOM     63  C   UNL A   1      43.560  32.491  31.858  1.00  0.00    -0.014 A 
ATOM     64  C   UNL A   1      43.251  32.761  33.204  1.00  0.00     0.010 A 
ATOM     65  C   UNL A   1      43.969  33.548  31.025  1.00  0.00     0.010 A 
ATOM     66  C   UNL A   1      43.300  34.069  33.692  1.00  0.00     0.020 A 
ATOM     67  C   UNL A   1      44.049  34.853  31.517  1.00  0.00     0.020 A 
ATOM     68  C   UNL A   1      43.694  35.108  32.843  1.00  0.00     0.054 A 
BRANCH  68  69
ATOM     69  S   UNL A   1      43.752  36.796  33.502  1.00  0.00     0.124 S 
ATOM     70  O   UNL A   1      44.971  36.761  34.308  1.00  0.00    -0.237 OA
ATOM     71  O   UNL A   1      43.823  37.610  32.292  1.00  0.00    -0.237 OA
ATOM     72  O   UNL A   1      42.510  36.917  34.260  1.00  0.00    -0.744 OA
ENDBRANCH  68  69
ENDBRANCH  49  63
BRANCH  50  73
ATOM     73  C   UNL A   1      42.597  23.452  27.761  1.00  0.00    -0.014 A 
ATOM     74  C   UNL A   1      42.124  22.365  28.519  1.00  0.00     0.010 A 
ATOM     75  C   UNL A   1      42.979  23.233  26.424  1.00  0.00     0.010 A 
ATOM     76  C   UNL A   1      42.055  21.084  27.961  1.00  0.00     0.020 A 
ATOM     77  C   UNL A   1      42.886  21.958  25.855  1.00  0.00     0.020 A 
ATOM     78  C   UNL A   1      42.435  20.888  26.631  1.00  0.00     0.054 A 
BRANCH  78  79
ATOM     79  S   UNL A   1      42.291  19.227  25.915  1.00  0.00     0.124 S 
ATOM     80  O   UNL A   1      40.851  19.112  25.699  1.00  0.00    -0.237 OA
ATOM     81  O   UNL A   1      43.105  19.333  24.707  1.00  0.00    -0.237 OA
ATOM     82  O   UNL A   1      42.839  18.359  26.954  1.00  0.00    -0.744 OA
ENDBRANCH  78  79
ENDBRANCH  50  73
BRANCH  62  83
ATOM     83  C   UNL A   1      47.820  26.721  31.032  1.00  0.00    -0.014 A 
ATOM     84  C   UNL A   1      48.078  26.026  32.226  1.00  0.00     0.010 A 
ATOM     85  C   UNL A   1      48.887  26.980  30.151  1.00  0.00     0.010 A 
ATOM     86  C   UNL A   1      49.382  25.638  32.553  1.00  0.00     0.020 A 
ATOM     87  C   UNL A   1      50.186  26.566  30.457  1.00  0.00     0.020 A 
ATOM     88  C   UNL A   1      50.428  25.914  31.667  1.00  0.00     0.054 A 
BRANCH  88  89
ATOM     89  S   UNL A   1      52.107  25.378  32.101  1.00  0.00     0.124 S 
ATOM     90  O   UNL A   1      51.935  23.937  32.258  1.00  0.00    -0.237 OA
ATOM     91  O   UNL A   1      52.887  25.796  30.939  1.00  0.00    -0.237 OA
ATOM     92  O   UNL A   1      52.397  26.109  33.332  1.00  0.00    -0.744 OA
ENDBRANCH  88  89
ENDBRANCH  62  83
ENDBRANCH  36  37
ENDBRANCH  29  31
ENDBRANCH  28  29
ENDBRANCH  27  28
ENDBRANCH   1  27
TORSDOF 20
ENDMDL
MODEL 2
REMARK VINA RESULT:     -10.4      1.209      2.281
REMARK SMILES O=C(OCCOCCOC(=O)c1ccc(-c2c3nc(c(-c4ccc(S(=O)(=O)[O-])cc4)c4ccc([nH]4)c(-c4ccc(S(=O)(=O)[O-])cc4)c4nc(c(-c5ccc(S(=O)(=O)[O-])cc5)c5ccc2[nH]5)C=C4)C=C3)cc1)/C(=C/c1ccccc1Cl)NC(=O)c1ccccc1
REMARK SMILES IDX 7 1 6 2 5 3 4 4 3 5 2 6 1 7 72 8 73 9 81 10 82 11 83 13
REMARK SMILES IDX 84 14 85 15 89 16 86 17 88 18 87 19 74 20 75 21 79 22 76 23
REMARK SMILES IDX 78 24 80 25 77 26 8 27 9 28 10 29 11 30 12 31 13 32 71 33
REMARK SMILES IDX 14 34 70 35 15 36 16 37 17 38 64 39 18 40 69 41 63 42 65 43
REMARK SMILES IDX 19 44 68 45 62 46 61 47 20 49 50 50 31 51 49 52 32 53 35 54
REMARK SMILES IDX 48 55 66 56 33 57 34 58 47 60 67 61 36 62 21 63 22 64 30 65
REMARK SMILES IDX 23 66 29 67 24 68 25 69 26 70 27 71 28 72 51 73 52 74 60 75
REMARK SMILES IDX 53 76 59 77 54 78 55 79 56 80 57 81 58 82 37 83 38 84 46 85
REMARK SMILES IDX 39 86 45 87 40 88 41 89 42 90 43 91 44 92
REMARK H PARENT 81 12 65 48 35 59
REMARK Flexibility Score: inf
ROOT
ATOM      1  C   UNL A   1      32.885  29.251  26.342  1.00  0.00     0.202 C 
ENDROOT
BRANCH   1   2
ATOM      2  O   UNL A   1      32.622  29.542  24.971  1.00  0.00    -0.374 OA
BRANCH   2   3
ATOM      3  C   UNL A   1      31.253  29.434  24.619  1.00  0.00     0.202 C 
BRANCH   3   4
ATOM      4  C   UNL A   1      30.843  28.031  24.167  1.00  0.00     0.261 C 
BRANCH   4   5
ATOM      5  O   UNL A   1      30.789  27.086  25.233  1.00  0.00    -0.459 OA
BRANCH   5   6
ATOM      6  C   UNL A   1      30.299  25.866  24.869  1.00  0.00     0.354 C 
ATOM      7  O   UNL A   1      29.203  25.458  25.229  1.00  0.00    -0.244 OA
BRANCH   6   8
ATOM      8  C   UNL A   1      31.387  24.944  24.423  1.00  0.00     0.128 C 
ATOM      9  C   UNL A   1      31.329  23.793  25.141  1.00  0.00     0.043 C 
BRANCH   8  10
ATOM     10  N   UNL A   1      32.255  25.185  23.377  1.00  0.00    -0.316 N 
ATOM     11  C   UNL A   1      33.600  25.015  23.067  1.00  0.00     0.255 C 
ATOM     12  H   UNL A   1      31.779  25.602  22.624  1.00  0.00     0.170 HD
ATOM     13  O   UNL A   1      33.997  25.569  22.036  1.00  0.00    -0.269 OA
BRANCH  11  14
ATOM     14  C   UNL A   1      34.617  24.182  23.768  1.00  0.00     0.040 A 
ATOM     15  C   UNL A   1      35.071  24.573  25.035  1.00  0.00     0.014 A 
ATOM     16  C   UNL A   1      35.407  23.259  23.080  1.00  0.00     0.014 A 
ATOM     17  C   UNL A   1      36.159  23.926  25.650  1.00  0.00     0.001 A 
ATOM     18  C   UNL A   1      36.429  22.539  23.720  1.00  0.00     0.001 A 
ATOM     19  C   UNL A   1      36.796  22.864  25.019  1.00  0.00     0.000 A 
ENDBRANCH  11  14
ENDBRANCH   8  10
BRANCH   9  20
ATOM     20  C   UNL A   1      32.039  22.493  25.164  1.00  0.00    -0.005 A 
ATOM     21  C   UNL A   1      32.708  22.214  26.379  1.00  0.00     0.010 A 
ATOM     22  C   UNL A   1      32.280  21.629  24.085  1.00  0.00     0.048 A 
ATOM     23  C   UNL A   1      33.574  21.123  26.518  1.00  0.00     0.001 A 
ATOM     24  C   UNL A   1      33.152  20.532  24.227  1.00  0.00     0.021 A 
ATOM     25  Cl  UNL A   1      31.595  21.875  22.523  1.00  0.00    -0.084 Cl
ATOM     26  C   UNL A   1      33.799  20.283  25.438  1.00  0.00     0.002 A 
ENDBRANCH   9  20
ENDBRANCH   6   8
ENDBRANCH   5   6
ENDBRANCH   4   5
ENDBRANCH   3   4
ENDBRANCH   2   3
ENDBRANCH   1   2
BRANCH   1  27
ATOM     27  C   UNL A   1      32.855  30.483  27.263  1.00  0.00     0.261 C 
BRANCH  27  28
ATOM     28  O   UNL A   1      34.088  31.248  27.233  1.00  0.00    -0.460 OA
BRANCH  28  29
ATOM     29  C   UNL A   1      34.737  31.393  28.422  1.00  0.00     0.338 C 
ATOM     30  O   UNL A   1      34.345  32.055  29.374  1.00  0.00    -0.246 OA
BRANCH  29  31
ATOM     31  C   UNL A   1      35.966  30.552  28.492  1.00  0.00     0.060 A 
ATOM     32  C   UNL A   1      36.257  29.889  29.696  1.00  0.00     0.016 A 
ATOM     33  C   UNL A   1      36.864  30.450  27.425  1.00  0.00     0.016 A 
ATOM     34  C   UNL A   1      37.462  29.190  29.859  1.00  0.00     0.010 A 
ATOM     35  C   UNL A   1      38.070  29.748  27.587  1.00  0.00     0.010 A 
ATOM     36  C   UNL A   1      38.402  29.157  28.822  1.00  0.00    -0.014 A 
BRANCH  36  37
ATOM     37  C   UNL A   1      39.806  28.730  29.090  1.00  0.00     0.031 A 
ATOM     38  C   UNL A   1      40.731  29.713  29.765  1.00  0.00     0.074 A 
ATOM     39  C   UNL A   1      40.274  27.509  28.761  1.00  0.00     0.049 A 
ATOM     40  N   UNL A   1      41.987  29.579  30.104  1.00  0.00    -0.248 NA
ATOM     41  C   UNL A   1      40.157  31.029  30.098  1.00  0.00     0.031 C 
ATOM     42  C   UNL A   1      39.492  26.439  28.149  1.00  0.00     0.029 A 
ATOM     43  N   UNL A   1      41.531  26.966  28.897  1.00  0.00    -0.354 N 
ATOM     44  C   UNL A   1      42.353  30.788  30.685  1.00  0.00     0.074 A 
ATOM     45  C   UNL A   1      41.202  31.660  30.610  1.00  0.00     0.031 C 
ATOM     46  C   UNL A   1      40.288  25.373  27.945  1.00  0.00     0.029 A 
ATOM     47  C   UNL A   1      41.640  25.684  28.409  1.00  0.00     0.049 A 
ATOM     48  H   UNL A   1      42.284  27.451  29.306  1.00  0.00     0.167 HD
ATOM     49  C   UNL A   1      43.533  31.144  31.246  1.00  0.00     0.031 A 
ATOM     50  C   UNL A   1      42.702  24.853  28.347  1.00  0.00     0.031 A 
ATOM     51  C   UNL A   1      44.688  30.290  31.316  1.00  0.00     0.049 A 
ATOM     52  C   UNL A   1      44.028  25.296  28.917  1.00  0.00     0.074 A 
ATOM     53  C   UNL A   1      45.918  30.555  31.894  1.00  0.00     0.029 A 
ATOM     54  N   UNL A   1      44.763  29.014  30.782  1.00  0.00    -0.354 N 
ATOM     55  N   UNL A   1      44.338  26.423  29.511  1.00  0.00    -0.248 NA
ATOM     56  C   UNL A   1      45.142  24.338  28.830  1.00  0.00     0.031 C 
ATOM     57  C   UNL A   1      46.757  29.462  31.653  1.00  0.00     0.029 A 
ATOM     58  C   UNL A   1      46.028  28.489  30.989  1.00  0.00     0.049 A 
ATOM     59  H   UNL A   1      44.026  28.549  30.325  1.00  0.00     0.167 HD
ATOM     60  C   UNL A   1      45.667  26.290  29.909  1.00  0.00     0.074 A 
ATOM     61  C   UNL A   1      46.099  24.973  29.491  1.00  0.00     0.031 C 
ATOM     62  C   UNL A   1      46.452  27.176  30.572  1.00  0.00     0.031 A 
BRANCH  49  63
ATOM     63  C   UNL A   1      43.638  32.541  31.800  1.00  0.00    -0.014 A 
ATOM     64  C   UNL A   1      44.111  33.607  31.014  1.00  0.00     0.010 A 
ATOM     65  C   UNL A   1      43.246  32.791  33.128  1.00  0.00     0.010 A 
ATOM     66  C   UNL A   1      44.237  34.887  31.560  1.00  0.00     0.020 A 
ATOM     67  C   UNL A   1      43.342  34.076  33.669  1.00  0.00     0.020 A 
ATOM     68  C   UNL A   1      43.858  35.111  32.886  1.00  0.00     0.054 A 
BRANCH  68  69
ATOM     69  S   UNL A   1      44.029  36.782  33.570  1.00  0.00     0.124 S 
ATOM     70  O   UNL A   1      43.687  37.614  32.418  1.00  0.00    -0.237 OA
ATOM     71  O   UNL A   1      43.055  36.784  34.658  1.00  0.00    -0.237 OA
ATOM     72  O   UNL A   1      45.426  36.845  33.988  1.00  0.00    -0.744 OA
ENDBRANCH  68  69
ENDBRANCH  49  63
BRANCH  50  73
ATOM     73  C   UNL A   1      42.564  23.496  27.742  1.00  0.00    -0.014 A 
ATOM     74  C   UNL A   1      42.300  22.375  28.552  1.00  0.00     0.010 A 
ATOM     75  C   UNL A   1      42.721  23.312  26.356  1.00  0.00     0.010 A 
ATOM     76  C   UNL A   1      42.217  21.096  27.991  1.00  0.00     0.020 A 
ATOM     77  C   UNL A   1      42.613  22.038  25.788  1.00  0.00     0.020 A 
ATOM     78  C   UNL A   1      42.372  20.935  26.611  1.00  0.00     0.054 A 
BRANCH  78  79
ATOM     79  S   UNL A   1      42.213  19.273  25.901  1.00  0.00     0.124 S 
ATOM     80  O   UNL A   1      42.692  18.429  26.991  1.00  0.00    -0.237 OA
ATOM     81  O   UNL A   1      40.783  19.188  25.615  1.00  0.00    -0.237 OA
ATOM     82  O   UNL A   1      43.075  19.322  24.722  1.00  0.00    -0.744 OA
ENDBRANCH  78  79
ENDBRANCH  50  73
BRANCH  62  83
ATOM     83  C   UNL A   1      47.848  26.739  30.940  1.00  0.00    -0.014 A 
ATOM     84  C   UNL A   1      48.955  27.033  30.125  1.00  0.00     0.010 A 
ATOM     85  C   UNL A   1      48.059  26.058  32.155  1.00  0.00     0.010 A 
ATOM     86  C   UNL A   1      50.238  26.617  30.495  1.00  0.00     0.020 A 
ATOM     87  C   UNL A   1      49.343  25.669  32.544  1.00  0.00     0.020 A 
ATOM     88  C   UNL A   1      50.423  25.935  31.702  1.00  0.00     0.054 A 
BRANCH  88  89
ATOM     89  S   UNL A   1      52.100  25.428  32.173  1.00  0.00     0.124 S 
ATOM     90  O   UNL A   1      52.853  25.691  30.949  1.00  0.00    -0.237 OA
ATOM     91  O   UNL A   1      52.398  26.311  33.298  1.00  0.00    -0.237 OA
ATOM     92  O   UNL A   1      51.951  24.016  32.521  1.00  0.00    -0.744 OA
ENDBRANCH  88  89
ENDBRANCH  62  83
ENDBRANCH  36  37
ENDBRANCH  29  31
ENDBRANCH  28  29
ENDBRANCH  27  28
ENDBRANCH   1  27
TORSDOF 20
ENDMDL
MODEL 3
REMARK VINA RESULT:     -10.2      3.428      9.506
REMARK SMILES O=C(OCCOCCOC(=O)c1ccc(-c2c3nc(c(-c4ccc(S(=O)(=O)[O-])cc4)c4ccc([nH]4)c(-c4ccc(S(=O)(=O)[O-])cc4)c4nc(c(-c5ccc(S(=O)(=O)[O-])cc5)c5ccc2[nH]5)C=C4)C=C3)cc1)/C(=C/c1ccccc1Cl)NC(=O)c1ccccc1
REMARK SMILES IDX 7 1 6 2 5 3 4 4 3 5 2 6 1 7 72 8 73 9 81 10 82 11 83 13
REMARK SMILES IDX 84 14 85 15 89 16 86 17 88 18 87 19 74 20 75 21 79 22 76 23
REMARK SMILES IDX 78 24 80 25 77 26 8 27 9 28 10 29 11 30 12 31 13 32 71 33
REMARK SMILES IDX 14 34 70 35 15 36 16 37 17 38 64 39 18 40 69 41 63 42 65 43
REMARK SMILES IDX 19 44 68 45 62 46 61 47 20 49 50 50 31 51 49 52 32 53 35 54
REMARK SMILES IDX 48 55 66 56 33 57 34 58 47 60 67 61 36 62 21 63 22 64 30 65
REMARK SMILES IDX 23 66 29 67 24 68 25 69 26 70 27 71 28 72 51 73 52 74 60 75
REMARK SMILES IDX 53 76 59 77 54 78 55 79 56 80 57 81 58 82 37 83 38 84 46 85
REMARK SMILES IDX 39 86 45 87 40 88 41 89 42 90 43 91 44 92
REMARK H PARENT 81 12 65 48 35 59
REMARK Flexibility Score: inf
ROOT
ATOM      1  C   UNL A   1      38.220  21.192  25.259  1.00  0.00     0.202 C 
ENDROOT
BRANCH   1   2
ATOM      2  O   UNL A   1      37.126  22.080  25.476  1.00  0.00    -0.374 OA
BRANCH   2   3
ATOM      3  C   UNL A   1      35.916  21.650  24.874  1.00  0.00     0.202 C 
BRANCH   3   4
ATOM      4  C   UNL A   1      35.102  22.785  24.251  1.00  0.00     0.261 C 
BRANCH   4   5
ATOM      5  O   UNL A   1      33.813  22.376  23.799  1.00  0.00    -0.459 OA
BRANCH   5   6
ATOM      6  C   UNL A   1      33.206  23.272  22.968  1.00  0.00     0.354 C 
ATOM      7  O   UNL A   1      33.519  23.402  21.793  1.00  0.00    -0.244 OA
BRANCH   6   8
ATOM      8  C   UNL A   1      32.507  24.349  23.733  1.00  0.00     0.128 C 
ATOM      9  C   UNL A   1      32.343  25.437  22.937  1.00  0.00     0.043 C 
BRANCH   8  10
ATOM     10  N   UNL A   1      32.016  24.223  25.017  1.00  0.00    -0.316 N 
ATOM     11  C   UNL A   1      32.022  24.923  26.218  1.00  0.00     0.255 C 
ATOM     12  H   UNL A   1      31.508  23.386  25.110  1.00  0.00     0.170 HD
ATOM     13  O   UNL A   1      31.589  24.318  27.206  1.00  0.00    -0.269 OA
BRANCH  11  14
ATOM     14  C   UNL A   1      32.407  26.341  26.465  1.00  0.00     0.040 A 
ATOM     15  C   UNL A   1      31.407  27.297  26.686  1.00  0.00     0.014 A 
ATOM     16  C   UNL A   1      33.669  26.827  26.115  1.00  0.00     0.014 A 
ATOM     17  C   UNL A   1      31.711  28.670  26.737  1.00  0.00     0.001 A 
ATOM     18  C   UNL A   1      34.004  28.183  26.261  1.00  0.00     0.001 A 
ATOM     19  C   UNL A   1      33.023  29.107  26.589  1.00  0.00     0.000 A 
ENDBRANCH  11  14
ENDBRANCH   8  10
BRANCH   9  20
ATOM     20  C   UNL A   1      31.701  26.769  23.040  1.00  0.00    -0.005 A 
ATOM     21  C   UNL A   1      30.295  26.730  23.189  1.00  0.00     0.010 A 
ATOM     22  C   UNL A   1      32.289  28.023  22.816  1.00  0.00     0.048 A 
ATOM     23  C   UNL A   1      29.508  27.885  23.120  1.00  0.00     0.001 A 
ATOM     24  C   UNL A   1      31.495  29.183  22.748  1.00  0.00     0.021 A 
ATOM     25  Cl  UNL A   1      33.980  28.224  22.548  1.00  0.00    -0.084 Cl
ATOM     26  C   UNL A   1      30.110  29.114  22.896  1.00  0.00     0.002 A 
ENDBRANCH   9  20
ENDBRANCH   6   8
ENDBRANCH   5   6
ENDBRANCH   4   5
ENDBRANCH   3   4
ENDBRANCH   2   3
ENDBRANCH   1   2
BRANCH   1  27
ATOM     27  C   UNL A   1      39.356  21.331  26.288  1.00  0.00     0.261 C 
BRANCH  27  28
ATOM     28  O   UNL A   1      39.945  20.058  26.663  1.00  0.00    -0.460 OA
BRANCH  28  29
ATOM     29  C   UNL A   1      41.235  19.854  26.277  1.00  0.00     0.338 C 
ATOM     30  O   UNL A   1      41.670  18.841  25.744  1.00  0.00    -0.246 OA
BRANCH  29  31
ATOM     31  C   UNL A   1      42.076  21.068  26.477  1.00  0.00     0.060 A 
ATOM     32  C   UNL A   1      42.403  21.449  27.790  1.00  0.00     0.016 A 
ATOM     33  C   UNL A   1      42.498  21.870  25.411  1.00  0.00     0.016 A 
ATOM     34  C   UNL A   1      43.082  22.650  28.043  1.00  0.00     0.010 A 
ATOM     35  C   UNL A   1      43.181  23.072  25.665  1.00  0.00     0.010 A 
ATOM     36  C   UNL A   1      43.431  23.497  26.984  1.00  0.00    -0.014 A 
BRANCH  36  37
ATOM     37  C   UNL A   1      43.828  24.911  27.249  1.00  0.00     0.031 A 
ATOM     38  C   UNL A   1      45.274  25.293  27.041  1.00  0.00     0.074 A 
ATOM     39  C   UNL A   1      42.953  25.850  27.658  1.00  0.00     0.049 A 
ATOM     40  N   UNL A   1      45.861  26.451  27.202  1.00  0.00    -0.248 NA
ATOM     41  C   UNL A   1      46.177  24.219  26.593  1.00  0.00     0.031 C 
ATOM     42  C   UNL A   1      41.522  25.646  27.858  1.00  0.00     0.029 A 
ATOM     43  N   UNL A   1      43.148  27.174  27.981  1.00  0.00    -0.354 N 
ATOM     44  C   UNL A   1      47.198  26.244  26.880  1.00  0.00     0.074 A 
ATOM     45  C   UNL A   1      47.345  24.841  26.561  1.00  0.00     0.031 C 
ATOM     46  C   UNL A   1      40.968  26.795  28.286  1.00  0.00     0.029 A 
ATOM     47  C   UNL A   1      42.005  27.820  28.396  1.00  0.00     0.049 A 
ATOM     48  H   UNL A   1      44.025  27.618  27.922  1.00  0.00     0.167 HD
ATOM     49  C   UNL A   1      48.215  27.138  26.837  1.00  0.00     0.031 A 
ATOM     50  C   UNL A   1      41.814  29.090  28.810  1.00  0.00     0.031 A 
ATOM     51  C   UNL A   1      48.083  28.532  27.164  1.00  0.00     0.049 A 
ATOM     52  C   UNL A   1      42.976  30.054  28.820  1.00  0.00     0.074 A 
ATOM     53  C   UNL A   1      49.052  29.520  27.119  1.00  0.00     0.029 A 
ATOM     54  N   UNL A   1      46.917  29.135  27.607  1.00  0.00    -0.354 N 
ATOM     55  N   UNL A   1      44.222  29.852  28.459  1.00  0.00    -0.248 NA
ATOM     56  C   UNL A   1      42.698  31.427  29.269  1.00  0.00     0.031 C 
ATOM     57  C   UNL A   1      48.487  30.706  27.596  1.00  0.00     0.029 A 
ATOM     58  C   UNL A   1      47.149  30.475  27.870  1.00  0.00     0.049 A 
ATOM     59  H   UNL A   1      46.052  28.678  27.718  1.00  0.00     0.167 HD
ATOM     60  C   UNL A   1      44.860  31.083  28.594  1.00  0.00     0.074 A 
ATOM     61  C   UNL A   1      43.864  32.022  29.065  1.00  0.00     0.031 C 
ATOM     62  C   UNL A   1      46.153  31.406  28.337  1.00  0.00     0.031 A 
BRANCH  49  63
ATOM     63  C   UNL A   1      49.574  26.616  26.450  1.00  0.00    -0.014 A 
ATOM     64  C   UNL A   1      50.017  26.647  25.116  1.00  0.00     0.010 A 
ATOM     65  C   UNL A   1      50.424  26.094  27.442  1.00  0.00     0.010 A 
ATOM     66  C   UNL A   1      51.266  26.121  24.773  1.00  0.00     0.020 A 
ATOM     67  C   UNL A   1      51.685  25.594  27.108  1.00  0.00     0.020 A 
ATOM     68  C   UNL A   1      52.089  25.592  25.772  1.00  0.00     0.054 A 
BRANCH  68  69
ATOM     69  S   UNL A   1      53.705  24.918  25.301  1.00  0.00     0.124 S 
ATOM     70  O   UNL A   1      53.407  23.494  25.163  1.00  0.00    -0.237 OA
ATOM     71  O   UNL A   1      53.995  25.621  24.055  1.00  0.00    -0.237 OA
ATOM     72  O   UNL A   1      54.568  25.266  26.426  1.00  0.00    -0.744 OA
ENDBRANCH  68  69
ENDBRANCH  49  63
BRANCH  50  73
ATOM     73  C   UNL A   1      40.459  29.550  29.232  1.00  0.00    -0.014 A 
ATOM     74  C   UNL A   1      39.493  29.909  28.273  1.00  0.00     0.010 A 
ATOM     75  C   UNL A   1      40.133  29.656  30.597  1.00  0.00     0.010 A 
ATOM     76  C   UNL A   1      38.239  30.384  28.669  1.00  0.00     0.020 A 
ATOM     77  C   UNL A   1      38.871  30.106  30.997  1.00  0.00     0.020 A 
ATOM     78  C   UNL A   1      37.934  30.479  30.030  1.00  0.00     0.054 A 
BRANCH  78  79
ATOM     79  S   UNL A   1      36.283  31.053  30.519  1.00  0.00     0.124 S 
ATOM     80  O   UNL A   1      35.535  30.925  29.273  1.00  0.00    -0.237 OA
ATOM     81  O   UNL A   1      35.922  30.110  31.575  1.00  0.00    -0.237 OA
ATOM     82  O   UNL A   1      36.519  32.423  30.971  1.00  0.00    -0.744 OA
ENDBRANCH  78  79
ENDBRANCH  50  73
BRANCH  62  83
ATOM     83  C   UNL A   1      46.563  32.848  28.507  1.00  0.00    -0.014 A 
ATOM     84  C   UNL A   1      46.434  33.781  27.464  1.00  0.00     0.010 A 
ATOM     85  C   UNL A   1      47.045  33.284  29.755  1.00  0.00     0.010 A 
ATOM     86  C   UNL A   1      46.820  35.112  27.652  1.00  0.00     0.020 A 
ATOM     87  C   UNL A   1      47.401  34.620  29.959  1.00  0.00     0.020 A 
ATOM     88  C   UNL A   1      47.304  35.523  28.898  1.00  0.00     0.054 A 
BRANCH  88  89
ATOM     89  S   UNL A   1      47.774  37.260  29.127  1.00  0.00     0.124 S 
ATOM     90  O   UNL A   1      46.749  37.956  28.354  1.00  0.00    -0.237 OA
ATOM     91  O   UNL A   1      47.691  37.427  30.576  1.00  0.00    -0.237 OA
ATOM     92  O   UNL A   1      49.125  37.329  28.576  1.00  0.00    -0.744 OA
ENDBRANCH  88  89
ENDBRANCH  62  83
ENDBRANCH  36  37
ENDBRANCH  29  31
ENDBRANCH  28  29
ENDBRANCH  27  28
ENDBRANCH   1  27
TORSDOF 20
ENDMDL
