MODEL 1
REMARK VINA RESULT:     -10.0      0.000      0.000
REMARK SMILES CCc1n[nH]c(C(=O)N(C)[C@H]2COC[C@H]2C(=O)OCCOCCOC(=O)c2ccc(-c3c4nc(c(-c5ccc(S(=O)(=O)[O-])cc5)c5ccc([nH]5)c(-c5ccc(S(=O)(=O)[O-])cc5)c5nc(c(-c6ccc(S(=O)(=O)[O-])cc6)c6ccc3[nH]6)C=C5)C=C4)cc2)n1
REMARK SMILES IDX 20 1 19 2 18 3 16 4 17 5 15 6 11 7 12 8 13 9 14 10 9 11
REMARK SMILES IDX 10 12 7 13 8 14 6 15 3 16 4 17 87 18 5 19 2 21 1 22 21 23
REMARK SMILES IDX 22 24 23 25 24 26 25 27 26 28 27 29 28 30 86 31 29 32 85 33
REMARK SMILES IDX 30 34 31 35 32 36 79 37 33 38 84 39 78 40 80 41 34 42 83 43
REMARK SMILES IDX 77 44 76 45 35 47 65 48 46 49 64 50 47 51 50 52 63 53 81 54
REMARK SMILES IDX 48 55 49 56 62 58 82 59 51 60 36 61 37 62 45 63 38 64 44 65
REMARK SMILES IDX 39 66 40 67 41 68 42 69 43 70 66 71 67 72 75 73 68 74 74 75
REMARK SMILES IDX 69 76 70 77 71 78 72 79 73 80 52 81 53 82 61 83 54 84 60 85
REMARK SMILES IDX 55 86 56 87 57 88 58 89 59 90
REMARK H PARENT 5 20 80 46 50 57
REMARK Flexibility Score: inf
ROOT
ATOM      1  C   UNL A   1      36.195  23.492  24.427  1.00  0.00     0.202 C 
ENDROOT
BRANCH   1   2
ATOM      2  C   UNL A   1      34.679  23.278  24.330  1.00  0.00     0.261 C 
BRANCH   2   3
ATOM      3  O   UNL A   1      33.911  24.467  24.058  1.00  0.00    -0.463 OA
BRANCH   3   4
ATOM      4  C   UNL A   1      33.734  25.247  25.146  1.00  0.00     0.313 C 
ATOM      5  O   UNL A   1      33.544  24.812  26.282  1.00  0.00    -0.252 OA
BRANCH   4   6
ATOM      6  C   UNL A   1      33.713  26.727  24.910  1.00  0.00     0.150 C 
ATOM      7  C   UNL A   1      32.836  27.572  23.977  1.00  0.00     0.127 C 
ATOM      8  C   UNL A   1      33.214  28.961  24.552  1.00  0.00     0.186 C 
ATOM      9  O   UNL A   1      33.430  28.817  25.970  1.00  0.00    -0.378 OA
ATOM     10  C   UNL A   1      33.688  27.436  26.246  1.00  0.00     0.177 C 
BRANCH   7  11
ATOM     11  N   UNL A   1      31.373  27.321  23.880  1.00  0.00    -0.333 N 
ATOM     12  C   UNL A   1      30.622  27.185  25.140  1.00  0.00     0.147 C 
BRANCH  11  13
ATOM     13  C   UNL A   1      30.687  27.534  22.628  1.00  0.00     0.291 C 
ATOM     14  O   UNL A   1      31.027  26.921  21.615  1.00  0.00    -0.265 OA
BRANCH  13  15
ATOM     15  C   UNL A   1      29.495  28.414  22.663  1.00  0.00     0.214 A 
ATOM     16  C   UNL A   1      28.309  31.002  23.322  1.00  0.00     0.151 A 
ATOM     17  N   UNL A   1      26.902  29.701  23.586  1.00  0.00    -0.158 NA
ATOM     18  N   UNL A   1      29.764  29.962  22.817  1.00  0.00    -0.207 NA
ATOM     19  N   UNL A   1      27.721  28.056  23.030  1.00  0.00    -0.255 N 
ATOM     20  H   UNL A   1      27.277  27.180  22.955  1.00  0.00     0.192 HD
BRANCH  16  21
ATOM     21  C   UNL A   1      28.569  32.351  22.409  1.00  0.00     0.076 C 
ATOM     22  C   UNL A   1      29.137  33.603  23.132  1.00  0.00     0.012 C 
ENDBRANCH  16  21
ENDBRANCH  13  15
ENDBRANCH  11  13
ENDBRANCH   7  11
ENDBRANCH   4   6
ENDBRANCH   3   4
ENDBRANCH   2   3
ENDBRANCH   1   2
BRANCH   1  23
ATOM     23  O   UNL A   1      37.054  22.362  24.542  1.00  0.00    -0.374 OA
BRANCH  23  24
ATOM     24  C   UNL A   1      37.878  22.200  25.696  1.00  0.00     0.202 C 
BRANCH  24  25
ATOM     25  C   UNL A   1      38.785  20.981  25.751  1.00  0.00     0.261 C 
BRANCH  25  26
ATOM     26  O   UNL A   1      40.114  21.454  25.480  1.00  0.00    -0.460 OA
BRANCH  26  27
ATOM     27  C   UNL A   1      41.140  20.754  25.983  1.00  0.00     0.338 C 
ATOM     28  O   UNL A   1      41.120  19.536  26.110  1.00  0.00    -0.246 OA
BRANCH  27  29
ATOM     29  C   UNL A   1      42.385  21.741  26.498  1.00  0.00     0.060 A 
ATOM     30  C   UNL A   1      41.605  22.051  28.036  1.00  0.00     0.016 A 
ATOM     31  C   UNL A   1      43.394  23.355  25.568  1.00  0.00     0.016 A 
ATOM     32  C   UNL A   1      41.568  23.575  28.620  1.00  0.00     0.010 A 
ATOM     33  C   UNL A   1      43.164  24.944  26.375  1.00  0.00     0.010 A 
ATOM     34  C   UNL A   1      42.306  24.929  27.905  1.00  0.00    -0.014 A 
BRANCH  34  35
ATOM     35  C   UNL A   1      42.502  26.064  28.864  1.00  0.00     0.031 A 
ATOM     36  C   UNL A   1      43.513  25.866  29.924  1.00  0.00     0.074 A 
ATOM     37  C   UNL A   1      41.652  27.127  28.880  1.00  0.00     0.049 A 
ATOM     38  N   UNL A   1      43.651  26.499  31.051  1.00  0.00    -0.248 NA
ATOM     39  C   UNL A   1      44.455  24.757  29.705  1.00  0.00     0.031 C 
ATOM     40  C   UNL A   1      40.591  27.427  27.899  1.00  0.00     0.029 A 
ATOM     41  N   UNL A   1      41.453  28.101  29.834  1.00  0.00    -0.354 N 
ATOM     42  C   UNL A   1      44.685  25.846  31.696  1.00  0.00     0.074 A 
ATOM     43  C   UNL A   1      45.052  24.705  30.883  1.00  0.00     0.031 C 
ATOM     44  C   UNL A   1      39.797  28.406  28.356  1.00  0.00     0.029 A 
ATOM     45  C   UNL A   1      40.303  28.848  29.640  1.00  0.00     0.049 A 
ATOM     46  H   UNL A   1      42.071  28.253  30.585  1.00  0.00     0.167 HD
ATOM     47  C   UNL A   1      45.306  26.206  32.840  1.00  0.00     0.031 A 
ATOM     48  C   UNL A   1      39.704  29.774  30.414  1.00  0.00     0.031 A 
ATOM     49  C   UNL A   1      44.924  27.357  33.609  1.00  0.00     0.049 A 
ATOM     50  C   UNL A   1      40.391  30.150  31.693  1.00  0.00     0.074 A 
ATOM     51  C   UNL A   1      45.527  27.881  34.734  1.00  0.00     0.029 A 
ATOM     52  N   UNL A   1      43.829  28.166  33.322  1.00  0.00    -0.354 N 
ATOM     53  N   UNL A   1      41.442  29.593  32.250  1.00  0.00    -0.248 NA
ATOM     54  C   UNL A   1      39.857  31.304  32.421  1.00  0.00     0.031 C 
ATOM     55  C   UNL A   1      44.766  28.973  35.163  1.00  0.00     0.029 A 
ATOM     56  C   UNL A   1      43.729  29.176  34.263  1.00  0.00     0.049 A 
ATOM     57  H   UNL A   1      43.217  28.040  32.563  1.00  0.00     0.167 HD
ATOM     58  C   UNL A   1      41.731  30.365  33.365  1.00  0.00     0.074 A 
ATOM     59  C   UNL A   1      40.743  31.427  33.400  1.00  0.00     0.031 C 
ATOM     60  C   UNL A   1      42.730  30.218  34.269  1.00  0.00     0.031 A 
BRANCH  47  61
ATOM     61  C   UNL A   1      46.452  25.342  33.280  1.00  0.00    -0.014 A 
ATOM     62  C   UNL A   1      46.245  24.269  34.172  1.00  0.00     0.010 A 
ATOM     63  C   UNL A   1      47.756  25.627  32.844  1.00  0.00     0.010 A 
ATOM     64  C   UNL A   1      47.328  23.554  34.682  1.00  0.00     0.020 A 
ATOM     65  C   UNL A   1      48.838  24.880  33.315  1.00  0.00     0.020 A 
ATOM     66  C   UNL A   1      48.618  23.865  34.250  1.00  0.00     0.054 A 
BRANCH  66  67
ATOM     67  S   UNL A   1      50.001  22.910  34.923  1.00  0.00     0.124 S 
ATOM     68  O   UNL A   1      50.927  23.964  35.333  1.00  0.00    -0.237 OA
ATOM     69  O   UNL A   1      49.374  22.168  36.013  1.00  0.00    -0.237 OA
ATOM     70  O   UNL A   1      50.446  22.099  33.792  1.00  0.00    -0.744 OA
ENDBRANCH  66  67
ENDBRANCH  47  61
BRANCH  48  71
ATOM     71  C   UNL A   1      38.446  30.456  29.976  1.00  0.00    -0.014 A 
ATOM     72  C   UNL A   1      38.509  31.680  29.283  1.00  0.00     0.010 A 
ATOM     73  C   UNL A   1      37.181  29.894  30.230  1.00  0.00     0.010 A 
ATOM     74  C   UNL A   1      37.341  32.339  28.881  1.00  0.00     0.020 A 
ATOM     75  C   UNL A   1      36.009  30.538  29.807  1.00  0.00     0.020 A 
ATOM     76  C   UNL A   1      36.096  31.762  29.141  1.00  0.00     0.054 A 
BRANCH  76  77
ATOM     77  S   UNL A   1      34.602  32.617  28.559  1.00  0.00     0.124 S 
ATOM     78  O   UNL A   1      35.151  33.593  27.623  1.00  0.00    -0.237 OA
ATOM     79  O   UNL A   1      33.834  31.528  27.960  1.00  0.00    -0.237 OA
ATOM     80  O   UNL A   1      34.028  33.176  29.780  1.00  0.00    -0.744 OA
ENDBRANCH  76  77
ENDBRANCH  48  71
BRANCH  60  81
ATOM     81  C   UNL A   1      42.833  31.264  35.346  1.00  0.00    -0.014 A 
ATOM     82  C   UNL A   1      43.630  32.410  35.183  1.00  0.00     0.010 A 
ATOM     83  C   UNL A   1      42.066  31.116  36.516  1.00  0.00     0.010 A 
ATOM     84  C   UNL A   1      43.685  33.374  36.191  1.00  0.00     0.020 A 
ATOM     85  C   UNL A   1      42.087  32.097  37.507  1.00  0.00     0.020 A 
ATOM     86  C   UNL A   1      42.909  33.213  37.344  1.00  0.00     0.054 A 
BRANCH  86  87
ATOM     87  S   UNL A   1      42.960  34.506  38.611  1.00  0.00     0.124 S 
ATOM     88  O   UNL A   1      44.112  35.298  38.189  1.00  0.00    -0.237 OA
ATOM     89  O   UNL A   1      41.660  35.153  38.457  1.00  0.00    -0.237 OA
ATOM     90  O   UNL A   1      43.138  33.764  39.857  1.00  0.00    -0.744 OA
ENDBRANCH  86  87
ENDBRANCH  60  81
ENDBRANCH  34  35
ENDBRANCH  27  29
ENDBRANCH  26  27
ENDBRANCH  25  26
ENDBRANCH  24  25
ENDBRANCH  23  24
ENDBRANCH   1  23
TORSDOF 21
ENDMDL
MODEL 2
REMARK VINA RESULT:      -9.9      3.061      4.606
REMARK SMILES CCc1n[nH]c(C(=O)N(C)[C@H]2COC[C@H]2C(=O)OCCOCCOC(=O)c2ccc(-c3c4nc(c(-c5ccc(S(=O)(=O)[O-])cc5)c5ccc([nH]5)c(-c5ccc(S(=O)(=O)[O-])cc5)c5nc(c(-c6ccc(S(=O)(=O)[O-])cc6)c6ccc3[nH]6)C=C5)C=C4)cc2)n1
REMARK SMILES IDX 20 1 19 2 18 3 16 4 17 5 15 6 11 7 12 8 13 9 14 10 9 11
REMARK SMILES IDX 10 12 7 13 8 14 6 15 3 16 4 17 87 18 5 19 2 21 1 22 21 23
REMARK SMILES IDX 22 24 23 25 24 26 25 27 26 28 27 29 28 30 86 31 29 32 85 33
REMARK SMILES IDX 30 34 31 35 32 36 79 37 33 38 84 39 78 40 80 41 34 42 83 43
REMARK SMILES IDX 77 44 76 45 35 47 65 48 46 49 64 50 47 51 50 52 63 53 81 54
REMARK SMILES IDX 48 55 49 56 62 58 82 59 51 60 36 61 37 62 45 63 38 64 44 65
REMARK SMILES IDX 39 66 40 67 41 68 42 69 43 70 66 71 67 72 75 73 68 74 74 75
REMARK SMILES IDX 69 76 70 77 71 78 72 79 73 80 52 81 53 82 61 83 54 84 60 85
REMARK SMILES IDX 55 86 56 87 57 88 58 89 59 90
REMARK H PARENT 5 20 80 46 50 57
REMARK Flexibility Score: inf
ROOT
ATOM      1  C   UNL A   1      38.086  23.389  25.820  1.00  0.00     0.202 C 
ENDROOT
BRANCH   1   2
ATOM      2  C   UNL A   1      36.562  23.344  25.991  1.00  0.00     0.261 C 
BRANCH   2   3
ATOM      3  O   UNL A   1      35.836  24.356  25.265  1.00  0.00    -0.463 OA
BRANCH   3   4
ATOM      4  C   UNL A   1      34.906  23.847  24.430  1.00  0.00     0.313 C 
ATOM      5  O   UNL A   1      35.170  23.242  23.391  1.00  0.00    -0.252 OA
BRANCH   4   6
ATOM      6  C   UNL A   1      33.474  24.106  24.788  1.00  0.00     0.150 C 
ATOM      7  C   UNL A   1      32.575  25.311  24.482  1.00  0.00     0.127 C 
ATOM      8  C   UNL A   1      31.229  24.669  24.902  1.00  0.00     0.186 C 
ATOM      9  O   UNL A   1      31.278  23.266  24.572  1.00  0.00    -0.378 OA
ATOM     10  C   UNL A   1      32.652  22.886  24.436  1.00  0.00     0.177 C 
BRANCH   7  11
ATOM     11  N   UNL A   1      32.570  25.928  23.128  1.00  0.00    -0.333 N 
ATOM     12  C   UNL A   1      31.531  25.483  22.183  1.00  0.00     0.147 C 
BRANCH  11  13
ATOM     13  C   UNL A   1      33.332  27.129  22.880  1.00  0.00     0.291 C 
ATOM     14  O   UNL A   1      34.029  27.231  21.869  1.00  0.00    -0.265 OA
BRANCH  13  15
ATOM     15  C   UNL A   1      33.129  28.253  23.823  1.00  0.00     0.214 A 
ATOM     16  C   UNL A   1      33.318  29.309  26.541  1.00  0.00     0.151 A 
ATOM     17  N   UNL A   1      31.779  30.176  25.751  1.00  0.00    -0.158 NA
ATOM     18  N   UNL A   1      33.911  28.176  25.193  1.00  0.00    -0.207 NA
ATOM     19  N   UNL A   1      31.790  29.518  23.947  1.00  0.00    -0.255 N 
ATOM     20  H   UNL A   1      31.190  29.803  23.219  1.00  0.00     0.192 HD
BRANCH  16  21
ATOM     21  C   UNL A   1      34.756  29.752  27.219  1.00  0.00     0.076 C 
ATOM     22  C   UNL A   1      34.762  31.025  28.109  1.00  0.00     0.012 C 
ENDBRANCH  16  21
ENDBRANCH  13  15
ENDBRANCH  11  13
ENDBRANCH   7  11
ENDBRANCH   4   6
ENDBRANCH   3   4
ENDBRANCH   2   3
ENDBRANCH   1   2
BRANCH   1  23
ATOM     23  O   UNL A   1      38.841  22.191  25.971  1.00  0.00    -0.374 OA
BRANCH  23  24
ATOM     24  C   UNL A   1      40.163  22.238  26.505  1.00  0.00     0.202 C 
BRANCH  24  25
ATOM     25  C   UNL A   1      40.502  23.374  27.458  1.00  0.00     0.261 C 
BRANCH  25  26
ATOM     26  O   UNL A   1      41.680  24.006  26.931  1.00  0.00    -0.460 OA
BRANCH  26  27
ATOM     27  C   UNL A   1      41.513  25.083  26.151  1.00  0.00     0.338 C 
ATOM     28  O   UNL A   1      42.138  25.259  25.112  1.00  0.00    -0.246 OA
BRANCH  27  29
ATOM     29  C   UNL A   1      40.442  26.181  26.811  1.00  0.00     0.060 A 
ATOM     30  C   UNL A   1      41.713  27.346  27.125  1.00  0.00     0.016 A 
ATOM     31  C   UNL A   1      38.918  25.976  28.268  1.00  0.00     0.016 A 
ATOM     32  C   UNL A   1      41.749  28.120  28.562  1.00  0.00     0.010 A 
ATOM     33  C   UNL A   1      39.209  26.892  29.787  1.00  0.00     0.010 A 
ATOM     34  C   UNL A   1      40.594  27.967  29.801  1.00  0.00    -0.014 A 
BRANCH  34  35
ATOM     35  C   UNL A   1      40.628  29.105  30.776  1.00  0.00     0.031 A 
ATOM     36  C   UNL A   1      41.420  28.898  32.005  1.00  0.00     0.074 A 
ATOM     37  C   UNL A   1      39.808  30.181  30.628  1.00  0.00     0.049 A 
ATOM     38  N   UNL A   1      41.358  29.538  33.137  1.00  0.00    -0.248 NA
ATOM     39  C   UNL A   1      42.368  27.774  31.970  1.00  0.00     0.031 C 
ATOM     40  C   UNL A   1      38.953  30.492  29.466  1.00  0.00     0.029 A 
ATOM     41  N   UNL A   1      39.452  31.166  31.525  1.00  0.00    -0.354 N 
ATOM     42  C   UNL A   1      42.242  28.872  33.965  1.00  0.00     0.074 A 
ATOM     43  C   UNL A   1      42.735  27.720  33.239  1.00  0.00     0.031 C 
ATOM     44  C   UNL A   1      38.105  31.486  29.763  1.00  0.00     0.029 A 
ATOM     45  C   UNL A   1      38.371  31.929  31.117  1.00  0.00     0.049 A 
ATOM     46  H   UNL A   1      39.922  31.313  32.377  1.00  0.00     0.167 HD
ATOM     47  C   UNL A   1      42.645  29.231  35.203  1.00  0.00     0.031 A 
ATOM     48  C   UNL A   1      37.654  32.871  31.762  1.00  0.00     0.031 A 
ATOM     49  C   UNL A   1      42.146  30.394  35.883  1.00  0.00     0.049 A 
ATOM     50  C   UNL A   1      38.098  33.245  33.145  1.00  0.00     0.074 A 
ATOM     51  C   UNL A   1      42.539  30.916  37.098  1.00  0.00     0.029 A 
ATOM     52  N   UNL A   1      41.139  31.218  35.393  1.00  0.00    -0.354 N 
ATOM     53  N   UNL A   1      39.017  32.675  33.889  1.00  0.00    -0.248 NA
ATOM     54  C   UNL A   1      37.458  34.413  33.756  1.00  0.00     0.031 C 
ATOM     55  C   UNL A   1      41.730  32.023  37.373  1.00  0.00     0.029 A 
ATOM     56  C   UNL A   1      40.882  32.236  36.295  1.00  0.00     0.049 A 
ATOM     57  H   UNL A   1      40.676  31.097  34.534  1.00  0.00     0.167 HD
ATOM     58  C   UNL A   1      39.107  33.451  35.036  1.00  0.00     0.074 A 
ATOM     59  C   UNL A   1      38.148  34.528  34.882  1.00  0.00     0.031 C 
ATOM     60  C   UNL A   1      39.918  33.294  36.111  1.00  0.00     0.031 A 
BRANCH  47  61
ATOM     61  C   UNL A   1      43.674  28.352  35.852  1.00  0.00    -0.014 A 
ATOM     62  C   UNL A   1      43.286  27.266  36.664  1.00  0.00     0.010 A 
ATOM     63  C   UNL A   1      45.041  28.635  35.697  1.00  0.00     0.010 A 
ATOM     64  C   UNL A   1      44.240  26.534  37.371  1.00  0.00     0.020 A 
ATOM     65  C   UNL A   1      46.001  27.873  36.365  1.00  0.00     0.020 A 
ATOM     66  C   UNL A   1      45.592  26.845  37.218  1.00  0.00     0.054 A 
BRANCH  66  67
ATOM     67  S   UNL A   1      46.806  25.868  38.141  1.00  0.00     0.124 S 
ATOM     68  O   UNL A   1      46.058  24.645  38.424  1.00  0.00    -0.237 OA
ATOM     69  O   UNL A   1      47.897  25.729  37.182  1.00  0.00    -0.237 OA
ATOM     70  O   UNL A   1      47.104  26.697  39.307  1.00  0.00    -0.744 OA
ENDBRANCH  66  67
ENDBRANCH  47  61
BRANCH  48  71
ATOM     71  C   UNL A   1      36.512  33.570  31.094  1.00  0.00    -0.014 A 
ATOM     72  C   UNL A   1      35.442  34.069  31.859  1.00  0.00     0.010 A 
ATOM     73  C   UNL A   1      36.482  33.754  29.699  1.00  0.00     0.010 A 
ATOM     74  C   UNL A   1      34.358  34.710  31.248  1.00  0.00     0.020 A 
ATOM     75  C   UNL A   1      35.410  34.419  29.084  1.00  0.00     0.020 A 
ATOM     76  C   UNL A   1      34.349  34.886  29.863  1.00  0.00     0.054 A 
BRANCH  76  77
ATOM     77  S   UNL A   1      32.953  35.768  29.106  1.00  0.00     0.124 S 
ATOM     78  O   UNL A   1      32.383  34.749  28.231  1.00  0.00    -0.237 OA
ATOM     79  O   UNL A   1      32.145  36.129  30.268  1.00  0.00    -0.237 OA
ATOM     80  O   UNL A   1      33.587  36.894  28.424  1.00  0.00    -0.744 OA
ENDBRANCH  76  77
ENDBRANCH  48  71
BRANCH  60  81
ATOM     81  C   UNL A   1      39.836  34.346  37.183  1.00  0.00    -0.014 A 
ATOM     82  C   UNL A   1      38.988  34.200  38.294  1.00  0.00     0.010 A 
ATOM     83  C   UNL A   1      40.674  35.473  37.098  1.00  0.00     0.010 A 
ATOM     84  C   UNL A   1      38.953  35.183  39.284  1.00  0.00     0.020 A 
ATOM     85  C   UNL A   1      40.673  36.437  38.106  1.00  0.00     0.020 A 
ATOM     86  C   UNL A   1      39.800  36.292  39.185  1.00  0.00     0.054 A 
BRANCH  86  87
ATOM     87  S   UNL A   1      39.772  37.525  40.511  1.00  0.00     0.124 S 
ATOM     88  O   UNL A   1      39.111  36.795  41.590  1.00  0.00    -0.237 OA
ATOM     89  O   UNL A   1      41.191  37.804  40.717  1.00  0.00    -0.237 OA
ATOM     90  O   UNL A   1      39.002  38.630  39.943  1.00  0.00    -0.744 OA
ENDBRANCH  86  87
ENDBRANCH  60  81
ENDBRANCH  34  35
ENDBRANCH  27  29
ENDBRANCH  26  27
ENDBRANCH  25  26
ENDBRANCH  24  25
ENDBRANCH  23  24
ENDBRANCH   1  23
TORSDOF 21
ENDMDL
MODEL 3
REMARK VINA RESULT:      -9.4      5.293      6.471
REMARK SMILES CCc1n[nH]c(C(=O)N(C)[C@H]2COC[C@H]2C(=O)OCCOCCOC(=O)c2ccc(-c3c4nc(c(-c5ccc(S(=O)(=O)[O-])cc5)c5ccc([nH]5)c(-c5ccc(S(=O)(=O)[O-])cc5)c5nc(c(-c6ccc(S(=O)(=O)[O-])cc6)c6ccc3[nH]6)C=C5)C=C4)cc2)n1
REMARK SMILES IDX 20 1 19 2 18 3 16 4 17 5 15 6 11 7 12 8 13 9 14 10 9 11
REMARK SMILES IDX 10 12 7 13 8 14 6 15 3 16 4 17 87 18 5 19 2 21 1 22 21 23
REMARK SMILES IDX 22 24 23 25 24 26 25 27 26 28 27 29 28 30 86 31 29 32 85 33
REMARK SMILES IDX 30 34 31 35 32 36 79 37 33 38 84 39 78 40 80 41 34 42 83 43
REMARK SMILES IDX 77 44 76 45 35 47 65 48 46 49 64 50 47 51 50 52 63 53 81 54
REMARK SMILES IDX 48 55 49 56 62 58 82 59 51 60 36 61 37 62 45 63 38 64 44 65
REMARK SMILES IDX 39 66 40 67 41 68 42 69 43 70 66 71 67 72 75 73 68 74 74 75
REMARK SMILES IDX 69 76 70 77 71 78 72 79 73 80 52 81 53 82 61 83 54 84 60 85
REMARK SMILES IDX 55 86 56 87 57 88 58 89 59 90
REMARK H PARENT 5 20 80 46 50 57
REMARK Flexibility Score: inf
ROOT
ATOM      1  C   UNL A   1      38.690  21.835  25.743  1.00  0.00     0.202 C 
ENDROOT
BRANCH   1   2
ATOM      2  C   UNL A   1      37.648  22.950  25.892  1.00  0.00     0.261 C 
BRANCH   2   3
ATOM      3  O   UNL A   1      37.297  23.625  24.668  1.00  0.00    -0.463 OA
BRANCH   3   4
ATOM      4  C   UNL A   1      36.285  23.030  24.003  1.00  0.00     0.313 C 
ATOM      5  O   UNL A   1      36.228  22.934  22.777  1.00  0.00    -0.252 OA
BRANCH   4   6
ATOM      6  C   UNL A   1      35.148  22.519  24.835  1.00  0.00     0.150 C 
ATOM      7  C   UNL A   1      33.734  23.080  25.038  1.00  0.00     0.127 C 
ATOM      8  C   UNL A   1      33.128  21.844  25.748  1.00  0.00     0.186 C 
ATOM      9  O   UNL A   1      33.734  20.662  25.189  1.00  0.00    -0.378 OA
ATOM     10  C   UNL A   1      34.964  21.043  24.562  1.00  0.00     0.177 C 
BRANCH   7  11
ATOM     11  N   UNL A   1      32.943  23.576  23.879  1.00  0.00    -0.333 N 
ATOM     12  C   UNL A   1      31.867  22.708  23.369  1.00  0.00     0.147 C 
BRANCH  11  13
ATOM     13  C   UNL A   1      33.014  24.968  23.500  1.00  0.00     0.291 C 
ATOM     14  O   UNL A   1      33.467  25.296  22.403  1.00  0.00    -0.265 OA
BRANCH  13  15
ATOM     15  C   UNL A   1      32.404  25.943  24.434  1.00  0.00     0.214 A 
ATOM     16  C   UNL A   1      32.734  27.944  26.538  1.00  0.00     0.151 A 
ATOM     17  N   UNL A   1      31.028  27.100  26.883  1.00  0.00    -0.158 NA
ATOM     18  N   UNL A   1      33.368  27.033  25.047  1.00  0.00    -0.207 NA
ATOM     19  N   UNL A   1      30.836  25.888  25.407  1.00  0.00    -0.255 N 
ATOM     20  H   UNL A   1      30.045  25.336  25.206  1.00  0.00     0.192 HD
BRANCH  16  21
ATOM     21  C   UNL A   1      33.308  29.461  26.232  1.00  0.00     0.076 C 
ATOM     22  C   UNL A   1      32.549  30.653  26.876  1.00  0.00     0.012 C 
ENDBRANCH  16  21
ENDBRANCH  13  15
ENDBRANCH  11  13
ENDBRANCH   7  11
ENDBRANCH   4   6
ENDBRANCH   3   4
ENDBRANCH   2   3
ENDBRANCH   1   2
BRANCH   1  23
ATOM     23  O   UNL A   1      38.263  20.522  25.391  1.00  0.00    -0.374 OA
BRANCH  23  24
ATOM     24  C   UNL A   1      39.197  19.444  25.370  1.00  0.00     0.202 C 
BRANCH  24  25
ATOM     25  C   UNL A   1      40.371  19.506  26.334  1.00  0.00     0.261 C 
BRANCH  25  26
ATOM     26  O   UNL A   1      41.548  19.238  25.555  1.00  0.00    -0.460 OA
BRANCH  26  27
ATOM     27  C   UNL A   1      42.627  20.002  25.773  1.00  0.00     0.338 C 
ATOM     28  O   UNL A   1      43.746  19.708  25.371  1.00  0.00    -0.246 OA
BRANCH  27  29
ATOM     29  C   UNL A   1      42.278  21.329  26.726  1.00  0.00     0.060 A 
ATOM     30  C   UNL A   1      42.450  22.437  25.379  1.00  0.00     0.016 A 
ATOM     31  C   UNL A   1      43.015  21.955  28.611  1.00  0.00     0.016 A 
ATOM     32  C   UNL A   1      43.277  23.828  25.591  1.00  0.00     0.010 A 
ATOM     33  C   UNL A   1      43.933  23.499  28.578  1.00  0.00     0.010 A 
ATOM     34  C   UNL A   1      43.944  24.373  27.057  1.00  0.00    -0.014 A 
BRANCH  34  35
ATOM     35  C   UNL A   1      44.226  25.845  27.060  1.00  0.00     0.031 A 
ATOM     36  C   UNL A   1      45.617  26.252  26.770  1.00  0.00     0.074 A 
ATOM     37  C   UNL A   1      43.301  26.737  27.507  1.00  0.00     0.049 A 
ATOM     38  N   UNL A   1      46.210  27.380  27.031  1.00  0.00    -0.248 NA
ATOM     39  C   UNL A   1      46.468  25.219  26.160  1.00  0.00     0.031 C 
ATOM     40  C   UNL A   1      41.893  26.457  27.851  1.00  0.00     0.029 A 
ATOM     41  N   UNL A   1      43.435  28.057  27.881  1.00  0.00    -0.354 N 
ATOM     42  C   UNL A   1      47.522  27.183  26.640  1.00  0.00     0.074 A 
ATOM     43  C   UNL A   1      47.653  25.799  26.236  1.00  0.00     0.031 C 
ATOM     44  C   UNL A   1      41.350  27.506  28.484  1.00  0.00     0.029 A 
ATOM     45  C   UNL A   1      42.340  28.561  28.561  1.00  0.00     0.049 A 
ATOM     46  H   UNL A   1      44.237  28.593  27.682  1.00  0.00     0.167 HD
ATOM     47  C   UNL A   1      48.512  28.100  26.575  1.00  0.00     0.031 A 
ATOM     48  C   UNL A   1      42.151  29.735  29.196  1.00  0.00     0.031 A 
ATOM     49  C   UNL A   1      48.337  29.470  26.968  1.00  0.00     0.049 A 
ATOM     50  C   UNL A   1      43.266  30.736  29.135  1.00  0.00     0.074 A 
ATOM     51  C   UNL A   1      49.230  30.517  26.866  1.00  0.00     0.029 A 
ATOM     52  N   UNL A   1      47.177  29.982  27.541  1.00  0.00    -0.354 N 
ATOM     53  N   UNL A   1      44.480  30.578  28.664  1.00  0.00    -0.248 NA
ATOM     54  C   UNL A   1      42.977  32.084  29.635  1.00  0.00     0.031 C 
ATOM     55  C   UNL A   1      48.634  31.650  27.429  1.00  0.00     0.029 A 
ATOM     56  C   UNL A   1      47.340  31.328  27.816  1.00  0.00     0.049 A 
ATOM     57  H   UNL A   1      46.361  29.464  27.723  1.00  0.00     0.167 HD
ATOM     58  C   UNL A   1      45.086  31.823  28.756  1.00  0.00     0.074 A 
ATOM     59  C   UNL A   1      44.099  32.720  29.329  1.00  0.00     0.031 C 
ATOM     60  C   UNL A   1      46.337  32.193  28.389  1.00  0.00     0.031 A 
BRANCH  47  61
ATOM     61  C   UNL A   1      49.833  27.622  26.047  1.00  0.00    -0.014 A 
ATOM     62  C   UNL A   1      50.098  27.621  24.662  1.00  0.00     0.010 A 
ATOM     63  C   UNL A   1      50.803  27.120  26.929  1.00  0.00     0.010 A 
ATOM     64  C   UNL A   1      51.271  27.054  24.166  1.00  0.00     0.020 A 
ATOM     65  C   UNL A   1      52.001  26.596  26.438  1.00  0.00     0.020 A 
ATOM     66  C   UNL A   1      52.215  26.543  25.059  1.00  0.00     0.054 A 
BRANCH  66  67
ATOM     67  S   UNL A   1      53.733  25.823  24.383  1.00  0.00     0.124 S 
ATOM     68  O   UNL A   1      54.762  26.480  25.185  1.00  0.00    -0.237 OA
ATOM     69  O   UNL A   1      53.550  24.398  24.642  1.00  0.00    -0.237 OA
ATOM     70  O   UNL A   1      53.703  26.208  22.974  1.00  0.00    -0.744 OA
ENDBRANCH  66  67
ENDBRANCH  47  61
BRANCH  48  71
ATOM     71  C   UNL A   1      40.852  30.054  29.866  1.00  0.00    -0.014 A 
ATOM     72  C   UNL A   1      40.703  29.863  31.252  1.00  0.00     0.010 A 
ATOM     73  C   UNL A   1      39.757  30.559  29.138  1.00  0.00     0.010 A 
ATOM     74  C   UNL A   1      39.489  30.140  31.891  1.00  0.00     0.020 A 
ATOM     75  C   UNL A   1      38.546  30.863  29.777  1.00  0.00     0.020 A 
ATOM     76  C   UNL A   1      38.417  30.643  31.151  1.00  0.00     0.054 A 
BRANCH  76  77
ATOM     77  S   UNL A   1      36.871  31.043  32.018  1.00  0.00     0.124 S 
ATOM     78  O   UNL A   1      36.277  29.725  32.211  1.00  0.00    -0.237 OA
ATOM     79  O   UNL A   1      37.355  31.702  33.229  1.00  0.00    -0.237 OA
ATOM     80  O   UNL A   1      36.167  31.916  31.082  1.00  0.00    -0.744 OA
ENDBRANCH  76  77
ENDBRANCH  48  71
BRANCH  60  81
ATOM     81  C   UNL A   1      46.690  33.647  28.549  1.00  0.00    -0.014 A 
ATOM     82  C   UNL A   1      46.424  34.584  27.537  1.00  0.00     0.010 A 
ATOM     83  C   UNL A   1      47.247  34.083  29.765  1.00  0.00     0.010 A 
ATOM     84  C   UNL A   1      46.743  35.929  27.725  1.00  0.00     0.020 A 
ATOM     85  C   UNL A   1      47.528  35.433  29.973  1.00  0.00     0.020 A 
ATOM     86  C   UNL A   1      47.288  36.345  28.945  1.00  0.00     0.054 A 
BRANCH  86  87
ATOM     87  S   UNL A   1      47.642  38.106  29.181  1.00  0.00     0.124 S 
ATOM     88  O   UNL A   1      47.089  38.350  30.510  1.00  0.00    -0.237 OA
ATOM     89  O   UNL A   1      49.099  38.153  29.086  1.00  0.00    -0.237 OA
ATOM     90  O   UNL A   1      46.929  38.754  28.082  1.00  0.00    -0.744 OA
ENDBRANCH  86  87
ENDBRANCH  60  81
ENDBRANCH  34  35
ENDBRANCH  27  29
ENDBRANCH  26  27
ENDBRANCH  25  26
ENDBRANCH  24  25
ENDBRANCH  23  24
ENDBRANCH   1  23
TORSDOF 21
ENDMDL
