MODEL 1
REMARK VINA RESULT:     -10.2      0.000      0.000
REMARK SMILES CCOc1cc(C=O)ccc1OCc1ccc(C(=O)OCCOCCOC(=O)c2ccc(-c3c4nc(c(-c5ccc(S(=O)(=O)[O-])cc5)c5ccc([nH]5)c(-c5ccc(S(=O)(=O)[O-])cc5)c5nc(c(-c6ccc(S(=O)(=O)[O-])cc6)c6ccc3[nH]6)C=C5)C=C4)cc2)cc1
REMARK SMILES IDX 22 1 21 2 20 3 18 4 19 5 17 6 14 7 15 8 90 9 16 10 89 11
REMARK SMILES IDX 13 12 12 13 11 14 4 15 5 16 6 17 10 18 9 19 3 20 2 21 1 22
REMARK SMILES IDX 7 23 8 24 23 25 24 26 25 27 26 28 27 29 28 30 29 31 30 32
REMARK SMILES IDX 88 33 31 34 87 35 32 36 33 37 34 38 81 39 35 40 86 41 80 42
REMARK SMILES IDX 82 43 36 44 85 45 79 46 78 47 37 49 67 50 48 51 66 52 49 53
REMARK SMILES IDX 52 54 65 55 83 56 50 57 51 58 64 60 84 61 53 62 38 63 39 64
REMARK SMILES IDX 47 65 40 66 46 67 41 68 42 69 43 70 44 71 45 72 68 73 69 74
REMARK SMILES IDX 77 75 70 76 76 77 71 78 72 79 73 80 74 81 75 82 54 83 55 84
REMARK SMILES IDX 63 85 56 86 62 87 57 88 58 89 59 90 60 91 61 92
REMARK H PARENT 82 48 52 59
REMARK Flexibility Score: inf
ROOT
ATOM      1  C   UNL A   1      36.231  21.381  25.785  1.00  0.00     0.202 C 
ENDROOT
BRANCH   1   2
ATOM      2  C   UNL A   1      35.156  20.603  25.023  1.00  0.00     0.261 C 
BRANCH   2   3
ATOM      3  O   UNL A   1      33.900  20.612  25.712  1.00  0.00    -0.460 OA
BRANCH   3   4
ATOM      4  C   UNL A   1      32.835  20.883  24.916  1.00  0.00     0.338 C 
ATOM      5  O   UNL A   1      31.870  20.166  24.717  1.00  0.00    -0.246 OA
BRANCH   4   6
ATOM      6  C   UNL A   1      32.934  22.254  24.368  1.00  0.00     0.060 A 
ATOM      7  C   UNL A   1      33.307  24.793  23.187  1.00  0.00    -0.011 A 
ATOM      8  C   UNL A   1      33.045  23.669  22.395  1.00  0.00     0.008 A 
ATOM      9  C   UNL A   1      33.306  24.618  24.581  1.00  0.00     0.008 A 
ATOM     10  C   UNL A   1      32.863  22.412  22.979  1.00  0.00     0.016 A 
ATOM     11  C   UNL A   1      33.117  23.369  25.176  1.00  0.00     0.016 A 
BRANCH   7  12
ATOM     12  C   UNL A   1      33.544  26.144  22.521  1.00  0.00     0.265 C 
BRANCH  12  13
ATOM     13  O   UNL A   1      33.568  27.304  23.368  1.00  0.00    -0.485 OA
BRANCH  13  14
ATOM     14  C   UNL A   1      32.380  27.959  23.564  1.00  0.00     0.161 A 
ATOM     15  C   UNL A   1      32.067  28.788  24.656  1.00  0.00     0.161 A 
ATOM     16  C   UNL A   1      30.937  29.607  24.577  1.00  0.00     0.062 A 
ATOM     17  C   UNL A   1      30.083  29.501  23.462  1.00  0.00     0.018 A 
ATOM     18  C   UNL A   1      31.463  27.776  22.523  1.00  0.00     0.051 A 
ATOM     19  C   UNL A   1      30.305  28.541  22.471  1.00  0.00     0.015 A 
BRANCH  15  20
ATOM     20  O   UNL A   1      32.856  28.671  25.765  1.00  0.00    -0.490 OA
BRANCH  20  21
ATOM     21  C   UNL A   1      32.429  29.229  27.009  1.00  0.00     0.226 C 
ATOM     22  C   UNL A   1      31.613  28.148  27.715  1.00  0.00     0.049 C 
ENDBRANCH  20  21
ENDBRANCH  15  20
BRANCH  17  23
ATOM     23  C   UNL A   1      28.935  30.412  23.288  1.00  0.00     0.260 C 
ATOM     24  O   UNL A   1      27.845  30.004  22.913  1.00  0.00    -0.298 OA
ENDBRANCH  17  23
ENDBRANCH  13  14
ENDBRANCH  12  13
ENDBRANCH   7  12
ENDBRANCH   4   6
ENDBRANCH   3   4
ENDBRANCH   2   3
ENDBRANCH   1   2
BRANCH   1  25
ATOM     25  O   UNL A   1      37.355  21.834  25.032  1.00  0.00    -0.374 OA
BRANCH  25  26
ATOM     26  C   UNL A   1      38.366  22.546  25.754  1.00  0.00     0.202 C 
BRANCH  26  27
ATOM     27  C   UNL A   1      38.016  23.970  26.198  1.00  0.00     0.261 C 
BRANCH  27  28
ATOM     28  O   UNL A   1      38.811  24.394  27.318  1.00  0.00    -0.460 OA
BRANCH  28  29
ATOM     29  C   UNL A   1      39.700  25.384  27.048  1.00  0.00     0.338 C 
ATOM     30  O   UNL A   1      40.399  25.499  26.061  1.00  0.00    -0.246 OA
BRANCH  29  31
ATOM     31  C   UNL A   1      39.554  26.445  28.063  1.00  0.00     0.060 A 
ATOM     32  C   UNL A   1      40.106  27.704  27.790  1.00  0.00     0.016 A 
ATOM     33  C   UNL A   1      38.939  26.186  29.288  1.00  0.00     0.016 A 
ATOM     34  C   UNL A   1      40.090  28.700  28.764  1.00  0.00     0.010 A 
ATOM     35  C   UNL A   1      38.933  27.180  30.265  1.00  0.00     0.010 A 
ATOM     36  C   UNL A   1      39.542  28.426  30.022  1.00  0.00    -0.014 A 
BRANCH  36  37
ATOM     37  C   UNL A   1      39.751  29.352  31.158  1.00  0.00     0.031 A 
ATOM     38  C   UNL A   1      40.924  29.106  32.067  1.00  0.00     0.074 A 
ATOM     39  C   UNL A   1      38.892  30.356  31.404  1.00  0.00     0.049 A 
ATOM     40  N   UNL A   1      41.209  29.655  33.218  1.00  0.00    -0.248 NA
ATOM     41  C   UNL A   1      41.897  28.094  31.622  1.00  0.00     0.031 C 
ATOM     42  C   UNL A   1      37.757  30.726  30.560  1.00  0.00     0.029 A 
ATOM     43  N   UNL A   1      38.831  31.232  32.459  1.00  0.00    -0.354 N 
ATOM     44  C   UNL A   1      42.375  29.033  33.651  1.00  0.00     0.074 A 
ATOM     45  C   UNL A   1      42.733  28.054  32.649  1.00  0.00     0.031 C 
ATOM     46  C   UNL A   1      37.095  31.740  31.145  1.00  0.00     0.029 A 
ATOM     47  C   UNL A   1      37.728  32.051  32.425  1.00  0.00     0.049 A 
ATOM     48  H   UNL A   1      39.510  31.269  33.170  1.00  0.00     0.167 HD
ATOM     49  C   UNL A   1      43.078  29.257  34.785  1.00  0.00     0.031 A 
ATOM     50  C   UNL A   1      37.262  32.921  33.343  1.00  0.00     0.031 A 
ATOM     51  C   UNL A   1      42.703  30.228  35.778  1.00  0.00     0.049 A 
ATOM     52  C   UNL A   1      38.017  33.100  34.636  1.00  0.00     0.074 A 
ATOM     53  C   UNL A   1      43.352  30.545  36.958  1.00  0.00     0.029 A 
ATOM     54  N   UNL A   1      41.576  31.033  35.710  1.00  0.00    -0.354 N 
ATOM     55  N   UNL A   1      39.120  32.511  35.035  1.00  0.00    -0.248 NA
ATOM     56  C   UNL A   1      37.468  34.064  35.601  1.00  0.00     0.031 C 
ATOM     57  C   UNL A   1      42.583  31.497  37.634  1.00  0.00     0.029 A 
ATOM     58  C   UNL A   1      41.497  31.831  36.837  1.00  0.00     0.049 A 
ATOM     59  H   UNL A   1      40.927  31.036  34.969  1.00  0.00     0.167 HD
ATOM     60  C   UNL A   1      39.421  33.067  36.275  1.00  0.00     0.074 A 
ATOM     61  C   UNL A   1      38.384  34.036  36.561  1.00  0.00     0.031 C 
ATOM     62  C   UNL A   1      40.469  32.807  37.095  1.00  0.00     0.031 A 
BRANCH  49  63
ATOM     63  C   UNL A   1      44.296  28.407  35.035  1.00  0.00    -0.014 A 
ATOM     64  C   UNL A   1      44.186  27.075  35.471  1.00  0.00     0.010 A 
ATOM     65  C   UNL A   1      45.574  28.942  34.790  1.00  0.00     0.010 A 
ATOM     66  C   UNL A   1      45.332  26.306  35.695  1.00  0.00     0.020 A 
ATOM     67  C   UNL A   1      46.722  28.167  34.980  1.00  0.00     0.020 A 
ATOM     68  C   UNL A   1      46.593  26.858  35.448  1.00  0.00     0.054 A 
BRANCH  68  69
ATOM     69  S   UNL A   1      48.061  25.830  35.724  1.00  0.00     0.124 S 
ATOM     70  O   UNL A   1      47.874  25.404  37.109  1.00  0.00    -0.237 OA
ATOM     71  O   UNL A   1      47.909  24.781  34.718  1.00  0.00    -0.237 OA
ATOM     72  O   UNL A   1      49.175  26.747  35.500  1.00  0.00    -0.744 OA
ENDBRANCH  68  69
ENDBRANCH  49  63
BRANCH  50  73
ATOM     73  C   UNL A   1      36.004  33.676  33.082  1.00  0.00    -0.014 A 
ATOM     74  C   UNL A   1      34.752  33.068  33.277  1.00  0.00     0.010 A 
ATOM     75  C   UNL A   1      36.053  35.012  32.639  1.00  0.00     0.010 A 
ATOM     76  C   UNL A   1      33.574  33.774  33.015  1.00  0.00     0.020 A 
ATOM     77  C   UNL A   1      34.876  35.731  32.407  1.00  0.00     0.020 A 
ATOM     78  C   UNL A   1      33.643  35.102  32.586  1.00  0.00     0.054 A 
BRANCH  78  79
ATOM     79  S   UNL A   1      32.096  36.005  32.298  1.00  0.00     0.124 S 
ATOM     80  O   UNL A   1      32.192  36.327  30.878  1.00  0.00    -0.237 OA
ATOM     81  O   UNL A   1      31.084  35.015  32.657  1.00  0.00    -0.237 OA
ATOM     82  O   UNL A   1      32.192  37.146  33.206  1.00  0.00    -0.744 OA
ENDBRANCH  78  79
ENDBRANCH  50  73
BRANCH  62  83
ATOM     83  C   UNL A   1      40.606  33.629  38.351  1.00  0.00    -0.014 A 
ATOM     84  C   UNL A   1      41.188  34.908  38.340  1.00  0.00     0.010 A 
ATOM     85  C   UNL A   1      40.040  33.144  39.546  1.00  0.00     0.010 A 
ATOM     86  C   UNL A   1      41.211  35.681  39.505  1.00  0.00     0.020 A 
ATOM     87  C   UNL A   1      40.035  33.924  40.704  1.00  0.00     0.020 A 
ATOM     88  C   UNL A   1      40.627  35.187  40.677  1.00  0.00     0.054 A 
BRANCH  88  89
ATOM     89  S   UNL A   1      40.597  36.245  42.151  1.00  0.00     0.124 S 
ATOM     90  O   UNL A   1      39.597  37.246  41.787  1.00  0.00    -0.237 OA
ATOM     91  O   UNL A   1      40.199  35.313  43.204  1.00  0.00    -0.237 OA
ATOM     92  O   UNL A   1      41.967  36.742  42.251  1.00  0.00    -0.744 OA
ENDBRANCH  88  89
ENDBRANCH  62  83
ENDBRANCH  36  37
ENDBRANCH  29  31
ENDBRANCH  28  29
ENDBRANCH  27  28
ENDBRANCH  26  27
ENDBRANCH  25  26
ENDBRANCH   1  25
TORSDOF 23
ENDMDL
MODEL 2
REMARK VINA RESULT:      -9.7      6.112     11.049
REMARK SMILES CCOc1cc(C=O)ccc1OCc1ccc(C(=O)OCCOCCOC(=O)c2ccc(-c3c4nc(c(-c5ccc(S(=O)(=O)[O-])cc5)c5ccc([nH]5)c(-c5ccc(S(=O)(=O)[O-])cc5)c5nc(c(-c6ccc(S(=O)(=O)[O-])cc6)c6ccc3[nH]6)C=C5)C=C4)cc2)cc1
REMARK SMILES IDX 22 1 21 2 20 3 18 4 19 5 17 6 14 7 15 8 90 9 16 10 89 11
REMARK SMILES IDX 13 12 12 13 11 14 4 15 5 16 6 17 10 18 9 19 3 20 2 21 1 22
REMARK SMILES IDX 7 23 8 24 23 25 24 26 25 27 26 28 27 29 28 30 29 31 30 32
REMARK SMILES IDX 88 33 31 34 87 35 32 36 33 37 34 38 81 39 35 40 86 41 80 42
REMARK SMILES IDX 82 43 36 44 85 45 79 46 78 47 37 49 67 50 48 51 66 52 49 53
REMARK SMILES IDX 52 54 65 55 83 56 50 57 51 58 64 60 84 61 53 62 38 63 39 64
REMARK SMILES IDX 47 65 40 66 46 67 41 68 42 69 43 70 44 71 45 72 68 73 69 74
REMARK SMILES IDX 77 75 70 76 76 77 71 78 72 79 73 80 74 81 75 82 54 83 55 84
REMARK SMILES IDX 63 85 56 86 62 87 57 88 58 89 59 90 60 91 61 92
REMARK H PARENT 82 48 52 59
REMARK Flexibility Score: inf
ROOT
ATOM      1  C   UNL A   1      36.235  20.987  25.238  1.00  0.00     0.202 C 
ENDROOT
BRANCH   1   2
ATOM      2  C   UNL A   1      35.194  19.911  24.921  1.00  0.00     0.261 C 
BRANCH   2   3
ATOM      3  O   UNL A   1      34.027  20.037  25.742  1.00  0.00    -0.460 OA
BRANCH   3   4
ATOM      4  C   UNL A   1      32.858  19.937  25.060  1.00  0.00     0.338 C 
ATOM      5  O   UNL A   1      32.201  18.927  24.878  1.00  0.00    -0.246 OA
BRANCH   4   6
ATOM      6  C   UNL A   1      32.398  21.274  24.625  1.00  0.00     0.060 A 
ATOM      7  C   UNL A   1      31.295  23.754  23.837  1.00  0.00    -0.011 A 
ATOM      8  C   UNL A   1      31.068  23.247  25.122  1.00  0.00     0.008 A 
ATOM      9  C   UNL A   1      32.144  23.019  22.992  1.00  0.00     0.008 A 
ATOM     10  C   UNL A   1      31.611  22.019  25.511  1.00  0.00     0.016 A 
ATOM     11  C   UNL A   1      32.699  21.795  23.372  1.00  0.00     0.016 A 
BRANCH   7  12
ATOM     12  C   UNL A   1      30.656  25.075  23.425  1.00  0.00     0.265 C 
BRANCH  12  13
ATOM     13  O   UNL A   1      30.243  25.965  24.474  1.00  0.00    -0.485 OA
BRANCH  13  14
ATOM     14  C   UNL A   1      31.089  26.998  24.784  1.00  0.00     0.161 A 
ATOM     15  C   UNL A   1      30.815  28.367  24.612  1.00  0.00     0.161 A 
ATOM     16  C   UNL A   1      31.647  29.303  25.234  1.00  0.00     0.062 A 
ATOM     17  C   UNL A   1      32.795  28.860  25.918  1.00  0.00     0.018 A 
ATOM     18  C   UNL A   1      32.292  26.580  25.362  1.00  0.00     0.051 A 
ATOM     19  C   UNL A   1      33.156  27.511  25.924  1.00  0.00     0.015 A 
BRANCH  15  20
ATOM     20  O   UNL A   1      29.788  28.689  23.770  1.00  0.00    -0.490 OA
BRANCH  20  21
ATOM     21  C   UNL A   1      29.974  28.613  22.355  1.00  0.00     0.226 C 
ATOM     22  C   UNL A   1      29.915  30.047  21.831  1.00  0.00     0.049 C 
ENDBRANCH  20  21
ENDBRANCH  15  20
BRANCH  17  23
ATOM     23  C   UNL A   1      33.647  29.801  26.671  1.00  0.00     0.260 C 
ATOM     24  O   UNL A   1      34.815  29.543  26.928  1.00  0.00    -0.298 OA
ENDBRANCH  17  23
ENDBRANCH  13  14
ENDBRANCH  12  13
ENDBRANCH   7  12
ENDBRANCH   4   6
ENDBRANCH   3   4
ENDBRANCH   2   3
ENDBRANCH   1   2
BRANCH   1  25
ATOM     25  O   UNL A   1      37.532  20.817  24.671  1.00  0.00    -0.374 OA
BRANCH  25  26
ATOM     26  C   UNL A   1      38.639  20.867  25.576  1.00  0.00     0.202 C 
BRANCH  26  27
ATOM     27  C   UNL A   1      39.523  19.617  25.647  1.00  0.00     0.261 C 
BRANCH  27  28
ATOM     28  O   UNL A   1      40.898  19.914  25.350  1.00  0.00    -0.460 OA
BRANCH  28  29
ATOM     29  C   UNL A   1      41.735  19.880  26.419  1.00  0.00     0.338 C 
ATOM     30  O   UNL A   1      42.284  18.907  26.895  1.00  0.00    -0.246 OA
BRANCH  29  31
ATOM     31  C   UNL A   1      42.054  21.264  26.818  1.00  0.00     0.060 A 
ATOM     32  C   UNL A   1      42.109  22.246  25.819  1.00  0.00     0.016 A 
ATOM     33  C   UNL A   1      42.354  21.577  28.144  1.00  0.00     0.016 A 
ATOM     34  C   UNL A   1      42.516  23.541  26.134  1.00  0.00     0.010 A 
ATOM     35  C   UNL A   1      42.770  22.871  28.456  1.00  0.00     0.010 A 
ATOM     36  C   UNL A   1      42.891  23.846  27.447  1.00  0.00    -0.014 A 
BRANCH  36  37
ATOM     37  C   UNL A   1      43.582  25.117  27.764  1.00  0.00     0.031 A 
ATOM     38  C   UNL A   1      42.755  26.268  28.268  1.00  0.00     0.074 A 
ATOM     39  C   UNL A   1      44.903  25.258  27.563  1.00  0.00     0.049 A 
ATOM     40  N   UNL A   1      43.092  27.518  28.435  1.00  0.00    -0.248 NA
ATOM     41  C   UNL A   1      41.356  25.966  28.615  1.00  0.00     0.031 C 
ATOM     42  C   UNL A   1      45.814  24.197  27.137  1.00  0.00     0.029 A 
ATOM     43  N   UNL A   1      45.701  26.370  27.667  1.00  0.00    -0.354 N 
ATOM     44  C   UNL A   1      41.941  28.161  28.876  1.00  0.00     0.074 A 
ATOM     45  C   UNL A   1      40.892  27.166  28.932  1.00  0.00     0.031 C 
ATOM     46  C   UNL A   1      47.046  24.716  26.989  1.00  0.00     0.029 A 
ATOM     47  C   UNL A   1      46.996  26.152  27.261  1.00  0.00     0.049 A 
ATOM     48  H   UNL A   1      45.378  27.238  27.999  1.00  0.00     0.167 HD
ATOM     49  C   UNL A   1      41.774  29.464  29.198  1.00  0.00     0.031 A 
ATOM     50  C   UNL A   1      48.011  27.022  27.086  1.00  0.00     0.031 A 
ATOM     51  C   UNL A   1      42.824  30.445  29.127  1.00  0.00     0.049 A 
ATOM     52  C   UNL A   1      47.784  28.484  27.376  1.00  0.00     0.074 A 
ATOM     53  C   UNL A   1      42.767  31.790  29.444  1.00  0.00     0.029 A 
ATOM     54  N   UNL A   1      44.120  30.186  28.705  1.00  0.00    -0.354 N 
ATOM     55  N   UNL A   1      46.694  29.082  27.796  1.00  0.00    -0.248 NA
ATOM     56  C   UNL A   1      48.925  29.389  27.175  1.00  0.00     0.031 C 
ATOM     57  C   UNL A   1      44.010  32.358  29.153  1.00  0.00     0.029 A 
ATOM     58  C   UNL A   1      44.866  31.351  28.730  1.00  0.00     0.049 A 
ATOM     59  H   UNL A   1      44.458  29.304  28.427  1.00  0.00     0.167 HD
ATOM     60  C   UNL A   1      47.031  30.423  27.952  1.00  0.00     0.074 A 
ATOM     61  C   UNL A   1      48.425  30.549  27.580  1.00  0.00     0.031 C 
ATOM     62  C   UNL A   1      46.259  31.453  28.378  1.00  0.00     0.031 A 
BRANCH  49  63
ATOM     63  C   UNL A   1      40.397  29.914  29.612  1.00  0.00    -0.014 A 
ATOM     64  C   UNL A   1      40.038  30.030  30.967  1.00  0.00     0.010 A 
ATOM     65  C   UNL A   1      39.458  30.265  28.625  1.00  0.00     0.010 A 
ATOM     66  C   UNL A   1      38.755  30.450  31.326  1.00  0.00     0.020 A 
ATOM     67  C   UNL A   1      38.184  30.718  28.978  1.00  0.00     0.020 A 
ATOM     68  C   UNL A   1      37.836  30.792  30.328  1.00  0.00     0.054 A 
BRANCH  68  69
ATOM     69  S   UNL A   1      36.185  31.357  30.824  1.00  0.00     0.124 S 
ATOM     70  O   UNL A   1      35.819  30.369  31.835  1.00  0.00    -0.237 OA
ATOM     71  O   UNL A   1      36.447  32.703  31.327  1.00  0.00    -0.237 OA
ATOM     72  O   UNL A   1      35.411  31.297  29.586  1.00  0.00    -0.744 OA
ENDBRANCH  68  69
ENDBRANCH  49  63
BRANCH  50  73
ATOM     73  C   UNL A   1      49.331  26.536  26.594  1.00  0.00    -0.014 A 
ATOM     74  C   UNL A   1      50.284  26.024  27.491  1.00  0.00     0.010 A 
ATOM     75  C   UNL A   1      49.641  26.581  25.222  1.00  0.00     0.010 A 
ATOM     76  C   UNL A   1      51.527  25.583  27.029  1.00  0.00     0.020 A 
ATOM     77  C   UNL A   1      50.871  26.111  24.751  1.00  0.00     0.020 A 
ATOM     78  C   UNL A   1      51.812  25.627  25.661  1.00  0.00     0.054 A 
BRANCH  78  79
ATOM     79  S   UNL A   1      53.417  25.007  25.086  1.00  0.00     0.124 S 
ATOM     80  O   UNL A   1      53.238  23.562  25.185  1.00  0.00    -0.237 OA
ATOM     81  O   UNL A   1      53.493  25.545  23.730  1.00  0.00    -0.237 OA
ATOM     82  O   UNL A   1      54.367  25.586  26.033  1.00  0.00    -0.744 OA
ENDBRANCH  78  79
ENDBRANCH  50  73
BRANCH  62  83
ATOM     83  C   UNL A   1      46.909  32.803  28.545  1.00  0.00    -0.014 A 
ATOM     84  C   UNL A   1      46.849  33.784  27.540  1.00  0.00     0.010 A 
ATOM     85  C   UNL A   1      47.501  33.124  29.782  1.00  0.00     0.010 A 
ATOM     86  C   UNL A   1      47.379  35.058  27.767  1.00  0.00     0.020 A 
ATOM     87  C   UNL A   1      48.004  34.404  30.023  1.00  0.00     0.020 A 
ATOM     88  C   UNL A   1      47.946  35.362  29.010  1.00  0.00     0.054 A 
BRANCH  88  89
ATOM     89  S   UNL A   1      48.550  37.046  29.306  1.00  0.00     0.124 S 
ATOM     90  O   UNL A   1      49.726  37.105  28.442  1.00  0.00    -0.237 OA
ATOM     91  O   UNL A   1      47.419  37.870  28.885  1.00  0.00    -0.237 OA
ATOM     92  O   UNL A   1      48.830  37.069  30.740  1.00  0.00    -0.744 OA
ENDBRANCH  88  89
ENDBRANCH  62  83
ENDBRANCH  36  37
ENDBRANCH  29  31
ENDBRANCH  28  29
ENDBRANCH  27  28
ENDBRANCH  26  27
ENDBRANCH  25  26
ENDBRANCH   1  25
TORSDOF 23
ENDMDL
MODEL 3
REMARK VINA RESULT:      -9.3      2.082      8.680
REMARK SMILES CCOc1cc(C=O)ccc1OCc1ccc(C(=O)OCCOCCOC(=O)c2ccc(-c3c4nc(c(-c5ccc(S(=O)(=O)[O-])cc5)c5ccc([nH]5)c(-c5ccc(S(=O)(=O)[O-])cc5)c5nc(c(-c6ccc(S(=O)(=O)[O-])cc6)c6ccc3[nH]6)C=C5)C=C4)cc2)cc1
REMARK SMILES IDX 22 1 21 2 20 3 18 4 19 5 17 6 14 7 15 8 90 9 16 10 89 11
REMARK SMILES IDX 13 12 12 13 11 14 4 15 5 16 6 17 10 18 9 19 3 20 2 21 1 22
REMARK SMILES IDX 7 23 8 24 23 25 24 26 25 27 26 28 27 29 28 30 29 31 30 32
REMARK SMILES IDX 88 33 31 34 87 35 32 36 33 37 34 38 81 39 35 40 86 41 80 42
REMARK SMILES IDX 82 43 36 44 85 45 79 46 78 47 37 49 67 50 48 51 66 52 49 53
REMARK SMILES IDX 52 54 65 55 83 56 50 57 51 58 64 60 84 61 53 62 38 63 39 64
REMARK SMILES IDX 47 65 40 66 46 67 41 68 42 69 43 70 44 71 45 72 68 73 69 74
REMARK SMILES IDX 77 75 70 76 76 77 71 78 72 79 73 80 74 81 75 82 54 83 55 84
REMARK SMILES IDX 63 85 56 86 62 87 57 88 58 89 59 90 60 91 61 92
REMARK H PARENT 82 48 52 59
REMARK Flexibility Score: inf
ROOT
ATOM      1  C   UNL A   1      43.930  22.248  26.557  1.00  0.00     0.202 C 
ENDROOT
BRANCH   1   2
ATOM      2  C   UNL A   1      42.678  22.638  27.347  1.00  0.00     0.261 C 
BRANCH   2   3
ATOM      3  O   UNL A   1      41.541  22.814  26.495  1.00  0.00    -0.460 OA
BRANCH   3   4
ATOM      4  C   UNL A   1      40.643  21.798  26.553  1.00  0.00     0.338 C 
ATOM      5  O   UNL A   1      40.866  20.643  26.872  1.00  0.00    -0.246 OA
BRANCH   4   6
ATOM      6  C   UNL A   1      39.279  22.295  26.266  1.00  0.00     0.060 A 
ATOM      7  C   UNL A   1      36.662  23.312  25.948  1.00  0.00    -0.011 A 
ATOM      8  C   UNL A   1      37.700  24.137  26.398  1.00  0.00     0.008 A 
ATOM      9  C   UNL A   1      36.992  21.991  25.596  1.00  0.00     0.008 A 
ATOM     10  C   UNL A   1      38.993  23.634  26.559  1.00  0.00     0.016 A 
ATOM     11  C   UNL A   1      38.283  21.480  25.744  1.00  0.00     0.016 A 
BRANCH   7  12
ATOM     12  C   UNL A   1      35.252  23.876  25.822  1.00  0.00     0.265 C 
BRANCH  12  13
ATOM     13  O   UNL A   1      34.835  24.333  24.526  1.00  0.00    -0.485 OA
BRANCH  13  14
ATOM     14  C   UNL A   1      34.155  25.522  24.473  1.00  0.00     0.161 A 
ATOM     15  C   UNL A   1      33.571  26.086  23.324  1.00  0.00     0.161 A 
ATOM     16  C   UNL A   1      32.673  27.147  23.477  1.00  0.00     0.062 A 
ATOM     17  C   UNL A   1      32.463  27.695  24.758  1.00  0.00     0.018 A 
ATOM     18  C   UNL A   1      34.029  26.150  25.717  1.00  0.00     0.051 A 
ATOM     19  C   UNL A   1      33.189  27.246  25.863  1.00  0.00     0.015 A 
BRANCH  15  20
ATOM     20  O   UNL A   1      33.993  25.603  22.118  1.00  0.00    -0.490 OA
BRANCH  20  21
ATOM     21  C   UNL A   1      33.064  24.967  21.238  1.00  0.00     0.226 C 
ATOM     22  C   UNL A   1      32.904  23.532  21.737  1.00  0.00     0.049 C 
ENDBRANCH  20  21
ENDBRANCH  15  20
BRANCH  17  23
ATOM     23  C   UNL A   1      31.453  28.748  24.982  1.00  0.00     0.260 C 
ATOM     24  O   UNL A   1      30.606  29.011  24.140  1.00  0.00    -0.298 OA
ENDBRANCH  17  23
ENDBRANCH  13  14
ENDBRANCH  12  13
ENDBRANCH   7  12
ENDBRANCH   4   6
ENDBRANCH   3   4
ENDBRANCH   2   3
ENDBRANCH   1   2
BRANCH   1  25
ATOM     25  O   UNL A   1      44.968  23.222  26.472  1.00  0.00    -0.374 OA
BRANCH  25  26
ATOM     26  C   UNL A   1      44.666  24.418  25.746  1.00  0.00     0.202 C 
BRANCH  26  27
ATOM     27  C   UNL A   1      44.509  25.699  26.574  1.00  0.00     0.261 C 
BRANCH  27  28
ATOM     28  O   UNL A   1      43.771  26.709  25.865  1.00  0.00    -0.460 OA
BRANCH  28  29
ATOM     29  C   UNL A   1      42.426  26.525  25.841  1.00  0.00     0.338 C 
ATOM     30  O   UNL A   1      41.799  25.759  25.139  1.00  0.00    -0.246 OA
BRANCH  29  31
ATOM     31  C   UNL A   1      41.824  27.271  26.963  1.00  0.00     0.060 A 
ATOM     32  C   UNL A   1      42.294  28.566  27.227  1.00  0.00     0.016 A 
ATOM     33  C   UNL A   1      40.859  26.682  27.780  1.00  0.00     0.016 A 
ATOM     34  C   UNL A   1      41.835  29.262  28.343  1.00  0.00     0.010 A 
ATOM     35  C   UNL A   1      40.408  27.376  28.902  1.00  0.00     0.010 A 
ATOM     36  C   UNL A   1      40.922  28.650  29.210  1.00  0.00    -0.014 A 
BRANCH  36  37
ATOM     37  C   UNL A   1      40.624  29.238  30.535  1.00  0.00     0.031 A 
ATOM     38  C   UNL A   1      39.527  30.263  30.626  1.00  0.00     0.074 A 
ATOM     39  C   UNL A   1      41.341  28.904  31.621  1.00  0.00     0.049 A 
ATOM     40  N   UNL A   1      39.206  31.046  31.621  1.00  0.00    -0.248 NA
ATOM     41  C   UNL A   1      38.691  30.436  29.426  1.00  0.00     0.031 C 
ATOM     42  C   UNL A   1      42.385  27.881  31.666  1.00  0.00     0.029 A 
ATOM     43  N   UNL A   1      41.314  29.417  32.894  1.00  0.00    -0.354 N 
ATOM     44  C   UNL A   1      38.153  31.828  31.159  1.00  0.00     0.074 A 
ATOM     45  C   UNL A   1      37.902  31.437  29.789  1.00  0.00     0.031 C 
ATOM     46  C   UNL A   1      42.918  27.860  32.900  1.00  0.00     0.029 A 
ATOM     47  C   UNL A   1      42.290  28.901  33.712  1.00  0.00     0.049 A 
ATOM     48  H   UNL A   1      40.660  30.090  33.191  1.00  0.00     0.167 HD
ATOM     49  C   UNL A   1      37.463  32.788  31.817  1.00  0.00     0.031 A 
ATOM     50  C   UNL A   1      42.660  29.258  34.958  1.00  0.00     0.031 A 
ATOM     51  C   UNL A   1      37.732  33.173  33.177  1.00  0.00     0.049 A 
ATOM     52  C   UNL A   1      41.930  30.383  35.647  1.00  0.00     0.074 A 
ATOM     53  C   UNL A   1      37.084  34.124  33.944  1.00  0.00     0.029 A 
ATOM     54  N   UNL A   1      38.732  32.630  33.969  1.00  0.00    -0.354 N 
ATOM     55  N   UNL A   1      40.934  31.114  35.204  1.00  0.00    -0.248 NA
ATOM     56  C   UNL A   1      42.370  30.730  37.006  1.00  0.00     0.031 C 
ATOM     57  C   UNL A   1      37.734  34.202  35.179  1.00  0.00     0.029 A 
ATOM     58  C   UNL A   1      38.736  33.242  35.210  1.00  0.00     0.049 A 
ATOM     59  H   UNL A   1      39.350  31.916  33.689  1.00  0.00     0.167 HD
ATOM     60  C   UNL A   1      40.599  31.973  36.246  1.00  0.00     0.074 A 
ATOM     61  C   UNL A   1      41.500  31.674  37.340  1.00  0.00     0.031 C 
ATOM     62  C   UNL A   1      39.626  32.916  36.296  1.00  0.00     0.031 A 
BRANCH  49  63
ATOM     63  C   UNL A   1      36.384  33.520  31.062  1.00  0.00    -0.014 A 
ATOM     64  C   UNL A   1      36.511  33.805  29.691  1.00  0.00     0.010 A 
ATOM     65  C   UNL A   1      35.205  33.893  31.731  1.00  0.00     0.010 A 
ATOM     66  C   UNL A   1      35.496  34.485  29.012  1.00  0.00     0.020 A 
ATOM     67  C   UNL A   1      34.172  34.544  31.050  1.00  0.00     0.020 A 
ATOM     68  C   UNL A   1      34.333  34.850  29.697  1.00  0.00     0.054 A 
BRANCH  68  69
ATOM     69  S   UNL A   1      33.021  35.709  28.785  1.00  0.00     0.124 S 
ATOM     70  O   UNL A   1      32.128  36.127  29.863  1.00  0.00    -0.237 OA
ATOM     71  O   UNL A   1      33.749  36.787  28.120  1.00  0.00    -0.237 OA
ATOM     72  O   UNL A   1      32.485  34.681  27.896  1.00  0.00    -0.744 OA
ENDBRANCH  68  69
ENDBRANCH  49  63
BRANCH  50  73
ATOM     73  C   UNL A   1      43.791  28.556  35.629  1.00  0.00    -0.014 A 
ATOM     74  C   UNL A   1      43.551  27.455  36.469  1.00  0.00     0.010 A 
ATOM     75  C   UNL A   1      45.116  28.985  35.427  1.00  0.00     0.010 A 
ATOM     76  C   UNL A   1      44.612  26.808  37.109  1.00  0.00     0.020 A 
ATOM     77  C   UNL A   1      46.183  28.320  36.041  1.00  0.00     0.020 A 
ATOM     78  C   UNL A   1      45.922  27.243  36.888  1.00  0.00     0.054 A 
BRANCH  78  79
ATOM     79  S   UNL A   1      47.281  26.356  37.698  1.00  0.00     0.124 S 
ATOM     80  O   UNL A   1      47.790  25.524  36.613  1.00  0.00    -0.237 OA
ATOM     81  O   UNL A   1      48.155  27.445  38.126  1.00  0.00    -0.237 OA
ATOM     82  O   UNL A   1      46.620  25.633  38.784  1.00  0.00    -0.744 OA
ENDBRANCH  78  79
ENDBRANCH  50  73
BRANCH  62  83
ATOM     83  C   UNL A   1      39.417  33.650  37.595  1.00  0.00    -0.014 A 
ATOM     84  C   UNL A   1      38.585  33.142  38.608  1.00  0.00     0.010 A 
ATOM     85  C   UNL A   1      40.156  34.823  37.840  1.00  0.00     0.010 A 
ATOM     86  C   UNL A   1      38.490  33.801  39.838  1.00  0.00     0.020 A 
ATOM     87  C   UNL A   1      40.088  35.467  39.076  1.00  0.00     0.020 A 
ATOM     88  C   UNL A   1      39.248  34.955  40.066  1.00  0.00     0.054 A 
BRANCH  88  89
ATOM     89  S   UNL A   1      39.171  35.742  41.699  1.00  0.00     0.124 S 
ATOM     90  O   UNL A   1      40.327  35.159  42.374  1.00  0.00    -0.237 OA
ATOM     91  O   UNL A   1      39.282  37.162  41.374  1.00  0.00    -0.237 OA
ATOM     92  O   UNL A   1      37.871  35.329  42.223  1.00  0.00    -0.744 OA
ENDBRANCH  88  89
ENDBRANCH  62  83
ENDBRANCH  36  37
ENDBRANCH  29  31
ENDBRANCH  28  29
ENDBRANCH  27  28
ENDBRANCH  26  27
ENDBRANCH  25  26
ENDBRANCH   1  25
TORSDOF 23
ENDMDL
