MODEL 1
REMARK VINA RESULT:     -10.1      0.000      0.000
REMARK SMILES CCN1C(=O)C[C@@H](C(=O)OCCOCCOC(=O)c2ccc(-c3c4nc(c(-c5ccc(S(=O)(=O)[O-])cc5)c5ccc([nH]5)c(-c5ccc(S(=O)(=O)[O-])cc5)c5nc(c(-c6ccc(S(=O)(=O)[O-])cc6)c6ccc3[nH]6)C=C5)C=C4)cc2)[C@H]1c1ccccc1C1CC1
REMARK SMILES IDX 14 1 13 2 12 3 11 4 10 5 8 6 9 7 7 8 3 9 4 10 79 11 5 12
REMARK SMILES IDX 6 13 2 14 1 15 80 16 81 17 85 18 82 19 84 20 83 21 86 22
REMARK SMILES IDX 87 23 88 24 15 25 16 26 17 27 18 28 19 29 20 30 78 31 21 32
REMARK SMILES IDX 77 33 22 34 23 35 24 36 71 37 25 38 76 39 70 40 72 41 26 42
REMARK SMILES IDX 75 43 69 44 68 45 27 47 57 48 38 49 56 50 39 51 42 52 55 53
REMARK SMILES IDX 73 54 40 55 41 56 54 58 74 59 43 60 28 61 29 62 37 63 30 64
REMARK SMILES IDX 36 65 31 66 32 67 33 68 34 69 35 70 58 71 59 72 67 73 60 74
REMARK SMILES IDX 66 75 61 76 62 77 63 78 64 79 65 80 44 81 45 82 53 83 46 84
REMARK SMILES IDX 52 85 47 86 48 87 49 88 50 89 51 90
REMARK H PARENT 72 46 42 57
REMARK Flexibility Score: inf
ROOT
ATOM      1  C   UNL A   1      32.457  29.182  26.084  1.00  0.00     0.202 C 
ENDROOT
BRANCH   1   2
ATOM      2  O   UNL A   1      32.704  27.910  25.486  1.00  0.00    -0.374 OA
BRANCH   2   3
ATOM      3  C   UNL A   1      32.830  27.830  24.071  1.00  0.00     0.202 C 
BRANCH   3   4
ATOM      4  C   UNL A   1      33.679  26.698  23.487  1.00  0.00     0.261 C 
BRANCH   4   5
ATOM      5  O   UNL A   1      32.912  25.749  22.735  1.00  0.00    -0.463 OA
BRANCH   5   6
ATOM      6  C   UNL A   1      33.390  24.474  22.780  1.00  0.00     0.312 C 
ATOM      7  O   UNL A   1      34.575  24.166  22.745  1.00  0.00    -0.252 OA
BRANCH   6   8
ATOM      8  C   UNL A   1      32.257  23.480  22.916  1.00  0.00     0.135 C 
ATOM      9  N   UNL A   1      31.425  23.978  25.038  1.00  0.00    -0.335 N 
ATOM     10  C   UNL A   1      30.636  24.711  24.147  1.00  0.00     0.224 C 
ATOM     11  C   UNL A   1      32.109  22.911  24.326  1.00  0.00     0.130 C 
ATOM     12  O   UNL A   1      29.788  25.552  24.401  1.00  0.00    -0.275 OA
ATOM     13  C   UNL A   1      30.938  24.233  22.740  1.00  0.00     0.118 C 
BRANCH   9  14
ATOM     14  C   UNL A   1      31.394  24.057  26.495  1.00  0.00     0.117 C 
ATOM     15  C   UNL A   1      30.652  22.944  27.216  1.00  0.00     0.027 C 
ENDBRANCH   9  14
BRANCH  11  16
ATOM     16  C   UNL A   1      33.354  22.283  24.926  1.00  0.00    -0.021 A 
ATOM     17  C   UNL A   1      34.255  23.145  25.605  1.00  0.00     0.006 A 
ATOM     18  C   UNL A   1      33.716  20.917  24.739  1.00  0.00    -0.040 A 
ATOM     19  C   UNL A   1      35.535  22.744  25.974  1.00  0.00     0.000 A 
ATOM     20  C   UNL A   1      35.040  20.564  25.120  1.00  0.00     0.004 A 
ATOM     21  C   UNL A   1      35.942  21.455  25.702  1.00  0.00     0.000 A 
BRANCH  18  22
ATOM     22  C   UNL A   1      32.886  19.742  24.211  1.00  0.00     0.019 C 
ATOM     23  C   UNL A   1      33.419  18.396  23.803  1.00  0.00     0.009 C 
ATOM     24  C   UNL A   1      32.552  18.527  25.031  1.00  0.00     0.009 C 
ENDBRANCH  18  22
ENDBRANCH  11  16
ENDBRANCH   6   8
ENDBRANCH   5   6
ENDBRANCH   4   5
ENDBRANCH   3   4
ENDBRANCH   2   3
ENDBRANCH   1   2
BRANCH   1  25
ATOM     25  C   UNL A   1      33.246  29.566  27.340  1.00  0.00     0.261 C 
BRANCH  25  26
ATOM     26  O   UNL A   1      33.981  30.795  27.195  1.00  0.00    -0.460 OA
BRANCH  26  27
ATOM     27  C   UNL A   1      34.697  31.149  28.289  1.00  0.00     0.338 C 
ATOM     28  O   UNL A   1      34.356  31.922  29.176  1.00  0.00    -0.246 OA
BRANCH  27  29
ATOM     29  C   UNL A   1      35.927  30.349  28.389  1.00  0.00     0.060 A 
ATOM     30  C   UNL A   1      36.277  29.844  29.647  1.00  0.00     0.016 A 
ATOM     31  C   UNL A   1      36.799  30.232  27.306  1.00  0.00     0.016 A 
ATOM     32  C   UNL A   1      37.528  29.266  29.842  1.00  0.00     0.010 A 
ATOM     33  C   UNL A   1      38.060  29.662  27.506  1.00  0.00     0.010 A 
ATOM     34  C   UNL A   1      38.445  29.215  28.784  1.00  0.00    -0.014 A 
BRANCH  34  35
ATOM     35  C   UNL A   1      39.853  28.848  29.058  1.00  0.00     0.031 A 
ATOM     36  C   UNL A   1      40.761  29.864  29.699  1.00  0.00     0.074 A 
ATOM     37  C   UNL A   1      40.308  27.614  28.775  1.00  0.00     0.049 A 
ATOM     38  N   UNL A   1      42.029  29.765  30.005  1.00  0.00    -0.248 NA
ATOM     39  C   UNL A   1      40.159  31.164  30.042  1.00  0.00     0.031 C 
ATOM     40  C   UNL A   1      39.510  26.531  28.201  1.00  0.00     0.029 A 
ATOM     41  N   UNL A   1      41.555  27.068  28.934  1.00  0.00    -0.354 N 
ATOM     42  C   UNL A   1      42.378  30.986  30.570  1.00  0.00     0.074 A 
ATOM     43  C   UNL A   1      41.197  31.821  30.541  1.00  0.00     0.031 C 
ATOM     44  C   UNL A   1      40.294  25.449  28.048  1.00  0.00     0.029 A 
ATOM     45  C   UNL A   1      41.651  25.774  28.483  1.00  0.00     0.049 A 
ATOM     46  H   UNL A   1      42.311  27.557  29.333  1.00  0.00     0.167 HD
ATOM     47  C   UNL A   1      43.574  31.377  31.071  1.00  0.00     0.031 A 
ATOM     48  C   UNL A   1      42.718  24.953  28.409  1.00  0.00     0.031 A 
ATOM     49  C   UNL A   1      44.751  30.549  31.086  1.00  0.00     0.049 A 
ATOM     50  C   UNL A   1      44.054  25.436  28.904  1.00  0.00     0.074 A 
ATOM     51  C   UNL A   1      46.010  30.852  31.576  1.00  0.00     0.029 A 
ATOM     52  N   UNL A   1      44.815  29.258  30.586  1.00  0.00    -0.354 N 
ATOM     53  N   UNL A   1      44.365  26.589  29.446  1.00  0.00    -0.248 NA
ATOM     54  C   UNL A   1      45.183  24.502  28.785  1.00  0.00     0.031 C 
ATOM     55  C   UNL A   1      46.848  29.760  31.327  1.00  0.00     0.029 A 
ATOM     56  C   UNL A   1      46.098  28.757  30.734  1.00  0.00     0.049 A 
ATOM     57  H   UNL A   1      44.060  28.769  30.185  1.00  0.00     0.167 HD
ATOM     58  C   UNL A   1      45.719  26.510  29.756  1.00  0.00     0.074 A 
ATOM     59  C   UNL A   1      46.164  25.192  29.353  1.00  0.00     0.031 C 
ATOM     60  C   UNL A   1      46.522  27.442  30.327  1.00  0.00     0.031 A 
BRANCH  47  61
ATOM     61  C   UNL A   1      43.678  32.777  31.615  1.00  0.00    -0.014 A 
ATOM     62  C   UNL A   1      43.990  33.862  30.777  1.00  0.00     0.010 A 
ATOM     63  C   UNL A   1      43.420  33.015  32.977  1.00  0.00     0.010 A 
ATOM     64  C   UNL A   1      44.073  35.157  31.299  1.00  0.00     0.020 A 
ATOM     65  C   UNL A   1      43.478  34.311  33.497  1.00  0.00     0.020 A 
ATOM     66  C   UNL A   1      43.820  35.372  32.656  1.00  0.00     0.054 A 
BRANCH  66  67
ATOM     67  S   UNL A   1      43.909  37.065  33.303  1.00  0.00     0.124 S 
ATOM     68  O   UNL A   1      45.078  36.992  34.177  1.00  0.00    -0.237 OA
ATOM     69  O   UNL A   1      44.080  37.863  32.092  1.00  0.00    -0.237 OA
ATOM     70  O   UNL A   1      42.630  37.243  33.987  1.00  0.00    -0.744 OA
ENDBRANCH  66  67
ENDBRANCH  47  61
BRANCH  48  71
ATOM     71  C   UNL A   1      42.569  23.595  27.817  1.00  0.00    -0.014 A 
ATOM     72  C   UNL A   1      42.674  23.401  26.428  1.00  0.00     0.010 A 
ATOM     73  C   UNL A   1      42.315  22.488  28.647  1.00  0.00     0.010 A 
ATOM     74  C   UNL A   1      42.510  22.126  25.880  1.00  0.00     0.020 A 
ATOM     75  C   UNL A   1      42.177  21.209  28.105  1.00  0.00     0.020 A 
ATOM     76  C   UNL A   1      42.262  21.037  26.721  1.00  0.00     0.054 A 
BRANCH  76  77
ATOM     77  S   UNL A   1      42.099  19.383  25.995  1.00  0.00     0.124 S 
ATOM     78  O   UNL A   1      42.548  18.527  27.087  1.00  0.00    -0.237 OA
ATOM     79  O   UNL A   1      40.674  19.315  25.679  1.00  0.00    -0.237 OA
ATOM     80  O   UNL A   1      42.984  19.435  24.832  1.00  0.00    -0.744 OA
ENDBRANCH  76  77
ENDBRANCH  48  71
BRANCH  60  81
ATOM     81  C   UNL A   1      47.955  27.061  30.582  1.00  0.00    -0.014 A 
ATOM     82  C   UNL A   1      48.964  27.343  29.644  1.00  0.00     0.010 A 
ATOM     83  C   UNL A   1      48.305  26.459  31.805  1.00  0.00     0.010 A 
ATOM     84  C   UNL A   1      50.292  27.002  29.912  1.00  0.00     0.020 A 
ATOM     85  C   UNL A   1      49.635  26.141  32.088  1.00  0.00     0.020 A 
ATOM     86  C   UNL A   1      50.620  26.402  31.132  1.00  0.00     0.054 A 
BRANCH  86  87
ATOM     87  S   UNL A   1      52.356  26.008  31.476  1.00  0.00     0.124 S 
ATOM     88  O   UNL A   1      52.720  27.053  32.429  1.00  0.00    -0.237 OA
ATOM     89  O   UNL A   1      52.279  24.657  32.024  1.00  0.00    -0.237 OA
ATOM     90  O   UNL A   1      52.999  26.107  30.168  1.00  0.00    -0.744 OA
ENDBRANCH  86  87
ENDBRANCH  60  81
ENDBRANCH  34  35
ENDBRANCH  27  29
ENDBRANCH  26  27
ENDBRANCH  25  26
ENDBRANCH   1  25
TORSDOF 20
ENDMDL
MODEL 2
REMARK VINA RESULT:      -9.9      3.494      4.081
REMARK SMILES CCN1C(=O)C[C@@H](C(=O)OCCOCCOC(=O)c2ccc(-c3c4nc(c(-c5ccc(S(=O)(=O)[O-])cc5)c5ccc([nH]5)c(-c5ccc(S(=O)(=O)[O-])cc5)c5nc(c(-c6ccc(S(=O)(=O)[O-])cc6)c6ccc3[nH]6)C=C5)C=C4)cc2)[C@H]1c1ccccc1C1CC1
REMARK SMILES IDX 14 1 13 2 12 3 11 4 10 5 8 6 9 7 7 8 3 9 4 10 79 11 5 12
REMARK SMILES IDX 6 13 2 14 1 15 80 16 81 17 85 18 82 19 84 20 83 21 86 22
REMARK SMILES IDX 87 23 88 24 15 25 16 26 17 27 18 28 19 29 20 30 78 31 21 32
REMARK SMILES IDX 77 33 22 34 23 35 24 36 71 37 25 38 76 39 70 40 72 41 26 42
REMARK SMILES IDX 75 43 69 44 68 45 27 47 57 48 38 49 56 50 39 51 42 52 55 53
REMARK SMILES IDX 73 54 40 55 41 56 54 58 74 59 43 60 28 61 29 62 37 63 30 64
REMARK SMILES IDX 36 65 31 66 32 67 33 68 34 69 35 70 58 71 59 72 67 73 60 74
REMARK SMILES IDX 66 75 61 76 62 77 63 78 64 79 65 80 44 81 45 82 53 83 46 84
REMARK SMILES IDX 52 85 47 86 48 87 49 88 50 89 51 90
REMARK H PARENT 72 46 42 57
REMARK Flexibility Score: inf
ROOT
ATOM      1  C   UNL A   1      31.833  30.015  25.107  1.00  0.00     0.202 C 
ENDROOT
BRANCH   1   2
ATOM      2  O   UNL A   1      32.818  29.293  24.370  1.00  0.00    -0.374 OA
BRANCH   2   3
ATOM      3  C   UNL A   1      32.426  28.620  23.178  1.00  0.00     0.202 C 
BRANCH   3   4
ATOM      4  C   UNL A   1      33.079  27.271  22.866  1.00  0.00     0.261 C 
BRANCH   4   5
ATOM      5  O   UNL A   1      32.156  26.305  22.347  1.00  0.00    -0.463 OA
BRANCH   5   6
ATOM      6  C   UNL A   1      32.600  25.018  22.392  1.00  0.00     0.312 C 
ATOM      7  O   UNL A   1      33.692  24.638  21.986  1.00  0.00    -0.252 OA
BRANCH   6   8
ATOM      8  C   UNL A   1      31.574  24.117  23.044  1.00  0.00     0.135 C 
ATOM      9  N   UNL A   1      31.407  25.040  25.181  1.00  0.00    -0.335 N 
ATOM     10  C   UNL A   1      30.377  25.627  24.440  1.00  0.00     0.224 C 
ATOM     11  C   UNL A   1      31.863  23.829  24.516  1.00  0.00     0.130 C 
ATOM     12  O   UNL A   1      29.631  26.536  24.767  1.00  0.00    -0.275 OA
ATOM     13  C   UNL A   1      30.252  24.881  23.125  1.00  0.00     0.118 C 
BRANCH   9  14
ATOM     14  C   UNL A   1      31.811  25.391  26.538  1.00  0.00     0.117 C 
ATOM     15  C   UNL A   1      32.366  26.791  26.736  1.00  0.00     0.027 C 
ENDBRANCH   9  14
BRANCH  11  16
ATOM     16  C   UNL A   1      33.239  23.271  24.829  1.00  0.00    -0.021 A 
ATOM     17  C   UNL A   1      34.276  24.205  25.089  1.00  0.00     0.006 A 
ATOM     18  C   UNL A   1      33.562  21.885  24.758  1.00  0.00    -0.040 A 
ATOM     19  C   UNL A   1      35.616  23.835  25.139  1.00  0.00     0.000 A 
ATOM     20  C   UNL A   1      34.947  21.563  24.800  1.00  0.00     0.004 A 
ATOM     21  C   UNL A   1      35.957  22.511  24.963  1.00  0.00     0.000 A 
BRANCH  18  22
ATOM     22  C   UNL A   1      32.642  20.662  24.669  1.00  0.00     0.019 C 
ATOM     23  C   UNL A   1      32.908  19.411  23.878  1.00  0.00     0.009 C 
ATOM     24  C   UNL A   1      32.910  19.368  25.387  1.00  0.00     0.009 C 
ENDBRANCH  18  22
ENDBRANCH  11  16
ENDBRANCH   6   8
ENDBRANCH   5   6
ENDBRANCH   4   5
ENDBRANCH   3   4
ENDBRANCH   2   3
ENDBRANCH   1   2
BRANCH   1  25
ATOM     25  C   UNL A   1      32.225  30.609  26.465  1.00  0.00     0.261 C 
BRANCH  25  26
ATOM     26  O   UNL A   1      33.532  30.199  26.908  1.00  0.00    -0.460 OA
BRANCH  26  27
ATOM     27  C   UNL A   1      34.294  31.205  27.400  1.00  0.00     0.338 C 
ATOM     28  O   UNL A   1      33.934  32.349  27.651  1.00  0.00    -0.246 OA
BRANCH  27  29
ATOM     29  C   UNL A   1      35.632  30.717  27.766  1.00  0.00     0.060 A 
ATOM     30  C   UNL A   1      35.829  29.331  27.821  1.00  0.00     0.016 A 
ATOM     31  C   UNL A   1      36.625  31.596  28.199  1.00  0.00     0.016 A 
ATOM     32  C   UNL A   1      37.003  28.817  28.363  1.00  0.00     0.010 A 
ATOM     33  C   UNL A   1      37.799  31.077  28.753  1.00  0.00     0.010 A 
ATOM     34  C   UNL A   1      37.974  29.686  28.876  1.00  0.00    -0.014 A 
BRANCH  34  35
ATOM     35  C   UNL A   1      39.089  29.138  29.683  1.00  0.00     0.031 A 
ATOM     36  C   UNL A   1      39.241  29.583  31.114  1.00  0.00     0.074 A 
ATOM     37  C   UNL A   1      39.930  28.228  29.162  1.00  0.00     0.049 A 
ATOM     38  N   UNL A   1      40.153  29.253  31.991  1.00  0.00    -0.248 NA
ATOM     39  C   UNL A   1      38.230  30.526  31.623  1.00  0.00     0.031 C 
ATOM     40  C   UNL A   1      39.853  27.684  27.807  1.00  0.00     0.029 A 
ATOM     41  N   UNL A   1      41.018  27.603  29.716  1.00  0.00    -0.354 N 
ATOM     42  C   UNL A   1      39.831  29.948  33.151  1.00  0.00     0.074 A 
ATOM     43  C   UNL A   1      38.656  30.739  32.860  1.00  0.00     0.031 C 
ATOM     44  C   UNL A   1      40.859  26.809  27.632  1.00  0.00     0.029 A 
ATOM     45  C   UNL A   1      41.667  26.758  28.849  1.00  0.00     0.049 A 
ATOM     46  H   UNL A   1      41.308  27.748  30.646  1.00  0.00     0.167 HD
ATOM     47  C   UNL A   1      40.457  29.926  34.352  1.00  0.00     0.031 A 
ATOM     48  C   UNL A   1      42.796  26.040  29.012  1.00  0.00     0.031 A 
ATOM     49  C   UNL A   1      41.633  29.147  34.635  1.00  0.00     0.049 A 
ATOM     50  C   UNL A   1      43.515  26.090  30.334  1.00  0.00     0.074 A 
ATOM     51  C   UNL A   1      42.338  29.053  35.822  1.00  0.00     0.029 A 
ATOM     52  N   UNL A   1      42.280  28.332  33.719  1.00  0.00    -0.354 N 
ATOM     53  N   UNL A   1      43.192  26.742  31.425  1.00  0.00    -0.248 NA
ATOM     54  C   UNL A   1      44.749  25.298  30.448  1.00  0.00     0.031 C 
ATOM     55  C   UNL A   1      43.441  28.219  35.609  1.00  0.00     0.029 A 
ATOM     56  C   UNL A   1      43.390  27.749  34.307  1.00  0.00     0.049 A 
ATOM     57  H   UNL A   1      41.992  28.189  32.789  1.00  0.00     0.167 HD
ATOM     58  C   UNL A   1      44.167  26.420  32.363  1.00  0.00     0.074 A 
ATOM     59  C   UNL A   1      45.084  25.505  31.714  1.00  0.00     0.031 C 
ATOM     60  C   UNL A   1      44.292  26.840  33.646  1.00  0.00     0.031 A 
BRANCH  47  61
ATOM     61  C   UNL A   1      39.897  30.797  35.445  1.00  0.00    -0.014 A 
ATOM     62  C   UNL A   1      40.552  31.976  35.843  1.00  0.00     0.010 A 
ATOM     63  C   UNL A   1      38.677  30.452  36.055  1.00  0.00     0.010 A 
ATOM     64  C   UNL A   1      40.012  32.779  36.853  1.00  0.00     0.020 A 
ATOM     65  C   UNL A   1      38.122  31.264  37.048  1.00  0.00     0.020 A 
ATOM     66  C   UNL A   1      38.802  32.415  37.451  1.00  0.00     0.054 A 
BRANCH  66  67
ATOM     67  S   UNL A   1      38.110  33.486  38.742  1.00  0.00     0.124 S 
ATOM     68  O   UNL A   1      38.534  34.810  38.294  1.00  0.00    -0.237 OA
ATOM     69  O   UNL A   1      36.677  33.220  38.645  1.00  0.00    -0.237 OA
ATOM     70  O   UNL A   1      38.746  33.009  39.967  1.00  0.00    -0.744 OA
ENDBRANCH  66  67
ENDBRANCH  47  61
BRANCH  48  71
ATOM     71  C   UNL A   1      43.333  25.233  27.883  1.00  0.00    -0.014 A 
ATOM     72  C   UNL A   1      44.263  25.783  26.984  1.00  0.00     0.010 A 
ATOM     73  C   UNL A   1      42.905  23.905  27.700  1.00  0.00     0.010 A 
ATOM     74  C   UNL A   1      44.742  25.024  25.912  1.00  0.00     0.020 A 
ATOM     75  C   UNL A   1      43.402  23.136  26.646  1.00  0.00     0.020 A 
ATOM     76  C   UNL A   1      44.310  23.705  25.749  1.00  0.00     0.054 A 
BRANCH  76  77
ATOM     77  S   UNL A   1      44.980  22.721  24.381  1.00  0.00     0.124 S 
ATOM     78  O   UNL A   1      43.818  22.579  23.512  1.00  0.00    -0.237 OA
ATOM     79  O   UNL A   1      46.052  23.575  23.874  1.00  0.00    -0.237 OA
ATOM     80  O   UNL A   1      45.431  21.494  25.035  1.00  0.00    -0.744 OA
ENDBRANCH  76  77
ENDBRANCH  48  71
BRANCH  60  81
ATOM     81  C   UNL A   1      45.440  26.289  34.448  1.00  0.00    -0.014 A 
ATOM     82  C   UNL A   1      46.674  26.958  34.509  1.00  0.00     0.010 A 
ATOM     83  C   UNL A   1      45.259  25.110  35.196  1.00  0.00     0.010 A 
ATOM     84  C   UNL A   1      47.719  26.441  35.281  1.00  0.00     0.020 A 
ATOM     85  C   UNL A   1      46.292  24.606  35.989  1.00  0.00     0.020 A 
ATOM     86  C   UNL A   1      47.522  25.267  36.015  1.00  0.00     0.054 A 
BRANCH  86  87
ATOM     87  S   UNL A   1      48.878  24.639  37.042  1.00  0.00     0.124 S 
ATOM     88  O   UNL A   1      49.622  23.817  36.092  1.00  0.00    -0.237 OA
ATOM     89  O   UNL A   1      49.548  25.863  37.474  1.00  0.00    -0.237 OA
ATOM     90  O   UNL A   1      48.196  23.903  38.103  1.00  0.00    -0.744 OA
ENDBRANCH  86  87
ENDBRANCH  60  81
ENDBRANCH  34  35
ENDBRANCH  27  29
ENDBRANCH  26  27
ENDBRANCH  25  26
ENDBRANCH   1  25
TORSDOF 20
ENDMDL
MODEL 3
REMARK VINA RESULT:      -9.9      2.665      9.242
REMARK SMILES CCN1C(=O)C[C@@H](C(=O)OCCOCCOC(=O)c2ccc(-c3c4nc(c(-c5ccc(S(=O)(=O)[O-])cc5)c5ccc([nH]5)c(-c5ccc(S(=O)(=O)[O-])cc5)c5nc(c(-c6ccc(S(=O)(=O)[O-])cc6)c6ccc3[nH]6)C=C5)C=C4)cc2)[C@H]1c1ccccc1C1CC1
REMARK SMILES IDX 14 1 13 2 12 3 11 4 10 5 8 6 9 7 7 8 3 9 4 10 79 11 5 12
REMARK SMILES IDX 6 13 2 14 1 15 80 16 81 17 85 18 82 19 84 20 83 21 86 22
REMARK SMILES IDX 87 23 88 24 15 25 16 26 17 27 18 28 19 29 20 30 78 31 21 32
REMARK SMILES IDX 77 33 22 34 23 35 24 36 71 37 25 38 76 39 70 40 72 41 26 42
REMARK SMILES IDX 75 43 69 44 68 45 27 47 57 48 38 49 56 50 39 51 42 52 55 53
REMARK SMILES IDX 73 54 40 55 41 56 54 58 74 59 43 60 28 61 29 62 37 63 30 64
REMARK SMILES IDX 36 65 31 66 32 67 33 68 34 69 35 70 58 71 59 72 67 73 60 74
REMARK SMILES IDX 66 75 61 76 62 77 63 78 64 79 65 80 44 81 45 82 53 83 46 84
REMARK SMILES IDX 52 85 47 86 48 87 49 88 50 89 51 90
REMARK H PARENT 72 46 42 57
REMARK Flexibility Score: inf
ROOT
ATOM      1  C   UNL A   1      35.185  22.257  26.081  1.00  0.00     0.202 C 
ENDROOT
BRANCH   1   2
ATOM      2  O   UNL A   1      33.779  22.073  25.928  1.00  0.00    -0.374 OA
BRANCH   2   3
ATOM      3  C   UNL A   1      32.939  22.227  27.067  1.00  0.00     0.202 C 
BRANCH   3   4
ATOM      4  C   UNL A   1      31.813  23.261  26.995  1.00  0.00     0.261 C 
BRANCH   4   5
ATOM      5  O   UNL A   1      31.905  24.116  25.849  1.00  0.00    -0.463 OA
BRANCH   5   6
ATOM      6  C   UNL A   1      31.054  25.180  25.867  1.00  0.00     0.312 C 
ATOM      7  O   UNL A   1      30.775  25.838  26.861  1.00  0.00    -0.252 OA
BRANCH   6   8
ATOM      8  C   UNL A   1      30.521  25.466  24.480  1.00  0.00     0.135 C 
ATOM      9  N   UNL A   1      32.477  25.523  23.209  1.00  0.00    -0.335 N 
ATOM     10  C   UNL A   1      31.995  24.216  23.093  1.00  0.00     0.224 C 
ATOM     11  C   UNL A   1      31.410  26.401  23.664  1.00  0.00     0.130 C 
ATOM     12  O   UNL A   1      32.535  23.253  22.572  1.00  0.00    -0.275 OA
ATOM     13  C   UNL A   1      30.591  24.173  23.667  1.00  0.00     0.118 C 
BRANCH   9  14
ATOM     14  C   UNL A   1      33.752  26.027  22.711  1.00  0.00     0.117 C 
ATOM     15  C   UNL A   1      33.681  27.081  21.619  1.00  0.00     0.027 C 
ENDBRANCH   9  14
BRANCH  11  16
ATOM     16  C   UNL A   1      31.755  27.729  24.314  1.00  0.00    -0.021 A 
ATOM     17  C   UNL A   1      32.912  27.771  25.135  1.00  0.00     0.006 A 
ATOM     18  C   UNL A   1      30.921  28.883  24.239  1.00  0.00    -0.040 A 
ATOM     19  C   UNL A   1      33.191  28.844  25.975  1.00  0.00     0.000 A 
ATOM     20  C   UNL A   1      31.242  29.945  25.129  1.00  0.00     0.004 A 
ATOM     21  C   UNL A   1      32.334  29.925  25.996  1.00  0.00     0.000 A 
BRANCH  18  22
ATOM     22  C   UNL A   1      29.732  29.180  23.318  1.00  0.00     0.019 C 
ATOM     23  C   UNL A   1      29.062  30.515  23.143  1.00  0.00     0.009 C 
ATOM     24  C   UNL A   1      29.857  29.913  22.011  1.00  0.00     0.009 C 
ENDBRANCH  18  22
ENDBRANCH  11  16
ENDBRANCH   6   8
ENDBRANCH   5   6
ENDBRANCH   4   5
ENDBRANCH   3   4
ENDBRANCH   2   3
ENDBRANCH   1   2
BRANCH   1  25
ATOM     25  C   UNL A   1      35.933  23.093  25.037  1.00  0.00     0.261 C 
BRANCH  25  26
ATOM     26  O   UNL A   1      36.894  23.997  25.614  1.00  0.00    -0.460 OA
BRANCH  26  27
ATOM     27  C   UNL A   1      38.078  23.422  25.932  1.00  0.00     0.338 C 
ATOM     28  O   UNL A   1      38.500  22.339  25.546  1.00  0.00    -0.246 OA
BRANCH  27  29
ATOM     29  C   UNL A   1      38.917  24.348  26.707  1.00  0.00     0.060 A 
ATOM     30  C   UNL A   1      38.650  24.483  28.076  1.00  0.00     0.016 A 
ATOM     31  C   UNL A   1      39.840  25.183  26.076  1.00  0.00     0.016 A 
ATOM     32  C   UNL A   1      39.266  25.492  28.809  1.00  0.00     0.010 A 
ATOM     33  C   UNL A   1      40.449  26.204  26.812  1.00  0.00     0.010 A 
ATOM     34  C   UNL A   1      40.132  26.388  28.170  1.00  0.00    -0.014 A 
BRANCH  34  35
ATOM     35  C   UNL A   1      40.574  27.609  28.885  1.00  0.00     0.031 A 
ATOM     36  C   UNL A   1      41.952  27.642  29.491  1.00  0.00     0.074 A 
ATOM     37  C   UNL A   1      39.773  28.686  28.960  1.00  0.00     0.049 A 
ATOM     38  N   UNL A   1      42.531  28.591  30.177  1.00  0.00    -0.248 NA
ATOM     39  C   UNL A   1      42.787  26.444  29.296  1.00  0.00     0.031 C 
ATOM     40  C   UNL A   1      38.439  28.791  28.370  1.00  0.00     0.029 A 
ATOM     41  N   UNL A   1      39.969  29.899  29.569  1.00  0.00    -0.354 N 
ATOM     42  C   UNL A   1      43.794  28.108  30.501  1.00  0.00     0.074 A 
ATOM     43  C   UNL A   1      43.888  26.770  29.959  1.00  0.00     0.031 C 
ATOM     44  C   UNL A   1      37.933  30.004  28.654  1.00  0.00     0.029 A 
ATOM     45  C   UNL A   1      38.892  30.745  29.470  1.00  0.00     0.049 A 
ATOM     46  H   UNL A   1      40.803  30.141  30.034  1.00  0.00     0.167 HD
ATOM     47  C   UNL A   1      44.788  28.723  31.185  1.00  0.00     0.031 A 
ATOM     48  C   UNL A   1      38.694  31.970  29.997  1.00  0.00     0.031 A 
ATOM     49  C   UNL A   1      44.687  30.050  31.734  1.00  0.00     0.049 A 
ATOM     50  C   UNL A   1      39.786  32.604  30.816  1.00  0.00     0.074 A 
ATOM     51  C   UNL A   1      45.640  30.764  32.439  1.00  0.00     0.029 A 
ATOM     52  N   UNL A   1      43.565  30.859  31.643  1.00  0.00    -0.354 N 
ATOM     53  N   UNL A   1      40.978  32.139  31.103  1.00  0.00    -0.248 NA
ATOM     54  C   UNL A   1      39.507  33.935  31.377  1.00  0.00     0.031 C 
ATOM     55  C   UNL A   1      45.076  31.987  32.817  1.00  0.00     0.029 A 
ATOM     56  C   UNL A   1      43.793  32.057  32.299  1.00  0.00     0.049 A 
ATOM     57  H   UNL A   1      42.731  30.618  31.180  1.00  0.00     0.167 HD
ATOM     58  C   UNL A   1      41.601  33.129  31.856  1.00  0.00     0.074 A 
ATOM     59  C   UNL A   1      40.659  34.223  31.968  1.00  0.00     0.031 C 
ATOM     60  C   UNL A   1      42.843  33.136  32.401  1.00  0.00     0.031 A 
BRANCH  47  61
ATOM     61  C   UNL A   1      46.062  27.954  31.406  1.00  0.00    -0.014 A 
ATOM     62  C   UNL A   1      47.151  28.078  30.525  1.00  0.00     0.010 A 
ATOM     63  C   UNL A   1      46.187  27.124  32.536  1.00  0.00     0.010 A 
ATOM     64  C   UNL A   1      48.330  27.363  30.752  1.00  0.00     0.020 A 
ATOM     65  C   UNL A   1      47.373  26.426  32.779  1.00  0.00     0.020 A 
ATOM     66  C   UNL A   1      48.432  26.538  31.876  1.00  0.00     0.054 A 
BRANCH  66  67
ATOM     67  S   UNL A   1      49.983  25.640  32.162  1.00  0.00     0.124 S 
ATOM     68  O   UNL A   1      50.905  26.726  32.482  1.00  0.00    -0.237 OA
ATOM     69  O   UNL A   1      49.642  24.758  33.276  1.00  0.00    -0.237 OA
ATOM     70  O   UNL A   1      50.232  24.965  30.891  1.00  0.00    -0.744 OA
ENDBRANCH  66  67
ENDBRANCH  47  61
BRANCH  48  71
ATOM     71  C   UNL A   1      37.396  32.667  29.788  1.00  0.00    -0.014 A 
ATOM     72  C   UNL A   1      37.210  33.527  28.691  1.00  0.00     0.010 A 
ATOM     73  C   UNL A   1      36.337  32.476  30.695  1.00  0.00     0.010 A 
ATOM     74  C   UNL A   1      35.995  34.196  28.516  1.00  0.00     0.020 A 
ATOM     75  C   UNL A   1      35.114  33.122  30.508  1.00  0.00     0.020 A 
ATOM     76  C   UNL A   1      34.954  33.989  29.425  1.00  0.00     0.054 A 
BRANCH  76  77
ATOM     77  S   UNL A   1      33.369  34.829  29.155  1.00  0.00     0.124 S 
ATOM     78  O   UNL A   1      32.794  34.830  30.495  1.00  0.00    -0.237 OA
ATOM     79  O   UNL A   1      33.786  36.132  28.640  1.00  0.00    -0.237 OA
ATOM     80  O   UNL A   1      32.694  33.973  28.181  1.00  0.00    -0.744 OA
ENDBRANCH  76  77
ENDBRANCH  48  71
BRANCH  60  81
ATOM     81  C   UNL A   1      43.270  34.375  33.140  1.00  0.00    -0.014 A 
ATOM     82  C   UNL A   1      43.846  35.465  32.466  1.00  0.00     0.010 A 
ATOM     83  C   UNL A   1      43.039  34.468  34.526  1.00  0.00     0.010 A 
ATOM     84  C   UNL A   1      44.212  36.616  33.169  1.00  0.00     0.020 A 
ATOM     85  C   UNL A   1      43.378  35.627  35.227  1.00  0.00     0.020 A 
ATOM     86  C   UNL A   1      43.978  36.689  34.546  1.00  0.00     0.054 A 
BRANCH  86  87
ATOM     87  S   UNL A   1      44.421  38.210  35.429  1.00  0.00     0.124 S 
ATOM     88  O   UNL A   1      43.803  39.236  34.593  1.00  0.00    -0.237 OA
ATOM     89  O   UNL A   1      43.807  38.013  36.739  1.00  0.00    -0.237 OA
ATOM     90  O   UNL A   1      45.882  38.199  35.425  1.00  0.00    -0.744 OA
ENDBRANCH  86  87
ENDBRANCH  60  81
ENDBRANCH  34  35
ENDBRANCH  27  29
ENDBRANCH  26  27
ENDBRANCH  25  26
ENDBRANCH   1  25
TORSDOF 20
ENDMDL
