MODEL 1
REMARK VINA RESULT:     -10.2      0.000      0.000
REMARK SMILES O=C(OCCOCCOC(=O)[C@@H]1[C@H](C(=O)Nc2ccccc2OC(F)F)[C@@H]2C=C[C@H]1C2)c1ccc(-c2c3nc(c(-c4ccc(S(=O)(=O)[O-])cc4)c4ccc([nH]4)c(-c4ccc(S(=O)(=O)[O-])cc4)c4nc(c(-c5ccc(S(=O)(=O)[O-])cc5)c5ccc2[nH]5)C=C4)C=C3)cc1
REMARK SMILES IDX 7 1 6 2 5 3 4 4 3 5 2 6 1 7 32 8 33 9 91 10 34 11 90 12
REMARK SMILES IDX 35 13 36 14 37 15 84 16 38 17 89 18 83 19 85 20 39 21 88 22
REMARK SMILES IDX 82 23 81 24 40 26 70 27 51 28 69 29 52 30 55 31 68 32 86 33
REMARK SMILES IDX 53 34 54 35 67 37 87 38 56 39 41 40 42 41 50 42 43 43 49 44
REMARK SMILES IDX 44 45 45 46 46 47 47 48 48 49 71 50 72 51 80 52 73 53 79 54
REMARK SMILES IDX 74 55 75 56 76 57 77 58 78 59 57 60 58 61 66 62 59 63 65 64
REMARK SMILES IDX 60 65 61 66 62 67 63 68 64 69 8 70 9 71 10 72 11 73 12 74
REMARK SMILES IDX 13 75 30 76 27 77 29 78 31 79 28 80 14 81 15 82 16 83 17 85
REMARK SMILES IDX 18 86 22 87 19 88 21 89 20 90 23 91 24 92 25 93 26 94
REMARK H PARENT 85 25 55 36 16 84
REMARK Flexibility Score: inf
ROOT
ATOM      1  C   UNL A   1      34.738  30.886  27.644  1.00  0.00     0.202 C 
ENDROOT
BRANCH   1   2
ATOM      2  O   UNL A   1      34.352  31.825  28.665  1.00  0.00    -0.374 OA
BRANCH   2   3
ATOM      3  C   UNL A   1      35.438  32.487  29.288  1.00  0.00     0.202 C 
BRANCH   3   4
ATOM      4  C   UNL A   1      35.692  32.169  30.776  1.00  0.00     0.261 C 
BRANCH   4   5
ATOM      5  O   UNL A   1      36.966  31.526  31.024  1.00  0.00    -0.460 OA
BRANCH   5   6
ATOM      6  C   UNL A   1      37.171  30.190  30.874  1.00  0.00     0.338 C 
ATOM      7  O   UNL A   1      36.419  29.349  31.353  1.00  0.00    -0.246 OA
BRANCH   6   8
ATOM      8  C   UNL A   1      38.367  29.802  30.103  1.00  0.00     0.060 A 
ATOM      9  C   UNL A   1      39.462  29.320  30.797  1.00  0.00     0.016 A 
ATOM     10  C   UNL A   1      38.448  29.977  28.725  1.00  0.00     0.016 A 
ATOM     11  C   UNL A   1      40.709  29.370  30.212  1.00  0.00     0.010 A 
ATOM     12  C   UNL A   1      39.661  29.709  28.079  1.00  0.00     0.010 A 
ATOM     13  C   UNL A   1      40.823  29.430  28.825  1.00  0.00    -0.014 A 
BRANCH  13  14
ATOM     14  C   UNL A   1      42.135  29.121  28.187  1.00  0.00     0.031 A 
ATOM     15  C   UNL A   1      42.399  27.748  27.636  1.00  0.00     0.074 A 
ATOM     16  C   UNL A   1      43.097  30.072  28.121  1.00  0.00     0.049 A 
ATOM     17  N   UNL A   1      43.544  27.168  27.399  1.00  0.00    -0.248 NA
ATOM     18  C   UNL A   1      41.229  26.901  27.351  1.00  0.00     0.031 C 
ATOM     19  C   UNL A   1      42.964  31.471  28.556  1.00  0.00     0.029 A 
ATOM     20  N   UNL A   1      44.381  30.020  27.641  1.00  0.00    -0.354 N 
ATOM     21  C   UNL A   1      43.241  25.853  27.066  1.00  0.00     0.074 A 
ATOM     22  C   UNL A   1      41.799  25.735  27.077  1.00  0.00     0.031 C 
ATOM     23  C   UNL A   1      44.054  32.161  28.209  1.00  0.00     0.029 A 
ATOM     24  C   UNL A   1      45.049  31.222  27.734  1.00  0.00     0.049 A 
ATOM     25  H   UNL A   1      44.786  29.205  27.266  1.00  0.00     0.167 HD
ATOM     26  C   UNL A   1      44.106  24.838  26.825  1.00  0.00     0.031 A 
ATOM     27  C   UNL A   1      46.347  31.529  27.562  1.00  0.00     0.031 A 
ATOM     28  C   UNL A   1      45.534  25.023  26.776  1.00  0.00     0.049 A 
ATOM     29  C   UNL A   1      47.287  30.397  27.291  1.00  0.00     0.074 A 
ATOM     30  C   UNL A   1      46.531  24.083  26.589  1.00  0.00     0.029 A 
ATOM     31  N   UNL A   1      46.165  26.258  26.887  1.00  0.00    -0.354 N 
ATOM     32  N   UNL A   1      47.010  29.122  27.144  1.00  0.00    -0.248 NA
ATOM     33  C   UNL A   1      48.710  30.730  27.208  1.00  0.00     0.031 C 
ATOM     34  C   UNL A   1      47.764  24.748  26.609  1.00  0.00     0.029 A 
ATOM     35  C   UNL A   1      47.532  26.108  26.757  1.00  0.00     0.049 A 
ATOM     36  H   UNL A   1      45.704  27.115  27.036  1.00  0.00     0.167 HD
ATOM     37  C   UNL A   1      48.230  28.496  26.942  1.00  0.00     0.074 A 
ATOM     38  C   UNL A   1      49.240  29.540  26.963  1.00  0.00     0.031 C 
ATOM     39  C   UNL A   1      48.497  27.179  26.769  1.00  0.00     0.031 A 
BRANCH  26  40
ATOM     40  C   UNL A   1      43.535  23.448  26.705  1.00  0.00    -0.014 A 
ATOM     41  C   UNL A   1      43.306  22.833  25.461  1.00  0.00     0.010 A 
ATOM     42  C   UNL A   1      43.189  22.750  27.878  1.00  0.00     0.010 A 
ATOM     43  C   UNL A   1      42.685  21.580  25.392  1.00  0.00     0.020 A 
ATOM     44  C   UNL A   1      42.592  21.487  27.815  1.00  0.00     0.020 A 
ATOM     45  C   UNL A   1      42.317  20.922  26.570  1.00  0.00     0.054 A 
BRANCH  45  46
ATOM     46  S   UNL A   1      41.476  19.317  26.456  1.00  0.00     0.124 S 
ATOM     47  O   UNL A   1      40.264  19.667  25.721  1.00  0.00    -0.237 OA
ATOM     48  O   UNL A   1      42.439  18.499  25.724  1.00  0.00    -0.237 OA
ATOM     49  O   UNL A   1      41.271  18.933  27.850  1.00  0.00    -0.744 OA
ENDBRANCH  45  46
ENDBRANCH  26  40
BRANCH  27  50
ATOM     50  C   UNL A   1      46.824  32.930  27.745  1.00  0.00    -0.014 A 
ATOM     51  C   UNL A   1      47.214  33.386  29.015  1.00  0.00     0.010 A 
ATOM     52  C   UNL A   1      46.938  33.805  26.646  1.00  0.00     0.010 A 
ATOM     53  C   UNL A   1      47.706  34.685  29.184  1.00  0.00     0.020 A 
ATOM     54  C   UNL A   1      47.466  35.090  26.803  1.00  0.00     0.020 A 
ATOM     55  C   UNL A   1      47.834  35.527  28.076  1.00  0.00     0.054 A 
BRANCH  55  56
ATOM     56  S   UNL A   1      48.530  37.187  28.308  1.00  0.00     0.124 S 
ATOM     57  O   UNL A   1      49.037  37.490  26.974  1.00  0.00    -0.237 OA
ATOM     58  O   UNL A   1      47.368  37.961  28.735  1.00  0.00    -0.237 OA
ATOM     59  O   UNL A   1      49.548  36.990  29.337  1.00  0.00    -0.744 OA
ENDBRANCH  55  56
ENDBRANCH  27  50
BRANCH  39  60
ATOM     60  C   UNL A   1      49.930  26.824  26.511  1.00  0.00    -0.014 A 
ATOM     61  C   UNL A   1      50.823  26.578  27.568  1.00  0.00     0.010 A 
ATOM     62  C   UNL A   1      50.376  26.720  25.183  1.00  0.00     0.010 A 
ATOM     63  C   UNL A   1      52.155  26.264  27.297  1.00  0.00     0.020 A 
ATOM     64  C   UNL A   1      51.700  26.383  24.909  1.00  0.00     0.020 A 
ATOM     65  C   UNL A   1      52.585  26.173  25.969  1.00  0.00     0.054 A 
BRANCH  65  66
ATOM     66  S   UNL A   1      54.309  25.726  25.636  1.00  0.00     0.124 S 
ATOM     67  O   UNL A   1      55.030  26.615  26.543  1.00  0.00    -0.237 OA
ATOM     68  O   UNL A   1      54.347  24.307  25.981  1.00  0.00    -0.237 OA
ATOM     69  O   UNL A   1      54.473  26.019  24.214  1.00  0.00    -0.744 OA
ENDBRANCH  65  66
ENDBRANCH  39  60
ENDBRANCH  13  14
ENDBRANCH   6   8
ENDBRANCH   5   6
ENDBRANCH   4   5
ENDBRANCH   3   4
ENDBRANCH   2   3
ENDBRANCH   1   2
BRANCH   1  70
ATOM     70  C   UNL A   1      33.707  29.767  27.327  1.00  0.00     0.261 C 
BRANCH  70  71
ATOM     71  O   UNL A   1      34.318  28.506  26.875  1.00  0.00    -0.463 OA
BRANCH  71  72
ATOM     72  C   UNL A   1      33.868  28.019  25.667  1.00  0.00     0.310 C 
ATOM     73  O   UNL A   1      33.786  28.733  24.671  1.00  0.00    -0.252 OA
BRANCH  72  74
ATOM     74  C   UNL A   1      33.285  26.576  25.719  1.00  0.00     0.119 C 
ATOM     75  C   UNL A   1      33.221  25.288  24.751  1.00  0.00     0.100 C 
ATOM     76  C   UNL A   1      31.766  26.723  26.090  1.00  0.00     0.027 C 
ATOM     77  C   UNL A   1      31.703  24.918  24.786  1.00  0.00     0.025 C 
ATOM     78  C   UNL A   1      30.984  27.087  24.847  1.00  0.00    -0.027 C 
ATOM     79  C   UNL A   1      31.331  25.264  26.223  1.00  0.00     0.017 C 
ATOM     80  C   UNL A   1      30.933  25.998  24.072  1.00  0.00    -0.027 C 
BRANCH  75  81
ATOM     81  C   UNL A   1      33.703  24.731  23.372  1.00  0.00     0.229 C 
ATOM     82  O   UNL A   1      33.802  25.539  22.433  1.00  0.00    -0.274 OA
ATOM     83  N   UNL A   1      34.168  23.477  23.104  1.00  0.00    -0.323 N 
ATOM     84  H   UNL A   1      34.828  23.412  22.376  1.00  0.00     0.170 HD
BRANCH  83  85
ATOM     85  C   UNL A   1      33.830  22.280  23.724  1.00  0.00     0.084 A 
ATOM     86  C   UNL A   1      32.663  21.596  23.375  1.00  0.00     0.030 A 
ATOM     87  C   UNL A   1      34.667  21.748  24.675  1.00  0.00     0.149 A 
ATOM     88  C   UNL A   1      32.489  20.267  23.779  1.00  0.00     0.002 A 
ATOM     89  C   UNL A   1      34.573  20.380  24.956  1.00  0.00     0.049 A 
ATOM     90  C   UNL A   1      33.488  19.633  24.508  1.00  0.00     0.004 A 
BRANCH  87  91
ATOM     91  O   UNL A   1      35.620  22.484  25.308  1.00  0.00    -0.433 OA
BRANCH  91  92
ATOM     92  C   UNL A   1      37.018  22.419  24.993  1.00  0.00     0.542 C 
ATOM     93  F   UNL A   1      37.226  21.898  23.766  1.00  0.00    -0.167 F 
ATOM     94  F   UNL A   1      37.482  23.694  24.972  1.00  0.00    -0.167 F 
ENDBRANCH  91  92
ENDBRANCH  87  91
ENDBRANCH  83  85
ENDBRANCH  75  81
ENDBRANCH  72  74
ENDBRANCH  71  72
ENDBRANCH  70  71
ENDBRANCH   1  70
TORSDOF 21
ENDMDL
MODEL 2
REMARK VINA RESULT:     -10.1      2.716      8.744
REMARK SMILES O=C(OCCOCCOC(=O)[C@@H]1[C@H](C(=O)Nc2ccccc2OC(F)F)[C@@H]2C=C[C@H]1C2)c1ccc(-c2c3nc(c(-c4ccc(S(=O)(=O)[O-])cc4)c4ccc([nH]4)c(-c4ccc(S(=O)(=O)[O-])cc4)c4nc(c(-c5ccc(S(=O)(=O)[O-])cc5)c5ccc2[nH]5)C=C4)C=C3)cc1
REMARK SMILES IDX 7 1 6 2 5 3 4 4 3 5 2 6 1 7 32 8 33 9 91 10 34 11 90 12
REMARK SMILES IDX 35 13 36 14 37 15 84 16 38 17 89 18 83 19 85 20 39 21 88 22
REMARK SMILES IDX 82 23 81 24 40 26 70 27 51 28 69 29 52 30 55 31 68 32 86 33
REMARK SMILES IDX 53 34 54 35 67 37 87 38 56 39 41 40 42 41 50 42 43 43 49 44
REMARK SMILES IDX 44 45 45 46 46 47 47 48 48 49 71 50 72 51 80 52 73 53 79 54
REMARK SMILES IDX 74 55 75 56 76 57 77 58 78 59 57 60 58 61 66 62 59 63 65 64
REMARK SMILES IDX 60 65 61 66 62 67 63 68 64 69 8 70 9 71 10 72 11 73 12 74
REMARK SMILES IDX 13 75 30 76 27 77 29 78 31 79 28 80 14 81 15 82 16 83 17 85
REMARK SMILES IDX 18 86 22 87 19 88 21 89 20 90 23 91 24 92 25 93 26 94
REMARK H PARENT 85 25 55 36 16 84
REMARK Flexibility Score: inf
ROOT
ATOM      1  C   UNL A   1      31.251  26.681  26.318  1.00  0.00     0.202 C 
ENDROOT
BRANCH   1   2
ATOM      2  O   UNL A   1      32.318  27.509  26.816  1.00  0.00    -0.374 OA
BRANCH   2   3
ATOM      3  C   UNL A   1      31.897  28.769  27.308  1.00  0.00     0.202 C 
BRANCH   3   4
ATOM      4  C   UNL A   1      32.478  30.021  26.621  1.00  0.00     0.261 C 
BRANCH   4   5
ATOM      5  O   UNL A   1      33.920  30.123  26.720  1.00  0.00    -0.460 OA
BRANCH   5   6
ATOM      6  C   UNL A   1      34.561  30.613  27.814  1.00  0.00     0.338 C 
ATOM      7  O   UNL A   1      34.042  31.418  28.578  1.00  0.00    -0.246 OA
BRANCH   6   8
ATOM      8  C   UNL A   1      35.936  30.126  28.031  1.00  0.00     0.060 A 
ATOM      9  C   UNL A   1      36.319  29.807  29.321  1.00  0.00     0.016 A 
ATOM     10  C   UNL A   1      36.866  30.053  26.999  1.00  0.00     0.016 A 
ATOM     11  C   UNL A   1      37.658  29.785  29.644  1.00  0.00     0.010 A 
ATOM     12  C   UNL A   1      38.189  29.707  27.304  1.00  0.00     0.010 A 
ATOM     13  C   UNL A   1      38.610  29.599  28.644  1.00  0.00    -0.014 A 
BRANCH  13  14
ATOM     14  C   UNL A   1      40.001  29.216  29.023  1.00  0.00     0.031 A 
ATOM     15  C   UNL A   1      40.890  30.208  29.720  1.00  0.00     0.074 A 
ATOM     16  C   UNL A   1      40.470  27.982  28.722  1.00  0.00     0.049 A 
ATOM     17  N   UNL A   1      42.194  30.227  29.793  1.00  0.00    -0.248 NA
ATOM     18  C   UNL A   1      40.236  31.346  30.386  1.00  0.00     0.031 C 
ATOM     19  C   UNL A   1      39.703  26.890  28.104  1.00  0.00     0.029 A 
ATOM     20  N   UNL A   1      41.706  27.419  28.913  1.00  0.00    -0.354 N 
ATOM     21  C   UNL A   1      42.521  31.437  30.394  1.00  0.00     0.074 A 
ATOM     22  C   UNL A   1      41.277  32.100  30.716  1.00  0.00     0.031 C 
ATOM     23  C   UNL A   1      40.434  25.772  28.088  1.00  0.00     0.029 A 
ATOM     24  C   UNL A   1      41.785  26.112  28.483  1.00  0.00     0.049 A 
ATOM     25  H   UNL A   1      42.463  27.901  29.319  1.00  0.00     0.167 HD
ATOM     26  C   UNL A   1      43.758  31.951  30.603  1.00  0.00     0.031 A 
ATOM     27  C   UNL A   1      42.842  25.298  28.315  1.00  0.00     0.031 A 
ATOM     28  C   UNL A   1      44.966  31.223  30.310  1.00  0.00     0.049 A 
ATOM     29  C   UNL A   1      44.199  25.880  28.557  1.00  0.00     0.074 A 
ATOM     30  C   UNL A   1      46.282  31.633  30.426  1.00  0.00     0.029 A 
ATOM     31  N   UNL A   1      44.996  29.906  29.864  1.00  0.00    -0.354 N 
ATOM     32  N   UNL A   1      44.509  27.088  28.966  1.00  0.00    -0.248 NA
ATOM     33  C   UNL A   1      45.345  25.014  28.273  1.00  0.00     0.031 C 
ATOM     34  C   UNL A   1      47.104  30.570  30.031  1.00  0.00     0.029 A 
ATOM     35  C   UNL A   1      46.302  29.482  29.716  1.00  0.00     0.049 A 
ATOM     36  H   UNL A   1      44.200  29.355  29.682  1.00  0.00     0.167 HD
ATOM     37  C   UNL A   1      45.894  27.128  28.997  1.00  0.00     0.074 A 
ATOM     38  C   UNL A   1      46.356  25.813  28.588  1.00  0.00     0.031 C 
ATOM     39  C   UNL A   1      46.712  28.158  29.321  1.00  0.00     0.031 A 
BRANCH  26  40
ATOM     40  C   UNL A   1      43.849  33.382  31.070  1.00  0.00    -0.014 A 
ATOM     41  C   UNL A   1      43.865  34.465  30.175  1.00  0.00     0.010 A 
ATOM     42  C   UNL A   1      43.951  33.642  32.450  1.00  0.00     0.010 A 
ATOM     43  C   UNL A   1      44.048  35.772  30.645  1.00  0.00     0.020 A 
ATOM     44  C   UNL A   1      44.107  34.948  32.927  1.00  0.00     0.020 A 
ATOM     45  C   UNL A   1      44.184  36.003  32.018  1.00  0.00     0.054 A 
BRANCH  45  46
ATOM     46  S   UNL A   1      44.461  37.699  32.602  1.00  0.00     0.124 S 
ATOM     47  O   UNL A   1      45.784  37.593  33.210  1.00  0.00    -0.237 OA
ATOM     48  O   UNL A   1      44.398  38.479  31.368  1.00  0.00    -0.237 OA
ATOM     49  O   UNL A   1      43.361  37.929  33.536  1.00  0.00    -0.744 OA
ENDBRANCH  45  46
ENDBRANCH  26  40
BRANCH  27  50
ATOM     50  C   UNL A   1      42.653  23.908  27.807  1.00  0.00    -0.014 A 
ATOM     51  C   UNL A   1      42.451  22.847  28.705  1.00  0.00     0.010 A 
ATOM     52  C   UNL A   1      42.623  23.642  26.424  1.00  0.00     0.010 A 
ATOM     53  C   UNL A   1      42.226  21.549  28.232  1.00  0.00     0.020 A 
ATOM     54  C   UNL A   1      42.360  22.355  25.946  1.00  0.00     0.020 A 
ATOM     55  C   UNL A   1      42.177  21.312  26.855  1.00  0.00     0.054 A 
BRANCH  55  56
ATOM     56  S   UNL A   1      41.825  19.633  26.264  1.00  0.00     0.124 S 
ATOM     57  O   UNL A   1      42.615  19.573  25.039  1.00  0.00    -0.237 OA
ATOM     58  O   UNL A   1      42.302  18.802  27.366  1.00  0.00    -0.237 OA
ATOM     59  O   UNL A   1      40.376  19.633  26.078  1.00  0.00    -0.744 OA
ENDBRANCH  55  56
ENDBRANCH  27  50
BRANCH  39  60
ATOM     60  C   UNL A   1      48.181  27.860  29.315  1.00  0.00    -0.014 A 
ATOM     61  C   UNL A   1      48.844  27.430  30.477  1.00  0.00     0.010 A 
ATOM     62  C   UNL A   1      48.897  27.999  28.115  1.00  0.00     0.010 A 
ATOM     63  C   UNL A   1      50.215  27.175  30.444  1.00  0.00     0.020 A 
ATOM     64  C   UNL A   1      50.262  27.721  28.072  1.00  0.00     0.020 A 
ATOM     65  C   UNL A   1      50.916  27.326  29.242  1.00  0.00     0.054 A 
BRANCH  65  66
ATOM     66  S   UNL A   1      52.688  26.952  29.210  1.00  0.00     0.124 S 
ATOM     67  O   UNL A   1      52.804  26.145  27.998  1.00  0.00    -0.237 OA
ATOM     68  O   UNL A   1      53.296  28.279  29.143  1.00  0.00    -0.237 OA
ATOM     69  O   UNL A   1      52.912  26.234  30.463  1.00  0.00    -0.744 OA
ENDBRANCH  65  66
ENDBRANCH  39  60
ENDBRANCH  13  14
ENDBRANCH   6   8
ENDBRANCH   5   6
ENDBRANCH   4   5
ENDBRANCH   3   4
ENDBRANCH   2   3
ENDBRANCH   1   2
BRANCH   1  70
ATOM     70  C   UNL A   1      31.508  25.148  26.355  1.00  0.00     0.261 C 
BRANCH  70  71
ATOM     71  O   UNL A   1      31.297  24.478  25.062  1.00  0.00    -0.463 OA
BRANCH  71  72
ATOM     72  C   UNL A   1      32.249  24.723  24.096  1.00  0.00     0.310 C 
ATOM     73  O   UNL A   1      32.123  25.630  23.277  1.00  0.00    -0.252 OA
BRANCH  72  74
ATOM     74  C   UNL A   1      33.371  23.648  23.996  1.00  0.00     0.119 C 
ATOM     75  C   UNL A   1      33.767  22.275  24.741  1.00  0.00     0.100 C 
ATOM     76  C   UNL A   1      34.737  24.420  24.090  1.00  0.00     0.027 C 
ATOM     77  C   UNL A   1      35.277  22.498  25.078  1.00  0.00     0.025 C 
ATOM     78  C   UNL A   1      35.036  24.723  25.542  1.00  0.00    -0.027 C 
ATOM     79  C   UNL A   1      35.750  23.298  23.870  1.00  0.00     0.017 C 
ATOM     80  C   UNL A   1      35.377  23.571  26.130  1.00  0.00    -0.027 C 
BRANCH  75  81
ATOM     81  C   UNL A   1      33.295  21.259  25.833  1.00  0.00     0.229 C 
ATOM     82  O   UNL A   1      33.090  21.703  26.975  1.00  0.00    -0.274 OA
ATOM     83  N   UNL A   1      32.942  19.955  25.651  1.00  0.00    -0.323 N 
ATOM     84  H   UNL A   1      32.267  19.602  26.276  1.00  0.00     0.170 HD
BRANCH  83  85
ATOM     85  C   UNL A   1      33.411  19.058  24.698  1.00  0.00     0.084 A 
ATOM     86  C   UNL A   1      34.560  18.298  24.933  1.00  0.00     0.030 A 
ATOM     87  C   UNL A   1      32.722  18.897  23.521  1.00  0.00     0.149 A 
ATOM     88  C   UNL A   1      34.847  17.201  24.111  1.00  0.00     0.002 A 
ATOM     89  C   UNL A   1      32.917  17.719  22.789  1.00  0.00     0.049 A 
ATOM     90  C   UNL A   1      33.975  16.865  23.083  1.00  0.00     0.004 A 
BRANCH  87  91
ATOM     91  O   UNL A   1      31.817  19.806  23.069  1.00  0.00    -0.433 OA
BRANCH  91  92
ATOM     92  C   UNL A   1      32.057  20.691  21.966  1.00  0.00     0.542 C 
ATOM     93  F   UNL A   1      31.560  20.195  20.815  1.00  0.00    -0.167 F 
ATOM     94  F   UNL A   1      31.392  21.844  22.227  1.00  0.00    -0.167 F 
ENDBRANCH  91  92
ENDBRANCH  87  91
ENDBRANCH  83  85
ENDBRANCH  75  81
ENDBRANCH  72  74
ENDBRANCH  71  72
ENDBRANCH  70  71
ENDBRANCH   1  70
TORSDOF 21
ENDMDL
MODEL 3
REMARK VINA RESULT:      -9.8      2.221      8.631
REMARK SMILES O=C(OCCOCCOC(=O)[C@@H]1[C@H](C(=O)Nc2ccccc2OC(F)F)[C@@H]2C=C[C@H]1C2)c1ccc(-c2c3nc(c(-c4ccc(S(=O)(=O)[O-])cc4)c4ccc([nH]4)c(-c4ccc(S(=O)(=O)[O-])cc4)c4nc(c(-c5ccc(S(=O)(=O)[O-])cc5)c5ccc2[nH]5)C=C4)C=C3)cc1
REMARK SMILES IDX 7 1 6 2 5 3 4 4 3 5 2 6 1 7 32 8 33 9 91 10 34 11 90 12
REMARK SMILES IDX 35 13 36 14 37 15 84 16 38 17 89 18 83 19 85 20 39 21 88 22
REMARK SMILES IDX 82 23 81 24 40 26 70 27 51 28 69 29 52 30 55 31 68 32 86 33
REMARK SMILES IDX 53 34 54 35 67 37 87 38 56 39 41 40 42 41 50 42 43 43 49 44
REMARK SMILES IDX 44 45 45 46 46 47 47 48 48 49 71 50 72 51 80 52 73 53 79 54
REMARK SMILES IDX 74 55 75 56 76 57 77 58 78 59 57 60 58 61 66 62 59 63 65 64
REMARK SMILES IDX 60 65 61 66 62 67 63 68 64 69 8 70 9 71 10 72 11 73 12 74
REMARK SMILES IDX 13 75 30 76 27 77 29 78 31 79 28 80 14 81 15 82 16 83 17 85
REMARK SMILES IDX 18 86 22 87 19 88 21 89 20 90 23 91 24 92 25 93 26 94
REMARK H PARENT 85 25 55 36 16 84
REMARK Flexibility Score: inf
ROOT
ATOM      1  C   UNL A   1      37.396  22.614  25.583  1.00  0.00     0.202 C 
ENDROOT
BRANCH   1   2
ATOM      2  O   UNL A   1      38.294  21.628  25.042  1.00  0.00    -0.374 OA
BRANCH   2   3
ATOM      3  C   UNL A   1      39.231  21.119  25.973  1.00  0.00     0.202 C 
BRANCH   3   4
ATOM      4  C   UNL A   1      39.698  19.663  25.776  1.00  0.00     0.261 C 
BRANCH   4   5
ATOM      5  O   UNL A   1      40.987  19.379  26.372  1.00  0.00    -0.460 OA
BRANCH   5   6
ATOM      6  C   UNL A   1      42.162  19.848  25.874  1.00  0.00     0.338 C 
ATOM      7  O   UNL A   1      42.825  19.228  25.051  1.00  0.00    -0.246 OA
BRANCH   6   8
ATOM      8  C   UNL A   1      42.607  21.156  26.391  1.00  0.00     0.060 A 
ATOM      9  C   UNL A   1      42.844  22.170  25.480  1.00  0.00     0.016 A 
ATOM     10  C   UNL A   1      42.866  21.369  27.741  1.00  0.00     0.016 A 
ATOM     11  C   UNL A   1      43.661  23.221  25.836  1.00  0.00     0.010 A 
ATOM     12  C   UNL A   1      43.412  22.596  28.140  1.00  0.00     0.010 A 
ATOM     13  C   UNL A   1      43.848  23.531  27.181  1.00  0.00    -0.014 A 
BRANCH  13  14
ATOM     14  C   UNL A   1      44.420  24.857  27.552  1.00  0.00     0.031 A 
ATOM     15  C   UNL A   1      43.535  25.920  28.140  1.00  0.00     0.074 A 
ATOM     16  C   UNL A   1      45.733  25.111  27.340  1.00  0.00     0.049 A 
ATOM     17  N   UNL A   1      43.722  27.212  28.175  1.00  0.00    -0.248 NA
ATOM     18  C   UNL A   1      42.258  25.484  28.729  1.00  0.00     0.031 C 
ATOM     19  C   UNL A   1      46.731  24.156  26.836  1.00  0.00     0.029 A 
ATOM     20  N   UNL A   1      46.473  26.249  27.543  1.00  0.00    -0.354 N 
ATOM     21  C   UNL A   1      42.538  27.752  28.665  1.00  0.00     0.074 A 
ATOM     22  C   UNL A   1      41.660  26.643  28.966  1.00  0.00     0.031 C 
ATOM     23  C   UNL A   1      47.950  24.698  26.892  1.00  0.00     0.029 A 
ATOM     24  C   UNL A   1      47.804  26.101  27.219  1.00  0.00     0.049 A 
ATOM     25  H   UNL A   1      46.090  27.088  27.887  1.00  0.00     0.167 HD
ATOM     26  C   UNL A   1      42.217  29.062  28.798  1.00  0.00     0.031 A 
ATOM     27  C   UNL A   1      48.790  27.007  27.090  1.00  0.00     0.031 A 
ATOM     28  C   UNL A   1      43.151  30.127  28.531  1.00  0.00     0.049 A 
ATOM     29  C   UNL A   1      48.418  28.448  27.246  1.00  0.00     0.074 A 
ATOM     30  C   UNL A   1      42.952  31.494  28.577  1.00  0.00     0.029 A 
ATOM     31  N   UNL A   1      44.486  29.928  28.195  1.00  0.00    -0.354 N 
ATOM     32  N   UNL A   1      47.248  28.963  27.545  1.00  0.00    -0.248 NA
ATOM     33  C   UNL A   1      49.477  29.430  27.002  1.00  0.00     0.031 C 
ATOM     34  C   UNL A   1      44.162  32.120  28.248  1.00  0.00     0.029 A 
ATOM     35  C   UNL A   1      45.126  31.143  28.046  1.00  0.00     0.049 A 
ATOM     36  H   UNL A   1      44.913  29.048  28.081  1.00  0.00     0.167 HD
ATOM     37  C   UNL A   1      47.431  30.336  27.534  1.00  0.00     0.074 A 
ATOM     38  C   UNL A   1      48.831  30.566  27.222  1.00  0.00     0.031 C 
ATOM     39  C   UNL A   1      46.525  31.321  27.750  1.00  0.00     0.031 A 
BRANCH  26  40
ATOM     40  C   UNL A   1      40.788  29.399  29.143  1.00  0.00    -0.014 A 
ATOM     41  C   UNL A   1      39.733  29.222  28.231  1.00  0.00     0.010 A 
ATOM     42  C   UNL A   1      40.503  29.938  30.412  1.00  0.00     0.010 A 
ATOM     43  C   UNL A   1      38.436  29.637  28.558  1.00  0.00     0.020 A 
ATOM     44  C   UNL A   1      39.205  30.330  30.753  1.00  0.00     0.020 A 
ATOM     45  C   UNL A   1      38.184  30.204  29.812  1.00  0.00     0.054 A 
BRANCH  45  46
ATOM     46  S   UNL A   1      36.504  30.772  30.199  1.00  0.00     0.124 S 
ATOM     47  O   UNL A   1      36.749  32.133  30.667  1.00  0.00    -0.237 OA
ATOM     48  O   UNL A   1      35.822  30.666  28.911  1.00  0.00    -0.237 OA
ATOM     49  O   UNL A   1      36.046  29.834  31.220  1.00  0.00    -0.744 OA
ENDBRANCH  45  46
ENDBRANCH  26  40
BRANCH  27  50
ATOM     50  C   UNL A   1      50.165  26.579  26.703  1.00  0.00    -0.014 A 
ATOM     51  C   UNL A   1      50.547  26.559  25.352  1.00  0.00     0.010 A 
ATOM     52  C   UNL A   1      51.118  26.236  27.683  1.00  0.00     0.010 A 
ATOM     53  C   UNL A   1      51.850  26.203  24.986  1.00  0.00     0.020 A 
ATOM     54  C   UNL A   1      52.432  25.918  27.326  1.00  0.00     0.020 A 
ATOM     55  C   UNL A   1      52.786  25.890  25.976  1.00  0.00     0.054 A 
BRANCH  55  56
ATOM     56  S   UNL A   1      54.486  25.489  25.484  1.00  0.00     0.124 S 
ATOM     57  O   UNL A   1      55.266  26.178  26.506  1.00  0.00    -0.237 OA
ATOM     58  O   UNL A   1      54.501  24.030  25.553  1.00  0.00    -0.237 OA
ATOM     59  O   UNL A   1      54.590  26.041  24.135  1.00  0.00    -0.744 OA
ENDBRANCH  55  56
ENDBRANCH  27  50
BRANCH  39  60
ATOM     60  C   UNL A   1      47.056  32.723  27.727  1.00  0.00    -0.014 A 
ATOM     61  C   UNL A   1      47.024  33.497  26.556  1.00  0.00     0.010 A 
ATOM     62  C   UNL A   1      47.578  33.270  28.911  1.00  0.00     0.010 A 
ATOM     63  C   UNL A   1      47.539  34.794  26.562  1.00  0.00     0.020 A 
ATOM     64  C   UNL A   1      48.071  34.574  28.927  1.00  0.00     0.020 A 
ATOM     65  C   UNL A   1      48.063  35.321  27.748  1.00  0.00     0.054 A 
BRANCH  65  66
ATOM     66  S   UNL A   1      48.692  37.020  27.746  1.00  0.00     0.124 S 
ATOM     67  O   UNL A   1      50.039  36.843  28.283  1.00  0.00    -0.237 OA
ATOM     68  O   UNL A   1      48.620  37.390  26.335  1.00  0.00    -0.237 OA
ATOM     69  O   UNL A   1      47.761  37.733  28.618  1.00  0.00    -0.744 OA
ENDBRANCH  65  66
ENDBRANCH  39  60
ENDBRANCH  13  14
ENDBRANCH   6   8
ENDBRANCH   5   6
ENDBRANCH   4   5
ENDBRANCH   3   4
ENDBRANCH   2   3
ENDBRANCH   1   2
BRANCH   1  70
ATOM     70  C   UNL A   1      36.448  23.303  24.562  1.00  0.00     0.261 C 
BRANCH  70  71
ATOM     71  O   UNL A   1      35.058  22.824  24.623  1.00  0.00    -0.463 OA
BRANCH  71  72
ATOM     72  C   UNL A   1      34.190  23.594  25.366  1.00  0.00     0.310 C 
ATOM     73  O   UNL A   1      34.296  23.698  26.585  1.00  0.00    -0.252 OA
BRANCH  72  74
ATOM     74  C   UNL A   1      32.962  24.140  24.579  1.00  0.00     0.119 C 
ATOM     75  C   UNL A   1      31.876  25.320  24.745  1.00  0.00     0.100 C 
ATOM     76  C   UNL A   1      32.008  22.915  24.336  1.00  0.00     0.027 C 
ATOM     77  C   UNL A   1      30.525  24.566  24.525  1.00  0.00     0.025 C 
ATOM     78  C   UNL A   1      31.200  22.659  25.589  1.00  0.00    -0.027 C 
ATOM     79  C   UNL A   1      30.911  23.535  23.472  1.00  0.00     0.017 C 
ATOM     80  C   UNL A   1      30.299  23.642  25.693  1.00  0.00    -0.027 C 
BRANCH  75  81
ATOM     81  C   UNL A   1      31.475  26.538  25.641  1.00  0.00     0.229 C 
ATOM     82  O   UNL A   1      31.553  26.391  26.872  1.00  0.00    -0.274 OA
ATOM     83  N   UNL A   1      31.179  27.803  25.230  1.00  0.00    -0.323 N 
ATOM     84  H   UNL A   1      31.396  28.522  25.867  1.00  0.00     0.170 HD
BRANCH  83  85
ATOM     85  C   UNL A   1      30.609  28.211  24.029  1.00  0.00     0.084 A 
ATOM     86  C   UNL A   1      29.276  27.918  23.732  1.00  0.00     0.030 A 
ATOM     87  C   UNL A   1      31.360  28.934  23.133  1.00  0.00     0.149 A 
ATOM     88  C   UNL A   1      28.638  28.581  22.676  1.00  0.00     0.002 A 
ATOM     89  C   UNL A   1      30.693  29.707  22.176  1.00  0.00     0.049 A 
ATOM     90  C   UNL A   1      29.331  29.538  21.946  1.00  0.00     0.004 A 
BRANCH  87  91
ATOM     91  O   UNL A   1      32.719  28.973  23.177  1.00  0.00    -0.433 OA
BRANCH  91  92
ATOM     92  C   UNL A   1      33.564  27.940  22.651  1.00  0.00     0.542 C 
ATOM     93  F   UNL A   1      34.108  27.195  23.634  1.00  0.00    -0.167 F 
ATOM     94  F   UNL A   1      32.776  27.118  21.912  1.00  0.00    -0.167 F 
ENDBRANCH  91  92
ENDBRANCH  87  91
ENDBRANCH  83  85
ENDBRANCH  75  81
ENDBRANCH  72  74
ENDBRANCH  71  72
ENDBRANCH  70  71
ENDBRANCH   1  70
TORSDOF 21
ENDMDL
