MODEL 1
REMARK VINA RESULT:      -9.9      0.000      0.000
REMARK SMILES O=C(Cc1cn2ccsc2n1)N[C@@H]1C=C[C@H](C(=O)OCCOCCOC(=O)c2ccc(-c3c4nc(c(-c5ccc(S(=O)(=O)[O-])cc5)c5ccc([nH]5)c(-c5ccc(S(=O)(=O)[O-])cc5)c5nc(c(-c6ccc(S(=O)(=O)[O-])cc6)c6ccc3[nH]6)C=C5)C=C4)cc2)C1
REMARK SMILES IDX 22 1 21 2 20 3 19 4 17 5 18 6 16 7 13 8 14 9 88 10 15 11
REMARK SMILES IDX 12 12 1 13 2 14 3 16 4 17 5 18 11 19 6 20 10 21 7 22 9 23
REMARK SMILES IDX 8 24 23 25 24 26 25 27 26 28 27 29 28 30 29 31 87 32 30 33
REMARK SMILES IDX 86 34 31 35 32 36 33 37 80 38 34 39 85 40 79 41 81 42 35 43
REMARK SMILES IDX 84 44 78 45 77 46 36 48 66 49 47 50 65 51 48 52 51 53 64 54
REMARK SMILES IDX 82 55 49 56 50 57 63 59 83 60 52 61 37 62 38 63 46 64 39 65
REMARK SMILES IDX 45 66 40 67 41 68 42 69 43 70 44 71 67 72 68 73 76 74 69 75
REMARK SMILES IDX 75 76 70 77 71 78 72 79 73 80 74 81 53 82 54 83 62 84 55 85
REMARK SMILES IDX 61 86 56 87 57 88 58 89 59 90 60 91
REMARK H PARENT 12 15 81 47 51 58
REMARK Flexibility Score: inf
ROOT
ATOM      1  O   UNL A   1      33.811  30.505  27.396  1.00  0.00    -0.374 OA
ENDROOT
BRANCH   1   2
ATOM      2  C   UNL A   1      33.092  29.431  26.786  1.00  0.00     0.202 C 
BRANCH   2   3
ATOM      3  C   UNL A   1      33.950  28.323  26.173  1.00  0.00     0.261 C 
BRANCH   3   4
ATOM      4  O   UNL A   1      33.117  27.253  25.699  1.00  0.00    -0.463 OA
BRANCH   4   5
ATOM      5  C   UNL A   1      32.473  27.491  24.526  1.00  0.00     0.312 C 
ATOM      6  O   UNL A   1      33.014  27.663  23.440  1.00  0.00    -0.252 OA
BRANCH   5   7
ATOM      7  C   UNL A   1      30.961  27.452  24.731  1.00  0.00     0.124 C 
ATOM      8  C   UNL A   1      30.389  25.155  25.338  1.00  0.00     0.106 C 
ATOM      9  C   UNL A   1      29.993  25.478  23.930  1.00  0.00    -0.006 C 
ATOM     10  C   UNL A   1      30.609  26.555  25.933  1.00  0.00     0.048 C 
ATOM     11  C   UNL A   1      30.295  26.739  23.597  1.00  0.00    -0.014 C 
BRANCH   8  12
ATOM     12  N   UNL A   1      31.616  24.397  25.295  1.00  0.00    -0.350 N 
ATOM     13  O   UNL A   1      31.518  23.580  27.434  1.00  0.00    -0.275 OA
ATOM     14  C   UNL A   1      32.091  23.655  26.349  1.00  0.00     0.226 C 
ATOM     15  H   UNL A   1      32.143  24.414  24.464  1.00  0.00     0.164 HD
BRANCH  14  16
ATOM     16  C   UNL A   1      33.416  22.965  26.082  1.00  0.00     0.157 C 
BRANCH  16  17
ATOM     17  C   UNL A   1      33.252  21.680  25.350  1.00  0.00     0.070 A 
ATOM     18  C   UNL A   1      32.305  21.323  24.395  1.00  0.00     0.118 A 
ATOM     19  N   UNL A   1      34.117  20.622  25.608  1.00  0.00    -0.223 NA
ATOM     20  N   UNL A   1      32.630  20.048  24.047  1.00  0.00    -0.297 N 
ATOM     21  C   UNL A   1      33.707  19.687  24.796  1.00  0.00     0.193 A 
ATOM     22  C   UNL A   1      32.162  19.092  23.176  1.00  0.00     0.104 A 
ATOM     23  S   UNL A   1      34.203  18.064  24.436  1.00  0.00    -0.105 S 
ATOM     24  C   UNL A   1      32.891  17.964  23.247  1.00  0.00     0.087 A 
ENDBRANCH  16  17
ENDBRANCH  14  16
ENDBRANCH   8  12
ENDBRANCH   5   7
ENDBRANCH   4   5
ENDBRANCH   3   4
ENDBRANCH   2   3
ENDBRANCH   1   2
BRANCH   1  25
ATOM     25  C   UNL A   1      35.205  30.312  27.637  1.00  0.00     0.202 C 
BRANCH  25  26
ATOM     26  C   UNL A   1      35.597  29.784  29.022  1.00  0.00     0.261 C 
BRANCH  26  27
ATOM     27  O   UNL A   1      36.029  30.840  29.900  1.00  0.00    -0.460 OA
BRANCH  27  28
ATOM     28  C   UNL A   1      36.755  30.428  30.965  1.00  0.00     0.338 C 
ATOM     29  O   UNL A   1      36.324  30.053  32.049  1.00  0.00    -0.246 OA
BRANCH  28  30
ATOM     30  C   UNL A   1      38.177  30.303  30.600  1.00  0.00     0.060 A 
ATOM     31  C   UNL A   1      38.536  30.643  29.290  1.00  0.00     0.016 A 
ATOM     32  C   UNL A   1      39.128  29.788  31.484  1.00  0.00     0.016 A 
ATOM     33  C   UNL A   1      39.833  30.414  28.839  1.00  0.00     0.010 A 
ATOM     34  C   UNL A   1      40.430  29.550  31.027  1.00  0.00     0.010 A 
ATOM     35  C   UNL A   1      40.776  29.824  29.691  1.00  0.00    -0.014 A 
BRANCH  35  36
ATOM     36  C   UNL A   1      42.066  29.358  29.127  1.00  0.00     0.031 A 
ATOM     37  C   UNL A   1      43.214  30.327  29.033  1.00  0.00     0.074 A 
ATOM     38  C   UNL A   1      42.230  28.077  28.751  1.00  0.00     0.049 A 
ATOM     39  N   UNL A   1      44.432  30.128  28.602  1.00  0.00    -0.248 NA
ATOM     40  C   UNL A   1      42.954  31.703  29.488  1.00  0.00     0.031 C 
ATOM     41  C   UNL A   1      41.207  27.035  28.827  1.00  0.00     0.029 A 
ATOM     42  N   UNL A   1      43.327  27.435  28.233  1.00  0.00    -0.354 N 
ATOM     43  C   UNL A   1      45.083  31.350  28.728  1.00  0.00     0.074 A 
ATOM     44  C   UNL A   1      44.116  32.292  29.247  1.00  0.00     0.031 C 
ATOM     45  C   UNL A   1      41.725  25.882  28.369  1.00  0.00     0.029 A 
ATOM     46  C   UNL A   1      43.106  26.110  27.945  1.00  0.00     0.049 A 
ATOM     47  H   UNL A   1      44.191  27.882  28.082  1.00  0.00     0.167 HD
ATOM     48  C   UNL A   1      46.370  31.660  28.444  1.00  0.00     0.031 A 
ATOM     49  C   UNL A   1      43.918  25.188  27.392  1.00  0.00     0.031 A 
ATOM     50  C   UNL A   1      47.328  30.726  27.917  1.00  0.00     0.049 A 
ATOM     51  C   UNL A   1      45.330  25.570  27.032  1.00  0.00     0.074 A 
ATOM     52  C   UNL A   1      48.661  30.939  27.611  1.00  0.00     0.029 A 
ATOM     53  N   UNL A   1      47.054  29.402  27.609  1.00  0.00    -0.354 N 
ATOM     54  N   UNL A   1      45.937  26.722  27.186  1.00  0.00    -0.248 NA
ATOM     55  C   UNL A   1      46.170  24.521  26.436  1.00  0.00     0.031 C 
ATOM     56  C   UNL A   1      49.181  29.758  27.071  1.00  0.00     0.029 A 
ATOM     57  C   UNL A   1      48.186  28.793  27.093  1.00  0.00     0.049 A 
ATOM     58  H   UNL A   1      46.185  28.960  27.738  1.00  0.00     0.167 HD
ATOM     59  C   UNL A   1      47.238  26.530  26.730  1.00  0.00     0.074 A 
ATOM     60  C   UNL A   1      47.332  25.147  26.307  1.00  0.00     0.031 C 
ATOM     61  C   UNL A   1      48.263  27.416  26.672  1.00  0.00     0.031 A 
BRANCH  48  62
ATOM     62  C   UNL A   1      46.806  33.083  28.668  1.00  0.00    -0.014 A 
ATOM     63  C   UNL A   1      47.362  33.492  29.895  1.00  0.00     0.010 A 
ATOM     64  C   UNL A   1      46.685  34.020  27.626  1.00  0.00     0.010 A 
ATOM     65  C   UNL A   1      47.749  34.821  30.088  1.00  0.00     0.020 A 
ATOM     66  C   UNL A   1      47.095  35.344  27.806  1.00  0.00     0.020 A 
ATOM     67  C   UNL A   1      47.607  35.740  29.043  1.00  0.00     0.054 A 
BRANCH  67  68
ATOM     68  S   UNL A   1      48.130  37.456  29.314  1.00  0.00     0.124 S 
ATOM     69  O   UNL A   1      47.022  38.203  28.723  1.00  0.00    -0.237 OA
ATOM     70  O   UNL A   1      48.235  37.534  30.768  1.00  0.00    -0.237 OA
ATOM     71  O   UNL A   1      49.398  37.550  28.594  1.00  0.00    -0.744 OA
ENDBRANCH  67  68
ENDBRANCH  48  62
BRANCH  49  72
ATOM     72  C   UNL A   1      43.411  23.814  27.134  1.00  0.00    -0.014 A 
ATOM     73  C   UNL A   1      43.381  22.852  28.159  1.00  0.00     0.010 A 
ATOM     74  C   UNL A   1      42.945  23.464  25.853  1.00  0.00     0.010 A 
ATOM     75  C   UNL A   1      42.904  21.562  27.904  1.00  0.00     0.020 A 
ATOM     76  C   UNL A   1      42.444  22.184  25.602  1.00  0.00     0.020 A 
ATOM     77  C   UNL A   1      42.436  21.237  26.627  1.00  0.00     0.054 A 
BRANCH  77  78
ATOM     78  S   UNL A   1      41.765  19.577  26.333  1.00  0.00     0.124 S 
ATOM     79  O   UNL A   1      40.343  19.852  26.158  1.00  0.00    -0.237 OA
ATOM     80  O   UNL A   1      42.482  19.155  25.132  1.00  0.00    -0.237 OA
ATOM     81  O   UNL A   1      42.118  18.846  27.548  1.00  0.00    -0.744 OA
ENDBRANCH  77  78
ENDBRANCH  49  72
BRANCH  61  82
ATOM     82  C   UNL A   1      49.588  26.913  26.162  1.00  0.00    -0.014 A 
ATOM     83  C   UNL A   1      49.994  27.140  24.836  1.00  0.00     0.010 A 
ATOM     84  C   UNL A   1      50.462  26.246  27.041  1.00  0.00     0.010 A 
ATOM     85  C   UNL A   1      51.235  26.679  24.388  1.00  0.00     0.020 A 
ATOM     86  C   UNL A   1      51.714  25.808  26.606  1.00  0.00     0.020 A 
ATOM     87  C   UNL A   1      52.087  26.014  25.275  1.00  0.00     0.054 A 
BRANCH  87  88
ATOM     88  S   UNL A   1      53.708  25.457  24.683  1.00  0.00     0.124 S 
ATOM     89  O   UNL A   1      53.757  26.036  23.344  1.00  0.00    -0.237 OA
ATOM     90  O   UNL A   1      54.626  26.045  25.655  1.00  0.00    -0.237 OA
ATOM     91  O   UNL A   1      53.612  23.999  24.729  1.00  0.00    -0.744 OA
ENDBRANCH  87  88
ENDBRANCH  61  82
ENDBRANCH  35  36
ENDBRANCH  28  30
ENDBRANCH  27  28
ENDBRANCH  26  27
ENDBRANCH  25  26
ENDBRANCH   1  25
TORSDOF 20
ENDMDL
MODEL 2
REMARK VINA RESULT:      -9.4      1.790      3.367
REMARK SMILES O=C(Cc1cn2ccsc2n1)N[C@@H]1C=C[C@H](C(=O)OCCOCCOC(=O)c2ccc(-c3c4nc(c(-c5ccc(S(=O)(=O)[O-])cc5)c5ccc([nH]5)c(-c5ccc(S(=O)(=O)[O-])cc5)c5nc(c(-c6ccc(S(=O)(=O)[O-])cc6)c6ccc3[nH]6)C=C5)C=C4)cc2)C1
REMARK SMILES IDX 22 1 21 2 20 3 19 4 17 5 18 6 16 7 13 8 14 9 88 10 15 11
REMARK SMILES IDX 12 12 1 13 2 14 3 16 4 17 5 18 11 19 6 20 10 21 7 22 9 23
REMARK SMILES IDX 8 24 23 25 24 26 25 27 26 28 27 29 28 30 29 31 87 32 30 33
REMARK SMILES IDX 86 34 31 35 32 36 33 37 80 38 34 39 85 40 79 41 81 42 35 43
REMARK SMILES IDX 84 44 78 45 77 46 36 48 66 49 47 50 65 51 48 52 51 53 64 54
REMARK SMILES IDX 82 55 49 56 50 57 63 59 83 60 52 61 37 62 38 63 46 64 39 65
REMARK SMILES IDX 45 66 40 67 41 68 42 69 43 70 44 71 67 72 68 73 76 74 69 75
REMARK SMILES IDX 75 76 70 77 71 78 72 79 73 80 74 81 53 82 54 83 62 84 55 85
REMARK SMILES IDX 61 86 56 87 57 88 58 89 59 90 60 91
REMARK H PARENT 12 15 81 47 51 58
REMARK Flexibility Score: inf
ROOT
ATOM      1  O   UNL A   1      34.287  30.291  27.091  1.00  0.00    -0.374 OA
ENDROOT
BRANCH   1   2
ATOM      2  C   UNL A   1      33.365  29.279  26.682  1.00  0.00     0.202 C 
BRANCH   2   3
ATOM      3  C   UNL A   1      33.894  27.844  26.723  1.00  0.00     0.261 C 
BRANCH   3   4
ATOM      4  O   UNL A   1      33.101  26.996  25.879  1.00  0.00    -0.463 OA
BRANCH   4   5
ATOM      5  C   UNL A   1      31.942  26.544  26.429  1.00  0.00     0.312 C 
ATOM      6  O   UNL A   1      30.939  27.220  26.628  1.00  0.00    -0.252 OA
BRANCH   5   7
ATOM      7  C   UNL A   1      32.034  25.047  26.710  1.00  0.00     0.124 C 
ATOM      8  C   UNL A   1      32.390  23.945  24.558  1.00  0.00     0.106 C 
ATOM      9  C   UNL A   1      30.992  23.754  25.060  1.00  0.00    -0.006 C 
ATOM     10  C   UNL A   1      33.122  24.405  25.828  1.00  0.00     0.048 C 
ATOM     11  C   UNL A   1      30.796  24.348  26.245  1.00  0.00    -0.014 C 
BRANCH   8  12
ATOM     12  N   UNL A   1      32.368  24.980  23.553  1.00  0.00    -0.350 N 
ATOM     13  O   UNL A   1      34.303  24.379  22.484  1.00  0.00    -0.275 OA
ATOM     14  C   UNL A   1      33.326  25.119  22.580  1.00  0.00     0.226 C 
ATOM     15  H   UNL A   1      31.623  25.623  23.567  1.00  0.00     0.164 HD
BRANCH  14  16
ATOM     16  C   UNL A   1      33.109  26.297  21.650  1.00  0.00     0.157 C 
BRANCH  16  17
ATOM     17  C   UNL A   1      32.121  27.273  22.187  1.00  0.00     0.070 A 
ATOM     18  C   UNL A   1      32.340  28.451  22.894  1.00  0.00     0.118 A 
ATOM     19  N   UNL A   1      30.760  27.043  22.018  1.00  0.00    -0.223 NA
ATOM     20  N   UNL A   1      31.095  28.955  23.118  1.00  0.00    -0.297 N 
ATOM     21  C   UNL A   1      30.203  28.081  22.579  1.00  0.00     0.193 A 
ATOM     22  C   UNL A   1      30.553  30.065  23.722  1.00  0.00     0.104 A 
ATOM     23  S   UNL A   1      28.573  28.625  22.816  1.00  0.00    -0.105 S 
ATOM     24  C   UNL A   1      29.209  30.056  23.650  1.00  0.00     0.087 A 
ENDBRANCH  16  17
ENDBRANCH  14  16
ENDBRANCH   8  12
ENDBRANCH   5   7
ENDBRANCH   4   5
ENDBRANCH   3   4
ENDBRANCH   2   3
ENDBRANCH   1   2
BRANCH   1  25
ATOM     25  C   UNL A   1      35.547  29.863  27.611  1.00  0.00     0.202 C 
BRANCH  25  26
ATOM     26  C   UNL A   1      35.642  29.694  29.132  1.00  0.00     0.261 C 
BRANCH  26  27
ATOM     27  O   UNL A   1      36.029  30.916  29.788  1.00  0.00    -0.460 OA
BRANCH  27  28
ATOM     28  C   UNL A   1      36.771  30.745  30.907  1.00  0.00     0.338 C 
ATOM     29  O   UNL A   1      36.355  30.597  32.050  1.00  0.00    -0.246 OA
BRANCH  28  30
ATOM     30  C   UNL A   1      38.192  30.570  30.559  1.00  0.00     0.060 A 
ATOM     31  C   UNL A   1      38.593  30.966  29.277  1.00  0.00     0.016 A 
ATOM     32  C   UNL A   1      39.099  29.959  31.428  1.00  0.00     0.016 A 
ATOM     33  C   UNL A   1      39.886  30.698  28.836  1.00  0.00     0.010 A 
ATOM     34  C   UNL A   1      40.396  29.682  30.980  1.00  0.00     0.010 A 
ATOM     35  C   UNL A   1      40.781  30.014  29.668  1.00  0.00    -0.014 A 
BRANCH  35  36
ATOM     36  C   UNL A   1      42.058  29.516  29.100  1.00  0.00     0.031 A 
ATOM     37  C   UNL A   1      43.227  30.459  28.995  1.00  0.00     0.074 A 
ATOM     38  C   UNL A   1      42.192  28.230  28.731  1.00  0.00     0.049 A 
ATOM     39  N   UNL A   1      44.438  30.231  28.559  1.00  0.00    -0.248 NA
ATOM     40  C   UNL A   1      43.000  31.843  29.444  1.00  0.00     0.031 C 
ATOM     41  C   UNL A   1      41.147  27.211  28.818  1.00  0.00     0.029 A 
ATOM     42  N   UNL A   1      43.272  27.561  28.211  1.00  0.00    -0.354 N 
ATOM     43  C   UNL A   1      45.116  31.439  28.675  1.00  0.00     0.074 A 
ATOM     44  C   UNL A   1      44.172  32.405  29.194  1.00  0.00     0.031 C 
ATOM     45  C   UNL A   1      41.637  26.044  28.364  1.00  0.00     0.029 A 
ATOM     46  C   UNL A   1      43.020  26.240  27.932  1.00  0.00     0.049 A 
ATOM     47  H   UNL A   1      44.145  27.988  28.053  1.00  0.00     0.167 HD
ATOM     48  C   UNL A   1      46.409  31.719  28.382  1.00  0.00     0.031 A 
ATOM     49  C   UNL A   1      43.809  25.297  27.379  1.00  0.00     0.031 A 
ATOM     50  C   UNL A   1      47.342  30.761  27.855  1.00  0.00     0.049 A 
ATOM     51  C   UNL A   1      45.227  25.645  27.010  1.00  0.00     0.074 A 
ATOM     52  C   UNL A   1      48.679  30.943  27.542  1.00  0.00     0.029 A 
ATOM     53  N   UNL A   1      47.038  29.442  27.556  1.00  0.00    -0.354 N 
ATOM     54  N   UNL A   1      45.860  26.785  27.154  1.00  0.00    -0.248 NA
ATOM     55  C   UNL A   1      46.040  24.575  26.415  1.00  0.00     0.031 C 
ATOM     56  C   UNL A   1      49.169  29.748  27.005  1.00  0.00     0.029 A 
ATOM     57  C   UNL A   1      48.154  28.805  27.038  1.00  0.00     0.049 A 
ATOM     58  H   UNL A   1      46.160  29.020  27.692  1.00  0.00     0.167 HD
ATOM     59  C   UNL A   1      47.154  26.562  26.693  1.00  0.00     0.074 A 
ATOM     60  C   UNL A   1      47.215  25.175  26.277  1.00  0.00     0.031 C 
ATOM     61  C   UNL A   1      48.197  27.425  26.624  1.00  0.00     0.031 A 
BRANCH  48  62
ATOM     62  C   UNL A   1      46.877  33.134  28.596  1.00  0.00    -0.014 A 
ATOM     63  C   UNL A   1      46.761  34.103  27.581  1.00  0.00     0.010 A 
ATOM     64  C   UNL A   1      47.416  33.506  29.840  1.00  0.00     0.010 A 
ATOM     65  C   UNL A   1      47.213  35.407  27.795  1.00  0.00     0.020 A 
ATOM     66  C   UNL A   1      47.846  34.817  30.066  1.00  0.00     0.020 A 
ATOM     67  C   UNL A   1      47.759  35.755  29.036  1.00  0.00     0.054 A 
BRANCH  67  68
ATOM     68  S   UNL A   1      48.326  37.459  29.293  1.00  0.00     0.124 S 
ATOM     69  O   UNL A   1      49.640  37.436  28.655  1.00  0.00    -0.237 OA
ATOM     70  O   UNL A   1      47.307  38.244  28.602  1.00  0.00    -0.237 OA
ATOM     71  O   UNL A   1      48.342  37.603  30.746  1.00  0.00    -0.744 OA
ENDBRANCH  67  68
ENDBRANCH  48  62
BRANCH  49  72
ATOM     72  C   UNL A   1      43.270  23.933  27.132  1.00  0.00    -0.014 A 
ATOM     73  C   UNL A   1      42.474  23.665  26.005  1.00  0.00     0.010 A 
ATOM     74  C   UNL A   1      43.562  22.887  28.028  1.00  0.00     0.010 A 
ATOM     75  C   UNL A   1      41.970  22.380  25.783  1.00  0.00     0.020 A 
ATOM     76  C   UNL A   1      43.082  21.595  27.795  1.00  0.00     0.020 A 
ATOM     77  C   UNL A   1      42.280  21.352  26.679  1.00  0.00     0.054 A 
BRANCH  77  78
ATOM     78  S   UNL A   1      41.668  19.678  26.342  1.00  0.00     0.124 S 
ATOM     79  O   UNL A   1      40.272  19.927  26.001  1.00  0.00    -0.237 OA
ATOM     80  O   UNL A   1      42.523  19.245  25.238  1.00  0.00    -0.237 OA
ATOM     81  O   UNL A   1      41.890  18.973  27.602  1.00  0.00    -0.744 OA
ENDBRANCH  77  78
ENDBRANCH  49  72
BRANCH  61  82
ATOM     82  C   UNL A   1      49.508  26.889  26.110  1.00  0.00    -0.014 A 
ATOM     83  C   UNL A   1      49.908  27.093  24.778  1.00  0.00     0.010 A 
ATOM     84  C   UNL A   1      50.376  26.216  26.991  1.00  0.00     0.010 A 
ATOM     85  C   UNL A   1      51.137  26.603  24.327  1.00  0.00     0.020 A 
ATOM     86  C   UNL A   1      51.616  25.748  26.551  1.00  0.00     0.020 A 
ATOM     87  C   UNL A   1      51.982  25.931  25.216  1.00  0.00     0.054 A 
BRANCH  87  88
ATOM     88  S   UNL A   1      53.588  25.335  24.617  1.00  0.00     0.124 S 
ATOM     89  O   UNL A   1      54.517  26.022  25.509  1.00  0.00    -0.237 OA
ATOM     90  O   UNL A   1      53.487  23.890  24.808  1.00  0.00    -0.237 OA
ATOM     91  O   UNL A   1      53.622  25.773  23.223  1.00  0.00    -0.744 OA
ENDBRANCH  87  88
ENDBRANCH  61  82
ENDBRANCH  35  36
ENDBRANCH  28  30
ENDBRANCH  27  28
ENDBRANCH  26  27
ENDBRANCH  25  26
ENDBRANCH   1  25
TORSDOF 20
ENDMDL
MODEL 3
REMARK VINA RESULT:      -9.3      7.264     13.430
REMARK SMILES O=C(Cc1cn2ccsc2n1)N[C@@H]1C=C[C@H](C(=O)OCCOCCOC(=O)c2ccc(-c3c4nc(c(-c5ccc(S(=O)(=O)[O-])cc5)c5ccc([nH]5)c(-c5ccc(S(=O)(=O)[O-])cc5)c5nc(c(-c6ccc(S(=O)(=O)[O-])cc6)c6ccc3[nH]6)C=C5)C=C4)cc2)C1
REMARK SMILES IDX 22 1 21 2 20 3 19 4 17 5 18 6 16 7 13 8 14 9 88 10 15 11
REMARK SMILES IDX 12 12 1 13 2 14 3 16 4 17 5 18 11 19 6 20 10 21 7 22 9 23
REMARK SMILES IDX 8 24 23 25 24 26 25 27 26 28 27 29 28 30 29 31 87 32 30 33
REMARK SMILES IDX 86 34 31 35 32 36 33 37 80 38 34 39 85 40 79 41 81 42 35 43
REMARK SMILES IDX 84 44 78 45 77 46 36 48 66 49 47 50 65 51 48 52 51 53 64 54
REMARK SMILES IDX 82 55 49 56 50 57 63 59 83 60 52 61 37 62 38 63 46 64 39 65
REMARK SMILES IDX 45 66 40 67 41 68 42 69 43 70 44 71 67 72 68 73 76 74 69 75
REMARK SMILES IDX 75 76 70 77 71 78 72 79 73 80 74 81 53 82 54 83 62 84 55 85
REMARK SMILES IDX 61 86 56 87 57 88 58 89 59 90 60 91
REMARK H PARENT 12 15 81 47 51 58
REMARK Flexibility Score: inf
ROOT
ATOM      1  O   UNL A   1      43.468  40.296  25.685  1.00  0.00    -0.374 OA
ENDROOT
BRANCH   1   2
ATOM      2  C   UNL A   1      42.261  41.057  25.762  1.00  0.00     0.202 C 
BRANCH   2   3
ATOM      3  C   UNL A   1      41.799  41.703  24.455  1.00  0.00     0.261 C 
BRANCH   3   4
ATOM      4  O   UNL A   1      42.922  41.940  23.592  1.00  0.00    -0.463 OA
BRANCH   4   5
ATOM      5  C   UNL A   1      43.109  43.235  23.221  1.00  0.00     0.312 C 
ATOM      6  O   UNL A   1      42.621  43.768  22.231  1.00  0.00    -0.252 OA
BRANCH   5   7
ATOM      7  C   UNL A   1      43.967  43.966  24.250  1.00  0.00     0.124 C 
ATOM      8  C   UNL A   1      45.887  44.881  23.048  1.00  0.00     0.106 C 
ATOM      9  C   UNL A   1      46.260  43.688  23.874  1.00  0.00    -0.006 C 
ATOM     10  C   UNL A   1      44.527  45.269  23.648  1.00  0.00     0.048 C 
ATOM     11  C   UNL A   1      45.212  43.190  24.543  1.00  0.00    -0.014 C 
BRANCH   8  12
ATOM     12  N   UNL A   1      45.759  44.453  21.676  1.00  0.00    -0.350 N 
ATOM     13  O   UNL A   1      47.713  45.373  20.909  1.00  0.00    -0.275 OA
ATOM     14  C   UNL A   1      46.689  44.725  20.702  1.00  0.00     0.226 C 
ATOM     15  H   UNL A   1      44.960  43.938  21.423  1.00  0.00     0.164 HD
BRANCH  14  16
ATOM     16  C   UNL A   1      46.328  44.198  19.326  1.00  0.00     0.157 C 
BRANCH  16  17
ATOM     17  C   UNL A   1      45.172  44.919  18.725  1.00  0.00     0.070 A 
ATOM     18  C   UNL A   1      43.825  44.574  18.716  1.00  0.00     0.118 A 
ATOM     19  N   UNL A   1      45.382  46.110  18.038  1.00  0.00    -0.223 NA
ATOM     20  N   UNL A   1      43.212  45.591  18.050  1.00  0.00    -0.297 N 
ATOM     21  C   UNL A   1      44.182  46.468  17.674  1.00  0.00     0.193 A 
ATOM     22  C   UNL A   1      41.929  45.927  17.685  1.00  0.00     0.104 A 
ATOM     23  S   UNL A   1      43.508  47.809  16.803  1.00  0.00    -0.105 S 
ATOM     24  C   UNL A   1      41.899  47.091  17.012  1.00  0.00     0.087 A 
ENDBRANCH  16  17
ENDBRANCH  14  16
ENDBRANCH   8  12
ENDBRANCH   5   7
ENDBRANCH   4   5
ENDBRANCH   3   4
ENDBRANCH   2   3
ENDBRANCH   1   2
BRANCH   1  25
ATOM     25  C   UNL A   1      43.793  39.462  26.798  1.00  0.00     0.202 C 
BRANCH  25  26
ATOM     26  C   UNL A   1      42.712  38.479  27.261  1.00  0.00     0.261 C 
BRANCH  26  27
ATOM     27  O   UNL A   1      42.739  37.253  26.507  1.00  0.00    -0.460 OA
BRANCH  27  28
ATOM     28  C   UNL A   1      42.192  36.188  27.139  1.00  0.00     0.338 C 
ATOM     29  O   UNL A   1      41.098  36.143  27.689  1.00  0.00    -0.246 OA
BRANCH  28  30
ATOM     30  C   UNL A   1      43.016  34.986  26.928  1.00  0.00     0.060 A 
ATOM     31  C   UNL A   1      43.424  34.279  28.066  1.00  0.00     0.016 A 
ATOM     32  C   UNL A   1      43.453  34.599  25.659  1.00  0.00     0.016 A 
ATOM     33  C   UNL A   1      44.319  33.219  27.946  1.00  0.00     0.010 A 
ATOM     34  C   UNL A   1      44.359  33.538  25.541  1.00  0.00     0.010 A 
ATOM     35  C   UNL A   1      44.827  32.872  26.688  1.00  0.00    -0.014 A 
BRANCH  35  36
ATOM     36  C   UNL A   1      45.960  31.917  26.606  1.00  0.00     0.031 A 
ATOM     37  C   UNL A   1      47.366  32.455  26.574  1.00  0.00     0.074 A 
ATOM     38  C   UNL A   1      45.744  30.590  26.612  1.00  0.00     0.049 A 
ATOM     39  N   UNL A   1      48.499  31.805  26.532  1.00  0.00    -0.248 NA
ATOM     40  C   UNL A   1      47.513  33.920  26.595  1.00  0.00     0.031 C 
ATOM     41  C   UNL A   1      44.432  29.947  26.677  1.00  0.00     0.029 A 
ATOM     42  N   UNL A   1      46.631  29.544  26.566  1.00  0.00    -0.354 N 
ATOM     43  C   UNL A   1      49.493  32.777  26.516  1.00  0.00     0.074 A 
ATOM     44  C   UNL A   1      48.827  34.062  26.522  1.00  0.00     0.031 C 
ATOM     45  C   UNL A   1      44.600  28.613  26.665  1.00  0.00     0.029 A 
ATOM     46  C   UNL A   1      46.027  28.310  26.567  1.00  0.00     0.049 A 
ATOM     47  H   UNL A   1      47.607  29.666  26.537  1.00  0.00     0.167 HD
ATOM     48  C   UNL A   1      50.838  32.618  26.504  1.00  0.00     0.031 A 
ATOM     49  C   UNL A   1      46.562  27.075  26.485  1.00  0.00     0.031 A 
ATOM     50  C   UNL A   1      51.499  31.340  26.487  1.00  0.00     0.049 A 
ATOM     51  C   UNL A   1      48.059  26.922  26.416  1.00  0.00     0.074 A 
ATOM     52  C   UNL A   1      52.857  31.073  26.491  1.00  0.00     0.029 A 
ATOM     53  N   UNL A   1      50.851  30.115  26.455  1.00  0.00    -0.354 N 
ATOM     54  N   UNL A   1      48.984  27.852  26.432  1.00  0.00    -0.248 NA
ATOM     55  C   UNL A   1      48.583  25.551  26.332  1.00  0.00     0.031 C 
ATOM     56  C   UNL A   1      53.031  29.688  26.409  1.00  0.00     0.029 A 
ATOM     57  C   UNL A   1      51.781  29.089  26.413  1.00  0.00     0.049 A 
ATOM     58  H   UNL A   1      49.875  29.992  26.461  1.00  0.00     0.167 HD
ATOM     59  C   UNL A   1      50.201  27.178  26.387  1.00  0.00     0.074 A 
ATOM     60  C   UNL A   1      49.893  25.762  26.356  1.00  0.00     0.031 C 
ATOM     61  C   UNL A   1      51.458  27.685  26.377  1.00  0.00     0.031 A 
BRANCH  48  62
ATOM     62  C   UNL A   1      51.684  33.862  26.476  1.00  0.00    -0.014 A 
ATOM     63  C   UNL A   1      52.098  34.436  25.259  1.00  0.00     0.010 A 
ATOM     64  C   UNL A   1      52.048  34.484  27.684  1.00  0.00     0.010 A 
ATOM     65  C   UNL A   1      52.893  35.585  25.253  1.00  0.00     0.020 A 
ATOM     66  C   UNL A   1      52.822  35.647  27.682  1.00  0.00     0.020 A 
ATOM     67  C   UNL A   1      53.255  36.180  26.466  1.00  0.00     0.054 A 
BRANCH  67  68
ATOM     68  S   UNL A   1      54.277  37.679  26.432  1.00  0.00     0.124 S 
ATOM     69  O   UNL A   1      55.591  37.137  26.096  1.00  0.00    -0.237 OA
ATOM     70  O   UNL A   1      53.641  38.477  25.387  1.00  0.00    -0.237 OA
ATOM     71  O   UNL A   1      54.152  38.215  27.785  1.00  0.00    -0.744 OA
ENDBRANCH  67  68
ENDBRANCH  48  62
BRANCH  49  72
ATOM     72  C   UNL A   1      45.672  25.884  26.451  1.00  0.00    -0.014 A 
ATOM     73  C   UNL A   1      45.253  25.263  27.641  1.00  0.00     0.010 A 
ATOM     74  C   UNL A   1      45.231  25.368  25.218  1.00  0.00     0.010 A 
ATOM     75  C   UNL A   1      44.418  24.142  27.598  1.00  0.00     0.020 A 
ATOM     76  C   UNL A   1      44.376  24.264  25.173  1.00  0.00     0.020 A 
ATOM     77  C   UNL A   1      43.983  23.650  26.363  1.00  0.00     0.054 A 
BRANCH  77  78
ATOM     78  S   UNL A   1      42.852  22.233  26.330  1.00  0.00     0.124 S 
ATOM     79  O   UNL A   1      43.461  21.382  25.315  1.00  0.00    -0.237 OA
ATOM     80  O   UNL A   1      42.926  21.736  27.703  1.00  0.00    -0.237 OA
ATOM     81  O   UNL A   1      41.569  22.828  25.962  1.00  0.00    -0.744 OA
ENDBRANCH  77  78
ENDBRANCH  49  72
BRANCH  61  82
ATOM     82  C   UNL A   1      52.601  26.704  26.364  1.00  0.00    -0.014 A 
ATOM     83  C   UNL A   1      52.921  25.970  25.208  1.00  0.00     0.010 A 
ATOM     84  C   UNL A   1      53.400  26.554  27.513  1.00  0.00     0.010 A 
ATOM     85  C   UNL A   1      53.997  25.078  25.213  1.00  0.00     0.020 A 
ATOM     86  C   UNL A   1      54.493  25.685  27.513  1.00  0.00     0.020 A 
ATOM     87  C   UNL A   1      54.775  24.939  26.366  1.00  0.00     0.054 A 
BRANCH  87  88
ATOM     88  S   UNL A   1      56.189  23.803  26.338  1.00  0.00     0.124 S 
ATOM     89  O   UNL A   1      56.789  24.098  25.040  1.00  0.00    -0.237 OA
ATOM     90  O   UNL A   1      56.967  24.228  27.500  1.00  0.00    -0.237 OA
ATOM     91  O   UNL A   1      55.575  22.482  26.456  1.00  0.00    -0.744 OA
ENDBRANCH  87  88
ENDBRANCH  61  82
ENDBRANCH  35  36
ENDBRANCH  28  30
ENDBRANCH  27  28
ENDBRANCH  26  27
ENDBRANCH  25  26
ENDBRANCH   1  25
TORSDOF 20
ENDMDL
