MODEL 1
REMARK VINA RESULT:      -9.5      0.000      0.000
REMARK SMILES CCC[C@H](NC(=O)Cn1cccc1C(=O)OCCOCCOC(=O)c1ccc(-c2c3nc(c(-c4ccc(S(=O)(=O)[O-])cc4)c4ccc([nH]4)c(-c4ccc(S(=O)(=O)[O-])cc4)c4nc(c(-c5ccc(S(=O)(=O)[O-])cc5)c5ccc2[nH]5)C=C4)C=C3)cc1)c1cccs1
REMARK SMILES IDX 18 1 17 2 16 3 14 4 15 5 13 6 9 7 10 8 11 9 12 10 8 11 6 12
REMARK SMILES IDX 5 13 7 15 4 16 3 17 2 18 1 19 85 20 86 21 89 22 87 23 88 24
REMARK SMILES IDX 19 25 20 26 21 27 22 28 23 29 24 30 25 31 26 32 84 33 27 34
REMARK SMILES IDX 83 35 28 36 29 37 30 38 77 39 31 40 82 41 76 42 78 43 32 44
REMARK SMILES IDX 81 45 75 46 74 47 33 49 63 50 44 51 62 52 45 53 48 54 61 55
REMARK SMILES IDX 79 56 46 57 47 58 60 60 80 61 49 62 34 63 35 64 43 65 36 66
REMARK SMILES IDX 42 67 37 68 38 69 39 70 40 71 41 72 64 73 65 74 73 75 66 76
REMARK SMILES IDX 72 77 67 78 68 79 69 80 70 81 71 82 50 83 51 84 59 85 52 86
REMARK SMILES IDX 58 87 53 88 54 89 55 90 56 91 57 92
REMARK H PARENT 5 14 78 48 48 59
REMARK Flexibility Score: inf
ROOT
ATOM      1  C   UNL A   1      36.613  21.331  24.727  1.00  0.00     0.202 C 
ENDROOT
BRANCH   1   2
ATOM      2  C   UNL A   1      35.654  21.665  25.858  1.00  0.00     0.261 C 
BRANCH   2   3
ATOM      3  O   UNL A   1      34.443  20.872  25.816  1.00  0.00    -0.459 OA
BRANCH   3   4
ATOM      4  C   UNL A   1      33.327  21.518  26.254  1.00  0.00     0.355 C 
ATOM      5  O   UNL A   1      32.968  21.549  27.432  1.00  0.00    -0.244 OA
BRANCH   4   6
ATOM      6  C   UNL A   1      32.647  22.234  25.200  1.00  0.00     0.128 A 
ATOM      7  N   UNL A   1      32.341  23.583  25.075  1.00  0.00    -0.333 N 
ATOM      8  C   UNL A   1      31.819  23.815  23.817  1.00  0.00     0.087 A 
ATOM      9  C   UNL A   1      31.744  22.623  23.143  1.00  0.00     0.020 A 
ATOM     10  C   UNL A   1      32.264  21.637  24.001  1.00  0.00     0.035 A 
BRANCH   7  11
ATOM     11  C   UNL A   1      32.419  24.645  26.075  1.00  0.00     0.222 C 
BRANCH  11  12
ATOM     12  C   UNL A   1      31.071  25.147  26.589  1.00  0.00     0.240 C 
ATOM     13  N   UNL A   1      30.845  26.490  26.768  1.00  0.00    -0.347 N 
ATOM     14  H   UNL A   1      30.084  26.739  27.340  1.00  0.00     0.164 HD
ATOM     15  O   UNL A   1      30.168  24.367  26.903  1.00  0.00    -0.273 OA
BRANCH  13  16
ATOM     16  C   UNL A   1      31.612  27.574  26.200  1.00  0.00     0.122 C 
BRANCH  16  17
ATOM     17  C   UNL A   1      32.840  27.967  27.036  1.00  0.00     0.030 C 
BRANCH  17  18
ATOM     18  C   UNL A   1      33.299  29.418  27.149  1.00  0.00    -0.001 C 
ATOM     19  C   UNL A   1      34.800  29.591  27.287  1.00  0.00     0.004 C 
ENDBRANCH  17  18
ENDBRANCH  16  17
BRANCH  16  20
ATOM     20  C   UNL A   1      31.717  27.501  24.697  1.00  0.00     0.027 A 
ATOM     21  C   UNL A   1      32.797  27.505  23.835  1.00  0.00     0.017 A 
ATOM     22  S   UNL A   1      30.242  27.462  23.778  1.00  0.00    -0.147 S 
ATOM     23  C   UNL A   1      32.419  27.596  22.459  1.00  0.00     0.012 A 
ATOM     24  C   UNL A   1      31.057  27.583  22.291  1.00  0.00     0.065 A 
ENDBRANCH  16  20
ENDBRANCH  13  16
ENDBRANCH  11  12
ENDBRANCH   7  11
ENDBRANCH   4   6
ENDBRANCH   3   4
ENDBRANCH   2   3
ENDBRANCH   1   2
BRANCH   1  25
ATOM     25  O   UNL A   1      37.965  21.116  25.121  1.00  0.00    -0.374 OA
BRANCH  25  26
ATOM     26  C   UNL A   1      38.581  22.106  25.932  1.00  0.00     0.202 C 
BRANCH  26  27
ATOM     27  C   UNL A   1      39.930  21.763  26.561  1.00  0.00     0.261 C 
BRANCH  27  28
ATOM     28  O   UNL A   1      40.165  20.382  26.830  1.00  0.00    -0.460 OA
BRANCH  28  29
ATOM     29  C   UNL A   1      41.323  19.945  26.280  1.00  0.00     0.338 C 
ATOM     30  O   UNL A   1      41.531  18.863  25.750  1.00  0.00    -0.246 OA
BRANCH  29  31
ATOM     31  C   UNL A   1      42.412  20.881  26.554  1.00  0.00     0.060 A 
ATOM     32  C   UNL A   1      42.658  21.210  27.891  1.00  0.00     0.016 A 
ATOM     33  C   UNL A   1      42.887  21.665  25.497  1.00  0.00     0.016 A 
ATOM     34  C   UNL A   1      43.281  22.411  28.177  1.00  0.00     0.010 A 
ATOM     35  C   UNL A   1      43.469  22.885  25.784  1.00  0.00     0.010 A 
ATOM     36  C   UNL A   1      43.610  23.273  27.123  1.00  0.00    -0.014 A 
BRANCH  36  37
ATOM     37  C   UNL A   1      44.022  24.649  27.447  1.00  0.00     0.031 A 
ATOM     38  C   UNL A   1      42.866  25.566  27.769  1.00  0.00     0.074 A 
ATOM     39  C   UNL A   1      45.358  24.907  27.346  1.00  0.00     0.049 A 
ATOM     40  N   UNL A   1      42.763  26.845  27.580  1.00  0.00    -0.248 NA
ATOM     41  C   UNL A   1      41.605  24.973  28.280  1.00  0.00     0.031 C 
ATOM     42  C   UNL A   1      46.373  23.889  26.994  1.00  0.00     0.029 A 
ATOM     43  N   UNL A   1      46.135  26.034  27.500  1.00  0.00    -0.354 N 
ATOM     44  C   UNL A   1      41.502  27.230  28.064  1.00  0.00     0.074 A 
ATOM     45  C   UNL A   1      40.794  26.026  28.385  1.00  0.00     0.031 C 
ATOM     46  C   UNL A   1      47.596  24.446  26.905  1.00  0.00     0.029 A 
ATOM     47  C   UNL A   1      47.504  25.863  27.194  1.00  0.00     0.049 A 
ATOM     48  H   UNL A   1      45.763  26.895  27.800  1.00  0.00     0.167 HD
ATOM     49  C   UNL A   1      41.139  28.523  28.284  1.00  0.00     0.031 A 
ATOM     50  C   UNL A   1      48.499  26.797  27.130  1.00  0.00     0.031 A 
ATOM     51  C   UNL A   1      42.180  29.434  27.934  1.00  0.00     0.049 A 
ATOM     52  C   UNL A   1      47.905  28.091  27.524  1.00  0.00     0.074 A 
ATOM     53  C   UNL A   1      42.666  29.929  26.752  1.00  0.00     0.029 A 
ATOM     54  N   UNL A   1      43.061  29.773  28.934  1.00  0.00    -0.354 N 
ATOM     55  N   UNL A   1      47.501  28.407  28.717  1.00  0.00    -0.248 NA
ATOM     56  C   UNL A   1      47.667  29.105  26.488  1.00  0.00     0.031 C 
ATOM     57  C   UNL A   1      44.028  30.225  27.014  1.00  0.00     0.029 A 
ATOM     58  C   UNL A   1      44.300  29.918  28.349  1.00  0.00     0.049 A 
ATOM     59  H   UNL A   1      42.847  29.889  29.888  1.00  0.00     0.167 HD
ATOM     60  C   UNL A   1      46.654  29.468  28.497  1.00  0.00     0.074 A 
ATOM     61  C   UNL A   1      47.003  30.010  27.204  1.00  0.00     0.031 C 
ATOM     62  C   UNL A   1      45.455  29.524  29.131  1.00  0.00     0.031 A 
BRANCH  49  63
ATOM     63  C   UNL A   1      39.947  29.057  29.022  1.00  0.00    -0.014 A 
ATOM     64  C   UNL A   1      39.048  29.877  28.301  1.00  0.00     0.010 A 
ATOM     65  C   UNL A   1      39.827  29.025  30.420  1.00  0.00     0.010 A 
ATOM     66  C   UNL A   1      38.137  30.709  28.952  1.00  0.00     0.020 A 
ATOM     67  C   UNL A   1      38.887  29.833  31.080  1.00  0.00     0.020 A 
ATOM     68  C   UNL A   1      38.086  30.705  30.343  1.00  0.00     0.054 A 
BRANCH  68  69
ATOM     69  S   UNL A   1      37.016  31.909  31.172  1.00  0.00     0.124 S 
ATOM     70  O   UNL A   1      37.746  32.163  32.411  1.00  0.00    -0.237 OA
ATOM     71  O   UNL A   1      36.988  33.021  30.223  1.00  0.00    -0.237 OA
ATOM     72  O   UNL A   1      35.749  31.197  31.320  1.00  0.00    -0.744 OA
ENDBRANCH  68  69
ENDBRANCH  49  63
BRANCH  50  73
ATOM     73  C   UNL A   1      49.922  26.815  26.628  1.00  0.00    -0.014 A 
ATOM     74  C   UNL A   1      51.067  26.948  27.426  1.00  0.00     0.010 A 
ATOM     75  C   UNL A   1      50.158  26.551  25.252  1.00  0.00     0.010 A 
ATOM     76  C   UNL A   1      52.358  26.697  26.915  1.00  0.00     0.020 A 
ATOM     77  C   UNL A   1      51.427  26.258  24.741  1.00  0.00     0.020 A 
ATOM     78  C   UNL A   1      52.524  26.308  25.586  1.00  0.00     0.054 A 
BRANCH  78  79
ATOM     79  S   UNL A   1      54.134  25.733  24.981  1.00  0.00     0.124 S 
ATOM     80  O   UNL A   1      53.969  24.283  24.985  1.00  0.00    -0.237 OA
ATOM     81  O   UNL A   1      54.233  26.352  23.661  1.00  0.00    -0.237 OA
ATOM     82  O   UNL A   1      55.067  26.263  25.975  1.00  0.00    -0.744 OA
ENDBRANCH  78  79
ENDBRANCH  50  73
BRANCH  62  83
ATOM     83  C   UNL A   1      45.379  28.702  30.408  1.00  0.00    -0.014 A 
ATOM     84  C   UNL A   1      46.052  29.118  31.568  1.00  0.00     0.010 A 
ATOM     85  C   UNL A   1      44.725  27.456  30.445  1.00  0.00     0.010 A 
ATOM     86  C   UNL A   1      46.073  28.314  32.720  1.00  0.00     0.020 A 
ATOM     87  C   UNL A   1      44.731  26.648  31.590  1.00  0.00     0.020 A 
ATOM     88  C   UNL A   1      45.413  27.081  32.722  1.00  0.00     0.054 A 
BRANCH  88  89
ATOM     89  S   UNL A   1      45.491  26.039  34.208  1.00  0.00     0.124 S 
ATOM     90  O   UNL A   1      46.766  25.347  34.051  1.00  0.00    -0.237 OA
ATOM     91  O   UNL A   1      45.441  27.024  35.286  1.00  0.00    -0.237 OA
ATOM     92  O   UNL A   1      44.310  25.182  34.098  1.00  0.00    -0.744 OA
ENDBRANCH  88  89
ENDBRANCH  62  83
ENDBRANCH  36  37
ENDBRANCH  29  31
ENDBRANCH  28  29
ENDBRANCH  27  28
ENDBRANCH  26  27
ENDBRANCH  25  26
ENDBRANCH   1  25
TORSDOF 23
ENDMDL
MODEL 2
REMARK VINA RESULT:      -9.5      5.082     11.196
REMARK SMILES CCC[C@H](NC(=O)Cn1cccc1C(=O)OCCOCCOC(=O)c1ccc(-c2c3nc(c(-c4ccc(S(=O)(=O)[O-])cc4)c4ccc([nH]4)c(-c4ccc(S(=O)(=O)[O-])cc4)c4nc(c(-c5ccc(S(=O)(=O)[O-])cc5)c5ccc2[nH]5)C=C4)C=C3)cc1)c1cccs1
REMARK SMILES IDX 18 1 17 2 16 3 14 4 15 5 13 6 9 7 10 8 11 9 12 10 8 11 6 12
REMARK SMILES IDX 5 13 7 15 4 16 3 17 2 18 1 19 85 20 86 21 89 22 87 23 88 24
REMARK SMILES IDX 19 25 20 26 21 27 22 28 23 29 24 30 25 31 26 32 84 33 27 34
REMARK SMILES IDX 83 35 28 36 29 37 30 38 77 39 31 40 82 41 76 42 78 43 32 44
REMARK SMILES IDX 81 45 75 46 74 47 33 49 63 50 44 51 62 52 45 53 48 54 61 55
REMARK SMILES IDX 79 56 46 57 47 58 60 60 80 61 49 62 34 63 35 64 43 65 36 66
REMARK SMILES IDX 42 67 37 68 38 69 39 70 40 71 41 72 64 73 65 74 73 75 66 76
REMARK SMILES IDX 72 77 67 78 68 79 69 80 70 81 71 82 50 83 51 84 59 85 52 86
REMARK SMILES IDX 58 87 53 88 54 89 55 90 56 91 57 92
REMARK H PARENT 5 14 78 48 48 59
REMARK Flexibility Score: inf
ROOT
ATOM      1  C   UNL A   1      31.548  28.654  26.430  1.00  0.00     0.202 C 
ENDROOT
BRANCH   1   2
ATOM      2  C   UNL A   1      31.547  27.412  25.555  1.00  0.00     0.261 C 
BRANCH   2   3
ATOM      3  O   UNL A   1      32.290  26.315  26.141  1.00  0.00    -0.459 OA
BRANCH   3   4
ATOM      4  C   UNL A   1      31.776  25.081  25.882  1.00  0.00     0.355 C 
ATOM      5  O   UNL A   1      30.819  24.594  26.488  1.00  0.00    -0.244 OA
BRANCH   4   6
ATOM      6  C   UNL A   1      32.422  24.429  24.766  1.00  0.00     0.128 A 
ATOM      7  N   UNL A   1      32.489  23.086  24.420  1.00  0.00    -0.333 N 
ATOM      8  C   UNL A   1      33.089  22.968  23.181  1.00  0.00     0.087 A 
ATOM      9  C   UNL A   1      33.450  24.217  22.743  1.00  0.00     0.020 A 
ATOM     10  C   UNL A   1      33.031  25.129  23.728  1.00  0.00     0.035 A 
BRANCH   7  11
ATOM     11  C   UNL A   1      32.113  21.910  25.200  1.00  0.00     0.222 C 
BRANCH  11  12
ATOM     12  C   UNL A   1      33.035  21.596  26.376  1.00  0.00     0.240 C 
ATOM     13  N   UNL A   1      34.043  20.670  26.250  1.00  0.00    -0.347 N 
ATOM     14  H   UNL A   1      34.423  20.314  27.085  1.00  0.00     0.164 HD
ATOM     15  O   UNL A   1      32.876  22.123  27.481  1.00  0.00    -0.273 OA
BRANCH  13  16
ATOM     16  C   UNL A   1      34.599  20.169  25.016  1.00  0.00     0.122 C 
BRANCH  16  17
ATOM     17  C   UNL A   1      36.008  20.699  24.710  1.00  0.00     0.030 C 
BRANCH  17  18
ATOM     18  C   UNL A   1      36.425  22.120  25.078  1.00  0.00    -0.001 C 
ATOM     19  C   UNL A   1      37.886  22.265  25.461  1.00  0.00     0.004 C 
ENDBRANCH  17  18
ENDBRANCH  16  17
BRANCH  16  20
ATOM     20  C   UNL A   1      34.270  18.718  24.764  1.00  0.00     0.027 A 
ATOM     21  C   UNL A   1      35.025  17.655  24.311  1.00  0.00     0.017 A 
ATOM     22  S   UNL A   1      32.629  18.200  25.009  1.00  0.00    -0.147 S 
ATOM     23  C   UNL A   1      34.250  16.481  24.056  1.00  0.00     0.012 A 
ATOM     24  C   UNL A   1      32.930  16.645  24.393  1.00  0.00     0.065 A 
ENDBRANCH  16  20
ENDBRANCH  13  16
ENDBRANCH  11  12
ENDBRANCH   7  11
ENDBRANCH   4   6
ENDBRANCH   3   4
ENDBRANCH   2   3
ENDBRANCH   1   2
BRANCH   1  25
ATOM     25  O   UNL A   1      32.506  29.647  26.075  1.00  0.00    -0.374 OA
BRANCH  25  26
ATOM     26  C   UNL A   1      33.659  29.773  26.896  1.00  0.00     0.202 C 
BRANCH  26  27
ATOM     27  C   UNL A   1      34.126  31.185  27.245  1.00  0.00     0.261 C 
BRANCH  27  28
ATOM     28  O   UNL A   1      33.313  31.905  28.171  1.00  0.00    -0.460 OA
BRANCH  28  29
ATOM     29  C   UNL A   1      33.678  33.206  28.266  1.00  0.00     0.338 C 
ATOM     30  O   UNL A   1      33.354  34.123  27.526  1.00  0.00    -0.246 OA
BRANCH  29  31
ATOM     31  C   UNL A   1      34.699  33.383  29.298  1.00  0.00     0.060 A 
ATOM     32  C   UNL A   1      35.842  34.111  28.956  1.00  0.00     0.016 A 
ATOM     33  C   UNL A   1      34.664  32.533  30.409  1.00  0.00     0.016 A 
ATOM     34  C   UNL A   1      37.010  33.888  29.663  1.00  0.00     0.010 A 
ATOM     35  C   UNL A   1      35.841  32.277  31.086  1.00  0.00     0.010 A 
ATOM     36  C   UNL A   1      37.017  32.914  30.671  1.00  0.00    -0.014 A 
BRANCH  36  37
ATOM     37  C   UNL A   1      38.314  32.496  31.230  1.00  0.00     0.031 A 
ATOM     38  C   UNL A   1      38.923  31.309  30.522  1.00  0.00     0.074 A 
ATOM     39  C   UNL A   1      38.736  33.187  32.327  1.00  0.00     0.049 A 
ATOM     40  N   UNL A   1      39.696  30.384  30.998  1.00  0.00    -0.248 NA
ATOM     41  C   UNL A   1      38.545  31.049  29.109  1.00  0.00     0.031 C 
ATOM     42  C   UNL A   1      38.003  34.328  32.920  1.00  0.00     0.029 A 
ATOM     43  N   UNL A   1      39.824  33.089  33.166  1.00  0.00    -0.354 N 
ATOM     44  C   UNL A   1      40.005  29.520  29.936  1.00  0.00     0.074 A 
ATOM     45  C   UNL A   1      39.188  29.917  28.826  1.00  0.00     0.031 C 
ATOM     46  C   UNL A   1      38.623  34.768  34.031  1.00  0.00     0.029 A 
ATOM     47  C   UNL A   1      39.812  33.973  34.268  1.00  0.00     0.049 A 
ATOM     48  H   UNL A   1      40.557  32.450  33.009  1.00  0.00     0.167 HD
ATOM     49  C   UNL A   1      40.997  28.590  29.981  1.00  0.00     0.031 A 
ATOM     50  C   UNL A   1      40.667  34.043  35.331  1.00  0.00     0.031 A 
ATOM     51  C   UNL A   1      41.659  28.581  31.244  1.00  0.00     0.049 A 
ATOM     52  C   UNL A   1      41.723  33.033  35.105  1.00  0.00     0.074 A 
ATOM     53  C   UNL A   1      41.350  28.092  32.487  1.00  0.00     0.029 A 
ATOM     54  N   UNL A   1      42.759  29.397  31.367  1.00  0.00    -0.354 N 
ATOM     55  N   UNL A   1      42.641  33.091  34.189  1.00  0.00    -0.248 NA
ATOM     56  C   UNL A   1      41.719  31.811  35.920  1.00  0.00     0.031 C 
ATOM     57  C   UNL A   1      42.044  28.934  33.392  1.00  0.00     0.029 A 
ATOM     58  C   UNL A   1      42.761  29.881  32.657  1.00  0.00     0.049 A 
ATOM     59  H   UNL A   1      43.420  29.597  30.665  1.00  0.00     0.167 HD
ATOM     60  C   UNL A   1      43.068  31.788  34.083  1.00  0.00     0.074 A 
ATOM     61  C   UNL A   1      42.689  31.131  35.314  1.00  0.00     0.031 C 
ATOM     62  C   UNL A   1      43.252  31.229  32.860  1.00  0.00     0.031 A 
BRANCH  49  63
ATOM     63  C   UNL A   1      41.595  27.792  28.859  1.00  0.00    -0.014 A 
ATOM     64  C   UNL A   1      41.465  26.385  28.921  1.00  0.00     0.010 A 
ATOM     65  C   UNL A   1      42.498  28.326  27.928  1.00  0.00     0.010 A 
ATOM     66  C   UNL A   1      42.275  25.543  28.158  1.00  0.00     0.020 A 
ATOM     67  C   UNL A   1      43.291  27.486  27.131  1.00  0.00     0.020 A 
ATOM     68  C   UNL A   1      43.209  26.102  27.290  1.00  0.00     0.054 A 
BRANCH  68  69
ATOM     69  S   UNL A   1      44.362  24.998  26.434  1.00  0.00     0.124 S 
ATOM     70  O   UNL A   1      43.952  23.686  26.928  1.00  0.00    -0.237 OA
ATOM     71  O   UNL A   1      44.070  25.257  25.026  1.00  0.00    -0.237 OA
ATOM     72  O   UNL A   1      45.674  25.459  26.883  1.00  0.00    -0.744 OA
ENDBRANCH  68  69
ENDBRANCH  49  63
BRANCH  50  73
ATOM     73  C   UNL A   1      40.675  34.763  36.657  1.00  0.00    -0.014 A 
ATOM     74  C   UNL A   1      41.753  35.484  37.189  1.00  0.00     0.010 A 
ATOM     75  C   UNL A   1      39.460  34.841  37.392  1.00  0.00     0.010 A 
ATOM     76  C   UNL A   1      41.596  36.337  38.301  1.00  0.00     0.020 A 
ATOM     77  C   UNL A   1      39.278  35.715  38.469  1.00  0.00     0.020 A 
ATOM     78  C   UNL A   1      40.347  36.482  38.905  1.00  0.00     0.054 A 
BRANCH  78  79
ATOM     79  S   UNL A   1      40.065  37.759  40.162  1.00  0.00     0.124 S 
ATOM     80  O   UNL A   1      41.128  38.717  39.877  1.00  0.00    -0.237 OA
ATOM     81  O   UNL A   1      38.709  38.217  39.871  1.00  0.00    -0.237 OA
ATOM     82  O   UNL A   1      40.203  37.020  41.417  1.00  0.00    -0.744 OA
ENDBRANCH  78  79
ENDBRANCH  50  73
BRANCH  62  83
ATOM     83  C   UNL A   1      43.482  32.231  31.739  1.00  0.00    -0.014 A 
ATOM     84  C   UNL A   1      44.752  32.790  31.527  1.00  0.00     0.010 A 
ATOM     85  C   UNL A   1      42.419  32.707  30.947  1.00  0.00     0.010 A 
ATOM     86  C   UNL A   1      44.950  33.791  30.562  1.00  0.00     0.020 A 
ATOM     87  C   UNL A   1      42.604  33.699  29.976  1.00  0.00     0.020 A 
ATOM     88  C   UNL A   1      43.873  34.242  29.793  1.00  0.00     0.054 A 
BRANCH  88  89
ATOM     89  S   UNL A   1      44.143  35.569  28.582  1.00  0.00     0.124 S 
ATOM     90  O   UNL A   1      45.328  36.244  29.103  1.00  0.00    -0.237 OA
ATOM     91  O   UNL A   1      44.342  34.825  27.340  1.00  0.00    -0.237 OA
ATOM     92  O   UNL A   1      42.911  36.355  28.642  1.00  0.00    -0.744 OA
ENDBRANCH  88  89
ENDBRANCH  62  83
ENDBRANCH  36  37
ENDBRANCH  29  31
ENDBRANCH  28  29
ENDBRANCH  27  28
ENDBRANCH  26  27
ENDBRANCH  25  26
ENDBRANCH   1  25
TORSDOF 23
ENDMDL
MODEL 3
REMARK VINA RESULT:      -9.4      4.211     10.359
REMARK SMILES CCC[C@H](NC(=O)Cn1cccc1C(=O)OCCOCCOC(=O)c1ccc(-c2c3nc(c(-c4ccc(S(=O)(=O)[O-])cc4)c4ccc([nH]4)c(-c4ccc(S(=O)(=O)[O-])cc4)c4nc(c(-c5ccc(S(=O)(=O)[O-])cc5)c5ccc2[nH]5)C=C4)C=C3)cc1)c1cccs1
REMARK SMILES IDX 18 1 17 2 16 3 14 4 15 5 13 6 9 7 10 8 11 9 12 10 8 11 6 12
REMARK SMILES IDX 5 13 7 15 4 16 3 17 2 18 1 19 85 20 86 21 89 22 87 23 88 24
REMARK SMILES IDX 19 25 20 26 21 27 22 28 23 29 24 30 25 31 26 32 84 33 27 34
REMARK SMILES IDX 83 35 28 36 29 37 30 38 77 39 31 40 82 41 76 42 78 43 32 44
REMARK SMILES IDX 81 45 75 46 74 47 33 49 63 50 44 51 62 52 45 53 48 54 61 55
REMARK SMILES IDX 79 56 46 57 47 58 60 60 80 61 49 62 34 63 35 64 43 65 36 66
REMARK SMILES IDX 42 67 37 68 38 69 39 70 40 71 41 72 64 73 65 74 73 75 66 76
REMARK SMILES IDX 72 77 67 78 68 79 69 80 70 81 71 82 50 83 51 84 59 85 52 86
REMARK SMILES IDX 58 87 53 88 54 89 55 90 56 91 57 92
REMARK H PARENT 5 14 78 48 48 59
REMARK Flexibility Score: inf
ROOT
ATOM      1  C   UNL A   1      37.528  22.574  25.883  1.00  0.00     0.202 C 
ENDROOT
BRANCH   1   2
ATOM      2  C   UNL A   1      36.719  22.829  24.622  1.00  0.00     0.261 C 
BRANCH   2   3
ATOM      3  O   UNL A   1      35.456  23.485  24.890  1.00  0.00    -0.459 OA
BRANCH   3   4
ATOM      4  C   UNL A   1      34.356  22.724  24.634  1.00  0.00     0.355 C 
ATOM      5  O   UNL A   1      34.390  21.644  24.042  1.00  0.00    -0.244 OA
BRANCH   4   6
ATOM      6  C   UNL A   1      33.149  23.279  25.201  1.00  0.00     0.128 A 
ATOM      7  N   UNL A   1      31.945  23.624  24.601  1.00  0.00    -0.333 N 
ATOM      8  C   UNL A   1      31.034  23.972  25.580  1.00  0.00     0.087 A 
ATOM      9  C   UNL A   1      31.650  23.898  26.803  1.00  0.00     0.020 A 
ATOM     10  C   UNL A   1      32.967  23.461  26.569  1.00  0.00     0.035 A 
BRANCH   7  11
ATOM     11  C   UNL A   1      31.618  23.735  23.182  1.00  0.00     0.222 C 
BRANCH  11  12
ATOM     12  C   UNL A   1      32.670  24.444  22.331  1.00  0.00     0.240 C 
ATOM     13  N   UNL A   1      32.868  25.799  22.446  1.00  0.00    -0.347 N 
ATOM     14  H   UNL A   1      33.348  26.240  21.708  1.00  0.00     0.164 HD
ATOM     15  O   UNL A   1      33.335  23.837  21.488  1.00  0.00    -0.273 OA
BRANCH  13  16
ATOM     16  C   UNL A   1      32.442  26.640  23.539  1.00  0.00     0.122 C 
BRANCH  16  17
ATOM     17  C   UNL A   1      33.598  27.150  24.415  1.00  0.00     0.030 C 
BRANCH  17  18
ATOM     18  C   UNL A   1      33.426  27.374  25.914  1.00  0.00    -0.001 C 
ATOM     19  C   UNL A   1      31.986  27.554  26.359  1.00  0.00     0.004 C 
ENDBRANCH  17  18
ENDBRANCH  16  17
BRANCH  16  20
ATOM     20  C   UNL A   1      31.314  27.570  23.167  1.00  0.00     0.027 A 
ATOM     21  C   UNL A   1      31.291  28.853  22.659  1.00  0.00     0.017 A 
ATOM     22  S   UNL A   1      29.686  27.031  23.454  1.00  0.00    -0.147 S 
ATOM     23  C   UNL A   1      29.979  29.421  22.621  1.00  0.00     0.012 A 
ATOM     24  C   UNL A   1      29.015  28.533  23.029  1.00  0.00     0.065 A 
ENDBRANCH  16  20
ENDBRANCH  13  16
ENDBRANCH  11  12
ENDBRANCH   7  11
ENDBRANCH   4   6
ENDBRANCH   3   4
ENDBRANCH   2   3
ENDBRANCH   1   2
BRANCH   1  25
ATOM     25  O   UNL A   1      38.940  22.683  25.732  1.00  0.00    -0.374 OA
BRANCH  25  26
ATOM     26  C   UNL A   1      39.723  22.789  26.913  1.00  0.00     0.202 C 
BRANCH  26  27
ATOM     27  C   UNL A   1      41.183  23.208  26.756  1.00  0.00     0.261 C 
BRANCH  27  28
ATOM     28  O   UNL A   1      41.515  24.517  27.214  1.00  0.00    -0.460 OA
BRANCH  28  29
ATOM     29  C   UNL A   1      41.052  25.481  26.384  1.00  0.00     0.338 C 
ATOM     30  O   UNL A   1      41.175  25.536  25.169  1.00  0.00    -0.246 OA
BRANCH  29  31
ATOM     31  C   UNL A   1      40.510  26.605  27.146  1.00  0.00     0.060 A 
ATOM     32  C   UNL A   1      40.735  27.892  26.646  1.00  0.00     0.016 A 
ATOM     33  C   UNL A   1      40.139  26.379  28.476  1.00  0.00     0.016 A 
ATOM     34  C   UNL A   1      40.713  28.959  27.524  1.00  0.00     0.010 A 
ATOM     35  C   UNL A   1      40.162  27.440  29.361  1.00  0.00     0.010 A 
ATOM     36  C   UNL A   1      40.505  28.713  28.888  1.00  0.00    -0.014 A 
BRANCH  36  37
ATOM     37  C   UNL A   1      40.748  29.808  29.842  1.00  0.00     0.031 A 
ATOM     38  C   UNL A   1      42.092  29.726  30.526  1.00  0.00     0.074 A 
ATOM     39  C   UNL A   1      39.716  30.684  30.014  1.00  0.00     0.049 A 
ATOM     40  N   UNL A   1      42.429  30.132  31.711  1.00  0.00    -0.248 NA
ATOM     41  C   UNL A   1      43.197  29.004  29.846  1.00  0.00     0.031 C 
ATOM     42  C   UNL A   1      38.439  30.614  29.271  1.00  0.00     0.029 A 
ATOM     43  N   UNL A   1      39.509  31.780  30.823  1.00  0.00    -0.354 N 
ATOM     44  C   UNL A   1      43.794  29.843  31.869  1.00  0.00     0.074 A 
ATOM     45  C   UNL A   1      44.188  29.058  30.736  1.00  0.00     0.031 C 
ATOM     46  C   UNL A   1      37.586  31.566  29.696  1.00  0.00     0.029 A 
ATOM     47  C   UNL A   1      38.218  32.347  30.741  1.00  0.00     0.049 A 
ATOM     48  H   UNL A   1      40.209  32.141  31.413  1.00  0.00     0.167 HD
ATOM     49  C   UNL A   1      44.565  30.357  32.866  1.00  0.00     0.031 A 
ATOM     50  C   UNL A   1      37.664  33.349  31.488  1.00  0.00     0.031 A 
ATOM     51  C   UNL A   1      43.812  31.193  33.743  1.00  0.00     0.049 A 
ATOM     52  C   UNL A   1      38.713  33.832  32.410  1.00  0.00     0.074 A 
ATOM     53  C   UNL A   1      42.918  30.964  34.756  1.00  0.00     0.029 A 
ATOM     54  N   UNL A   1      43.767  32.531  33.427  1.00  0.00    -0.354 N 
ATOM     55  N   UNL A   1      39.776  34.493  32.067  1.00  0.00    -0.248 NA
ATOM     56  C   UNL A   1      38.614  33.491  33.836  1.00  0.00     0.031 C 
ATOM     57  C   UNL A   1      42.077  32.105  34.765  1.00  0.00     0.029 A 
ATOM     58  C   UNL A   1      42.513  32.985  33.771  1.00  0.00     0.049 A 
ATOM     59  H   UNL A   1      44.494  33.063  33.030  1.00  0.00     0.167 HD
ATOM     60  C   UNL A   1      40.620  34.320  33.139  1.00  0.00     0.074 A 
ATOM     61  C   UNL A   1      39.785  33.957  34.263  1.00  0.00     0.031 C 
ATOM     62  C   UNL A   1      41.926  34.014  32.936  1.00  0.00     0.031 A 
BRANCH  49  63
ATOM     63  C   UNL A   1      46.059  30.342  33.007  1.00  0.00    -0.014 A 
ATOM     64  C   UNL A   1      46.825  30.304  31.819  1.00  0.00     0.010 A 
ATOM     65  C   UNL A   1      46.718  30.081  34.219  1.00  0.00     0.010 A 
ATOM     66  C   UNL A   1      48.167  29.922  31.827  1.00  0.00     0.020 A 
ATOM     67  C   UNL A   1      48.077  29.731  34.239  1.00  0.00     0.020 A 
ATOM     68  C   UNL A   1      48.776  29.605  33.037  1.00  0.00     0.054 A 
BRANCH  68  69
ATOM     69  S   UNL A   1      50.466  28.953  33.010  1.00  0.00     0.124 S 
ATOM     70  O   UNL A   1      50.825  29.097  31.602  1.00  0.00    -0.237 OA
ATOM     71  O   UNL A   1      51.169  29.845  33.930  1.00  0.00    -0.237 OA
ATOM     72  O   UNL A   1      50.310  27.580  33.485  1.00  0.00    -0.744 OA
ENDBRANCH  68  69
ENDBRANCH  49  63
BRANCH  50  73
ATOM     73  C   UNL A   1      36.275  33.912  31.667  1.00  0.00    -0.014 A 
ATOM     74  C   UNL A   1      35.757  34.442  32.856  1.00  0.00     0.010 A 
ATOM     75  C   UNL A   1      35.446  34.045  30.520  1.00  0.00     0.010 A 
ATOM     76  C   UNL A   1      34.554  35.179  32.875  1.00  0.00     0.020 A 
ATOM     77  C   UNL A   1      34.274  34.809  30.514  1.00  0.00     0.020 A 
ATOM     78  C   UNL A   1      33.845  35.397  31.694  1.00  0.00     0.054 A 
BRANCH  78  79
ATOM     79  S   UNL A   1      32.446  36.550  31.649  1.00  0.00     0.124 S 
ATOM     80  O   UNL A   1      31.985  36.427  30.270  1.00  0.00    -0.237 OA
ATOM     81  O   UNL A   1      31.542  36.016  32.665  1.00  0.00    -0.237 OA
ATOM     82  O   UNL A   1      33.064  37.830  31.994  1.00  0.00    -0.744 OA
ENDBRANCH  78  79
ENDBRANCH  50  73
BRANCH  62  83
ATOM     83  C   UNL A   1      42.458  34.406  31.567  1.00  0.00    -0.014 A 
ATOM     84  C   UNL A   1      42.389  33.509  30.488  1.00  0.00     0.010 A 
ATOM     85  C   UNL A   1      43.124  35.628  31.355  1.00  0.00     0.010 A 
ATOM     86  C   UNL A   1      42.970  33.822  29.249  1.00  0.00     0.020 A 
ATOM     87  C   UNL A   1      43.700  35.957  30.122  1.00  0.00     0.020 A 
ATOM     88  C   UNL A   1      43.624  35.045  29.073  1.00  0.00     0.054 A 
BRANCH  88  89
ATOM     89  S   UNL A   1      44.406  35.410  27.474  1.00  0.00     0.124 S 
ATOM     90  O   UNL A   1      44.007  34.271  26.653  1.00  0.00    -0.237 OA
ATOM     91  O   UNL A   1      43.798  36.687  27.111  1.00  0.00    -0.237 OA
ATOM     92  O   UNL A   1      45.834  35.471  27.787  1.00  0.00    -0.744 OA
ENDBRANCH  88  89
ENDBRANCH  62  83
ENDBRANCH  36  37
ENDBRANCH  29  31
ENDBRANCH  28  29
ENDBRANCH  27  28
ENDBRANCH  26  27
ENDBRANCH  25  26
ENDBRANCH   1  25
TORSDOF 23
ENDMDL
