MODEL 1
REMARK VINA RESULT:     -10.8      0.000      0.000
REMARK SMILES COc1ccc2c(CC(=O)OCCOCCOC(=O)c3ccc(-c4c5nc(c(-c6ccc(S(=O)(=O)[O-])cc6)c6ccc([nH]6)c(-c6ccc(S(=O)(=O)[O-])cc6)c6nc(c(-c7ccc(S(=O)(=O)[O-])cc7)c7ccc4[nH]7)C=C6)C=C5)cc3)c(C(=O)c3cc(C)ccn3)[nH]c2c1
REMARK SMILES IDX 14 1 13 2 12 3 11 4 9 5 10 6 8 7 7 8 3 9 4 10 92 11 5 12
REMARK SMILES IDX 91 13 6 14 90 15 80 16 2 18 1 19 81 20 82 21 83 22 84 23
REMARK SMILES IDX 89 24 85 25 88 26 86 27 87 28 15 29 16 30 17 31 18 32 19 33
REMARK SMILES IDX 20 34 21 35 79 36 22 37 78 38 23 39 24 40 25 41 72 42 26 43
REMARK SMILES IDX 77 44 71 45 73 46 27 47 76 48 70 49 69 50 28 52 58 53 39 54
REMARK SMILES IDX 57 55 40 56 43 57 56 58 74 59 41 60 42 61 55 63 75 64 44 65
REMARK SMILES IDX 29 66 30 67 38 68 31 69 37 70 32 71 33 72 34 73 35 74 36 75
REMARK SMILES IDX 59 76 60 77 68 78 61 79 67 80 62 81 63 82 64 83 65 84 66 85
REMARK SMILES IDX 45 86 46 87 54 88 47 89 53 90 48 91 49 92 50 93 51 94 52 95
REMARK H PARENT 90 17 73 51 43 62
REMARK Flexibility Score: inf
ROOT
ATOM      1  O   UNL A   1      36.984  23.977  25.657  1.00  0.00    -0.374 OA
ENDROOT
BRANCH   1   2
ATOM      2  C   UNL A   1      35.676  23.420  25.752  1.00  0.00     0.202 C 
BRANCH   2   3
ATOM      3  C   UNL A   1      34.485  24.281  25.300  1.00  0.00     0.261 C 
BRANCH   3   4
ATOM      4  O   UNL A   1      33.493  24.526  26.321  1.00  0.00    -0.463 OA
BRANCH   4   5
ATOM      5  C   UNL A   1      32.805  25.694  26.191  1.00  0.00     0.310 C 
ATOM      6  O   UNL A   1      31.685  25.887  26.667  1.00  0.00    -0.252 OA
BRANCH   5   7
ATOM      7  C   UNL A   1      33.527  26.820  25.480  1.00  0.00     0.161 C 
BRANCH   7   8
ATOM      8  C   UNL A   1      33.089  28.244  25.697  1.00  0.00     0.000 A 
ATOM      9  C   UNL A   1      34.582  31.352  28.116  1.00  0.00     0.120 A 
ATOM     10  C   UNL A   1      35.115  30.092  28.375  1.00  0.00     0.047 A 
ATOM     11  C   UNL A   1      33.525  31.509  27.215  1.00  0.00     0.073 A 
ATOM     12  C   UNL A   1      34.658  28.968  27.672  1.00  0.00     0.014 A 
ATOM     13  C   UNL A   1      33.107  30.380  26.497  1.00  0.00     0.050 A 
ATOM     14  C   UNL A   1      33.663  29.120  26.682  1.00  0.00     0.004 A 
ATOM     15  N   UNL A   1      32.152  30.255  25.518  1.00  0.00    -0.351 N 
ATOM     16  C   UNL A   1      32.252  29.029  24.888  1.00  0.00     0.093 A 
ATOM     17  H   UNL A   1      31.485  30.945  25.296  1.00  0.00     0.167 HD
BRANCH   9  18
ATOM     18  O   UNL A   1      35.009  32.494  28.743  1.00  0.00    -0.497 OA
ATOM     19  C   UNL A   1      35.223  33.585  27.847  1.00  0.00     0.278 C 
ENDBRANCH   9  18
BRANCH  16  20
ATOM     20  C   UNL A   1      31.605  28.689  23.618  1.00  0.00     0.227 C 
ATOM     21  O   UNL A   1      32.197  28.151  22.684  1.00  0.00    -0.285 OA
BRANCH  20  22
ATOM     22  C   UNL A   1      30.144  28.961  23.432  1.00  0.00     0.113 A 
ATOM     23  C   UNL A   1      29.624  30.246  23.478  1.00  0.00     0.036 A 
ATOM     24  N   UNL A   1      29.381  27.859  23.217  1.00  0.00    -0.253 NA
ATOM     25  C   UNL A   1      28.239  30.399  23.329  1.00  0.00    -0.047 A 
ATOM     26  C   UNL A   1      28.051  28.026  23.107  1.00  0.00     0.112 A 
ATOM     27  C   UNL A   1      27.589  31.750  23.330  1.00  0.00     0.044 C 
ATOM     28  C   UNL A   1      27.442  29.262  23.159  1.00  0.00     0.023 A 
ENDBRANCH  20  22
ENDBRANCH  16  20
ENDBRANCH   7   8
ENDBRANCH   5   7
ENDBRANCH   4   5
ENDBRANCH   3   4
ENDBRANCH   2   3
ENDBRANCH   1   2
BRANCH   1  29
ATOM     29  C   UNL A   1      38.081  23.070  25.662  1.00  0.00     0.202 C 
BRANCH  29  30
ATOM     30  C   UNL A   1      39.253  23.371  26.598  1.00  0.00     0.261 C 
BRANCH  30  31
ATOM     31  O   UNL A   1      39.100  24.504  27.449  1.00  0.00    -0.460 OA
BRANCH  31  32
ATOM     32  C   UNL A   1      39.864  25.564  27.112  1.00  0.00     0.338 C 
ATOM     33  O   UNL A   1      40.536  25.732  26.106  1.00  0.00    -0.246 OA
BRANCH  32  34
ATOM     34  C   UNL A   1      39.712  26.572  28.157  1.00  0.00     0.060 A 
ATOM     35  C   UNL A   1      40.368  27.795  28.002  1.00  0.00     0.016 A 
ATOM     36  C   UNL A   1      38.985  26.271  29.311  1.00  0.00     0.016 A 
ATOM     37  C   UNL A   1      40.341  28.718  29.040  1.00  0.00     0.010 A 
ATOM     38  C   UNL A   1      38.958  27.196  30.349  1.00  0.00     0.010 A 
ATOM     39  C   UNL A   1      39.668  28.404  30.230  1.00  0.00    -0.014 A 
BRANCH  39  40
ATOM     40  C   UNL A   1      39.819  29.275  31.412  1.00  0.00     0.031 A 
ATOM     41  C   UNL A   1      40.975  29.035  32.340  1.00  0.00     0.074 A 
ATOM     42  C   UNL A   1      38.931  30.258  31.640  1.00  0.00     0.049 A 
ATOM     43  N   UNL A   1      41.267  29.627  33.467  1.00  0.00    -0.248 NA
ATOM     44  C   UNL A   1      41.926  27.980  31.948  1.00  0.00     0.031 C 
ATOM     45  C   UNL A   1      37.798  30.591  30.776  1.00  0.00     0.029 A 
ATOM     46  N   UNL A   1      38.840  31.151  32.676  1.00  0.00    -0.354 N 
ATOM     47  C   UNL A   1      42.425  29.012  33.926  1.00  0.00     0.074 A 
ATOM     48  C   UNL A   1      42.768  27.982  32.971  1.00  0.00     0.031 C 
ATOM     49  C   UNL A   1      37.119  31.612  31.323  1.00  0.00     0.029 A 
ATOM     50  C   UNL A   1      37.746  31.976  32.590  1.00  0.00     0.049 A 
ATOM     51  H   UNL A   1      39.495  31.195  33.409  1.00  0.00     0.167 HD
ATOM     52  C   UNL A   1      43.137  29.287  35.045  1.00  0.00     0.031 A 
ATOM     53  C   UNL A   1      37.292  32.904  33.455  1.00  0.00     0.031 A 
ATOM     54  C   UNL A   1      42.766  30.305  35.990  1.00  0.00     0.049 A 
ATOM     55  C   UNL A   1      38.065  33.149  34.723  1.00  0.00     0.074 A 
ATOM     56  C   UNL A   1      43.414  30.678  37.154  1.00  0.00     0.029 A 
ATOM     57  N   UNL A   1      41.642  31.112  35.879  1.00  0.00    -0.354 N 
ATOM     58  N   UNL A   1      39.168  32.572  35.139  1.00  0.00    -0.248 NA
ATOM     59  C   UNL A   1      37.540  34.174  35.634  1.00  0.00     0.031 C 
ATOM     60  C   UNL A   1      42.651  31.673  37.774  1.00  0.00     0.029 A 
ATOM     61  C   UNL A   1      41.564  31.966  36.963  1.00  0.00     0.049 A 
ATOM     62  H   UNL A   1      40.995  31.079  35.138  1.00  0.00     0.167 HD
ATOM     63  C   UNL A   1      39.487  33.188  36.343  1.00  0.00     0.074 A 
ATOM     64  C   UNL A   1      38.464  34.184  36.586  1.00  0.00     0.031 C 
ATOM     65  C   UNL A   1      40.536  32.956  37.173  1.00  0.00     0.031 A 
BRANCH  52  66
ATOM     66  C   UNL A   1      44.358  28.449  35.318  1.00  0.00    -0.014 A 
ATOM     67  C   UNL A   1      44.272  27.242  36.035  1.00  0.00     0.010 A 
ATOM     68  C   UNL A   1      45.610  28.864  34.829  1.00  0.00     0.010 A 
ATOM     69  C   UNL A   1      45.420  26.488  36.293  1.00  0.00     0.020 A 
ATOM     70  C   UNL A   1      46.757  28.099  35.061  1.00  0.00     0.020 A 
ATOM     71  C   UNL A   1      46.656  26.923  35.808  1.00  0.00     0.054 A 
BRANCH  71  72
ATOM     72  S   UNL A   1      48.129  25.918  36.144  1.00  0.00     0.124 S 
ATOM     73  O   UNL A   1      47.765  24.638  35.539  1.00  0.00    -0.237 OA
ATOM     74  O   UNL A   1      49.186  26.657  35.460  1.00  0.00    -0.237 OA
ATOM     75  O   UNL A   1      48.220  25.911  37.602  1.00  0.00    -0.744 OA
ENDBRANCH  71  72
ENDBRANCH  52  66
BRANCH  53  76
ATOM     76  C   UNL A   1      36.043  33.652  33.151  1.00  0.00    -0.014 A 
ATOM     77  C   UNL A   1      34.785  33.090  33.425  1.00  0.00     0.010 A 
ATOM     78  C   UNL A   1      36.108  34.949  32.606  1.00  0.00     0.010 A 
ATOM     79  C   UNL A   1      33.615  33.805  33.147  1.00  0.00     0.020 A 
ATOM     80  C   UNL A   1      34.942  35.677  32.353  1.00  0.00     0.020 A 
ATOM     81  C   UNL A   1      33.701  35.095  32.615  1.00  0.00     0.054 A 
BRANCH  81  82
ATOM     82  S   UNL A   1      32.171  36.022  32.314  1.00  0.00     0.124 S 
ATOM     83  O   UNL A   1      31.148  35.023  32.605  1.00  0.00    -0.237 OA
ATOM     84  O   UNL A   1      32.275  37.122  33.270  1.00  0.00    -0.237 OA
ATOM     85  O   UNL A   1      32.281  36.416  30.910  1.00  0.00    -0.744 OA
ENDBRANCH  81  82
ENDBRANCH  53  76
BRANCH  65  86
ATOM     86  C   UNL A   1      40.661  33.827  38.392  1.00  0.00    -0.014 A 
ATOM     87  C   UNL A   1      41.348  35.053  38.348  1.00  0.00     0.010 A 
ATOM     88  C   UNL A   1      40.010  33.444  39.579  1.00  0.00     0.010 A 
ATOM     89  C   UNL A   1      41.398  35.871  39.480  1.00  0.00     0.020 A 
ATOM     90  C   UNL A   1      40.034  34.273  40.702  1.00  0.00     0.020 A 
ATOM     91  C   UNL A   1      40.737  35.477  40.649  1.00  0.00     0.054 A 
BRANCH  91  92
ATOM     92  S   UNL A   1      40.762  36.587  42.082  1.00  0.00     0.124 S 
ATOM     93  O   UNL A   1      41.515  35.805  43.058  1.00  0.00    -0.237 OA
ATOM     94  O   UNL A   1      41.445  37.769  41.561  1.00  0.00    -0.237 OA
ATOM     95  O   UNL A   1      39.349  36.781  42.396  1.00  0.00    -0.744 OA
ENDBRANCH  91  92
ENDBRANCH  65  86
ENDBRANCH  39  40
ENDBRANCH  32  34
ENDBRANCH  31  32
ENDBRANCH  30  31
ENDBRANCH  29  30
ENDBRANCH   1  29
TORSDOF 21
ENDMDL
MODEL 2
REMARK VINA RESULT:     -10.7      5.211      7.024
REMARK SMILES COc1ccc2c(CC(=O)OCCOCCOC(=O)c3ccc(-c4c5nc(c(-c6ccc(S(=O)(=O)[O-])cc6)c6ccc([nH]6)c(-c6ccc(S(=O)(=O)[O-])cc6)c6nc(c(-c7ccc(S(=O)(=O)[O-])cc7)c7ccc4[nH]7)C=C6)C=C5)cc3)c(C(=O)c3cc(C)ccn3)[nH]c2c1
REMARK SMILES IDX 14 1 13 2 12 3 11 4 9 5 10 6 8 7 7 8 3 9 4 10 92 11 5 12
REMARK SMILES IDX 91 13 6 14 90 15 80 16 2 18 1 19 81 20 82 21 83 22 84 23
REMARK SMILES IDX 89 24 85 25 88 26 86 27 87 28 15 29 16 30 17 31 18 32 19 33
REMARK SMILES IDX 20 34 21 35 79 36 22 37 78 38 23 39 24 40 25 41 72 42 26 43
REMARK SMILES IDX 77 44 71 45 73 46 27 47 76 48 70 49 69 50 28 52 58 53 39 54
REMARK SMILES IDX 57 55 40 56 43 57 56 58 74 59 41 60 42 61 55 63 75 64 44 65
REMARK SMILES IDX 29 66 30 67 38 68 31 69 37 70 32 71 33 72 34 73 35 74 36 75
REMARK SMILES IDX 59 76 60 77 68 78 61 79 67 80 62 81 63 82 64 83 65 84 66 85
REMARK SMILES IDX 45 86 46 87 54 88 47 89 53 90 48 91 49 92 50 93 51 94 52 95
REMARK H PARENT 90 17 73 51 43 62
REMARK Flexibility Score: inf
ROOT
ATOM      1  O   UNL A   1      35.413  22.619  25.084  1.00  0.00    -0.374 OA
ENDROOT
BRANCH   1   2
ATOM      2  C   UNL A   1      35.397  23.650  24.101  1.00  0.00     0.202 C 
BRANCH   2   3
ATOM      3  C   UNL A   1      34.417  24.820  24.291  1.00  0.00     0.261 C 
BRANCH   3   4
ATOM      4  O   UNL A   1      34.257  25.260  25.658  1.00  0.00    -0.463 OA
BRANCH   4   5
ATOM      5  C   UNL A   1      33.784  26.528  25.806  1.00  0.00     0.310 C 
ATOM      6  O   UNL A   1      34.343  27.527  25.349  1.00  0.00    -0.252 OA
BRANCH   5   7
ATOM      7  C   UNL A   1      32.450  26.666  26.510  1.00  0.00     0.161 C 
BRANCH   7   8
ATOM      8  C   UNL A   1      31.172  26.526  25.725  1.00  0.00     0.000 A 
ATOM      9  C   UNL A   1      29.404  28.880  22.712  1.00  0.00     0.120 A 
ATOM     10  C   UNL A   1      30.478  29.472  23.372  1.00  0.00     0.047 A 
ATOM     11  C   UNL A   1      28.887  27.656  23.144  1.00  0.00     0.073 A 
ATOM     12  C   UNL A   1      31.114  28.809  24.432  1.00  0.00     0.014 A 
ATOM     13  C   UNL A   1      29.559  26.992  24.181  1.00  0.00     0.050 A 
ATOM     14  C   UNL A   1      30.675  27.525  24.817  1.00  0.00     0.004 A 
ATOM     15  N   UNL A   1      29.318  25.768  24.754  1.00  0.00    -0.351 N 
ATOM     16  C   UNL A   1      30.380  25.381  25.549  1.00  0.00     0.093 A 
ATOM     17  H   UNL A   1      28.499  25.239  24.619  1.00  0.00     0.167 HD
BRANCH   9  18
ATOM     18  O   UNL A   1      28.762  29.459  21.648  1.00  0.00    -0.497 OA
ATOM     19  C   UNL A   1      28.802  30.886  21.671  1.00  0.00     0.278 C 
ENDBRANCH   9  18
BRANCH  16  20
ATOM     20  C   UNL A   1      30.589  24.021  26.056  1.00  0.00     0.227 C 
ATOM     21  O   UNL A   1      30.246  23.664  27.181  1.00  0.00    -0.285 OA
BRANCH  20  22
ATOM     22  C   UNL A   1      31.211  22.985  25.172  1.00  0.00     0.113 A 
ATOM     23  C   UNL A   1      31.728  21.802  25.680  1.00  0.00     0.036 A 
ATOM     24  N   UNL A   1      31.227  23.295  23.851  1.00  0.00    -0.253 NA
ATOM     25  C   UNL A   1      32.323  20.907  24.781  1.00  0.00    -0.047 A 
ATOM     26  C   UNL A   1      31.829  22.437  23.010  1.00  0.00     0.112 A 
ATOM     27  C   UNL A   1      32.879  19.589  25.229  1.00  0.00     0.044 C 
ATOM     28  C   UNL A   1      32.388  21.246  23.424  1.00  0.00     0.023 A 
ENDBRANCH  20  22
ENDBRANCH  16  20
ENDBRANCH   7   8
ENDBRANCH   5   7
ENDBRANCH   4   5
ENDBRANCH   3   4
ENDBRANCH   2   3
ENDBRANCH   1   2
BRANCH   1  29
ATOM     29  C   UNL A   1      36.224  21.481  24.822  1.00  0.00     0.202 C 
BRANCH  29  30
ATOM     30  C   UNL A   1      37.735  21.617  25.018  1.00  0.00     0.261 C 
BRANCH  30  31
ATOM     31  O   UNL A   1      38.156  22.234  26.232  1.00  0.00    -0.460 OA
BRANCH  31  32
ATOM     32  C   UNL A   1      39.491  22.237  26.425  1.00  0.00     0.338 C 
ATOM     33  O   UNL A   1      40.307  21.375  26.135  1.00  0.00    -0.246 OA
BRANCH  32  34
ATOM     34  C   UNL A   1      39.853  23.527  27.006  1.00  0.00     0.060 A 
ATOM     35  C   UNL A   1      39.293  24.683  26.460  1.00  0.00     0.016 A 
ATOM     36  C   UNL A   1      40.797  23.583  28.033  1.00  0.00     0.016 A 
ATOM     37  C   UNL A   1      39.722  25.925  26.913  1.00  0.00     0.010 A 
ATOM     38  C   UNL A   1      41.224  24.826  28.487  1.00  0.00     0.010 A 
ATOM     39  C   UNL A   1      40.715  25.999  27.901  1.00  0.00    -0.014 A 
BRANCH  39  40
ATOM     40  C   UNL A   1      41.331  27.299  28.228  1.00  0.00     0.031 A 
ATOM     41  C   UNL A   1      42.816  27.453  28.065  1.00  0.00     0.074 A 
ATOM     42  C   UNL A   1      40.567  28.315  28.663  1.00  0.00     0.049 A 
ATOM     43  N   UNL A   1      43.578  28.474  28.353  1.00  0.00    -0.248 NA
ATOM     44  C   UNL A   1      43.542  26.297  27.508  1.00  0.00     0.031 C 
ATOM     45  C   UNL A   1      39.113  28.271  28.817  1.00  0.00     0.029 A 
ATOM     46  N   UNL A   1      40.912  29.579  29.064  1.00  0.00    -0.354 N 
ATOM     47  C   UNL A   1      44.871  28.082  28.026  1.00  0.00     0.074 A 
ATOM     48  C   UNL A   1      44.795  26.721  27.543  1.00  0.00     0.031 C 
ATOM     49  C   UNL A   1      38.690  29.456  29.289  1.00  0.00     0.029 A 
ATOM     50  C   UNL A   1      39.845  30.323  29.505  1.00  0.00     0.049 A 
ATOM     51  H   UNL A   1      41.835  29.920  29.038  1.00  0.00     0.167 HD
ATOM     52  C   UNL A   1      46.016  28.799  28.120  1.00  0.00     0.031 A 
ATOM     53  C   UNL A   1      39.814  31.556  30.045  1.00  0.00     0.031 A 
ATOM     54  C   UNL A   1      46.069  30.146  28.620  1.00  0.00     0.049 A 
ATOM     55  C   UNL A   1      41.107  32.310  30.197  1.00  0.00     0.074 A 
ATOM     56  C   UNL A   1      47.170  30.973  28.754  1.00  0.00     0.029 A 
ATOM     57  N   UNL A   1      44.970  30.863  29.073  1.00  0.00    -0.354 N 
ATOM     58  N   UNL A   1      42.322  31.937  29.870  1.00  0.00    -0.248 NA
ATOM     59  C   UNL A   1      41.027  33.655  30.784  1.00  0.00     0.031 C 
ATOM     60  C   UNL A   1      46.743  32.170  29.339  1.00  0.00     0.029 A 
ATOM     61  C   UNL A   1      45.368  32.114  29.508  1.00  0.00     0.049 A 
ATOM     62  H   UNL A   1      44.044  30.529  29.084  1.00  0.00     0.167 HD
ATOM     63  C   UNL A   1      43.147  33.012  30.179  1.00  0.00     0.074 A 
ATOM     64  C   UNL A   1      42.291  34.052  30.715  1.00  0.00     0.031 C 
ATOM     65  C   UNL A   1      44.490  33.133  30.028  1.00  0.00     0.031 A 
BRANCH  52  66
ATOM     66  C   UNL A   1      47.298  28.123  27.710  1.00  0.00    -0.014 A 
ATOM     67  C   UNL A   1      48.092  27.433  28.642  1.00  0.00     0.010 A 
ATOM     68  C   UNL A   1      47.704  28.160  26.363  1.00  0.00     0.010 A 
ATOM     69  C   UNL A   1      49.287  26.827  28.244  1.00  0.00     0.020 A 
ATOM     70  C   UNL A   1      48.884  27.531  25.955  1.00  0.00     0.020 A 
ATOM     71  C   UNL A   1      49.678  26.884  26.904  1.00  0.00     0.054 A 
BRANCH  71  72
ATOM     72  S   UNL A   1      51.226  26.077  26.410  1.00  0.00     0.124 S 
ATOM     73  O   UNL A   1      52.225  26.908  27.079  1.00  0.00    -0.237 OA
ATOM     74  O   UNL A   1      51.071  24.728  26.949  1.00  0.00    -0.237 OA
ATOM     75  O   UNL A   1      51.217  26.168  24.952  1.00  0.00    -0.744 OA
ENDBRANCH  71  72
ENDBRANCH  52  66
BRANCH  53  76
ATOM     76  C   UNL A   1      38.518  32.139  30.486  1.00  0.00    -0.014 A 
ATOM     77  C   UNL A   1      37.727  32.885  29.597  1.00  0.00     0.010 A 
ATOM     78  C   UNL A   1      38.056  31.927  31.799  1.00  0.00     0.010 A 
ATOM     79  C   UNL A   1      36.505  33.420  30.016  1.00  0.00     0.020 A 
ATOM     80  C   UNL A   1      36.822  32.437  32.213  1.00  0.00     0.020 A 
ATOM     81  C   UNL A   1      36.059  33.190  31.320  1.00  0.00     0.054 A 
BRANCH  81  82
ATOM     82  S   UNL A   1      34.445  33.849  31.823  1.00  0.00     0.124 S 
ATOM     83  O   UNL A   1      33.827  34.155  30.537  1.00  0.00    -0.237 OA
ATOM     84  O   UNL A   1      33.861  32.728  32.556  1.00  0.00    -0.237 OA
ATOM     85  O   UNL A   1      34.790  35.008  32.644  1.00  0.00    -0.744 OA
ENDBRANCH  81  82
ENDBRANCH  53  76
BRANCH  65  86
ATOM     86  C   UNL A   1      45.113  34.451  30.397  1.00  0.00    -0.014 A 
ATOM     87  C   UNL A   1      45.204  35.502  29.468  1.00  0.00     0.010 A 
ATOM     88  C   UNL A   1      45.540  34.662  31.721  1.00  0.00     0.010 A 
ATOM     89  C   UNL A   1      45.732  36.737  29.854  1.00  0.00     0.020 A 
ATOM     90  C   UNL A   1      46.042  35.903  32.116  1.00  0.00     0.020 A 
ATOM     91  C   UNL A   1      46.145  36.931  31.177  1.00  0.00     0.054 A 
BRANCH  91  92
ATOM     92  S   UNL A   1      46.766  38.561  31.669  1.00  0.00     0.124 S 
ATOM     93  O   UNL A   1      47.301  39.074  30.411  1.00  0.00    -0.237 OA
ATOM     94  O   UNL A   1      45.561  39.229  32.159  1.00  0.00    -0.237 OA
ATOM     95  O   UNL A   1      47.762  38.259  32.693  1.00  0.00    -0.744 OA
ENDBRANCH  91  92
ENDBRANCH  65  86
ENDBRANCH  39  40
ENDBRANCH  32  34
ENDBRANCH  31  32
ENDBRANCH  30  31
ENDBRANCH  29  30
ENDBRANCH   1  29
TORSDOF 21
ENDMDL
MODEL 3
REMARK VINA RESULT:     -10.6      6.523     11.498
REMARK SMILES COc1ccc2c(CC(=O)OCCOCCOC(=O)c3ccc(-c4c5nc(c(-c6ccc(S(=O)(=O)[O-])cc6)c6ccc([nH]6)c(-c6ccc(S(=O)(=O)[O-])cc6)c6nc(c(-c7ccc(S(=O)(=O)[O-])cc7)c7ccc4[nH]7)C=C6)C=C5)cc3)c(C(=O)c3cc(C)ccn3)[nH]c2c1
REMARK SMILES IDX 14 1 13 2 12 3 11 4 9 5 10 6 8 7 7 8 3 9 4 10 92 11 5 12
REMARK SMILES IDX 91 13 6 14 90 15 80 16 2 18 1 19 81 20 82 21 83 22 84 23
REMARK SMILES IDX 89 24 85 25 88 26 86 27 87 28 15 29 16 30 17 31 18 32 19 33
REMARK SMILES IDX 20 34 21 35 79 36 22 37 78 38 23 39 24 40 25 41 72 42 26 43
REMARK SMILES IDX 77 44 71 45 73 46 27 47 76 48 70 49 69 50 28 52 58 53 39 54
REMARK SMILES IDX 57 55 40 56 43 57 56 58 74 59 41 60 42 61 55 63 75 64 44 65
REMARK SMILES IDX 29 66 30 67 38 68 31 69 37 70 32 71 33 72 34 73 35 74 36 75
REMARK SMILES IDX 59 76 60 77 68 78 61 79 67 80 62 81 63 82 64 83 65 84 66 85
REMARK SMILES IDX 45 86 46 87 54 88 47 89 53 90 48 91 49 92 50 93 51 94 52 95
REMARK H PARENT 90 17 73 51 43 62
REMARK Flexibility Score: inf
ROOT
ATOM      1  O   UNL A   1      34.682  32.167  27.904  1.00  0.00    -0.374 OA
ENDROOT
BRANCH   1   2
ATOM      2  C   UNL A   1      33.412  31.675  27.485  1.00  0.00     0.202 C 
BRANCH   2   3
ATOM      3  C   UNL A   1      33.305  30.196  27.075  1.00  0.00     0.261 C 
BRANCH   3   4
ATOM      4  O   UNL A   1      32.025  29.584  27.344  1.00  0.00    -0.463 OA
BRANCH   4   5
ATOM      5  C   UNL A   1      31.591  28.708  26.396  1.00  0.00     0.310 C 
ATOM      6  O   UNL A   1      31.195  27.569  26.645  1.00  0.00    -0.252 OA
BRANCH   5   7
ATOM      7  C   UNL A   1      31.536  29.234  24.977  1.00  0.00     0.161 C 
BRANCH   7   8
ATOM      8  C   UNL A   1      31.414  28.268  23.827  1.00  0.00     0.000 A 
ATOM      9  C   UNL A   1      33.666  24.897  22.683  1.00  0.00     0.120 A 
ATOM     10  C   UNL A   1      34.241  25.683  23.677  1.00  0.00     0.047 A 
ATOM     11  C   UNL A   1      32.499  25.308  22.033  1.00  0.00     0.073 A 
ATOM     12  C   UNL A   1      33.613  26.862  24.105  1.00  0.00     0.014 A 
ATOM     13  C   UNL A   1      31.867  26.470  22.498  1.00  0.00     0.050 A 
ATOM     14  C   UNL A   1      32.379  27.243  23.535  1.00  0.00     0.004 A 
ATOM     15  N   UNL A   1      30.695  27.064  22.099  1.00  0.00    -0.351 N 
ATOM     16  C   UNL A   1      30.303  28.033  23.003  1.00  0.00     0.093 A 
ATOM     17  H   UNL A   1      30.201  26.831  21.279  1.00  0.00     0.167 HD
BRANCH   9  18
ATOM     18  O   UNL A   1      34.210  23.717  22.246  1.00  0.00    -0.497 OA
ATOM     19  C   UNL A   1      34.880  22.988  23.274  1.00  0.00     0.278 C 
ENDBRANCH   9  18
BRANCH  16  20
ATOM     20  C   UNL A   1      28.968  28.637  23.050  1.00  0.00     0.227 C 
ATOM     21  O   UNL A   1      28.001  28.091  23.577  1.00  0.00    -0.285 OA
BRANCH  20  22
ATOM     22  C   UNL A   1      28.749  30.001  22.473  1.00  0.00     0.113 A 
ATOM     23  C   UNL A   1      29.067  31.156  23.174  1.00  0.00     0.036 A 
ATOM     24  N   UNL A   1      28.219  30.015  21.223  1.00  0.00    -0.253 NA
ATOM     25  C   UNL A   1      28.793  32.388  22.567  1.00  0.00    -0.047 A 
ATOM     26  C   UNL A   1      27.936  31.208  20.672  1.00  0.00     0.112 A 
ATOM     27  C   UNL A   1      29.133  33.688  23.231  1.00  0.00     0.044 C 
ATOM     28  C   UNL A   1      28.199  32.408  21.300  1.00  0.00     0.023 A 
ENDBRANCH  20  22
ENDBRANCH  16  20
ENDBRANCH   7   8
ENDBRANCH   5   7
ENDBRANCH   4   5
ENDBRANCH   3   4
ENDBRANCH   2   3
ENDBRANCH   1   2
BRANCH   1  29
ATOM     29  C   UNL A   1      34.785  32.654  29.236  1.00  0.00     0.202 C 
BRANCH  29  30
ATOM     30  C   UNL A   1      35.576  31.819  30.244  1.00  0.00     0.261 C 
BRANCH  30  31
ATOM     31  O   UNL A   1      36.084  30.576  29.766  1.00  0.00    -0.460 OA
BRANCH  31  32
ATOM     32  C   UNL A   1      36.860  29.912  30.647  1.00  0.00     0.338 C 
ATOM     33  O   UNL A   1      36.529  29.327  31.667  1.00  0.00    -0.246 OA
BRANCH  32  34
ATOM     34  C   UNL A   1      38.230  29.937  30.142  1.00  0.00     0.060 A 
ATOM     35  C   UNL A   1      38.429  29.970  28.760  1.00  0.00     0.016 A 
ATOM     36  C   UNL A   1      39.299  29.854  31.036  1.00  0.00     0.016 A 
ATOM     37  C   UNL A   1      39.719  29.865  28.257  1.00  0.00     0.010 A 
ATOM     38  C   UNL A   1      40.591  29.751  30.530  1.00  0.00     0.010 A 
ATOM     39  C   UNL A   1      40.799  29.717  29.140  1.00  0.00    -0.014 A 
BRANCH  39  40
ATOM     40  C   UNL A   1      42.138  29.385  28.615  1.00  0.00     0.031 A 
ATOM     41  C   UNL A   1      42.413  27.972  28.188  1.00  0.00     0.074 A 
ATOM     42  C   UNL A   1      43.082  30.337  28.530  1.00  0.00     0.049 A 
ATOM     43  N   UNL A   1      43.526  27.439  27.763  1.00  0.00    -0.248 NA
ATOM     44  C   UNL A   1      41.280  27.031  28.254  1.00  0.00     0.031 C 
ATOM     45  C   UNL A   1      42.897  31.744  28.886  1.00  0.00     0.029 A 
ATOM     46  N   UNL A   1      44.388  30.260  28.124  1.00  0.00    -0.354 N 
ATOM     47  C   UNL A   1      43.236  26.101  27.523  1.00  0.00     0.074 A 
ATOM     48  C   UNL A   1      41.848  25.896  27.876  1.00  0.00     0.031 C 
ATOM     49  C   UNL A   1      44.053  32.398  28.690  1.00  0.00     0.029 A 
ATOM     50  C   UNL A   1      45.065  31.450  28.234  1.00  0.00     0.049 A 
ATOM     51  H   UNL A   1      44.801  29.433  27.787  1.00  0.00     0.167 HD
ATOM     52  C   UNL A   1      44.056  25.133  27.049  1.00  0.00     0.031 A 
ATOM     53  C   UNL A   1      46.365  31.730  28.013  1.00  0.00     0.031 A 
ATOM     54  C   UNL A   1      45.438  25.357  26.722  1.00  0.00     0.049 A 
ATOM     55  C   UNL A   1      47.272  30.624  27.546  1.00  0.00     0.074 A 
ATOM     56  C   UNL A   1      46.364  24.455  26.227  1.00  0.00     0.029 A 
ATOM     57  N   UNL A   1      46.095  26.571  26.861  1.00  0.00    -0.354 N 
ATOM     58  N   UNL A   1      46.983  29.366  27.308  1.00  0.00    -0.248 NA
ATOM     59  C   UNL A   1      48.679  30.975  27.310  1.00  0.00     0.031 C 
ATOM     60  C   UNL A   1      47.593  25.113  26.118  1.00  0.00     0.029 A 
ATOM     61  C   UNL A   1      47.418  26.440  26.483  1.00  0.00     0.049 A 
ATOM     62  H   UNL A   1      45.680  27.404  27.182  1.00  0.00     0.167 HD
ATOM     63  C   UNL A   1      48.163  28.783  26.862  1.00  0.00     0.074 A 
ATOM     64  C   UNL A   1      49.168  29.827  26.859  1.00  0.00     0.031 C 
ATOM     65  C   UNL A   1      48.394  27.501  26.481  1.00  0.00     0.031 A 
BRANCH  52  66
ATOM     66  C   UNL A   1      43.486  23.747  26.897  1.00  0.00    -0.014 A 
ATOM     67  C   UNL A   1      43.242  22.930  28.015  1.00  0.00     0.010 A 
ATOM     68  C   UNL A   1      43.167  23.263  25.615  1.00  0.00     0.010 A 
ATOM     69  C   UNL A   1      42.729  21.640  27.851  1.00  0.00     0.020 A 
ATOM     70  C   UNL A   1      42.627  21.985  25.449  1.00  0.00     0.020 A 
ATOM     71  C   UNL A   1      42.428  21.174  26.568  1.00  0.00     0.054 A 
BRANCH  71  72
ATOM     72  S   UNL A   1      41.749  19.502  26.384  1.00  0.00     0.124 S 
ATOM     73  O   UNL A   1      42.404  19.044  25.161  1.00  0.00    -0.237 OA
ATOM     74  O   UNL A   1      42.183  18.842  27.613  1.00  0.00    -0.237 OA
ATOM     75  O   UNL A   1      40.309  19.721  26.273  1.00  0.00    -0.744 OA
ENDBRANCH  71  72
ENDBRANCH  52  66
BRANCH  53  76
ATOM     76  C   UNL A   1      46.875  33.108  28.243  1.00  0.00    -0.014 A 
ATOM     77  C   UNL A   1      46.664  34.120  27.291  1.00  0.00     0.010 A 
ATOM     78  C   UNL A   1      47.555  33.423  29.435  1.00  0.00     0.010 A 
ATOM     79  C   UNL A   1      47.136  35.416  27.520  1.00  0.00     0.020 A 
ATOM     80  C   UNL A   1      48.004  34.724  29.679  1.00  0.00     0.020 A 
ATOM     81  C   UNL A   1      47.800  35.711  28.713  1.00  0.00     0.054 A 
BRANCH  81  82
ATOM     82  S   UNL A   1      48.356  37.412  29.010  1.00  0.00     0.124 S 
ATOM     83  O   UNL A   1      47.871  37.658  30.365  1.00  0.00    -0.237 OA
ATOM     84  O   UNL A   1      49.806  37.300  28.866  1.00  0.00    -0.237 OA
ATOM     85  O   UNL A   1      47.691  38.178  27.958  1.00  0.00    -0.744 OA
ENDBRANCH  81  82
ENDBRANCH  53  76
BRANCH  65  86
ATOM     86  C   UNL A   1      49.773  27.166  25.980  1.00  0.00    -0.014 A 
ATOM     87  C   UNL A   1      50.731  26.572  26.819  1.00  0.00     0.010 A 
ATOM     88  C   UNL A   1      50.080  27.378  24.624  1.00  0.00     0.010 A 
ATOM     89  C   UNL A   1      51.984  26.215  26.313  1.00  0.00     0.020 A 
ATOM     90  C   UNL A   1      51.320  26.997  24.109  1.00  0.00     0.020 A 
ATOM     91  C   UNL A   1      52.269  26.427  24.959  1.00  0.00     0.054 A 
BRANCH  91  92
ATOM     92  S   UNL A   1      53.877  25.896  24.312  1.00  0.00     0.124 S 
ATOM     93  O   UNL A   1      54.782  26.874  24.908  1.00  0.00    -0.237 OA
ATOM     94  O   UNL A   1      53.996  24.533  24.827  1.00  0.00    -0.237 OA
ATOM     95  O   UNL A   1      53.718  25.995  22.863  1.00  0.00    -0.744 OA
ENDBRANCH  91  92
ENDBRANCH  65  86
ENDBRANCH  39  40
ENDBRANCH  32  34
ENDBRANCH  31  32
ENDBRANCH  30  31
ENDBRANCH  29  30
ENDBRANCH   1  29
TORSDOF 21
ENDMDL
