MODEL 1
REMARK VINA RESULT:     -10.9      0.000      0.000
REMARK SMILES C[C@H](NC(=O)c1ccc(C(C)(C)C)cc1)C(=O)N[C@@H](C(=O)OCCOCCOC(=O)c1ccc(-c2c3nc(c(-c4ccc(S(=O)(=O)[O-])cc4)c4ccc([nH]4)c(-c4ccc(S(=O)(=O)[O-])cc4)c4nc(c(-c5ccc(S(=O)(=O)[O-])cc5)c5ccc2[nH]5)C=C4)C=C3)cc1)[C@H](C)O
REMARK SMILES IDX 24 1 23 2 22 3 20 4 21 5 19 6 18 7 16 8 17 9 2 11 1 12 3 13
REMARK SMILES IDX 4 14 5 16 6 17 7 18 15 19 8 20 14 21 9 22 10 23 11 24 12 25
REMARK SMILES IDX 13 26 91 27 92 28 93 29 25 31 26 32 27 33 28 34 29 35 30 36
REMARK SMILES IDX 31 37 32 38 90 39 33 40 89 41 34 42 35 43 36 44 83 45 37 46
REMARK SMILES IDX 88 47 82 48 84 49 38 50 87 51 81 52 80 53 39 55 69 56 50 57
REMARK SMILES IDX 68 58 51 59 54 60 67 61 85 62 52 63 53 64 66 66 86 67 55 68
REMARK SMILES IDX 40 69 41 70 49 71 42 72 48 73 43 74 44 75 45 76 46 77 47 78
REMARK SMILES IDX 70 79 71 80 79 81 72 82 78 83 73 84 74 85 75 86 76 87 77 88
REMARK SMILES IDX 56 89 57 90 65 91 58 92 64 93 59 94 60 95 61 96 62 97 63 98
REMARK H PARENT 18 10 3 15 93 30 84 54 54 65
REMARK Flexibility Score: inf
ROOT
ATOM      1  C   UNL A   1      38.334  22.128  25.764  1.00  0.00     0.202 C 
ENDROOT
BRANCH   1   2
ATOM      2  C   UNL A   1      37.289  21.529  24.815  1.00  0.00     0.261 C 
BRANCH   2   3
ATOM      3  O   UNL A   1      36.054  22.262  24.881  1.00  0.00    -0.462 OA
BRANCH   3   4
ATOM      4  C   UNL A   1      35.570  22.716  23.694  1.00  0.00     0.331 C 
ATOM      5  O   UNL A   1      36.240  22.945  22.690  1.00  0.00    -0.250 OA
BRANCH   4   6
ATOM      6  C   UNL A   1      34.037  22.806  23.683  1.00  0.00     0.221 C 
BRANCH   6   7
ATOM      7  N   UNL A   1      33.329  21.589  24.132  1.00  0.00    -0.339 N 
ATOM      8  C   UNL A   1      32.672  21.345  25.305  1.00  0.00     0.243 C 
ATOM      9  O   UNL A   1      31.985  20.326  25.393  1.00  0.00    -0.273 OA
ATOM     10  H   UNL A   1      33.331  20.842  23.490  1.00  0.00     0.164 HD
BRANCH   8  11
ATOM     11  C   UNL A   1      32.755  22.362  26.459  1.00  0.00     0.168 C 
ATOM     12  C   UNL A   1      33.830  21.926  27.457  1.00  0.00     0.041 C 
BRANCH  11  13
ATOM     13  N   UNL A   1      31.369  22.513  26.926  1.00  0.00    -0.341 N 
ATOM     14  C   UNL A   1      30.435  23.502  26.863  1.00  0.00     0.251 C 
ATOM     15  H   UNL A   1      31.039  21.712  27.394  1.00  0.00     0.164 HD
ATOM     16  O   UNL A   1      29.341  23.330  27.389  1.00  0.00    -0.269 OA
BRANCH  14  17
ATOM     17  C   UNL A   1      30.765  24.809  26.284  1.00  0.00     0.039 A 
ATOM     18  C   UNL A   1      32.041  25.315  26.521  1.00  0.00     0.014 A 
ATOM     19  C   UNL A   1      29.859  25.519  25.502  1.00  0.00     0.014 A 
ATOM     20  C   UNL A   1      32.444  26.490  25.890  1.00  0.00     0.005 A 
ATOM     21  C   UNL A   1      30.274  26.688  24.860  1.00  0.00     0.005 A 
ATOM     22  C   UNL A   1      31.586  27.177  25.008  1.00  0.00    -0.043 A 
BRANCH  22  23
ATOM     23  C   UNL A   1      32.093  28.422  24.262  1.00  0.00    -0.013 C 
ATOM     24  C   UNL A   1      32.622  29.440  25.290  1.00  0.00     0.016 C 
ATOM     25  C   UNL A   1      33.233  28.035  23.290  1.00  0.00     0.016 C 
ATOM     26  C   UNL A   1      31.006  29.118  23.413  1.00  0.00     0.016 C 
ENDBRANCH  22  23
ENDBRANCH  14  17
ENDBRANCH  11  13
ENDBRANCH   8  11
ENDBRANCH   6   7
BRANCH   6  27
ATOM     27  C   UNL A   1      33.556  23.301  22.282  1.00  0.00     0.145 C 
ATOM     28  C   UNL A   1      32.926  24.692  22.285  1.00  0.00     0.041 C 
BRANCH  27  29
ATOM     29  O   UNL A   1      32.585  22.437  21.684  1.00  0.00    -0.391 OA
ATOM     30  H   UNL A   1      32.389  22.745  20.786  1.00  0.00     0.211 HD
ENDBRANCH  27  29
ENDBRANCH   6  27
ENDBRANCH   4   6
ENDBRANCH   3   4
ENDBRANCH   2   3
ENDBRANCH   1   2
BRANCH   1  31
ATOM     31  O   UNL A   1      39.538  21.378  25.945  1.00  0.00    -0.374 OA
BRANCH  31  32
ATOM     32  C   UNL A   1      40.475  21.856  26.910  1.00  0.00     0.202 C 
BRANCH  32  33
ATOM     33  C   UNL A   1      41.716  22.591  26.394  1.00  0.00     0.261 C 
BRANCH  33  34
ATOM     34  O   UNL A   1      42.140  23.635  27.286  1.00  0.00    -0.460 OA
BRANCH  34  35
ATOM     35  C   UNL A   1      42.203  24.859  26.709  1.00  0.00     0.338 C 
ATOM     36  O   UNL A   1      42.573  25.114  25.569  1.00  0.00    -0.246 OA
BRANCH  35  37
ATOM     37  C   UNL A   1      41.584  25.882  27.570  1.00  0.00     0.060 A 
ATOM     38  C   UNL A   1      42.259  27.104  27.679  1.00  0.00     0.016 A 
ATOM     39  C   UNL A   1      40.444  25.629  28.336  1.00  0.00     0.016 A 
ATOM     40  C   UNL A   1      41.844  28.048  28.611  1.00  0.00     0.010 A 
ATOM     41  C   UNL A   1      40.031  26.580  29.280  1.00  0.00     0.010 A 
ATOM     42  C   UNL A   1      40.759  27.771  29.453  1.00  0.00    -0.014 A 
BRANCH  42  43
ATOM     43  C   UNL A   1      40.513  28.674  30.606  1.00  0.00     0.031 A 
ATOM     44  C   UNL A   1      41.397  28.569  31.820  1.00  0.00     0.074 A 
ATOM     45  C   UNL A   1      39.580  29.641  30.531  1.00  0.00     0.049 A 
ATOM     46  N   UNL A   1      41.431  29.324  32.888  1.00  0.00    -0.248 NA
ATOM     47  C   UNL A   1      42.379  27.471  31.831  1.00  0.00     0.031 C 
ATOM     48  C   UNL A   1      38.688  29.868  29.395  1.00  0.00     0.029 A 
ATOM     49  N   UNL A   1      39.245  30.624  31.427  1.00  0.00    -0.354 N 
ATOM     50  C   UNL A   1      42.436  28.799  33.693  1.00  0.00     0.074 A 
ATOM     51  C   UNL A   1      42.964  27.640  33.008  1.00  0.00     0.031 C 
ATOM     52  C   UNL A   1      37.912  30.933  29.658  1.00  0.00     0.029 A 
ATOM     53  C   UNL A   1      38.240  31.451  30.986  1.00  0.00     0.049 A 
ATOM     54  H   UNL A   1      39.682  30.728  32.303  1.00  0.00     0.167 HD
ATOM     55  C   UNL A   1      42.886  29.247  34.890  1.00  0.00     0.031 A 
ATOM     56  C   UNL A   1      37.650  32.506  31.582  1.00  0.00     0.031 A 
ATOM     57  C   UNL A   1      42.351  30.391  35.580  1.00  0.00     0.049 A 
ATOM     58  C   UNL A   1      38.135  32.954  32.935  1.00  0.00     0.074 A 
ATOM     59  C   UNL A   1      42.746  30.927  36.794  1.00  0.00     0.029 A 
ATOM     60  N   UNL A   1      41.303  31.173  35.119  1.00  0.00    -0.354 N 
ATOM     61  N   UNL A   1      39.105  32.462  33.669  1.00  0.00    -0.248 NA
ATOM     62  C   UNL A   1      37.454  34.111  33.533  1.00  0.00     0.031 C 
ATOM     63  C   UNL A   1      41.904  32.005  37.089  1.00  0.00     0.029 A 
ATOM     64  C   UNL A   1      41.023  32.175  36.034  1.00  0.00     0.049 A 
ATOM     65  H   UNL A   1      40.829  31.037  34.267  1.00  0.00     0.167 HD
ATOM     66  C   UNL A   1      39.169  33.267  34.802  1.00  0.00     0.074 A 
ATOM     67  C   UNL A   1      38.149  34.286  34.650  1.00  0.00     0.031 C 
ATOM     68  C   UNL A   1      39.999  33.176  35.871  1.00  0.00     0.031 A 
BRANCH  55  69
ATOM     69  C   UNL A   1      43.998  28.471  35.545  1.00  0.00    -0.014 A 
ATOM     70  C   UNL A   1      43.760  27.218  36.140  1.00  0.00     0.010 A 
ATOM     71  C   UNL A   1      45.306  28.989  35.539  1.00  0.00     0.010 A 
ATOM     72  C   UNL A   1      44.803  26.516  36.751  1.00  0.00     0.020 A 
ATOM     73  C   UNL A   1      46.356  28.277  36.128  1.00  0.00     0.020 A 
ATOM     74  C   UNL A   1      46.094  27.053  36.746  1.00  0.00     0.054 A 
BRANCH  74  75
ATOM     75  S   UNL A   1      47.433  26.115  37.532  1.00  0.00     0.124 S 
ATOM     76  O   UNL A   1      46.759  25.547  38.696  1.00  0.00    -0.237 OA
ATOM     77  O   UNL A   1      47.809  25.158  36.494  1.00  0.00    -0.237 OA
ATOM     78  O   UNL A   1      48.440  27.132  37.831  1.00  0.00    -0.744 OA
ENDBRANCH  74  75
ENDBRANCH  55  69
BRANCH  56  79
ATOM     79  C   UNL A   1      36.535  33.215  30.899  1.00  0.00    -0.014 A 
ATOM     80  C   UNL A   1      35.247  33.244  31.460  1.00  0.00     0.010 A 
ATOM     81  C   UNL A   1      36.764  33.874  29.677  1.00  0.00     0.010 A 
ATOM     82  C   UNL A   1      34.203  33.905  30.804  1.00  0.00     0.020 A 
ATOM     83  C   UNL A   1      35.730  34.556  29.031  1.00  0.00     0.020 A 
ATOM     84  C   UNL A   1      34.453  34.558  29.593  1.00  0.00     0.054 A 
BRANCH  84  85
ATOM     85  S   UNL A   1      33.098  35.453  28.783  1.00  0.00     0.124 S 
ATOM     86  O   UNL A   1      33.821  36.438  27.983  1.00  0.00    -0.237 OA
ATOM     87  O   UNL A   1      32.424  34.398  28.031  1.00  0.00    -0.237 OA
ATOM     88  O   UNL A   1      32.332  35.997  29.903  1.00  0.00    -0.744 OA
ENDBRANCH  84  85
ENDBRANCH  56  79
BRANCH  68  89
ATOM     89  C   UNL A   1      39.862  34.222  36.945  1.00  0.00    -0.014 A 
ATOM     90  C   UNL A   1      39.014  34.028  38.050  1.00  0.00     0.010 A 
ATOM     91  C   UNL A   1      40.620  35.405  36.862  1.00  0.00     0.010 A 
ATOM     92  C   UNL A   1      38.894  35.017  39.031  1.00  0.00     0.020 A 
ATOM     93  C   UNL A   1      40.522  36.384  37.854  1.00  0.00     0.020 A 
ATOM     94  C   UNL A   1      39.646  36.192  38.923  1.00  0.00     0.054 A 
BRANCH  94  95
ATOM     95  S   UNL A   1      39.491  37.453  40.218  1.00  0.00     0.124 S 
ATOM     96  O   UNL A   1      38.978  36.672  41.341  1.00  0.00    -0.237 OA
ATOM     97  O   UNL A   1      40.862  37.937  40.364  1.00  0.00    -0.237 OA
ATOM     98  O   UNL A   1      38.554  38.419  39.650  1.00  0.00    -0.744 OA
ENDBRANCH  94  95
ENDBRANCH  68  89
ENDBRANCH  42  43
ENDBRANCH  35  37
ENDBRANCH  34  35
ENDBRANCH  33  34
ENDBRANCH  32  33
ENDBRANCH  31  32
ENDBRANCH   1  31
TORSDOF 24
ENDMDL
MODEL 2
REMARK VINA RESULT:     -10.1      5.894     11.499
REMARK SMILES C[C@H](NC(=O)c1ccc(C(C)(C)C)cc1)C(=O)N[C@@H](C(=O)OCCOCCOC(=O)c1ccc(-c2c3nc(c(-c4ccc(S(=O)(=O)[O-])cc4)c4ccc([nH]4)c(-c4ccc(S(=O)(=O)[O-])cc4)c4nc(c(-c5ccc(S(=O)(=O)[O-])cc5)c5ccc2[nH]5)C=C4)C=C3)cc1)[C@H](C)O
REMARK SMILES IDX 24 1 23 2 22 3 20 4 21 5 19 6 18 7 16 8 17 9 2 11 1 12 3 13
REMARK SMILES IDX 4 14 5 16 6 17 7 18 15 19 8 20 14 21 9 22 10 23 11 24 12 25
REMARK SMILES IDX 13 26 91 27 92 28 93 29 25 31 26 32 27 33 28 34 29 35 30 36
REMARK SMILES IDX 31 37 32 38 90 39 33 40 89 41 34 42 35 43 36 44 83 45 37 46
REMARK SMILES IDX 88 47 82 48 84 49 38 50 87 51 81 52 80 53 39 55 69 56 50 57
REMARK SMILES IDX 68 58 51 59 54 60 67 61 85 62 52 63 53 64 66 66 86 67 55 68
REMARK SMILES IDX 40 69 41 70 49 71 42 72 48 73 43 74 44 75 45 76 46 77 47 78
REMARK SMILES IDX 70 79 71 80 79 81 72 82 78 83 73 84 74 85 75 86 76 87 77 88
REMARK SMILES IDX 56 89 57 90 65 91 58 92 64 93 59 94 60 95 61 96 62 97 63 98
REMARK H PARENT 18 10 3 15 93 30 84 54 54 65
REMARK Flexibility Score: inf
ROOT
ATOM      1  C   UNL A   1      35.219  31.288  27.763  1.00  0.00     0.202 C 
ENDROOT
BRANCH   1   2
ATOM      2  C   UNL A   1      33.845  30.608  27.737  1.00  0.00     0.261 C 
BRANCH   2   3
ATOM      3  O   UNL A   1      33.967  29.215  27.399  1.00  0.00    -0.462 OA
BRANCH   3   4
ATOM      4  C   UNL A   1      32.810  28.580  27.075  1.00  0.00     0.331 C 
ATOM      5  O   UNL A   1      31.739  28.704  27.665  1.00  0.00    -0.250 OA
BRANCH   4   6
ATOM      6  C   UNL A   1      32.935  27.756  25.786  1.00  0.00     0.221 C 
BRANCH   6   7
ATOM      7  N   UNL A   1      34.006  26.738  25.790  1.00  0.00    -0.339 N 
ATOM      8  C   UNL A   1      33.915  25.375  25.739  1.00  0.00     0.243 C 
ATOM      9  O   UNL A   1      34.943  24.723  25.557  1.00  0.00    -0.273 OA
ATOM     10  H   UNL A   1      34.923  27.095  25.834  1.00  0.00     0.164 HD
BRANCH   8  11
ATOM     11  C   UNL A   1      32.539  24.692  25.852  1.00  0.00     0.168 C 
ATOM     12  C   UNL A   1      32.514  23.776  27.078  1.00  0.00     0.041 C 
BRANCH  11  13
ATOM     13  N   UNL A   1      32.298  24.110  24.523  1.00  0.00    -0.341 N 
ATOM     14  C   UNL A   1      31.699  24.541  23.378  1.00  0.00     0.251 C 
ATOM     15  H   UNL A   1      32.653  23.195  24.443  1.00  0.00     0.164 HD
ATOM     16  O   UNL A   1      31.633  23.786  22.414  1.00  0.00    -0.269 OA
BRANCH  14  17
ATOM     17  C   UNL A   1      31.030  25.845  23.327  1.00  0.00     0.039 A 
ATOM     18  C   UNL A   1      31.297  26.662  22.230  1.00  0.00     0.014 A 
ATOM     19  C   UNL A   1      30.140  26.256  24.313  1.00  0.00     0.014 A 
ATOM     20  C   UNL A   1      30.592  27.854  22.073  1.00  0.00     0.005 A 
ATOM     21  C   UNL A   1      29.425  27.445  24.142  1.00  0.00     0.005 A 
ATOM     22  C   UNL A   1      29.607  28.248  23.000  1.00  0.00    -0.043 A 
BRANCH  22  23
ATOM     23  C   UNL A   1      28.787  29.525  22.749  1.00  0.00    -0.013 C 
ATOM     24  C   UNL A   1      29.237  30.611  23.745  1.00  0.00     0.016 C 
ATOM     25  C   UNL A   1      29.012  30.029  21.304  1.00  0.00     0.016 C 
ATOM     26  C   UNL A   1      27.265  29.323  22.915  1.00  0.00     0.016 C 
ENDBRANCH  22  23
ENDBRANCH  14  17
ENDBRANCH  11  13
ENDBRANCH   8  11
ENDBRANCH   6   7
BRANCH   6  27
ATOM     27  C   UNL A   1      33.021  28.718  24.559  1.00  0.00     0.145 C 
ATOM     28  C   UNL A   1      34.165  28.413  23.595  1.00  0.00     0.041 C 
BRANCH  27  29
ATOM     29  O   UNL A   1      33.184  30.090  24.932  1.00  0.00    -0.391 OA
ATOM     30  H   UNL A   1      32.910  30.659  24.196  1.00  0.00     0.211 HD
ENDBRANCH  27  29
ENDBRANCH   6  27
ENDBRANCH   4   6
ENDBRANCH   3   4
ENDBRANCH   2   3
ENDBRANCH   1   2
BRANCH   1  31
ATOM     31  O   UNL A   1      35.295  32.552  28.427  1.00  0.00    -0.374 OA
BRANCH  31  32
ATOM     32  C   UNL A   1      34.598  32.692  29.665  1.00  0.00     0.202 C 
BRANCH  32  33
ATOM     33  C   UNL A   1      35.434  32.829  30.941  1.00  0.00     0.261 C 
BRANCH  33  34
ATOM     34  O   UNL A   1      36.158  31.626  31.249  1.00  0.00    -0.460 OA
BRANCH  34  35
ATOM     35  C   UNL A   1      37.405  31.845  31.731  1.00  0.00     0.338 C 
ATOM     36  O   UNL A   1      37.705  32.506  32.718  1.00  0.00    -0.246 OA
BRANCH  35  37
ATOM     37  C   UNL A   1      38.399  31.024  31.017  1.00  0.00     0.060 A 
ATOM     38  C   UNL A   1      39.395  30.422  31.796  1.00  0.00     0.016 A 
ATOM     39  C   UNL A   1      38.433  30.930  29.624  1.00  0.00     0.016 A 
ATOM     40  C   UNL A   1      40.471  29.790  31.183  1.00  0.00     0.010 A 
ATOM     41  C   UNL A   1      39.522  30.298  29.009  1.00  0.00     0.010 A 
ATOM     42  C   UNL A   1      40.568  29.768  29.786  1.00  0.00    -0.014 A 
BRANCH  42  43
ATOM     43  C   UNL A   1      41.848  29.329  29.176  1.00  0.00     0.031 A 
ATOM     44  C   UNL A   1      43.006  30.291  29.130  1.00  0.00     0.074 A 
ATOM     45  C   UNL A   1      42.009  28.059  28.760  1.00  0.00     0.049 A 
ATOM     46  N   UNL A   1      44.239  30.085  28.744  1.00  0.00    -0.248 NA
ATOM     47  C   UNL A   1      42.741  31.666  29.585  1.00  0.00     0.031 C 
ATOM     48  C   UNL A   1      40.975  27.025  28.787  1.00  0.00     0.029 A 
ATOM     49  N   UNL A   1      43.111  27.423  28.249  1.00  0.00    -0.354 N 
ATOM     50  C   UNL A   1      44.897  31.298  28.914  1.00  0.00     0.074 A 
ATOM     51  C   UNL A   1      43.920  32.245  29.404  1.00  0.00     0.031 C 
ATOM     52  C   UNL A   1      41.497  25.876  28.324  1.00  0.00     0.029 A 
ATOM     53  C   UNL A   1      42.894  26.099  27.951  1.00  0.00     0.049 A 
ATOM     54  H   UNL A   1      43.977  27.871  28.110  1.00  0.00     0.167 HD
ATOM     55  C   UNL A   1      46.201  31.595  28.692  1.00  0.00     0.031 A 
ATOM     56  C   UNL A   1      43.724  25.171  27.438  1.00  0.00     0.031 A 
ATOM     57  C   UNL A   1      47.171  30.658  28.191  1.00  0.00     0.049 A 
ATOM     58  C   UNL A   1      45.157  25.539  27.153  1.00  0.00     0.074 A 
ATOM     59  C   UNL A   1      48.517  30.862  27.940  1.00  0.00     0.029 A 
ATOM     60  N   UNL A   1      46.899  29.339  27.858  1.00  0.00    -0.354 N 
ATOM     61  N   UNL A   1      45.769  26.683  27.345  1.00  0.00    -0.248 NA
ATOM     62  C   UNL A   1      46.014  24.484  26.595  1.00  0.00     0.031 C 
ATOM     63  C   UNL A   1      49.048  29.681  27.411  1.00  0.00     0.029 A 
ATOM     64  C   UNL A   1      48.045  28.724  27.385  1.00  0.00     0.049 A 
ATOM     65  H   UNL A   1      46.020  28.905  27.947  1.00  0.00     0.167 HD
ATOM     66  C   UNL A   1      47.089  26.477  26.959  1.00  0.00     0.074 A 
ATOM     67  C   UNL A   1      47.189  25.095  26.534  1.00  0.00     0.031 C 
ATOM     68  C   UNL A   1      48.127  27.350  26.959  1.00  0.00     0.031 A 
BRANCH  55  69
ATOM     69  C   UNL A   1      46.644  33.008  28.964  1.00  0.00    -0.014 A 
ATOM     70  C   UNL A   1      47.145  33.385  30.223  1.00  0.00     0.010 A 
ATOM     71  C   UNL A   1      46.586  33.967  27.936  1.00  0.00     0.010 A 
ATOM     72  C   UNL A   1      47.544  34.704  30.460  1.00  0.00     0.020 A 
ATOM     73  C   UNL A   1      47.006  35.281  28.163  1.00  0.00     0.020 A 
ATOM     74  C   UNL A   1      47.466  35.645  29.429  1.00  0.00     0.054 A 
BRANCH  74  75
ATOM     75  S   UNL A   1      48.004  37.346  29.757  1.00  0.00     0.124 S 
ATOM     76  O   UNL A   1      48.589  37.729  28.475  1.00  0.00    -0.237 OA
ATOM     77  O   UNL A   1      46.755  38.018  30.104  1.00  0.00    -0.237 OA
ATOM     78  O   UNL A   1      48.957  37.203  30.857  1.00  0.00    -0.744 OA
ENDBRANCH  74  75
ENDBRANCH  55  69
BRANCH  56  79
ATOM     79  C   UNL A   1      43.221  23.798  27.162  1.00  0.00    -0.014 A 
ATOM     80  C   UNL A   1      42.921  23.389  25.852  1.00  0.00     0.010 A 
ATOM     81  C   UNL A   1      43.045  22.887  28.220  1.00  0.00     0.010 A 
ATOM     82  C   UNL A   1      42.439  22.100  25.605  1.00  0.00     0.020 A 
ATOM     83  C   UNL A   1      42.588  21.590  27.975  1.00  0.00     0.020 A 
ATOM     84  C   UNL A   1      42.276  21.208  26.670  1.00  0.00     0.054 A 
BRANCH  84  85
ATOM     85  S   UNL A   1      41.699  19.523  26.323  1.00  0.00     0.124 S 
ATOM     86  O   UNL A   1      42.408  19.208  25.086  1.00  0.00    -0.237 OA
ATOM     87  O   UNL A   1      42.135  18.786  27.507  1.00  0.00    -0.237 OA
ATOM     88  O   UNL A   1      40.252  19.678  26.193  1.00  0.00    -0.744 OA
ENDBRANCH  84  85
ENDBRANCH  56  79
BRANCH  68  89
ATOM     89  C   UNL A   1      49.469  26.829  26.516  1.00  0.00    -0.014 A 
ATOM     90  C   UNL A   1      50.351  26.219  27.425  1.00  0.00     0.010 A 
ATOM     91  C   UNL A   1      49.836  26.922  25.161  1.00  0.00     0.010 A 
ATOM     92  C   UNL A   1      51.596  25.750  26.995  1.00  0.00     0.020 A 
ATOM     93  C   UNL A   1      51.068  26.431  24.722  1.00  0.00     0.020 A 
ATOM     94  C   UNL A   1      51.949  25.865  25.646  1.00  0.00     0.054 A 
BRANCH  94  95
ATOM     95  S   UNL A   1      53.560  25.231  25.104  1.00  0.00     0.124 S 
ATOM     96  O   UNL A   1      53.394  23.791  25.283  1.00  0.00    -0.237 OA
ATOM     97  O   UNL A   1      53.638  25.687  23.718  1.00  0.00    -0.237 OA
ATOM     98  O   UNL A   1      54.507  25.867  26.017  1.00  0.00    -0.744 OA
ENDBRANCH  94  95
ENDBRANCH  68  89
ENDBRANCH  42  43
ENDBRANCH  35  37
ENDBRANCH  34  35
ENDBRANCH  33  34
ENDBRANCH  32  33
ENDBRANCH  31  32
ENDBRANCH   1  31
TORSDOF 24
ENDMDL
MODEL 3
REMARK VINA RESULT:     -10.0      6.197     11.670
REMARK SMILES C[C@H](NC(=O)c1ccc(C(C)(C)C)cc1)C(=O)N[C@@H](C(=O)OCCOCCOC(=O)c1ccc(-c2c3nc(c(-c4ccc(S(=O)(=O)[O-])cc4)c4ccc([nH]4)c(-c4ccc(S(=O)(=O)[O-])cc4)c4nc(c(-c5ccc(S(=O)(=O)[O-])cc5)c5ccc2[nH]5)C=C4)C=C3)cc1)[C@H](C)O
REMARK SMILES IDX 24 1 23 2 22 3 20 4 21 5 19 6 18 7 16 8 17 9 2 11 1 12 3 13
REMARK SMILES IDX 4 14 5 16 6 17 7 18 15 19 8 20 14 21 9 22 10 23 11 24 12 25
REMARK SMILES IDX 13 26 91 27 92 28 93 29 25 31 26 32 27 33 28 34 29 35 30 36
REMARK SMILES IDX 31 37 32 38 90 39 33 40 89 41 34 42 35 43 36 44 83 45 37 46
REMARK SMILES IDX 88 47 82 48 84 49 38 50 87 51 81 52 80 53 39 55 69 56 50 57
REMARK SMILES IDX 68 58 51 59 54 60 67 61 85 62 52 63 53 64 66 66 86 67 55 68
REMARK SMILES IDX 40 69 41 70 49 71 42 72 48 73 43 74 44 75 45 76 46 77 47 78
REMARK SMILES IDX 70 79 71 80 79 81 72 82 78 83 73 84 74 85 75 86 76 87 77 88
REMARK SMILES IDX 56 89 57 90 65 91 58 92 64 93 59 94 60 95 61 96 62 97 63 98
REMARK H PARENT 18 10 3 15 93 30 84 54 54 65
REMARK Flexibility Score: inf
ROOT
ATOM      1  C   UNL A   1      33.505  29.340  27.584  1.00  0.00     0.202 C 
ENDROOT
BRANCH   1   2
ATOM      2  C   UNL A   1      32.207  29.315  26.769  1.00  0.00     0.261 C 
BRANCH   2   3
ATOM      3  O   UNL A   1      31.971  30.587  26.140  1.00  0.00    -0.462 OA
BRANCH   3   4
ATOM      4  C   UNL A   1      31.032  30.596  25.157  1.00  0.00     0.331 C 
ATOM      5  O   UNL A   1      30.124  31.417  25.045  1.00  0.00    -0.250 OA
BRANCH   4   6
ATOM      6  C   UNL A   1      31.287  29.520  24.092  1.00  0.00     0.221 C 
BRANCH   6   7
ATOM      7  N   UNL A   1      32.640  29.526  23.501  1.00  0.00    -0.339 N 
ATOM      8  C   UNL A   1      33.404  28.481  23.058  1.00  0.00     0.243 C 
ATOM      9  O   UNL A   1      34.428  28.730  22.421  1.00  0.00    -0.273 OA
ATOM     10  H   UNL A   1      33.055  30.415  23.411  1.00  0.00     0.164 HD
BRANCH   8  11
ATOM     11  C   UNL A   1      32.946  27.033  23.313  1.00  0.00     0.168 C 
ATOM     12  C   UNL A   1      33.737  26.437  24.479  1.00  0.00     0.041 C 
BRANCH  11  13
ATOM     13  N   UNL A   1      33.017  26.381  21.997  1.00  0.00    -0.341 N 
ATOM     14  C   UNL A   1      33.145  25.095  21.566  1.00  0.00     0.251 C 
ATOM     15  H   UNL A   1      32.959  27.024  21.254  1.00  0.00     0.164 HD
ATOM     16  O   UNL A   1      33.202  24.868  20.362  1.00  0.00    -0.269 OA
BRANCH  14  17
ATOM     17  C   UNL A   1      33.336  23.999  22.522  1.00  0.00     0.039 A 
ATOM     18  C   UNL A   1      32.197  23.343  22.985  1.00  0.00     0.014 A 
ATOM     19  C   UNL A   1      34.600  23.598  22.940  1.00  0.00     0.014 A 
ATOM     20  C   UNL A   1      32.333  22.218  23.795  1.00  0.00     0.005 A 
ATOM     21  C   UNL A   1      34.730  22.459  23.740  1.00  0.00     0.005 A 
ATOM     22  C   UNL A   1      33.603  21.723  24.151  1.00  0.00    -0.043 A 
BRANCH  22  23
ATOM     23  C   UNL A   1      33.717  20.428  24.974  1.00  0.00    -0.013 C 
ATOM     24  C   UNL A   1      33.464  20.756  26.458  1.00  0.00     0.016 C 
ATOM     25  C   UNL A   1      32.671  19.394  24.491  1.00  0.00     0.016 C 
ATOM     26  C   UNL A   1      35.097  19.746  24.862  1.00  0.00     0.016 C 
ENDBRANCH  22  23
ENDBRANCH  14  17
ENDBRANCH  11  13
ENDBRANCH   8  11
ENDBRANCH   6   7
BRANCH   6  27
ATOM     27  C   UNL A   1      30.158  29.577  23.015  1.00  0.00     0.145 C 
ATOM     28  C   UNL A   1      29.444  28.248  22.776  1.00  0.00     0.041 C 
BRANCH  27  29
ATOM     29  O   UNL A   1      30.626  30.001  21.732  1.00  0.00    -0.391 OA
ATOM     30  H   UNL A   1      30.575  29.261  21.108  1.00  0.00     0.211 HD
ENDBRANCH  27  29
ENDBRANCH   6  27
ENDBRANCH   4   6
ENDBRANCH   3   4
ENDBRANCH   2   3
ENDBRANCH   1   2
BRANCH   1  31
ATOM     31  O   UNL A   1      34.634  29.969  26.971  1.00  0.00    -0.374 OA
BRANCH  31  32
ATOM     32  C   UNL A   1      35.104  31.188  27.545  1.00  0.00     0.202 C 
BRANCH  32  33
ATOM     33  C   UNL A   1      35.094  31.307  29.072  1.00  0.00     0.261 C 
BRANCH  33  34
ATOM     34  O   UNL A   1      35.916  30.309  29.701  1.00  0.00    -0.460 OA
BRANCH  34  35
ATOM     35  C   UNL A   1      37.040  30.805  30.273  1.00  0.00     0.338 C 
ATOM     36  O   UNL A   1      37.100  31.632  31.174  1.00  0.00    -0.246 OA
BRANCH  35  37
ATOM     37  C   UNL A   1      38.235  30.085  29.802  1.00  0.00     0.060 A 
ATOM     38  C   UNL A   1      39.158  29.690  30.778  1.00  0.00     0.016 A 
ATOM     39  C   UNL A   1      38.510  29.894  28.445  1.00  0.00     0.016 A 
ATOM     40  C   UNL A   1      40.393  29.175  30.400  1.00  0.00     0.010 A 
ATOM     41  C   UNL A   1      39.758  29.380  28.068  1.00  0.00     0.010 A 
ATOM     42  C   UNL A   1      40.721  29.064  29.043  1.00  0.00    -0.014 A 
BRANCH  42  43
ATOM     43  C   UNL A   1      42.130  28.769  28.681  1.00  0.00     0.031 A 
ATOM     44  C   UNL A   1      42.497  27.377  28.239  1.00  0.00     0.074 A 
ATOM     45  C   UNL A   1      43.050  29.751  28.651  1.00  0.00     0.049 A 
ATOM     46  N   UNL A   1      43.635  26.927  27.776  1.00  0.00    -0.248 NA
ATOM     47  C   UNL A   1      41.438  26.356  28.321  1.00  0.00     0.031 C 
ATOM     48  C   UNL A   1      42.809  31.145  29.020  1.00  0.00     0.029 A 
ATOM     49  N   UNL A   1      44.369  29.724  28.274  1.00  0.00    -0.354 N 
ATOM     50  C   UNL A   1      43.431  25.579  27.508  1.00  0.00     0.074 A 
ATOM     51  C   UNL A   1      42.070  25.273  27.893  1.00  0.00     0.031 C 
ATOM     52  C   UNL A   1      43.942  31.845  28.840  1.00  0.00     0.029 A 
ATOM     53  C   UNL A   1      44.991  30.946  28.361  1.00  0.00     0.049 A 
ATOM     54  H   UNL A   1      44.825  28.907  27.969  1.00  0.00     0.167 HD
ATOM     55  C   UNL A   1      44.294  24.677  26.981  1.00  0.00     0.031 A 
ATOM     56  C   UNL A   1      46.261  31.302  28.085  1.00  0.00     0.031 A 
ATOM     57  C   UNL A   1      45.652  24.977  26.612  1.00  0.00     0.049 A 
ATOM     58  C   UNL A   1      47.216  30.270  27.546  1.00  0.00     0.074 A 
ATOM     59  C   UNL A   1      46.602  24.132  26.062  1.00  0.00     0.029 A 
ATOM     60  N   UNL A   1      46.257  26.216  26.759  1.00  0.00    -0.354 N 
ATOM     61  N   UNL A   1      46.997  29.005  27.273  1.00  0.00    -0.248 NA
ATOM     62  C   UNL A   1      48.587  30.719  27.263  1.00  0.00     0.031 C 
ATOM     63  C   UNL A   1      47.795  24.849  25.922  1.00  0.00     0.029 A 
ATOM     64  C   UNL A   1      47.572  26.154  26.331  1.00  0.00     0.049 A 
ATOM     65  H   UNL A   1      45.815  27.020  27.114  1.00  0.00     0.167 HD
ATOM     66  C   UNL A   1      48.194  28.515  26.760  1.00  0.00     0.074 A 
ATOM     67  C   UNL A   1      49.128  29.623  26.749  1.00  0.00     0.031 C 
ATOM     68  C   UNL A   1      48.492  27.263  26.333  1.00  0.00     0.031 A 
BRANCH  55  69
ATOM     69  C   UNL A   1      43.796  23.267  26.801  1.00  0.00    -0.014 A 
ATOM     70  C   UNL A   1      43.135  22.590  27.841  1.00  0.00     0.010 A 
ATOM     71  C   UNL A   1      43.968  22.621  25.563  1.00  0.00     0.010 A 
ATOM     72  C   UNL A   1      42.688  21.278  27.659  1.00  0.00     0.020 A 
ATOM     73  C   UNL A   1      43.500  21.317  25.370  1.00  0.00     0.020 A 
ATOM     74  C   UNL A   1      42.878  20.648  26.426  1.00  0.00     0.054 A 
BRANCH  74  75
ATOM     75  S   UNL A   1      42.275  18.951  26.209  1.00  0.00     0.124 S 
ATOM     76  O   UNL A   1      40.896  19.174  25.784  1.00  0.00    -0.237 OA
ATOM     77  O   UNL A   1      43.170  18.418  25.185  1.00  0.00    -0.237 OA
ATOM     78  O   UNL A   1      42.428  18.356  27.536  1.00  0.00    -0.744 OA
ENDBRANCH  74  75
ENDBRANCH  55  69
BRANCH  56  79
ATOM     79  C   UNL A   1      46.703  32.704  28.312  1.00  0.00    -0.014 A 
ATOM     80  C   UNL A   1      46.602  33.667  27.294  1.00  0.00     0.010 A 
ATOM     81  C   UNL A   1      47.227  33.083  29.562  1.00  0.00     0.010 A 
ATOM     82  C   UNL A   1      47.031  34.980  27.514  1.00  0.00     0.020 A 
ATOM     83  C   UNL A   1      47.634  34.399  29.795  1.00  0.00     0.020 A 
ATOM     84  C   UNL A   1      47.543  35.337  28.766  1.00  0.00     0.054 A 
BRANCH  84  85
ATOM     85  S   UNL A   1      48.046  37.058  29.049  1.00  0.00     0.124 S 
ATOM     86  O   UNL A   1      46.972  37.550  29.907  1.00  0.00    -0.237 OA
ATOM     87  O   UNL A   1      49.349  36.908  29.691  1.00  0.00    -0.237 OA
ATOM     88  O   UNL A   1      48.084  37.627  27.704  1.00  0.00    -0.744 OA
ENDBRANCH  84  85
ENDBRANCH  56  79
BRANCH  68  89
ATOM     89  C   UNL A   1      49.876  27.031  25.787  1.00  0.00    -0.014 A 
ATOM     90  C   UNL A   1      50.191  27.322  24.448  1.00  0.00     0.010 A 
ATOM     91  C   UNL A   1      50.885  26.545  26.639  1.00  0.00     0.010 A 
ATOM     92  C   UNL A   1      51.480  27.090  23.958  1.00  0.00     0.020 A 
ATOM     93  C   UNL A   1      52.182  26.336  26.160  1.00  0.00     0.020 A 
ATOM     94  C   UNL A   1      52.466  26.593  24.818  1.00  0.00     0.054 A 
BRANCH  94  95
ATOM     95  S   UNL A   1      54.138  26.319  24.168  1.00  0.00     0.124 S 
ATOM     96  O   UNL A   1      54.816  27.556  24.549  1.00  0.00    -0.237 OA
ATOM     97  O   UNL A   1      54.570  25.120  24.881  1.00  0.00    -0.237 OA
ATOM     98  O   UNL A   1      53.926  26.141  22.733  1.00  0.00    -0.744 OA
ENDBRANCH  94  95
ENDBRANCH  68  89
ENDBRANCH  42  43
ENDBRANCH  35  37
ENDBRANCH  34  35
ENDBRANCH  33  34
ENDBRANCH  32  33
ENDBRANCH  31  32
ENDBRANCH   1  31
TORSDOF 24
ENDMDL
