MODEL 1
REMARK VINA RESULT:     -11.9      0.000      0.000
REMARK SMILES O=C(OCCOCCOC(=O)[C@H]1[C@H]2CC[C@H](CC2)[C@@H]1C(=O)Nc1ccc(Cc2ccncc2)cc1)c1ccc(-c2c3nc(c(-c4ccc(S(=O)(=O)[O-])cc4)c4ccc([nH]4)c(-c4ccc(S(=O)(=O)[O-])cc4)c4nc(c(-c5ccc(S(=O)(=O)[O-])cc5)c5ccc2[nH]5)C=C4)C=C3)cc1
REMARK SMILES IDX 7 1 6 2 5 3 4 4 3 5 2 6 1 7 36 8 37 9 95 10 38 11 94 12
REMARK SMILES IDX 39 13 40 14 41 15 88 16 42 17 93 18 87 19 89 20 43 21 92 22
REMARK SMILES IDX 86 23 85 24 44 26 74 27 55 28 73 29 56 30 59 31 72 32 90 33
REMARK SMILES IDX 57 34 58 35 71 37 91 38 60 39 45 40 46 41 54 42 47 43 53 44
REMARK SMILES IDX 48 45 49 46 50 47 51 48 52 49 75 50 76 51 84 52 77 53 83 54
REMARK SMILES IDX 78 55 79 56 80 57 81 58 82 59 61 60 62 61 70 62 63 63 69 64
REMARK SMILES IDX 64 65 65 66 66 67 67 68 68 69 8 70 9 71 10 72 11 73 12 74
REMARK SMILES IDX 13 75 19 76 18 77 14 78 16 79 17 80 15 81 20 82 21 83 22 84
REMARK SMILES IDX 23 86 24 87 35 88 25 89 34 90 26 91 27 92 28 93 29 94 33 95
REMARK SMILES IDX 30 96 32 97 31 98
REMARK H PARENT 89 25 59 36 22 85
REMARK Flexibility Score: inf
ROOT
ATOM      1  C   UNL A   1      35.796  23.745  24.946  1.00  0.00     0.202 C 
ENDROOT
BRANCH   1   2
ATOM      2  O   UNL A   1      37.192  23.451  24.881  1.00  0.00    -0.374 OA
BRANCH   2   3
ATOM      3  C   UNL A   1      38.026  23.953  25.923  1.00  0.00     0.202 C 
BRANCH   3   4
ATOM      4  C   UNL A   1      39.114  23.057  26.522  1.00  0.00     0.261 C 
BRANCH   4   5
ATOM      5  O   UNL A   1      40.380  23.743  26.572  1.00  0.00    -0.460 OA
BRANCH   5   6
ATOM      6  C   UNL A   1      40.583  25.078  26.441  1.00  0.00     0.338 C 
ATOM      7  O   UNL A   1      40.921  25.543  25.356  1.00  0.00    -0.246 OA
BRANCH   6   8
ATOM      8  C   UNL A   1      40.431  25.984  27.607  1.00  0.00     0.060 A 
ATOM      9  C   UNL A   1      41.110  27.191  27.670  1.00  0.00     0.016 A 
ATOM     10  C   UNL A   1      39.536  25.685  28.634  1.00  0.00     0.016 A 
ATOM     11  C   UNL A   1      41.012  28.061  28.714  1.00  0.00     0.010 A 
ATOM     12  C   UNL A   1      39.356  26.598  29.683  1.00  0.00     0.010 A 
ATOM     13  C   UNL A   1      40.095  27.791  29.705  1.00  0.00    -0.014 A 
BRANCH  13  14
ATOM     14  C   UNL A   1      40.069  28.779  30.780  1.00  0.00     0.031 A 
ATOM     15  C   UNL A   1      41.153  28.708  31.796  1.00  0.00     0.074 A 
ATOM     16  C   UNL A   1      39.241  29.835  30.662  1.00  0.00     0.049 A 
ATOM     17  N   UNL A   1      41.308  29.417  32.874  1.00  0.00    -0.248 NA
ATOM     18  C   UNL A   1      42.220  27.716  31.559  1.00  0.00     0.031 C 
ATOM     19  C   UNL A   1      38.328  30.078  29.532  1.00  0.00     0.029 A 
ATOM     20  N   UNL A   1      39.072  30.930  31.457  1.00  0.00    -0.354 N 
ATOM     21  C   UNL A   1      42.450  28.914  33.480  1.00  0.00     0.074 A 
ATOM     22  C   UNL A   1      42.967  27.859  32.641  1.00  0.00     0.031 C 
ATOM     23  C   UNL A   1      37.715  31.258  29.704  1.00  0.00     0.029 A 
ATOM     24  C   UNL A   1      38.107  31.795  30.997  1.00  0.00     0.049 A 
ATOM     25  H   UNL A   1      39.590  31.085  32.280  1.00  0.00     0.167 HD
ATOM     26  C   UNL A   1      42.983  29.300  34.659  1.00  0.00     0.031 A 
ATOM     27  C   UNL A   1      37.563  32.865  31.604  1.00  0.00     0.031 A 
ATOM     28  C   UNL A   1      42.405  30.352  35.446  1.00  0.00     0.049 A 
ATOM     29  C   UNL A   1      38.076  33.183  32.981  1.00  0.00     0.074 A 
ATOM     30  C   UNL A   1      42.751  30.784  36.709  1.00  0.00     0.029 A 
ATOM     31  N   UNL A   1      41.344  31.145  35.020  1.00  0.00    -0.354 N 
ATOM     32  N   UNL A   1      39.063  32.614  33.638  1.00  0.00    -0.248 NA
ATOM     33  C   UNL A   1      37.398  34.257  33.710  1.00  0.00     0.031 C 
ATOM     34  C   UNL A   1      41.861  31.803  37.068  1.00  0.00     0.029 A 
ATOM     35  C   UNL A   1      41.006  32.054  36.001  1.00  0.00     0.049 A 
ATOM     36  H   UNL A   1      40.898  31.069  34.145  1.00  0.00     0.167 HD
ATOM     37  C   UNL A   1      39.137  33.271  34.856  1.00  0.00     0.074 A 
ATOM     38  C   UNL A   1      38.107  34.296  34.830  1.00  0.00     0.031 C 
ATOM     39  C   UNL A   1      39.969  33.054  35.906  1.00  0.00     0.031 A 
BRANCH  26  40
ATOM     40  C   UNL A   1      44.135  28.491  35.181  1.00  0.00    -0.014 A 
ATOM     41  C   UNL A   1      45.471  28.863  34.949  1.00  0.00     0.010 A 
ATOM     42  C   UNL A   1      43.867  27.290  35.863  1.00  0.00     0.010 A 
ATOM     43  C   UNL A   1      46.517  28.026  35.353  1.00  0.00     0.020 A 
ATOM     44  C   UNL A   1      44.908  26.465  36.291  1.00  0.00     0.020 A 
ATOM     45  C   UNL A   1      46.228  26.829  36.017  1.00  0.00     0.054 A 
BRANCH  45  46
ATOM     46  S   UNL A   1      47.601  25.762  36.530  1.00  0.00     0.124 S 
ATOM     47  O   UNL A   1      48.550  25.945  35.433  1.00  0.00    -0.237 OA
ATOM     48  O   UNL A   1      47.999  26.347  37.808  1.00  0.00    -0.237 OA
ATOM     49  O   UNL A   1      46.997  24.435  36.615  1.00  0.00    -0.744 OA
ENDBRANCH  45  46
ENDBRANCH  26  40
BRANCH  27  50
ATOM     50  C   UNL A   1      36.432  33.607  30.979  1.00  0.00    -0.014 A 
ATOM     51  C   UNL A   1      36.532  34.128  29.678  1.00  0.00     0.010 A 
ATOM     52  C   UNL A   1      35.232  33.804  31.694  1.00  0.00     0.010 A 
ATOM     53  C   UNL A   1      35.470  34.848  29.117  1.00  0.00     0.020 A 
ATOM     54  C   UNL A   1      34.158  34.494  31.126  1.00  0.00     0.020 A 
ATOM     55  C   UNL A   1      34.291  35.027  29.844  1.00  0.00     0.054 A 
BRANCH  55  56
ATOM     56  S   UNL A   1      32.920  35.948  29.090  1.00  0.00     0.124 S 
ATOM     57  O   UNL A   1      33.619  37.055  28.442  1.00  0.00    -0.237 OA
ATOM     58  O   UNL A   1      32.332  34.958  28.192  1.00  0.00    -0.237 OA
ATOM     59  O   UNL A   1      32.085  36.317  30.231  1.00  0.00    -0.744 OA
ENDBRANCH  55  56
ENDBRANCH  27  50
BRANCH  39  60
ATOM     60  C   UNL A   1      39.818  33.976  37.078  1.00  0.00    -0.014 A 
ATOM     61  C   UNL A   1      40.410  35.250  37.082  1.00  0.00     0.010 A 
ATOM     62  C   UNL A   1      39.006  33.578  38.155  1.00  0.00     0.010 A 
ATOM     63  C   UNL A   1      40.209  36.107  38.164  1.00  0.00     0.020 A 
ATOM     64  C   UNL A   1      38.778  34.445  39.220  1.00  0.00     0.020 A 
ATOM     65  C   UNL A   1      39.391  35.700  39.223  1.00  0.00     0.054 A 
BRANCH  65  66
ATOM     66  S   UNL A   1      39.094  36.857  40.584  1.00  0.00     0.124 S 
ATOM     67  O   UNL A   1      38.386  36.016  41.545  1.00  0.00    -0.237 OA
ATOM     68  O   UNL A   1      40.446  37.253  40.968  1.00  0.00    -0.237 OA
ATOM     69  O   UNL A   1      38.293  37.914  39.970  1.00  0.00    -0.744 OA
ENDBRANCH  65  66
ENDBRANCH  39  60
ENDBRANCH  13  14
ENDBRANCH   6   8
ENDBRANCH   5   6
ENDBRANCH   4   5
ENDBRANCH   3   4
ENDBRANCH   2   3
ENDBRANCH   1   2
BRANCH   1  70
ATOM     70  C   UNL A   1      35.129  23.468  23.596  1.00  0.00     0.261 C 
BRANCH  70  71
ATOM     71  O   UNL A   1      34.741  24.718  23.000  1.00  0.00    -0.463 OA
BRANCH  71  72
ATOM     72  C   UNL A   1      33.436  25.041  23.187  1.00  0.00     0.310 C 
ATOM     73  O   UNL A   1      32.517  24.622  22.494  1.00  0.00    -0.252 OA
BRANCH  72  74
ATOM     74  C   UNL A   1      33.265  25.957  24.393  1.00  0.00     0.115 C 
ATOM     75  C   UNL A   1      33.869  27.344  24.039  1.00  0.00     0.004 C 
ATOM     76  C   UNL A   1      31.782  26.095  24.811  1.00  0.00     0.096 C 
ATOM     77  C   UNL A   1      33.138  28.019  22.857  1.00  0.00     0.005 C 
ATOM     78  C   UNL A   1      33.666  28.238  25.271  1.00  0.00     0.005 C 
ATOM     79  C   UNL A   1      31.343  27.581  24.554  1.00  0.00     0.002 C 
ATOM     80  C   UNL A   1      31.625  27.945  23.081  1.00  0.00     0.005 C 
ATOM     81  C   UNL A   1      32.170  28.530  25.444  1.00  0.00     0.005 C 
BRANCH  76  82
ATOM     82  C   UNL A   1      31.265  25.640  26.217  1.00  0.00     0.228 C 
ATOM     83  O   UNL A   1      30.660  26.452  26.935  1.00  0.00    -0.274 OA
ATOM     84  N   UNL A   1      31.151  24.350  26.651  1.00  0.00    -0.326 N 
ATOM     85  H   UNL A   1      30.429  24.242  27.312  1.00  0.00     0.169 HD
BRANCH  84  86
ATOM     86  C   UNL A   1      31.809  23.145  26.387  1.00  0.00     0.041 A 
ATOM     87  C   UNL A   1      31.441  22.432  25.239  1.00  0.00     0.026 A 
ATOM     88  C   UNL A   1      32.752  22.594  27.241  1.00  0.00     0.026 A 
ATOM     89  C   UNL A   1      32.190  21.324  24.827  1.00  0.00     0.006 A 
ATOM     90  C   UNL A   1      33.490  21.473  26.848  1.00  0.00     0.006 A 
ATOM     91  C   UNL A   1      33.283  20.894  25.590  1.00  0.00    -0.043 A 
BRANCH  91  92
ATOM     92  C   UNL A   1      34.304  19.942  25.007  1.00  0.00     0.071 C 
BRANCH  92  93
ATOM     93  C   UNL A   1      33.836  18.525  24.874  1.00  0.00    -0.041 A 
ATOM     94  C   UNL A   1      34.318  17.717  23.842  1.00  0.00     0.024 A 
ATOM     95  C   UNL A   1      32.922  17.984  25.780  1.00  0.00     0.024 A 
ATOM     96  C   UNL A   1      33.853  16.416  23.751  1.00  0.00     0.111 A 
ATOM     97  C   UNL A   1      32.521  16.669  25.606  1.00  0.00     0.111 A 
ATOM     98  N   UNL A   1      32.961  15.874  24.607  1.00  0.00    -0.265 NA
ENDBRANCH  92  93
ENDBRANCH  91  92
ENDBRANCH  84  86
ENDBRANCH  76  82
ENDBRANCH  72  74
ENDBRANCH  71  72
ENDBRANCH  70  71
ENDBRANCH   1  70
TORSDOF 21
ENDMDL
MODEL 2
REMARK VINA RESULT:     -11.9      2.220      3.348
REMARK SMILES O=C(OCCOCCOC(=O)[C@H]1[C@H]2CC[C@H](CC2)[C@@H]1C(=O)Nc1ccc(Cc2ccncc2)cc1)c1ccc(-c2c3nc(c(-c4ccc(S(=O)(=O)[O-])cc4)c4ccc([nH]4)c(-c4ccc(S(=O)(=O)[O-])cc4)c4nc(c(-c5ccc(S(=O)(=O)[O-])cc5)c5ccc2[nH]5)C=C4)C=C3)cc1
REMARK SMILES IDX 7 1 6 2 5 3 4 4 3 5 2 6 1 7 36 8 37 9 95 10 38 11 94 12
REMARK SMILES IDX 39 13 40 14 41 15 88 16 42 17 93 18 87 19 89 20 43 21 92 22
REMARK SMILES IDX 86 23 85 24 44 26 74 27 55 28 73 29 56 30 59 31 72 32 90 33
REMARK SMILES IDX 57 34 58 35 71 37 91 38 60 39 45 40 46 41 54 42 47 43 53 44
REMARK SMILES IDX 48 45 49 46 50 47 51 48 52 49 75 50 76 51 84 52 77 53 83 54
REMARK SMILES IDX 78 55 79 56 80 57 81 58 82 59 61 60 62 61 70 62 63 63 69 64
REMARK SMILES IDX 64 65 65 66 66 67 67 68 68 69 8 70 9 71 10 72 11 73 12 74
REMARK SMILES IDX 13 75 19 76 18 77 14 78 16 79 17 80 15 81 20 82 21 83 22 84
REMARK SMILES IDX 23 86 24 87 35 88 25 89 34 90 26 91 27 92 28 93 29 94 33 95
REMARK SMILES IDX 30 96 32 97 31 98
REMARK H PARENT 89 25 59 36 22 85
REMARK Flexibility Score: inf
ROOT
ATOM      1  C   UNL A   1      33.044  23.074  27.051  1.00  0.00     0.202 C 
ENDROOT
BRANCH   1   2
ATOM      2  O   UNL A   1      34.143  23.944  26.778  1.00  0.00    -0.374 OA
BRANCH   2   3
ATOM      3  C   UNL A   1      35.425  23.353  26.576  1.00  0.00     0.202 C 
BRANCH   3   4
ATOM      4  C   UNL A   1      36.480  24.095  25.750  1.00  0.00     0.261 C 
BRANCH   4   5
ATOM      5  O   UNL A   1      37.614  23.248  25.480  1.00  0.00    -0.460 OA
BRANCH   5   6
ATOM      6  C   UNL A   1      38.805  23.258  26.130  1.00  0.00     0.338 C 
ATOM      7  O   UNL A   1      39.517  22.258  26.121  1.00  0.00    -0.246 OA
BRANCH   6   8
ATOM      8  C   UNL A   1      39.246  24.461  26.880  1.00  0.00     0.060 A 
ATOM      9  C   UNL A   1      38.959  24.610  28.228  1.00  0.00     0.016 A 
ATOM     10  C   UNL A   1      40.034  25.437  26.270  1.00  0.00     0.016 A 
ATOM     11  C   UNL A   1      39.334  25.691  28.968  1.00  0.00     0.010 A 
ATOM     12  C   UNL A   1      40.500  26.522  27.026  1.00  0.00     0.010 A 
ATOM     13  C   UNL A   1      40.151  26.631  28.381  1.00  0.00    -0.014 A 
BRANCH  13  14
ATOM     14  C   UNL A   1      40.493  27.752  29.251  1.00  0.00     0.031 A 
ATOM     15  C   UNL A   1      41.856  27.759  29.849  1.00  0.00     0.074 A 
ATOM     16  C   UNL A   1      39.679  28.825  29.267  1.00  0.00     0.049 A 
ATOM     17  N   UNL A   1      42.368  28.595  30.702  1.00  0.00    -0.248 NA
ATOM     18  C   UNL A   1      42.776  26.690  29.413  1.00  0.00     0.031 C 
ATOM     19  C   UNL A   1      38.440  28.964  28.483  1.00  0.00     0.029 A 
ATOM     20  N   UNL A   1      39.793  30.023  29.910  1.00  0.00    -0.354 N 
ATOM     21  C   UNL A   1      43.644  28.117  30.958  1.00  0.00     0.074 A 
ATOM     22  C   UNL A   1      43.844  26.935  30.154  1.00  0.00     0.031 C 
ATOM     23  C   UNL A   1      37.927  30.188  28.680  1.00  0.00     0.029 A 
ATOM     24  C   UNL A   1      38.734  30.869  29.679  1.00  0.00     0.049 A 
ATOM     25  H   UNL A   1      40.558  30.258  30.482  1.00  0.00     0.167 HD
ATOM     26  C   UNL A   1      44.544  28.626  31.826  1.00  0.00     0.031 A 
ATOM     27  C   UNL A   1      38.430  32.037  30.274  1.00  0.00     0.031 A 
ATOM     28  C   UNL A   1      44.270  29.802  32.603  1.00  0.00     0.049 A 
ATOM     29  C   UNL A   1      39.379  32.506  31.342  1.00  0.00     0.074 A 
ATOM     30  C   UNL A   1      45.023  30.378  33.605  1.00  0.00     0.029 A 
ATOM     31  N   UNL A   1      43.132  30.586  32.446  1.00  0.00    -0.354 N 
ATOM     32  N   UNL A   1      40.527  31.978  31.707  1.00  0.00    -0.248 NA
ATOM     33  C   UNL A   1      38.991  33.700  32.095  1.00  0.00     0.031 C 
ATOM     34  C   UNL A   1      44.311  31.481  34.091  1.00  0.00     0.029 A 
ATOM     35  C   UNL A   1      43.149  31.633  33.345  1.00  0.00     0.049 A 
ATOM     36  H   UNL A   1      42.417  30.419  31.789  1.00  0.00     0.167 HD
ATOM     37  C   UNL A   1      41.009  32.785  32.725  1.00  0.00     0.074 A 
ATOM     38  C   UNL A   1      40.036  33.849  32.899  1.00  0.00     0.031 C 
ATOM     39  C   UNL A   1      42.145  32.664  33.459  1.00  0.00     0.031 A 
BRANCH  26  40
ATOM     40  C   UNL A   1      45.801  27.835  32.045  1.00  0.00    -0.014 A 
ATOM     41  C   UNL A   1      45.861  26.770  32.962  1.00  0.00     0.010 A 
ATOM     42  C   UNL A   1      46.971  28.215  31.361  1.00  0.00     0.010 A 
ATOM     43  C   UNL A   1      47.076  26.129  33.222  1.00  0.00     0.020 A 
ATOM     44  C   UNL A   1      48.181  27.560  31.597  1.00  0.00     0.020 A 
ATOM     45  C   UNL A   1      48.230  26.532  32.541  1.00  0.00     0.054 A 
BRANCH  45  46
ATOM     46  S   UNL A   1      49.794  25.685  32.895  1.00  0.00     0.124 S 
ATOM     47  O   UNL A   1      50.751  26.790  32.847  1.00  0.00    -0.237 OA
ATOM     48  O   UNL A   1      49.557  25.120  34.220  1.00  0.00    -0.237 OA
ATOM     49  O   UNL A   1      49.914  24.711  31.814  1.00  0.00    -0.744 OA
ENDBRANCH  45  46
ENDBRANCH  26  40
BRANCH  27  50
ATOM     50  C   UNL A   1      37.159  32.748  29.962  1.00  0.00    -0.014 A 
ATOM     51  C   UNL A   1      37.026  33.529  28.802  1.00  0.00     0.010 A 
ATOM     52  C   UNL A   1      36.059  32.651  30.839  1.00  0.00     0.010 A 
ATOM     53  C   UNL A   1      35.834  34.214  28.538  1.00  0.00     0.020 A 
ATOM     54  C   UNL A   1      34.856  33.307  30.564  1.00  0.00     0.020 A 
ATOM     55  C   UNL A   1      34.757  34.100  29.422  1.00  0.00     0.054 A 
BRANCH  55  56
ATOM     56  S   UNL A   1      33.215  34.983  29.051  1.00  0.00     0.124 S 
ATOM     57  O   UNL A   1      32.632  34.149  28.004  1.00  0.00    -0.237 OA
ATOM     58  O   UNL A   1      32.523  34.962  30.337  1.00  0.00    -0.237 OA
ATOM     59  O   UNL A   1      33.671  36.303  28.619  1.00  0.00    -0.744 OA
ENDBRANCH  55  56
ENDBRANCH  27  50
BRANCH  39  60
ATOM     60  C   UNL A   1      42.402  33.739  34.472  1.00  0.00    -0.014 A 
ATOM     61  C   UNL A   1      42.016  33.582  35.813  1.00  0.00     0.010 A 
ATOM     62  C   UNL A   1      43.110  34.888  34.078  1.00  0.00     0.010 A 
ATOM     63  C   UNL A   1      42.315  34.575  36.745  1.00  0.00     0.020 A 
ATOM     64  C   UNL A   1      43.438  35.867  35.013  1.00  0.00     0.020 A 
ATOM     65  C   UNL A   1      43.028  35.708  36.339  1.00  0.00     0.054 A 
BRANCH  65  66
ATOM     66  S   UNL A   1      43.460  36.952  37.582  1.00  0.00     0.124 S 
ATOM     67  O   UNL A   1      44.464  36.248  38.375  1.00  0.00    -0.237 OA
ATOM     68  O   UNL A   1      43.962  38.056  36.768  1.00  0.00    -0.237 OA
ATOM     69  O   UNL A   1      42.195  37.214  38.265  1.00  0.00    -0.744 OA
ENDBRANCH  65  66
ENDBRANCH  39  60
ENDBRANCH  13  14
ENDBRANCH   6   8
ENDBRANCH   5   6
ENDBRANCH   4   5
ENDBRANCH   3   4
ENDBRANCH   2   3
ENDBRANCH   1   2
BRANCH   1  70
ATOM     70  C   UNL A   1      31.730  23.715  26.597  1.00  0.00     0.261 C 
BRANCH  70  71
ATOM     71  O   UNL A   1      32.021  24.770  25.664  1.00  0.00    -0.463 OA
BRANCH  71  72
ATOM     72  C   UNL A   1      30.938  25.498  25.293  1.00  0.00     0.310 C 
ATOM     73  O   UNL A   1      29.887  25.538  25.920  1.00  0.00    -0.252 OA
BRANCH  72  74
ATOM     74  C   UNL A   1      31.217  26.285  24.018  1.00  0.00     0.115 C 
ATOM     75  C   UNL A   1      30.847  27.772  24.276  1.00  0.00     0.004 C 
ATOM     76  C   UNL A   1      32.691  26.157  23.567  1.00  0.00     0.096 C 
ATOM     77  C   UNL A   1      31.707  28.408  25.391  1.00  0.00     0.005 C 
ATOM     78  C   UNL A   1      31.153  28.532  22.976  1.00  0.00     0.005 C 
ATOM     79  C   UNL A   1      33.364  27.570  23.703  1.00  0.00     0.002 C 
ATOM     80  C   UNL A   1      33.184  28.079  25.149  1.00  0.00     0.005 C 
ATOM     81  C   UNL A   1      32.671  28.571  22.757  1.00  0.00     0.005 C 
BRANCH  76  82
ATOM     82  C   UNL A   1      33.092  25.526  22.191  1.00  0.00     0.228 C 
ATOM     83  O   UNL A   1      33.261  26.264  21.208  1.00  0.00    -0.274 OA
ATOM     84  N   UNL A   1      33.559  24.257  21.997  1.00  0.00    -0.326 N 
ATOM     85  H   UNL A   1      34.156  24.197  21.216  1.00  0.00     0.169 HD
BRANCH  84  86
ATOM     86  C   UNL A   1      33.398  23.024  22.634  1.00  0.00     0.041 A 
ATOM     87  C   UNL A   1      34.487  22.503  23.345  1.00  0.00     0.026 A 
ATOM     88  C   UNL A   1      32.242  22.266  22.537  1.00  0.00     0.026 A 
ATOM     89  C   UNL A   1      34.325  21.372  24.154  1.00  0.00     0.006 A 
ATOM     90  C   UNL A   1      32.079  21.121  23.324  1.00  0.00     0.006 A 
ATOM     91  C   UNL A   1      33.084  20.726  24.216  1.00  0.00    -0.043 A 
BRANCH  91  92
ATOM     92  C   UNL A   1      32.783  19.738  25.320  1.00  0.00     0.071 C 
BRANCH  92  93
ATOM     93  C   UNL A   1      33.054  18.306  24.972  1.00  0.00    -0.041 A 
ATOM     94  C   UNL A   1      32.529  17.277  25.756  1.00  0.00     0.024 A 
ATOM     95  C   UNL A   1      33.824  17.974  23.856  1.00  0.00     0.024 A 
ATOM     96  C   UNL A   1      32.810  15.969  25.403  1.00  0.00     0.111 A 
ATOM     97  C   UNL A   1      34.045  16.634  23.583  1.00  0.00     0.111 A 
ATOM     98  N   UNL A   1      33.562  15.622  24.336  1.00  0.00    -0.265 NA
ENDBRANCH  92  93
ENDBRANCH  91  92
ENDBRANCH  84  86
ENDBRANCH  76  82
ENDBRANCH  72  74
ENDBRANCH  71  72
ENDBRANCH  70  71
ENDBRANCH   1  70
TORSDOF 21
ENDMDL
MODEL 3
REMARK VINA RESULT:     -11.7      6.081     11.144
REMARK SMILES O=C(OCCOCCOC(=O)[C@H]1[C@H]2CC[C@H](CC2)[C@@H]1C(=O)Nc1ccc(Cc2ccncc2)cc1)c1ccc(-c2c3nc(c(-c4ccc(S(=O)(=O)[O-])cc4)c4ccc([nH]4)c(-c4ccc(S(=O)(=O)[O-])cc4)c4nc(c(-c5ccc(S(=O)(=O)[O-])cc5)c5ccc2[nH]5)C=C4)C=C3)cc1
REMARK SMILES IDX 7 1 6 2 5 3 4 4 3 5 2 6 1 7 36 8 37 9 95 10 38 11 94 12
REMARK SMILES IDX 39 13 40 14 41 15 88 16 42 17 93 18 87 19 89 20 43 21 92 22
REMARK SMILES IDX 86 23 85 24 44 26 74 27 55 28 73 29 56 30 59 31 72 32 90 33
REMARK SMILES IDX 57 34 58 35 71 37 91 38 60 39 45 40 46 41 54 42 47 43 53 44
REMARK SMILES IDX 48 45 49 46 50 47 51 48 52 49 75 50 76 51 84 52 77 53 83 54
REMARK SMILES IDX 78 55 79 56 80 57 81 58 82 59 61 60 62 61 70 62 63 63 69 64
REMARK SMILES IDX 64 65 65 66 66 67 67 68 68 69 8 70 9 71 10 72 11 73 12 74
REMARK SMILES IDX 13 75 19 76 18 77 14 78 16 79 17 80 15 81 20 82 21 83 22 84
REMARK SMILES IDX 23 86 24 87 35 88 25 89 34 90 26 91 27 92 28 93 29 94 33 95
REMARK SMILES IDX 30 96 32 97 31 98
REMARK H PARENT 89 25 59 36 22 85
REMARK Flexibility Score: inf
ROOT
ATOM      1  C   UNL A   1      35.404  19.784  24.981  1.00  0.00     0.202 C 
ENDROOT
BRANCH   1   2
ATOM      2  O   UNL A   1      36.333  20.857  25.139  1.00  0.00    -0.374 OA
BRANCH   2   3
ATOM      3  C   UNL A   1      37.704  20.599  24.841  1.00  0.00     0.202 C 
BRANCH   3   4
ATOM      4  C   UNL A   1      38.799  21.230  25.706  1.00  0.00     0.261 C 
BRANCH   4   5
ATOM      5  O   UNL A   1      39.769  20.245  26.111  1.00  0.00    -0.460 OA
BRANCH   5   6
ATOM      6  C   UNL A   1      41.119  20.357  26.033  1.00  0.00     0.338 C 
ATOM      7  O   UNL A   1      41.791  19.409  25.637  1.00  0.00    -0.246 OA
BRANCH   6   8
ATOM      8  C   UNL A   1      41.799  21.609  26.452  1.00  0.00     0.060 A 
ATOM      9  C   UNL A   1      41.947  22.672  25.574  1.00  0.00     0.016 A 
ATOM     10  C   UNL A   1      42.233  21.783  27.765  1.00  0.00     0.016 A 
ATOM     11  C   UNL A   1      42.563  23.843  25.899  1.00  0.00     0.010 A 
ATOM     12  C   UNL A   1      42.800  23.007  28.150  1.00  0.00     0.010 A 
ATOM     13  C   UNL A   1      42.950  24.035  27.207  1.00  0.00    -0.014 A 
BRANCH  13  14
ATOM     14  C   UNL A   1      43.603  25.317  27.454  1.00  0.00     0.031 A 
ATOM     15  C   UNL A   1      42.797  26.375  28.119  1.00  0.00     0.074 A 
ATOM     16  C   UNL A   1      44.941  25.394  27.308  1.00  0.00     0.049 A 
ATOM     17  N   UNL A   1      43.123  27.607  28.379  1.00  0.00    -0.248 NA
ATOM     18  C   UNL A   1      41.446  25.992  28.572  1.00  0.00     0.031 C 
ATOM     19  C   UNL A   1      45.817  24.285  26.896  1.00  0.00     0.029 A 
ATOM     20  N   UNL A   1      45.806  26.421  27.546  1.00  0.00    -0.354 N 
ATOM     21  C   UNL A   1      41.997  28.166  28.963  1.00  0.00     0.074 A 
ATOM     22  C   UNL A   1      40.986  27.138  29.047  1.00  0.00     0.031 C 
ATOM     23  C   UNL A   1      47.094  24.693  26.932  1.00  0.00     0.029 A 
ATOM     24  C   UNL A   1      47.115  26.109  27.261  1.00  0.00     0.049 A 
ATOM     25  H   UNL A   1      45.522  27.299  27.888  1.00  0.00     0.167 HD
ATOM     26  C   UNL A   1      41.836  29.446  29.358  1.00  0.00     0.031 A 
ATOM     27  C   UNL A   1      48.191  26.913  27.210  1.00  0.00     0.031 A 
ATOM     28  C   UNL A   1      42.886  30.418  29.232  1.00  0.00     0.049 A 
ATOM     29  C   UNL A   1      47.952  28.367  27.515  1.00  0.00     0.074 A 
ATOM     30  C   UNL A   1      42.848  31.775  29.476  1.00  0.00     0.029 A 
ATOM     31  N   UNL A   1      44.180  30.112  28.824  1.00  0.00    -0.354 N 
ATOM     32  N   UNL A   1      46.844  28.945  27.925  1.00  0.00    -0.248 NA
ATOM     33  C   UNL A   1      49.082  29.278  27.327  1.00  0.00     0.031 C 
ATOM     34  C   UNL A   1      44.108  32.297  29.161  1.00  0.00     0.029 A 
ATOM     35  C   UNL A   1      44.950  31.256  28.788  1.00  0.00     0.049 A 
ATOM     36  H   UNL A   1      44.500  29.209  28.592  1.00  0.00     0.167 HD
ATOM     37  C   UNL A   1      47.147  30.291  28.061  1.00  0.00     0.074 A 
ATOM     38  C   UNL A   1      48.549  30.431  27.710  1.00  0.00     0.031 C 
ATOM     39  C   UNL A   1      46.348  31.322  28.434  1.00  0.00     0.031 A 
BRANCH  26  40
ATOM     40  C   UNL A   1      40.464  29.850  29.816  1.00  0.00    -0.014 A 
ATOM     41  C   UNL A   1      39.472  30.273  28.913  1.00  0.00     0.010 A 
ATOM     42  C   UNL A   1      40.187  29.870  31.195  1.00  0.00     0.010 A 
ATOM     43  C   UNL A   1      38.244  30.748  29.385  1.00  0.00     0.020 A 
ATOM     44  C   UNL A   1      38.953  30.318  31.669  1.00  0.00     0.020 A 
ATOM     45  C   UNL A   1      37.995  30.772  30.761  1.00  0.00     0.054 A 
BRANCH  45  46
ATOM     46  S   UNL A   1      36.395  31.393  31.348  1.00  0.00     0.124 S 
ATOM     47  O   UNL A   1      35.625  31.460  30.107  1.00  0.00    -0.237 OA
ATOM     48  O   UNL A   1      35.978  30.358  32.290  1.00  0.00    -0.237 OA
ATOM     49  O   UNL A   1      36.722  32.684  31.947  1.00  0.00    -0.744 OA
ENDBRANCH  45  46
ENDBRANCH  26  40
BRANCH  27  50
ATOM     50  C   UNL A   1      49.513  26.397  26.759  1.00  0.00    -0.014 A 
ATOM     51  C   UNL A   1      49.864  26.382  25.398  1.00  0.00     0.010 A 
ATOM     52  C   UNL A   1      50.442  25.905  27.700  1.00  0.00     0.010 A 
ATOM     53  C   UNL A   1      51.100  25.866  24.988  1.00  0.00     0.020 A 
ATOM     54  C   UNL A   1      51.689  25.419  27.298  1.00  0.00     0.020 A 
ATOM     55  C   UNL A   1      52.003  25.387  25.940  1.00  0.00     0.054 A 
BRANCH  55  56
ATOM     56  S   UNL A   1      53.607  24.740  25.387  1.00  0.00     0.124 S 
ATOM     57  O   UNL A   1      53.271  23.366  25.026  1.00  0.00    -0.237 OA
ATOM     58  O   UNL A   1      53.937  25.626  24.273  1.00  0.00    -0.237 OA
ATOM     59  O   UNL A   1      54.461  24.887  26.564  1.00  0.00    -0.744 OA
ENDBRANCH  55  56
ENDBRANCH  27  50
BRANCH  39  60
ATOM     60  C   UNL A   1      46.997  32.671  28.522  1.00  0.00    -0.014 A 
ATOM     61  C   UNL A   1      47.719  33.056  29.664  1.00  0.00     0.010 A 
ATOM     62  C   UNL A   1      46.941  33.526  27.408  1.00  0.00     0.010 A 
ATOM     63  C   UNL A   1      48.357  34.295  29.698  1.00  0.00     0.020 A 
ATOM     64  C   UNL A   1      47.605  34.750  27.428  1.00  0.00     0.020 A 
ATOM     65  C   UNL A   1      48.299  35.132  28.578  1.00  0.00     0.054 A 
BRANCH  65  66
ATOM     66  S   UNL A   1      49.192  36.707  28.624  1.00  0.00     0.124 S 
ATOM     67  O   UNL A   1      50.557  36.288  28.322  1.00  0.00    -0.237 OA
ATOM     68  O   UNL A   1      48.525  37.482  27.582  1.00  0.00    -0.237 OA
ATOM     69  O   UNL A   1      48.973  37.188  29.986  1.00  0.00    -0.744 OA
ENDBRANCH  65  66
ENDBRANCH  39  60
ENDBRANCH  13  14
ENDBRANCH   6   8
ENDBRANCH   5   6
ENDBRANCH   4   5
ENDBRANCH   3   4
ENDBRANCH   2   3
ENDBRANCH   1   2
BRANCH   1  70
ATOM     70  C   UNL A   1      33.984  20.330  24.811  1.00  0.00     0.261 C 
BRANCH  70  71
ATOM     71  O   UNL A   1      34.050  21.628  24.197  1.00  0.00    -0.463 OA
BRANCH  71  72
ATOM     72  C   UNL A   1      32.876  22.054  23.668  1.00  0.00     0.310 C 
ATOM     73  O   UNL A   1      32.182  21.389  22.908  1.00  0.00    -0.252 OA
BRANCH  72  74
ATOM     74  C   UNL A   1      32.517  23.445  24.175  1.00  0.00     0.115 C 
ATOM     75  C   UNL A   1      31.049  23.414  24.682  1.00  0.00     0.004 C 
ATOM     76  C   UNL A   1      33.474  23.920  25.293  1.00  0.00     0.096 C 
ATOM     77  C   UNL A   1      30.857  22.444  25.869  1.00  0.00     0.005 C 
ATOM     78  C   UNL A   1      30.731  24.827  25.194  1.00  0.00     0.005 C 
ATOM     79  C   UNL A   1      32.647  24.032  26.623  1.00  0.00     0.002 C 
ATOM     80  C   UNL A   1      31.959  22.681  26.907  1.00  0.00     0.005 C 
ATOM     81  C   UNL A   1      31.546  25.101  26.465  1.00  0.00     0.005 C 
BRANCH  76  82
ATOM     82  C   UNL A   1      34.375  25.192  25.138  1.00  0.00     0.228 C 
ATOM     83  O   UNL A   1      35.559  25.148  25.508  1.00  0.00    -0.274 OA
ATOM     84  N   UNL A   1      34.091  26.287  24.372  1.00  0.00    -0.326 N 
ATOM     85  H   UNL A   1      34.906  26.732  24.045  1.00  0.00     0.169 HD
BRANCH  84  86
ATOM     86  C   UNL A   1      32.929  26.930  23.940  1.00  0.00     0.041 A 
ATOM     87  C   UNL A   1      32.402  26.570  22.693  1.00  0.00     0.026 A 
ATOM     88  C   UNL A   1      32.318  27.950  24.653  1.00  0.00     0.026 A 
ATOM     89  C   UNL A   1      31.145  27.041  22.296  1.00  0.00     0.006 A 
ATOM     90  C   UNL A   1      31.072  28.444  24.251  1.00  0.00     0.006 A 
ATOM     91  C   UNL A   1      30.431  27.916  23.125  1.00  0.00    -0.043 A 
BRANCH  91  92
ATOM     92  C   UNL A   1      28.956  28.161  22.897  1.00  0.00     0.071 C 
BRANCH  92  93
ATOM     93  C   UNL A   1      28.587  29.593  22.657  1.00  0.00    -0.041 A 
ATOM     94  C   UNL A   1      29.017  30.249  21.502  1.00  0.00     0.024 A 
ATOM     95  C   UNL A   1      27.801  30.294  23.574  1.00  0.00     0.024 A 
ATOM     96  C   UNL A   1      28.660  31.575  21.324  1.00  0.00     0.111 A 
ATOM     97  C   UNL A   1      27.494  31.617  23.304  1.00  0.00     0.111 A 
ATOM     98  N   UNL A   1      27.911  32.277  22.202  1.00  0.00    -0.265 NA
ENDBRANCH  92  93
ENDBRANCH  91  92
ENDBRANCH  84  86
ENDBRANCH  76  82
ENDBRANCH  72  74
ENDBRANCH  71  72
ENDBRANCH  70  71
ENDBRANCH   1  70
TORSDOF 21
ENDMDL
