MODEL 1
REMARK VINA RESULT:     -11.6      0.000      0.000
REMARK SMILES O=C(OCCOCCOC(=O)c1ccc2c(c1)[C@@H]1C=CC[C@@H]1[C@H](c1ccncc1)N2)c1ccc(-c2c3nc(c(-c4ccc(S(=O)(=O)[O-])cc4)c4ccc([nH]4)c(-c4ccc(S(=O)(=O)[O-])cc4)c4nc(c(-c5ccc(S(=O)(=O)[O-])cc5)c5ccc2[nH]5)C=C4)C=C3)cc1
REMARK SMILES IDX 5 1 4 2 3 3 2 4 1 5 31 6 32 7 90 8 33 9 89 10 34 11 35 12
REMARK SMILES IDX 36 13 83 14 37 15 88 16 82 17 84 18 38 19 87 20 81 21 80 22
REMARK SMILES IDX 39 24 69 25 50 26 68 27 51 28 54 29 67 30 85 31 52 32 53 33
REMARK SMILES IDX 66 35 86 36 55 37 40 38 41 39 49 40 42 41 48 42 43 43 44 44
REMARK SMILES IDX 45 45 46 46 47 47 70 48 71 49 79 50 72 51 78 52 73 53 74 54
REMARK SMILES IDX 75 55 76 56 77 57 56 58 57 59 65 60 58 61 64 62 59 63 60 64
REMARK SMILES IDX 61 65 62 66 63 67 6 68 7 69 8 70 9 71 10 72 11 73 12 74
REMARK SMILES IDX 13 75 17 76 14 77 16 78 15 79 18 80 30 81 19 82 22 83 23 84
REMARK SMILES IDX 20 86 21 87 24 88 25 89 29 90 26 91 28 92 27 93
REMARK H PARENT 84 23 54 34 30 85
REMARK Flexibility Score: inf
ROOT
ATOM      1  C   UNL A   1      33.546  30.057  26.769  1.00  0.00     0.202 C 
ENDROOT
BRANCH   1   2
ATOM      2  C   UNL A   1      34.487  30.850  27.681  1.00  0.00     0.261 C 
BRANCH   2   3
ATOM      3  O   UNL A   1      35.451  29.975  28.291  1.00  0.00    -0.460 OA
BRANCH   3   4
ATOM      4  C   UNL A   1      36.449  30.300  29.149  1.00  0.00     0.338 C 
ATOM      5  O   UNL A   1      36.169  30.949  30.156  1.00  0.00    -0.246 OA
BRANCH   4   6
ATOM      6  C   UNL A   1      37.880  29.924  28.931  1.00  0.00     0.060 A 
ATOM      7  C   UNL A   1      38.439  29.644  27.686  1.00  0.00     0.016 A 
ATOM      8  C   UNL A   1      38.739  29.947  30.044  1.00  0.00     0.016 A 
ATOM      9  C   UNL A   1      39.778  29.324  27.544  1.00  0.00     0.010 A 
ATOM     10  C   UNL A   1      40.108  29.686  29.904  1.00  0.00     0.010 A 
ATOM     11  C   UNL A   1      40.627  29.362  28.646  1.00  0.00    -0.014 A 
BRANCH  11  12
ATOM     12  C   UNL A   1      42.035  28.994  28.412  1.00  0.00     0.031 A 
ATOM     13  C   UNL A   1      42.356  27.583  28.032  1.00  0.00     0.074 A 
ATOM     14  C   UNL A   1      42.956  29.975  28.347  1.00  0.00     0.049 A 
ATOM     15  N   UNL A   1      43.508  27.061  27.708  1.00  0.00    -0.248 NA
ATOM     16  C   UNL A   1      41.228  26.636  27.983  1.00  0.00     0.031 C 
ATOM     17  C   UNL A   1      42.687  31.399  28.584  1.00  0.00     0.029 A 
ATOM     18  N   UNL A   1      44.281  29.943  28.006  1.00  0.00    -0.354 N 
ATOM     19  C   UNL A   1      43.248  25.727  27.427  1.00  0.00     0.074 A 
ATOM     20  C   UNL A   1      41.833  25.512  27.631  1.00  0.00     0.031 C 
ATOM     21  C   UNL A   1      43.800  32.106  28.333  1.00  0.00     0.029 A 
ATOM     22  C   UNL A   1      44.875  31.184  27.990  1.00  0.00     0.049 A 
ATOM     23  H   UNL A   1      44.762  29.113  27.792  1.00  0.00     0.167 HD
ATOM     24  C   UNL A   1      44.121  24.770  27.036  1.00  0.00     0.031 A 
ATOM     25  C   UNL A   1      46.156  31.528  27.752  1.00  0.00     0.031 A 
ATOM     26  C   UNL A   1      45.527  25.013  26.866  1.00  0.00     0.049 A 
ATOM     27  C   UNL A   1      47.123  30.425  27.423  1.00  0.00     0.074 A 
ATOM     28  C   UNL A   1      46.533  24.110  26.580  1.00  0.00     0.029 A 
ATOM     29  N   UNL A   1      46.122  26.264  26.962  1.00  0.00    -0.354 N 
ATOM     30  N   UNL A   1      46.882  29.145  27.251  1.00  0.00    -0.248 NA
ATOM     31  C   UNL A   1      48.532  30.802  27.269  1.00  0.00     0.031 C 
ATOM     32  C   UNL A   1      47.745  24.811  26.544  1.00  0.00     0.029 A 
ATOM     33  C   UNL A   1      47.485  26.158  26.753  1.00  0.00     0.049 A 
ATOM     34  H   UNL A   1      45.645  27.104  27.151  1.00  0.00     0.167 HD
ATOM     35  C   UNL A   1      48.110  28.563  26.968  1.00  0.00     0.074 A 
ATOM     36  C   UNL A   1      49.083  29.638  26.953  1.00  0.00     0.031 C 
ATOM     37  C   UNL A   1      48.416  27.258  26.755  1.00  0.00     0.031 A 
BRANCH  24  38
ATOM     38  C   UNL A   1      43.577  23.383  26.843  1.00  0.00    -0.014 A 
ATOM     39  C   UNL A   1      43.109  22.622  27.930  1.00  0.00     0.010 A 
ATOM     40  C   UNL A   1      43.551  22.822  25.554  1.00  0.00     0.010 A 
ATOM     41  C   UNL A   1      42.656  21.314  27.735  1.00  0.00     0.020 A 
ATOM     42  C   UNL A   1      43.080  21.522  25.350  1.00  0.00     0.020 A 
ATOM     43  C   UNL A   1      42.650  20.770  26.446  1.00  0.00     0.054 A 
BRANCH  43  44
ATOM     44  S   UNL A   1      42.054  19.071  26.219  1.00  0.00     0.124 S 
ATOM     45  O   UNL A   1      42.928  18.584  25.157  1.00  0.00    -0.237 OA
ATOM     46  O   UNL A   1      42.274  18.477  27.535  1.00  0.00    -0.237 OA
ATOM     47  O   UNL A   1      40.652  19.242  25.842  1.00  0.00    -0.744 OA
ENDBRANCH  43  44
ENDBRANCH  24  38
BRANCH  25  48
ATOM     48  C   UNL A   1      46.603  32.942  27.906  1.00  0.00    -0.014 A 
ATOM     49  C   UNL A   1      46.625  33.833  26.819  1.00  0.00     0.010 A 
ATOM     50  C   UNL A   1      47.044  33.400  29.163  1.00  0.00     0.010 A 
ATOM     51  C   UNL A   1      47.108  35.138  26.978  1.00  0.00     0.020 A 
ATOM     52  C   UNL A   1      47.495  34.711  29.335  1.00  0.00     0.020 A 
ATOM     53  C   UNL A   1      47.545  35.566  28.236  1.00  0.00     0.054 A 
BRANCH  53  54
ATOM     54  S   UNL A   1      48.164  37.262  28.430  1.00  0.00     0.124 S 
ATOM     55  O   UNL A   1      46.965  38.053  28.171  1.00  0.00    -0.237 OA
ATOM     56  O   UNL A   1      48.643  37.272  29.810  1.00  0.00    -0.237 OA
ATOM     57  O   UNL A   1      49.211  37.362  27.415  1.00  0.00    -0.744 OA
ENDBRANCH  53  54
ENDBRANCH  25  48
BRANCH  37  58
ATOM     58  C   UNL A   1      49.858  26.944  26.474  1.00  0.00    -0.014 A 
ATOM     59  C   UNL A   1      50.755  26.671  27.521  1.00  0.00     0.010 A 
ATOM     60  C   UNL A   1      50.309  26.891  25.143  1.00  0.00     0.010 A 
ATOM     61  C   UNL A   1      52.094  26.390  27.243  1.00  0.00     0.020 A 
ATOM     62  C   UNL A   1      51.639  26.582  24.861  1.00  0.00     0.020 A 
ATOM     63  C   UNL A   1      52.527  26.352  25.914  1.00  0.00     0.054 A 
BRANCH  63  64
ATOM     64  S   UNL A   1      54.263  25.957  25.574  1.00  0.00     0.124 S 
ATOM     65  O   UNL A   1      54.944  27.161  26.040  1.00  0.00    -0.237 OA
ATOM     66  O   UNL A   1      54.484  24.757  26.378  1.00  0.00    -0.237 OA
ATOM     67  O   UNL A   1      54.291  25.743  24.129  1.00  0.00    -0.744 OA
ENDBRANCH  63  64
ENDBRANCH  37  58
ENDBRANCH  11  12
ENDBRANCH   4   6
ENDBRANCH   3   4
ENDBRANCH   2   3
ENDBRANCH   1   2
BRANCH   1  68
ATOM     68  O   UNL A   1      32.247  30.627  26.618  1.00  0.00    -0.374 OA
BRANCH  68  69
ATOM     69  C   UNL A   1      31.499  30.201  25.474  1.00  0.00     0.202 C 
BRANCH  69  70
ATOM     70  C   UNL A   1      32.052  28.859  24.983  1.00  0.00     0.261 C 
BRANCH  70  71
ATOM     71  O   UNL A   1      31.069  27.845  25.245  1.00  0.00    -0.460 OA
BRANCH  71  72
ATOM     72  C   UNL A   1      31.336  27.059  26.321  1.00  0.00     0.338 C 
ATOM     73  O   UNL A   1      31.245  27.350  27.501  1.00  0.00    -0.246 OA
BRANCH  72  74
ATOM     74  C   UNL A   1      31.529  25.685  25.816  1.00  0.00     0.060 A 
ATOM     75  C   UNL A   1      30.649  25.186  24.854  1.00  0.00     0.018 A 
ATOM     76  C   UNL A   1      32.637  24.933  26.204  1.00  0.00     0.022 A 
ATOM     77  C   UNL A   1      30.897  23.944  24.263  1.00  0.00     0.027 A 
ATOM     78  C   UNL A   1      32.883  23.682  25.622  1.00  0.00    -0.017 A 
ATOM     79  C   UNL A   1      31.989  23.165  24.668  1.00  0.00     0.038 A 
ATOM     80  C   UNL A   1      34.096  22.901  26.068  1.00  0.00     0.049 C 
ATOM     81  N   UNL A   1      32.191  21.909  24.094  1.00  0.00    -0.378 N 
ATOM     82  C   UNL A   1      35.397  23.599  25.773  1.00  0.00    -0.023 C 
ATOM     83  C   UNL A   1      34.293  21.567  25.330  1.00  0.00     0.031 C 
ATOM     84  C   UNL A   1      32.961  20.959  24.885  1.00  0.00     0.114 C 
ATOM     85  H   UNL A   1      31.834  21.678  23.206  1.00  0.00     0.161 HD
ATOM     86  C   UNL A   1      36.065  23.021  24.768  1.00  0.00    -0.030 C 
ATOM     87  C   UNL A   1      35.313  21.853  24.215  1.00  0.00     0.034 C 
BRANCH  84  88
ATOM     88  C   UNL A   1      33.145  19.615  24.202  1.00  0.00    -0.022 A 
ATOM     89  C   UNL A   1      32.351  19.322  23.082  1.00  0.00     0.026 A 
ATOM     90  C   UNL A   1      34.053  18.639  24.626  1.00  0.00     0.026 A 
ATOM     91  C   UNL A   1      32.496  18.100  22.448  1.00  0.00     0.111 A 
ATOM     92  C   UNL A   1      34.136  17.450  23.913  1.00  0.00     0.111 A 
ATOM     93  N   UNL A   1      33.377  17.157  22.836  1.00  0.00    -0.265 NA
ENDBRANCH  84  88
ENDBRANCH  72  74
ENDBRANCH  71  72
ENDBRANCH  70  71
ENDBRANCH  69  70
ENDBRANCH  68  69
ENDBRANCH   1  68
TORSDOF 18
ENDMDL
MODEL 2
REMARK VINA RESULT:     -11.5      5.111     11.878
REMARK SMILES O=C(OCCOCCOC(=O)c1ccc2c(c1)[C@@H]1C=CC[C@@H]1[C@H](c1ccncc1)N2)c1ccc(-c2c3nc(c(-c4ccc(S(=O)(=O)[O-])cc4)c4ccc([nH]4)c(-c4ccc(S(=O)(=O)[O-])cc4)c4nc(c(-c5ccc(S(=O)(=O)[O-])cc5)c5ccc2[nH]5)C=C4)C=C3)cc1
REMARK SMILES IDX 5 1 4 2 3 3 2 4 1 5 31 6 32 7 90 8 33 9 89 10 34 11 35 12
REMARK SMILES IDX 36 13 83 14 37 15 88 16 82 17 84 18 38 19 87 20 81 21 80 22
REMARK SMILES IDX 39 24 69 25 50 26 68 27 51 28 54 29 67 30 85 31 52 32 53 33
REMARK SMILES IDX 66 35 86 36 55 37 40 38 41 39 49 40 42 41 48 42 43 43 44 44
REMARK SMILES IDX 45 45 46 46 47 47 70 48 71 49 79 50 72 51 78 52 73 53 74 54
REMARK SMILES IDX 75 55 76 56 77 57 56 58 57 59 65 60 58 61 64 62 59 63 60 64
REMARK SMILES IDX 61 65 62 66 63 67 6 68 7 69 8 70 9 71 10 72 11 73 12 74
REMARK SMILES IDX 13 75 17 76 14 77 16 78 15 79 18 80 30 81 19 82 22 83 23 84
REMARK SMILES IDX 20 86 21 87 24 88 25 89 29 90 26 91 28 92 27 93
REMARK H PARENT 84 23 54 34 30 85
REMARK Flexibility Score: inf
ROOT
ATOM      1  C   UNL A   1      41.047  20.308  26.657  1.00  0.00     0.202 C 
ENDROOT
BRANCH   1   2
ATOM      2  C   UNL A   1      40.251  21.268  25.768  1.00  0.00     0.261 C 
BRANCH   2   3
ATOM      3  O   UNL A   1      39.276  21.983  26.546  1.00  0.00    -0.460 OA
BRANCH   3   4
ATOM      4  C   UNL A   1      38.767  23.219  26.318  1.00  0.00     0.338 C 
ATOM      5  O   UNL A   1      37.913  23.349  25.442  1.00  0.00    -0.246 OA
BRANCH   4   6
ATOM      6  C   UNL A   1      39.199  24.439  27.065  1.00  0.00     0.060 A 
ATOM      7  C   UNL A   1      38.946  24.665  28.417  1.00  0.00     0.016 A 
ATOM      8  C   UNL A   1      39.994  25.377  26.383  1.00  0.00     0.016 A 
ATOM      9  C   UNL A   1      39.392  25.806  29.060  1.00  0.00     0.010 A 
ATOM     10  C   UNL A   1      40.503  26.505  27.039  1.00  0.00     0.010 A 
ATOM     11  C   UNL A   1      40.190  26.724  28.384  1.00  0.00    -0.014 A 
BRANCH  11  12
ATOM     12  C   UNL A   1      40.611  27.919  29.138  1.00  0.00     0.031 A 
ATOM     13  C   UNL A   1      42.036  28.026  29.582  1.00  0.00     0.074 A 
ATOM     14  C   UNL A   1      39.758  28.959  29.226  1.00  0.00     0.049 A 
ATOM     15  N   UNL A   1      42.636  29.014  30.186  1.00  0.00    -0.248 NA
ATOM     16  C   UNL A   1      42.911  26.879  29.282  1.00  0.00     0.031 C 
ATOM     17  C   UNL A   1      38.387  28.970  28.701  1.00  0.00     0.029 A 
ATOM     18  N   UNL A   1      39.930  30.221  29.726  1.00  0.00    -0.354 N 
ATOM     19  C   UNL A   1      43.953  28.608  30.349  1.00  0.00     0.074 A 
ATOM     20  C   UNL A   1      44.066  27.279  29.793  1.00  0.00     0.031 C 
ATOM     21  C   UNL A   1      37.863  30.195  28.865  1.00  0.00     0.029 A 
ATOM     22  C   UNL A   1      38.828  31.030  29.567  1.00  0.00     0.049 A 
ATOM     23  H   UNL A   1      40.762  30.522  30.157  1.00  0.00     0.167 HD
ATOM     24  C   UNL A   1      44.974  29.291  30.917  1.00  0.00     0.031 A 
ATOM     25  C   UNL A   1      38.619  32.298  29.973  1.00  0.00     0.031 A 
ATOM     26  C   UNL A   1      44.822  30.604  31.481  1.00  0.00     0.049 A 
ATOM     27  C   UNL A   1      39.740  32.992  30.695  1.00  0.00     0.074 A 
ATOM     28  C   UNL A   1      45.746  31.358  32.180  1.00  0.00     0.029 A 
ATOM     29  N   UNL A   1      43.660  31.360  31.402  1.00  0.00    -0.354 N 
ATOM     30  N   UNL A   1      40.959  32.560  30.928  1.00  0.00    -0.248 NA
ATOM     31  C   UNL A   1      39.462  34.332  31.222  1.00  0.00     0.031 C 
ATOM     32  C   UNL A   1      45.126  32.555  32.559  1.00  0.00     0.029 A 
ATOM     33  C   UNL A   1      43.837  32.569  32.048  1.00  0.00     0.049 A 
ATOM     34  H   UNL A   1      42.832  31.077  30.951  1.00  0.00     0.167 HD
ATOM     35  C   UNL A   1      41.594  33.577  31.629  1.00  0.00     0.074 A 
ATOM     36  C   UNL A   1      40.635  34.659  31.746  1.00  0.00     0.031 C 
ATOM     37  C   UNL A   1      42.848  33.613  32.145  1.00  0.00     0.031 A 
BRANCH  24  38
ATOM     38  C   UNL A   1      46.302  28.592  31.006  1.00  0.00    -0.014 A 
ATOM     39  C   UNL A   1      46.561  27.639  32.008  1.00  0.00     0.010 A 
ATOM     40  C   UNL A   1      47.314  28.908  30.083  1.00  0.00     0.010 A 
ATOM     41  C   UNL A   1      47.820  27.039  32.104  1.00  0.00     0.020 A 
ATOM     42  C   UNL A   1      48.568  28.295  30.162  1.00  0.00     0.020 A 
ATOM     43  C   UNL A   1      48.818  27.376  31.184  1.00  0.00     0.054 A 
BRANCH  43  44
ATOM     44  S   UNL A   1      50.443  26.582  31.329  1.00  0.00     0.124 S 
ATOM     45  O   UNL A   1      50.649  26.579  32.774  1.00  0.00    -0.237 OA
ATOM     46  O   UNL A   1      50.214  25.272  30.726  1.00  0.00    -0.237 OA
ATOM     47  O   UNL A   1      51.330  27.465  30.576  1.00  0.00    -0.744 OA
ENDBRANCH  43  44
ENDBRANCH  24  38
BRANCH  25  48
ATOM     48  C   UNL A   1      37.287  32.943  29.791  1.00  0.00    -0.014 A 
ATOM     49  C   UNL A   1      36.946  33.612  28.603  1.00  0.00     0.010 A 
ATOM     50  C   UNL A   1      36.348  32.911  30.841  1.00  0.00     0.010 A 
ATOM     51  C   UNL A   1      35.711  34.262  28.482  1.00  0.00     0.020 A 
ATOM     52  C   UNL A   1      35.102  33.529  30.713  1.00  0.00     0.020 A 
ATOM     53  C   UNL A   1      34.799  34.220  29.541  1.00  0.00     0.054 A 
BRANCH  53  54
ATOM     54  S   UNL A   1      33.200  35.062  29.369  1.00  0.00     0.124 S 
ATOM     55  O   UNL A   1      33.605  36.391  28.921  1.00  0.00    -0.237 OA
ATOM     56  O   UNL A   1      32.512  34.241  28.375  1.00  0.00    -0.237 OA
ATOM     57  O   UNL A   1      32.635  35.000  30.716  1.00  0.00    -0.744 OA
ENDBRANCH  53  54
ENDBRANCH  25  48
BRANCH  37  58
ATOM     58  C   UNL A   1      43.241  34.874  32.863  1.00  0.00    -0.014 A 
ATOM     59  C   UNL A   1      43.169  34.959  34.264  1.00  0.00     0.010 A 
ATOM     60  C   UNL A   1      43.718  35.971  32.125  1.00  0.00     0.010 A 
ATOM     61  C   UNL A   1      43.531  36.140  34.914  1.00  0.00     0.020 A 
ATOM     62  C   UNL A   1      44.107  37.142  32.775  1.00  0.00     0.020 A 
ATOM     63  C   UNL A   1      43.993  37.225  34.164  1.00  0.00     0.054 A 
BRANCH  63  64
ATOM     64  S   UNL A   1      44.483  38.739  35.032  1.00  0.00     0.124 S 
ATOM     65  O   UNL A   1      43.775  39.766  34.272  1.00  0.00    -0.237 OA
ATOM     66  O   UNL A   1      43.990  38.507  36.388  1.00  0.00    -0.237 OA
ATOM     67  O   UNL A   1      45.938  38.756  34.900  1.00  0.00    -0.744 OA
ENDBRANCH  63  64
ENDBRANCH  37  58
ENDBRANCH  11  12
ENDBRANCH   4   6
ENDBRANCH   3   4
ENDBRANCH   2   3
ENDBRANCH   1   2
BRANCH   1  68
ATOM     68  O   UNL A   1      41.429  19.090  26.021  1.00  0.00    -0.374 OA
BRANCH  68  69
ATOM     69  C   UNL A   1      42.729  18.588  26.348  1.00  0.00     0.202 C 
BRANCH  69  70
ATOM     70  C   UNL A   1      43.697  18.914  25.204  1.00  0.00     0.261 C 
BRANCH  70  71
ATOM     71  O   UNL A   1      44.248  20.219  25.441  1.00  0.00    -0.460 OA
BRANCH  71  72
ATOM     72  C   UNL A   1      44.597  20.900  24.319  1.00  0.00     0.338 C 
ATOM     73  O   UNL A   1      44.730  20.463  23.189  1.00  0.00    -0.246 OA
BRANCH  72  74
ATOM     74  C   UNL A   1      44.555  22.338  24.655  1.00  0.00     0.060 A 
ATOM     75  C   UNL A   1      43.318  22.979  24.741  1.00  0.00     0.018 A 
ATOM     76  C   UNL A   1      45.721  23.024  24.995  1.00  0.00     0.022 A 
ATOM     77  C   UNL A   1      43.249  24.299  25.192  1.00  0.00     0.027 A 
ATOM     78  C   UNL A   1      45.657  24.352  25.438  1.00  0.00    -0.017 A 
ATOM     79  C   UNL A   1      44.416  25.009  25.507  1.00  0.00     0.038 A 
ATOM     80  C   UNL A   1      46.942  25.058  25.800  1.00  0.00     0.049 C 
ATOM     81  N   UNL A   1      44.325  26.341  25.914  1.00  0.00    -0.378 N 
ATOM     82  C   UNL A   1      47.669  24.420  26.954  1.00  0.00    -0.023 C 
ATOM     83  C   UNL A   1      46.749  26.492  26.317  1.00  0.00     0.031 C 
ATOM     84  C   UNL A   1      45.513  27.157  25.708  1.00  0.00     0.114 C 
ATOM     85  H   UNL A   1      43.505  26.707  26.318  1.00  0.00     0.161 HD
ATOM     86  C   UNL A   1      47.586  25.152  28.071  1.00  0.00    -0.030 C 
ATOM     87  C   UNL A   1      46.776  26.390  27.852  1.00  0.00     0.034 C 
BRANCH  84  88
ATOM     88  C   UNL A   1      45.346  28.593  26.175  1.00  0.00    -0.022 A 
ATOM     89  C   UNL A   1      44.080  29.008  26.616  1.00  0.00     0.026 A 
ATOM     90  C   UNL A   1      46.377  29.538  26.186  1.00  0.00     0.026 A 
ATOM     91  C   UNL A   1      43.902  30.314  27.039  1.00  0.00     0.111 A 
ATOM     92  C   UNL A   1      46.104  30.819  26.644  1.00  0.00     0.111 A 
ATOM     93  N   UNL A   1      44.890  31.230  27.068  1.00  0.00    -0.265 NA
ENDBRANCH  84  88
ENDBRANCH  72  74
ENDBRANCH  71  72
ENDBRANCH  70  71
ENDBRANCH  69  70
ENDBRANCH  68  69
ENDBRANCH   1  68
TORSDOF 18
ENDMDL
MODEL 3
REMARK VINA RESULT:     -11.4      1.301      8.043
REMARK SMILES O=C(OCCOCCOC(=O)c1ccc2c(c1)[C@@H]1C=CC[C@@H]1[C@H](c1ccncc1)N2)c1ccc(-c2c3nc(c(-c4ccc(S(=O)(=O)[O-])cc4)c4ccc([nH]4)c(-c4ccc(S(=O)(=O)[O-])cc4)c4nc(c(-c5ccc(S(=O)(=O)[O-])cc5)c5ccc2[nH]5)C=C4)C=C3)cc1
REMARK SMILES IDX 5 1 4 2 3 3 2 4 1 5 31 6 32 7 90 8 33 9 89 10 34 11 35 12
REMARK SMILES IDX 36 13 83 14 37 15 88 16 82 17 84 18 38 19 87 20 81 21 80 22
REMARK SMILES IDX 39 24 69 25 50 26 68 27 51 28 54 29 67 30 85 31 52 32 53 33
REMARK SMILES IDX 66 35 86 36 55 37 40 38 41 39 49 40 42 41 48 42 43 43 44 44
REMARK SMILES IDX 45 45 46 46 47 47 70 48 71 49 79 50 72 51 78 52 73 53 74 54
REMARK SMILES IDX 75 55 76 56 77 57 56 58 57 59 65 60 58 61 64 62 59 63 60 64
REMARK SMILES IDX 61 65 62 66 63 67 6 68 7 69 8 70 9 71 10 72 11 73 12 74
REMARK SMILES IDX 13 75 17 76 14 77 16 78 15 79 18 80 30 81 19 82 22 83 23 84
REMARK SMILES IDX 20 86 21 87 24 88 25 89 29 90 26 91 28 92 27 93
REMARK H PARENT 84 23 54 34 30 85
REMARK Flexibility Score: inf
ROOT
ATOM      1  C   UNL A   1      34.165  29.943  26.804  1.00  0.00     0.202 C 
ENDROOT
BRANCH   1   2
ATOM      2  C   UNL A   1      35.134  30.293  27.937  1.00  0.00     0.261 C 
BRANCH   2   3
ATOM      3  O   UNL A   1      36.162  29.294  28.047  1.00  0.00    -0.460 OA
BRANCH   3   4
ATOM      4  C   UNL A   1      37.180  29.236  28.940  1.00  0.00     0.338 C 
ATOM      5  O   UNL A   1      36.913  29.316  30.139  1.00  0.00    -0.246 OA
BRANCH   4   6
ATOM      6  C   UNL A   1      38.615  29.093  28.548  1.00  0.00     0.060 A 
ATOM      7  C   UNL A   1      39.108  29.329  27.266  1.00  0.00     0.016 A 
ATOM      8  C   UNL A   1      39.544  28.795  29.561  1.00  0.00     0.016 A 
ATOM      9  C   UNL A   1      40.453  29.203  26.969  1.00  0.00     0.010 A 
ATOM     10  C   UNL A   1      40.916  28.726  29.285  1.00  0.00     0.010 A 
ATOM     11  C   UNL A   1      41.370  28.921  27.978  1.00  0.00    -0.014 A 
BRANCH  11  12
ATOM     12  C   UNL A   1      42.781  28.790  27.574  1.00  0.00     0.031 A 
ATOM     13  C   UNL A   1      43.728  29.904  27.892  1.00  0.00     0.074 A 
ATOM     14  C   UNL A   1      43.214  27.598  27.118  1.00  0.00     0.049 A 
ATOM     15  N   UNL A   1      45.017  29.968  27.699  1.00  0.00    -0.248 NA
ATOM     16  C   UNL A   1      43.154  31.097  28.539  1.00  0.00     0.031 C 
ATOM     17  C   UNL A   1      42.363  26.421  26.901  1.00  0.00     0.029 A 
ATOM     18  N   UNL A   1      44.472  27.154  26.815  1.00  0.00    -0.354 N 
ATOM     19  C   UNL A   1      45.408  31.206  28.189  1.00  0.00     0.074 A 
ATOM     20  C   UNL A   1      44.221  31.870  28.677  1.00  0.00     0.031 C 
ATOM     21  C   UNL A   1      43.133  25.380  26.548  1.00  0.00     0.029 A 
ATOM     22  C   UNL A   1      44.514  25.830  26.443  1.00  0.00     0.049 A 
ATOM     23  H   UNL A   1      45.271  27.727  26.861  1.00  0.00     0.167 HD
ATOM     24  C   UNL A   1      46.653  31.736  28.222  1.00  0.00     0.031 A 
ATOM     25  C   UNL A   1      45.555  25.078  26.035  1.00  0.00     0.031 A 
ATOM     26  C   UNL A   1      47.809  31.057  27.706  1.00  0.00     0.049 A 
ATOM     27  C   UNL A   1      46.908  25.731  25.984  1.00  0.00     0.074 A 
ATOM     28  C   UNL A   1      49.103  31.525  27.580  1.00  0.00     0.029 A 
ATOM     29  N   UNL A   1      47.804  29.752  27.233  1.00  0.00    -0.354 N 
ATOM     30  N   UNL A   1      47.252  26.941  26.364  1.00  0.00    -0.248 NA
ATOM     31  C   UNL A   1      48.011  24.932  25.439  1.00  0.00     0.031 C 
ATOM     32  C   UNL A   1      49.872  30.514  26.992  1.00  0.00     0.029 A 
ATOM     33  C   UNL A   1      49.069  29.398  26.803  1.00  0.00     0.049 A 
ATOM     34  H   UNL A   1      47.015  29.164  27.208  1.00  0.00     0.167 HD
ATOM     35  C   UNL A   1      48.611  27.048  26.105  1.00  0.00     0.074 A 
ATOM     36  C   UNL A   1      49.032  25.766  25.573  1.00  0.00     0.031 C 
ATOM     37  C   UNL A   1      49.439  28.110  26.273  1.00  0.00     0.031 A 
BRANCH  24  38
ATOM     38  C   UNL A   1      46.790  33.129  28.771  1.00  0.00    -0.014 A 
ATOM     39  C   UNL A   1      47.114  33.355  30.121  1.00  0.00     0.010 A 
ATOM     40  C   UNL A   1      46.572  34.231  27.925  1.00  0.00     0.010 A 
ATOM     41  C   UNL A   1      47.185  34.659  30.622  1.00  0.00     0.020 A 
ATOM     42  C   UNL A   1      46.663  35.536  28.416  1.00  0.00     0.020 A 
ATOM     43  C   UNL A   1      46.952  35.741  29.767  1.00  0.00     0.054 A 
BRANCH  43  44
ATOM     44  S   UNL A   1      47.053  37.422  30.441  1.00  0.00     0.124 S 
ATOM     45  O   UNL A   1      47.312  38.213  29.242  1.00  0.00    -0.237 OA
ATOM     46  O   UNL A   1      45.735  37.606  31.042  1.00  0.00    -0.237 OA
ATOM     47  O   UNL A   1      48.163  37.350  31.390  1.00  0.00    -0.744 OA
ENDBRANCH  43  44
ENDBRANCH  24  38
BRANCH  25  48
ATOM     48  C   UNL A   1      45.342  23.680  25.564  1.00  0.00    -0.014 A 
ATOM     49  C   UNL A   1      44.975  23.395  24.237  1.00  0.00     0.010 A 
ATOM     50  C   UNL A   1      45.482  22.610  26.469  1.00  0.00     0.010 A 
ATOM     51  C   UNL A   1      44.720  22.077  23.836  1.00  0.00     0.020 A 
ATOM     52  C   UNL A   1      45.263  21.291  26.066  1.00  0.00     0.020 A 
ATOM     53  C   UNL A   1      44.862  21.034  24.757  1.00  0.00     0.054 A 
BRANCH  53  54
ATOM     54  S   UNL A   1      44.535  19.330  24.223  1.00  0.00     0.124 S 
ATOM     55  O   UNL A   1      43.202  19.093  24.767  1.00  0.00    -0.237 OA
ATOM     56  O   UNL A   1      44.618  19.428  22.768  1.00  0.00    -0.237 OA
ATOM     57  O   UNL A   1      45.612  18.563  24.849  1.00  0.00    -0.744 OA
ENDBRANCH  53  54
ENDBRANCH  25  48
BRANCH  37  58
ATOM     58  C   UNL A   1      50.878  27.907  25.890  1.00  0.00    -0.014 A 
ATOM     59  C   UNL A   1      51.333  28.228  24.599  1.00  0.00     0.010 A 
ATOM     60  C   UNL A   1      51.787  27.420  26.844  1.00  0.00     0.010 A 
ATOM     61  C   UNL A   1      52.671  28.025  24.257  1.00  0.00     0.020 A 
ATOM     62  C   UNL A   1      53.130  27.244  26.514  1.00  0.00     0.020 A 
ATOM     63  C   UNL A   1      53.559  27.530  25.216  1.00  0.00     0.054 A 
BRANCH  63  64
ATOM     64  S   UNL A   1      55.298  27.301  24.758  1.00  0.00     0.124 S 
ATOM     65  O   UNL A   1      55.190  26.872  23.366  1.00  0.00    -0.237 OA
ATOM     66  O   UNL A   1      55.864  28.632  24.964  1.00  0.00    -0.237 OA
ATOM     67  O   UNL A   1      55.768  26.280  25.692  1.00  0.00    -0.744 OA
ENDBRANCH  63  64
ENDBRANCH  37  58
ENDBRANCH  11  12
ENDBRANCH   4   6
ENDBRANCH   3   4
ENDBRANCH   2   3
ENDBRANCH   1   2
BRANCH   1  68
ATOM     68  O   UNL A   1      32.845  30.455  26.975  1.00  0.00    -0.374 OA
BRANCH  68  69
ATOM     69  C   UNL A   1      31.884  30.065  25.988  1.00  0.00     0.202 C 
BRANCH  69  70
ATOM     70  C   UNL A   1      32.412  28.844  25.226  1.00  0.00     0.261 C 
BRANCH  70  71
ATOM     71  O   UNL A   1      31.373  27.854  25.189  1.00  0.00    -0.460 OA
BRANCH  71  72
ATOM     72  C   UNL A   1      31.336  27.027  26.267  1.00  0.00     0.338 C 
ATOM     73  O   UNL A   1      31.011  27.302  27.409  1.00  0.00    -0.246 OA
BRANCH  72  74
ATOM     74  C   UNL A   1      31.529  25.652  25.765  1.00  0.00     0.060 A 
ATOM     75  C   UNL A   1      30.666  25.160  24.785  1.00  0.00     0.018 A 
ATOM     76  C   UNL A   1      32.624  24.892  26.175  1.00  0.00     0.022 A 
ATOM     77  C   UNL A   1      30.917  23.917  24.198  1.00  0.00     0.027 A 
ATOM     78  C   UNL A   1      32.873  23.639  25.598  1.00  0.00    -0.017 A 
ATOM     79  C   UNL A   1      31.995  23.130  24.625  1.00  0.00     0.038 A 
ATOM     80  C   UNL A   1      34.071  22.849  26.068  1.00  0.00     0.049 C 
ATOM     81  N   UNL A   1      32.199  21.872  24.054  1.00  0.00    -0.378 N 
ATOM     82  C   UNL A   1      35.382  23.538  25.800  1.00  0.00    -0.023 C 
ATOM     83  C   UNL A   1      34.273  21.515  25.333  1.00  0.00     0.031 C 
ATOM     84  C   UNL A   1      32.946  20.916  24.861  1.00  0.00     0.114 C 
ATOM     85  H   UNL A   1      31.859  21.645  23.159  1.00  0.00     0.161 HD
ATOM     86  C   UNL A   1      36.067  22.956  24.809  1.00  0.00    -0.030 C 
ATOM     87  C   UNL A   1      35.318  21.793  24.240  1.00  0.00     0.034 C 
BRANCH  84  88
ATOM     88  C   UNL A   1      33.134  19.571  24.181  1.00  0.00    -0.022 A 
ATOM     89  C   UNL A   1      32.268  19.228  23.131  1.00  0.00     0.026 A 
ATOM     90  C   UNL A   1      34.115  18.642  24.541  1.00  0.00     0.026 A 
ATOM     91  C   UNL A   1      32.415  18.004  22.501  1.00  0.00     0.111 A 
ATOM     92  C   UNL A   1      34.194  17.448  23.838  1.00  0.00     0.111 A 
ATOM     93  N   UNL A   1      33.365  17.106  22.829  1.00  0.00    -0.265 NA
ENDBRANCH  84  88
ENDBRANCH  72  74
ENDBRANCH  71  72
ENDBRANCH  70  71
ENDBRANCH  69  70
ENDBRANCH  68  69
ENDBRANCH   1  68
TORSDOF 18
ENDMDL
