MODEL 1
REMARK VINA RESULT:      -8.0      0.000      0.000
REMARK SMILES O=C(N[C@@H](Cc1c[nH]c2ccccc12)C(=O)N[C@@H](CS)C(=O)N[C@@H](CO)C(=O)OCCOCCOC(=O)c1ccc(-c2c3nc(c(-c4ccc(S(=O)(=O)[O-])cc4)c4ccc([nH]4)c(-c4ccc(S(=O)(=O)[O-])cc4)c4nc(c(-c5ccc(S(=O)(=O)[O-])cc5)c5ccc2[nH]5)C=C4)C=C3)cc1)c1ccc(F)cc1
REMARK SMILES IDX 30 1 29 2 27 3 28 4 24 5 23 6 21 7 22 8 18 10 17 11 15 12
REMARK SMILES IDX 16 13 4 15 3 16 1 17 2 18 98 20 99 21 104 22 100 23 103 24
REMARK SMILES IDX 101 25 102 26 5 27 6 28 7 29 14 30 8 31 9 32 13 33 10 35
REMARK SMILES IDX 12 36 11 37 19 38 20 39 25 41 26 42 31 44 32 45 33 46 34 47
REMARK SMILES IDX 35 48 36 49 37 50 38 51 39 52 97 53 40 54 96 55 41 56 42 57
REMARK SMILES IDX 43 58 90 59 44 60 95 61 89 62 91 63 45 64 94 65 88 66 87 67
REMARK SMILES IDX 46 69 76 70 57 71 75 72 58 73 61 74 74 75 92 76 59 77 60 78
REMARK SMILES IDX 73 80 93 81 62 82 47 83 48 84 56 85 49 86 55 87 50 88 51 89
REMARK SMILES IDX 52 90 53 91 54 92 77 93 78 94 86 95 79 96 85 97 80 98 81 99
REMARK SMILES IDX 82 100 83 101 84 102 63 103 64 104 72 105 65 106 71 107
REMARK SMILES IDX 66 108 67 109 68 110 69 111 70 112
REMARK H PARENT 23 9 17 14 3 19 8 34 20 40 26 43 91 68 61 79
REMARK Flexibility Score: inf
ROOT
ATOM      1  C   UNL A   1      41.146  29.777  34.686  1.00  0.00     0.261 C 
ENDROOT
BRANCH   1   2
ATOM      2  O   UNL A   1      41.204  28.853  35.783  1.00  0.00    -0.462 OA
BRANCH   2   3
ATOM      3  C   UNL A   1      42.354  28.869  36.512  1.00  0.00     0.331 C 
ATOM      4  O   UNL A   1      42.715  29.786  37.238  1.00  0.00    -0.250 OA
BRANCH   3   5
ATOM      5  C   UNL A   1      43.173  27.592  36.286  1.00  0.00     0.218 C 
BRANCH   5   6
ATOM      6  N   UNL A   1      44.412  27.553  37.098  1.00  0.00    -0.339 N 
ATOM      7  C   UNL A   1      44.941  26.365  37.497  1.00  0.00     0.244 C 
ATOM      8  O   UNL A   1      44.481  25.878  38.533  1.00  0.00    -0.273 OA
ATOM      9  H   UNL A   1      44.856  28.395  37.351  1.00  0.00     0.164 HD
BRANCH   7  10
ATOM     10  C   UNL A   1      45.991  25.623  36.611  1.00  0.00     0.181 C 
BRANCH  10  11
ATOM     11  N   UNL A   1      45.285  25.028  35.476  1.00  0.00    -0.342 N 
ATOM     12  C   UNL A   1      44.914  23.735  35.252  1.00  0.00     0.243 C 
ATOM     13  O   UNL A   1      43.923  23.578  34.525  1.00  0.00    -0.273 OA
ATOM     14  H   UNL A   1      45.041  25.660  34.762  1.00  0.00     0.164 HD
BRANCH  12  15
ATOM     15  C   UNL A   1      45.669  22.489  35.788  1.00  0.00     0.176 C 
BRANCH  15  16
ATOM     16  N   UNL A   1      45.322  22.194  37.182  1.00  0.00    -0.340 N 
ATOM     17  O   UNL A   1      45.707  21.670  39.344  1.00  0.00    -0.269 OA
ATOM     18  C   UNL A   1      46.166  21.899  38.229  1.00  0.00     0.251 C 
ATOM     19  H   UNL A   1      44.361  22.210  37.396  1.00  0.00     0.164 HD
BRANCH  18  20
ATOM     20  C   UNL A   1      47.628  21.759  38.009  1.00  0.00     0.040 A 
ATOM     21  C   UNL A   1      48.240  20.511  37.825  1.00  0.00     0.017 A 
ATOM     22  C   UNL A   1      48.403  22.928  37.992  1.00  0.00     0.017 A 
ATOM     23  C   UNL A   1      49.631  20.431  37.709  1.00  0.00     0.040 A 
ATOM     24  C   UNL A   1      49.791  22.843  37.859  1.00  0.00     0.040 A 
ATOM     25  C   UNL A   1      50.393  21.596  37.735  1.00  0.00     0.123 A 
ATOM     26  F   UNL A   1      51.727  21.516  37.638  1.00  0.00    -0.207 F 
ENDBRANCH  18  20
ENDBRANCH  15  16
BRANCH  15  27
ATOM     27  C   UNL A   1      45.853  21.254  34.890  1.00  0.00     0.072 C 
BRANCH  27  28
ATOM     28  C   UNL A   1      47.239  20.858  34.508  1.00  0.00    -0.020 A 
ATOM     29  C   UNL A   1      47.617  19.581  34.146  1.00  0.00     0.087 A 
ATOM     30  C   UNL A   1      48.400  21.683  34.347  1.00  0.00     0.003 A 
ATOM     31  N   UNL A   1      48.971  19.563  33.953  1.00  0.00    -0.361 N 
ATOM     32  C   UNL A   1      49.475  20.836  34.064  1.00  0.00     0.046 A 
ATOM     33  C   UNL A   1      48.648  23.070  34.410  1.00  0.00     0.010 A 
ATOM     34  H   UNL A   1      49.504  18.758  33.762  1.00  0.00     0.166 HD
ATOM     35  C   UNL A   1      50.788  21.293  33.906  1.00  0.00     0.026 A 
ATOM     36  C   UNL A   1      49.947  23.550  34.196  1.00  0.00     0.001 A 
ATOM     37  C   UNL A   1      51.003  22.671  33.967  1.00  0.00     0.002 A 
ENDBRANCH  27  28
ENDBRANCH  15  27
ENDBRANCH  12  15
ENDBRANCH  10  11
BRANCH  10  38
ATOM     38  C   UNL A   1      47.295  26.350  36.259  1.00  0.00     0.101 C 
BRANCH  38  39
ATOM     39  S   UNL A   1      47.821  27.702  37.353  1.00  0.00    -0.177 SA
ATOM     40  H   UNL A   1      48.274  28.743  36.602  1.00  0.00     0.102 HD
ENDBRANCH  38  39
ENDBRANCH  10  38
ENDBRANCH   7  10
ENDBRANCH   5   6
BRANCH   5  41
ATOM     41  C   UNL A   1      42.268  26.384  36.577  1.00  0.00     0.193 C 
BRANCH  41  42
ATOM     42  O   UNL A   1      41.994  25.659  35.378  1.00  0.00    -0.394 OA
ATOM     43  H   UNL A   1      41.034  25.599  35.249  1.00  0.00     0.210 HD
ENDBRANCH  41  42
ENDBRANCH   5  41
ENDBRANCH   3   5
ENDBRANCH   2   3
ENDBRANCH   1   2
BRANCH   1  44
ATOM     44  C   UNL A   1      40.021  30.787  34.929  1.00  0.00     0.202 C 
BRANCH  44  45
ATOM     45  O   UNL A   1      38.685  30.298  34.763  1.00  0.00    -0.374 OA
BRANCH  45  46
ATOM     46  C   UNL A   1      37.692  31.231  34.344  1.00  0.00     0.202 C 
BRANCH  46  47
ATOM     47  C   UNL A   1      37.124  31.066  32.926  1.00  0.00     0.261 C 
BRANCH  47  48
ATOM     48  O   UNL A   1      37.505  32.121  32.029  1.00  0.00    -0.460 OA
BRANCH  48  49
ATOM     49  C   UNL A   1      37.294  31.832  30.720  1.00  0.00     0.338 C 
ATOM     50  O   UNL A   1      36.381  32.237  30.012  1.00  0.00    -0.246 OA
BRANCH  49  51
ATOM     51  C   UNL A   1      38.427  31.070  30.176  1.00  0.00     0.060 A 
ATOM     52  C   UNL A   1      39.574  30.973  30.972  1.00  0.00     0.016 A 
ATOM     53  C   UNL A   1      38.408  30.536  28.884  1.00  0.00     0.016 A 
ATOM     54  C   UNL A   1      40.722  30.370  30.465  1.00  0.00     0.010 A 
ATOM     55  C   UNL A   1      39.567  29.937  28.375  1.00  0.00     0.010 A 
ATOM     56  C   UNL A   1      40.737  29.881  29.151  1.00  0.00    -0.014 A 
BRANCH  56  57
ATOM     57  C   UNL A   1      42.029  29.424  28.584  1.00  0.00     0.031 A 
ATOM     58  C   UNL A   1      43.184  30.385  28.510  1.00  0.00     0.074 A 
ATOM     59  C   UNL A   1      42.195  28.138  28.228  1.00  0.00     0.049 A 
ATOM     60  N   UNL A   1      44.430  30.157  28.181  1.00  0.00    -0.248 NA
ATOM     61  C   UNL A   1      42.900  31.785  28.860  1.00  0.00     0.031 C 
ATOM     62  C   UNL A   1      41.159  27.108  28.285  1.00  0.00     0.029 A 
ATOM     63  N   UNL A   1      43.307  27.474  27.774  1.00  0.00    -0.354 N 
ATOM     64  C   UNL A   1      45.082  31.380  28.292  1.00  0.00     0.074 A 
ATOM     65  C   UNL A   1      44.083  32.355  28.678  1.00  0.00     0.031 C 
ATOM     66  C   UNL A   1      41.691  25.934  27.903  1.00  0.00     0.029 A 
ATOM     67  C   UNL A   1      43.096  26.134  27.559  1.00  0.00     0.049 A 
ATOM     68  H   UNL A   1      44.172  27.917  27.619  1.00  0.00     0.167 HD
ATOM     69  C   UNL A   1      46.392  31.665  28.103  1.00  0.00     0.031 A 
ATOM     70  C   UNL A   1      43.944  25.174  27.139  1.00  0.00     0.031 A 
ATOM     71  C   UNL A   1      47.378  30.700  27.689  1.00  0.00     0.049 A 
ATOM     72  C   UNL A   1      45.383  25.526  26.878  1.00  0.00     0.074 A 
ATOM     73  C   UNL A   1      48.732  30.886  27.474  1.00  0.00     0.029 A 
ATOM     74  N   UNL A   1      47.111  29.366  27.415  1.00  0.00    -0.354 N 
ATOM     75  N   UNL A   1      45.989  26.681  27.019  1.00  0.00    -0.248 NA
ATOM     76  C   UNL A   1      46.255  24.437  26.417  1.00  0.00     0.031 C 
ATOM     77  C   UNL A   1      49.274  29.678  27.016  1.00  0.00     0.029 A 
ATOM     78  C   UNL A   1      48.269  28.724  27.005  1.00  0.00     0.049 A 
ATOM     79  H   UNL A   1      46.228  28.938  27.499  1.00  0.00     0.167 HD
ATOM     80  C   UNL A   1      47.321  26.454  26.683  1.00  0.00     0.074 A 
ATOM     81  C   UNL A   1      47.431  25.046  26.356  1.00  0.00     0.031 C 
ATOM     82  C   UNL A   1      48.358  27.328  26.652  1.00  0.00     0.031 A 
BRANCH  69  83
ATOM     83  C   UNL A   1      46.820  33.096  28.306  1.00  0.00    -0.014 A 
ATOM     84  C   UNL A   1      47.263  33.556  29.560  1.00  0.00     0.010 A 
ATOM     85  C   UNL A   1      46.779  33.997  27.225  1.00  0.00     0.010 A 
ATOM     86  C   UNL A   1      47.603  34.900  29.743  1.00  0.00     0.020 A 
ATOM     87  C   UNL A   1      47.144  35.335  27.397  1.00  0.00     0.020 A 
ATOM     88  C   UNL A   1      47.531  35.783  28.662  1.00  0.00     0.054 A 
BRANCH  88  89
ATOM     89  S   UNL A   1      47.964  37.525  28.928  1.00  0.00     0.124 S 
ATOM     90  O   UNL A   1      46.648  38.140  29.084  1.00  0.00    -0.237 OA
ATOM     91  O   UNL A   1      48.780  37.473  30.137  1.00  0.00    -0.237 OA
ATOM     92  O   UNL A   1      48.682  37.894  27.710  1.00  0.00    -0.744 OA
ENDBRANCH  88  89
ENDBRANCH  69  83
BRANCH  70  93
ATOM     93  C   UNL A   1      43.449  23.782  26.961  1.00  0.00    -0.014 A 
ATOM     94  C   UNL A   1      43.170  22.971  28.074  1.00  0.00     0.010 A 
ATOM     95  C   UNL A   1      43.228  23.271  25.669  1.00  0.00     0.010 A 
ATOM     96  C   UNL A   1      42.682  21.673  27.899  1.00  0.00     0.020 A 
ATOM     97  C   UNL A   1      42.715  21.984  25.491  1.00  0.00     0.020 A 
ATOM     98  C   UNL A   1      42.450  21.190  26.608  1.00  0.00     0.054 A 
BRANCH  98  99
ATOM     99  S   UNL A   1      41.742  19.531  26.406  1.00  0.00     0.124 S 
ATOM    100  O   UNL A   1      40.314  19.817  26.327  1.00  0.00    -0.237 OA
ATOM    101  O   UNL A   1      42.366  19.072  25.168  1.00  0.00    -0.237 OA
ATOM    102  O   UNL A   1      42.175  18.827  27.611  1.00  0.00    -0.744 OA
ENDBRANCH  98  99
ENDBRANCH  70  93
BRANCH  82 103
ATOM    103  C   UNL A   1      49.704  26.776  26.261  1.00  0.00    -0.014 A 
ATOM    104  C   UNL A   1      50.518  26.108  27.194  1.00  0.00     0.010 A 
ATOM    105  C   UNL A   1      50.163  26.926  24.939  1.00  0.00     0.010 A 
ATOM    106  C   UNL A   1      51.789  25.656  26.829  1.00  0.00     0.020 A 
ATOM    107  C   UNL A   1      51.420  26.449  24.562  1.00  0.00     0.020 A 
ATOM    108  C   UNL A   1      52.237  25.839  25.518  1.00  0.00     0.054 A 
BRANCH 108 109
ATOM    109  S   UNL A   1      53.894  25.254  25.068  1.00  0.00     0.124 S 
ATOM    110  O   UNL A   1      54.684  25.664  26.226  1.00  0.00    -0.237 OA
ATOM    111  O   UNL A   1      53.699  23.815  24.917  1.00  0.00    -0.237 OA
ATOM    112  O   UNL A   1      54.188  25.970  23.828  1.00  0.00    -0.744 OA
ENDBRANCH 108 109
ENDBRANCH  82 103
ENDBRANCH  56  57
ENDBRANCH  49  51
ENDBRANCH  48  49
ENDBRANCH  47  48
ENDBRANCH  46  47
ENDBRANCH  45  46
ENDBRANCH  44  45
ENDBRANCH   1  44
TORSDOF 29
ENDMDL
MODEL 2
REMARK VINA RESULT:      -7.9      7.987     15.120
REMARK SMILES O=C(N[C@@H](Cc1c[nH]c2ccccc12)C(=O)N[C@@H](CS)C(=O)N[C@@H](CO)C(=O)OCCOCCOC(=O)c1ccc(-c2c3nc(c(-c4ccc(S(=O)(=O)[O-])cc4)c4ccc([nH]4)c(-c4ccc(S(=O)(=O)[O-])cc4)c4nc(c(-c5ccc(S(=O)(=O)[O-])cc5)c5ccc2[nH]5)C=C4)C=C3)cc1)c1ccc(F)cc1
REMARK SMILES IDX 30 1 29 2 27 3 28 4 24 5 23 6 21 7 22 8 18 10 17 11 15 12
REMARK SMILES IDX 16 13 4 15 3 16 1 17 2 18 98 20 99 21 104 22 100 23 103 24
REMARK SMILES IDX 101 25 102 26 5 27 6 28 7 29 14 30 8 31 9 32 13 33 10 35
REMARK SMILES IDX 12 36 11 37 19 38 20 39 25 41 26 42 31 44 32 45 33 46 34 47
REMARK SMILES IDX 35 48 36 49 37 50 38 51 39 52 97 53 40 54 96 55 41 56 42 57
REMARK SMILES IDX 43 58 90 59 44 60 95 61 89 62 91 63 45 64 94 65 88 66 87 67
REMARK SMILES IDX 46 69 76 70 57 71 75 72 58 73 61 74 74 75 92 76 59 77 60 78
REMARK SMILES IDX 73 80 93 81 62 82 47 83 48 84 56 85 49 86 55 87 50 88 51 89
REMARK SMILES IDX 52 90 53 91 54 92 77 93 78 94 86 95 79 96 85 97 80 98 81 99
REMARK SMILES IDX 82 100 83 101 84 102 63 103 64 104 72 105 65 106 71 107
REMARK SMILES IDX 66 108 67 109 68 110 69 111 70 112
REMARK H PARENT 23 9 17 14 3 19 8 34 20 40 26 43 91 68 61 79
REMARK Flexibility Score: inf
ROOT
ATOM      1  C   UNL A   1      38.801  29.774  28.549  1.00  0.00     0.261 C 
ENDROOT
BRANCH   1   2
ATOM      2  O   UNL A   1      37.821  28.836  29.018  1.00  0.00    -0.462 OA
BRANCH   2   3
ATOM      3  C   UNL A   1      36.571  29.336  29.223  1.00  0.00     0.331 C 
ATOM      4  O   UNL A   1      35.980  29.335  30.295  1.00  0.00    -0.250 OA
BRANCH   3   5
ATOM      5  C   UNL A   1      35.970  29.882  27.922  1.00  0.00     0.218 C 
BRANCH   5   6
ATOM      6  N   UNL A   1      35.234  28.852  27.153  1.00  0.00    -0.339 N 
ATOM      7  C   UNL A   1      33.885  28.940  26.994  1.00  0.00     0.244 C 
ATOM      8  O   UNL A   1      33.192  28.476  27.902  1.00  0.00    -0.273 OA
ATOM      9  H   UNL A   1      35.724  28.097  26.755  1.00  0.00     0.164 HD
BRANCH   7  10
ATOM     10  C   UNL A   1      33.276  29.696  25.770  1.00  0.00     0.181 C 
BRANCH  10  11
ATOM     11  N   UNL A   1      34.087  29.377  24.594  1.00  0.00    -0.342 N 
ATOM     12  C   UNL A   1      33.922  28.407  23.650  1.00  0.00     0.243 C 
ATOM     13  O   UNL A   1      34.397  28.657  22.533  1.00  0.00    -0.273 OA
ATOM     14  H   UNL A   1      34.874  29.953  24.465  1.00  0.00     0.164 HD
BRANCH  12  15
ATOM     15  C   UNL A   1      33.251  27.029  23.900  1.00  0.00     0.176 C 
BRANCH  15  16
ATOM     16  N   UNL A   1      32.859  26.375  22.648  1.00  0.00    -0.340 N 
ATOM     17  O   UNL A   1      31.538  25.926  20.872  1.00  0.00    -0.269 OA
ATOM     18  C   UNL A   1      31.715  26.566  21.904  1.00  0.00     0.251 C 
ATOM     19  H   UNL A   1      33.496  25.713  22.293  1.00  0.00     0.164 HD
BRANCH  18  20
ATOM     20  C   UNL A   1      30.641  27.471  22.384  1.00  0.00     0.040 A 
ATOM     21  C   UNL A   1      29.578  27.016  23.177  1.00  0.00     0.017 A 
ATOM     22  C   UNL A   1      30.710  28.822  22.015  1.00  0.00     0.017 A 
ATOM     23  C   UNL A   1      28.549  27.895  23.528  1.00  0.00     0.040 A 
ATOM     24  C   UNL A   1      29.687  29.700  22.381  1.00  0.00     0.040 A 
ATOM     25  C   UNL A   1      28.609  29.225  23.120  1.00  0.00     0.123 A 
ATOM     26  F   UNL A   1      27.613  30.061  23.445  1.00  0.00    -0.207 F 
ENDBRANCH  18  20
ENDBRANCH  15  16
BRANCH  15  27
ATOM     27  C   UNL A   1      33.806  26.086  24.979  1.00  0.00     0.072 C 
BRANCH  27  28
ATOM     28  C   UNL A   1      34.029  24.655  24.622  1.00  0.00    -0.020 A 
ATOM     29  C   UNL A   1      35.178  24.163  24.040  1.00  0.00     0.087 A 
ATOM     30  C   UNL A   1      33.188  23.521  24.877  1.00  0.00     0.003 A 
ATOM     31  N   UNL A   1      34.999  22.835  23.770  1.00  0.00    -0.361 N 
ATOM     32  C   UNL A   1      33.794  22.414  24.276  1.00  0.00     0.046 A 
ATOM     33  C   UNL A   1      31.973  23.322  25.563  1.00  0.00     0.010 A 
ATOM     34  H   UNL A   1      35.639  22.265  23.285  1.00  0.00     0.166 HD
ATOM     35  C   UNL A   1      33.218  21.139  24.269  1.00  0.00     0.026 A 
ATOM     36  C   UNL A   1      31.412  22.039  25.616  1.00  0.00     0.001 A 
ATOM     37  C   UNL A   1      32.017  20.969  24.961  1.00  0.00     0.002 A 
ENDBRANCH  27  28
ENDBRANCH  15  27
ENDBRANCH  12  15
ENDBRANCH  10  11
BRANCH  10  38
ATOM     38  C   UNL A   1      31.760  29.634  25.553  1.00  0.00     0.101 C 
BRANCH  38  39
ATOM     39  S   UNL A   1      30.844  31.203  25.593  1.00  0.00    -0.177 SA
ATOM     40  H   UNL A   1      31.480  32.119  24.815  1.00  0.00     0.102 HD
ENDBRANCH  38  39
ENDBRANCH  10  38
ENDBRANCH   7  10
ENDBRANCH   5   6
BRANCH   5  41
ATOM     41  C   UNL A   1      35.069  31.076  28.275  1.00  0.00     0.193 C 
BRANCH  41  42
ATOM     42  O   UNL A   1      35.358  32.192  27.431  1.00  0.00    -0.394 OA
ATOM     43  H   UNL A   1      36.096  32.698  27.805  1.00  0.00     0.210 HD
ENDBRANCH  41  42
ENDBRANCH   5  41
ENDBRANCH   3   5
ENDBRANCH   2   3
ENDBRANCH   1   2
BRANCH   1  44
ATOM     44  C   UNL A   1      39.743  30.143  29.698  1.00  0.00     0.202 C 
BRANCH  44  45
ATOM     45  O   UNL A   1      39.619  31.472  30.218  1.00  0.00    -0.374 OA
BRANCH  45  46
ATOM     46  C   UNL A   1      38.455  32.211  29.859  1.00  0.00     0.202 C 
BRANCH  46  47
ATOM     47  C   UNL A   1      37.350  32.345  30.918  1.00  0.00     0.261 C 
BRANCH  47  48
ATOM     48  O   UNL A   1      36.406  33.389  30.634  1.00  0.00    -0.460 OA
BRANCH  48  49
ATOM     49  C   UNL A   1      35.886  33.975  31.741  1.00  0.00     0.338 C 
ATOM     50  O   UNL A   1      34.734  34.362  31.900  1.00  0.00    -0.246 OA
BRANCH  49  51
ATOM     51  C   UNL A   1      36.861  33.948  32.841  1.00  0.00     0.060 A 
ATOM     52  C   UNL A   1      38.090  34.581  32.621  1.00  0.00     0.016 A 
ATOM     53  C   UNL A   1      36.620  33.250  34.027  1.00  0.00     0.016 A 
ATOM     54  C   UNL A   1      39.099  34.487  33.575  1.00  0.00     0.010 A 
ATOM     55  C   UNL A   1      37.640  33.151  34.981  1.00  0.00     0.010 A 
ATOM     56  C   UNL A   1      38.893  33.741  34.745  1.00  0.00    -0.014 A 
BRANCH  56  57
ATOM     57  C   UNL A   1      40.051  33.503  35.641  1.00  0.00     0.031 A 
ATOM     58  C   UNL A   1      40.397  34.525  36.688  1.00  0.00     0.074 A 
ATOM     59  C   UNL A   1      40.726  32.341  35.581  1.00  0.00     0.049 A 
ATOM     60  N   UNL A   1      41.276  34.454  37.655  1.00  0.00    -0.248 NA
ATOM     61  C   UNL A   1      39.650  35.792  36.644  1.00  0.00     0.031 C 
ATOM     62  C   UNL A   1      40.462  31.262  34.629  1.00  0.00     0.029 A 
ATOM     63  N   UNL A   1      41.754  31.866  36.354  1.00  0.00    -0.354 N 
ATOM     64  C   UNL A   1      41.182  35.660  38.341  1.00  0.00     0.074 A 
ATOM     65  C   UNL A   1      40.192  36.460  37.652  1.00  0.00     0.031 C 
ATOM     66  C   UNL A   1      41.292  30.237  34.892  1.00  0.00     0.029 A 
ATOM     67  C   UNL A   1      42.155  30.597  36.014  1.00  0.00     0.049 A 
ATOM     68  H   UNL A   1      42.163  32.384  37.084  1.00  0.00     0.167 HD
ATOM     69  C   UNL A   1      41.850  36.061  39.450  1.00  0.00     0.031 A 
ATOM     70  C   UNL A   1      43.106  29.808  36.553  1.00  0.00     0.031 A 
ATOM     71  C   UNL A   1      42.857  35.275  40.115  1.00  0.00     0.049 A 
ATOM     72  C   UNL A   1      43.877  30.298  37.749  1.00  0.00     0.074 A 
ATOM     73  C   UNL A   1      43.589  35.588  41.247  1.00  0.00     0.029 A 
ATOM     74  N   UNL A   1      43.284  34.022  39.700  1.00  0.00    -0.354 N 
ATOM     75  N   UNL A   1      43.754  31.428  38.404  1.00  0.00    -0.248 NA
ATOM     76  C   UNL A   1      44.904  29.396  38.286  1.00  0.00     0.031 C 
ATOM     77  C   UNL A   1      44.498  34.549  41.484  1.00  0.00     0.029 A 
ATOM     78  C   UNL A   1      44.289  33.560  40.535  1.00  0.00     0.049 A 
ATOM     79  H   UNL A   1      42.926  33.532  38.924  1.00  0.00     0.167 HD
ATOM     80  C   UNL A   1      44.675  31.364  39.446  1.00  0.00     0.074 A 
ATOM     81  C   UNL A   1      45.329  30.075  39.343  1.00  0.00     0.031 C 
ATOM     82  C   UNL A   1      44.953  32.287  40.402  1.00  0.00     0.031 A 
BRANCH  69  83
ATOM     83  C   UNL A   1      41.533  37.435  39.983  1.00  0.00    -0.014 A 
ATOM     84  C   UNL A   1      40.374  37.673  40.746  1.00  0.00     0.010 A 
ATOM     85  C   UNL A   1      42.407  38.505  39.717  1.00  0.00     0.010 A 
ATOM     86  C   UNL A   1      40.069  38.965  41.185  1.00  0.00     0.020 A 
ATOM     87  C   UNL A   1      42.118  39.793  40.178  1.00  0.00     0.020 A 
ATOM     88  C   UNL A   1      40.938  40.018  40.890  1.00  0.00     0.054 A 
BRANCH  88  89
ATOM     89  S   UNL A   1      40.512  41.687  41.458  1.00  0.00     0.124 S 
ATOM     90  O   UNL A   1      39.646  42.160  40.381  1.00  0.00    -0.237 OA
ATOM     91  O   UNL A   1      39.845  41.433  42.733  1.00  0.00    -0.237 OA
ATOM     92  O   UNL A   1      41.804  42.361  41.558  1.00  0.00    -0.744 OA
ENDBRANCH  88  89
ENDBRANCH  69  83
BRANCH  70  93
ATOM     93  C   UNL A   1      43.364  28.463  35.972  1.00  0.00    -0.014 A 
ATOM     94  C   UNL A   1      42.720  27.324  36.484  1.00  0.00     0.010 A 
ATOM     95  C   UNL A   1      44.239  28.322  34.879  1.00  0.00     0.010 A 
ATOM     96  C   UNL A   1      42.948  26.067  35.916  1.00  0.00     0.020 A 
ATOM     97  C   UNL A   1      44.449  27.071  34.293  1.00  0.00     0.020 A 
ATOM     98  C   UNL A   1      43.806  25.950  34.819  1.00  0.00     0.054 A 
BRANCH  98  99
ATOM     99  S   UNL A   1      44.026  24.321  34.048  1.00  0.00     0.124 S 
ATOM    100  O   UNL A   1      42.783  23.646  34.402  1.00  0.00    -0.237 OA
ATOM    101  O   UNL A   1      44.183  24.662  32.636  1.00  0.00    -0.237 OA
ATOM    102  O   UNL A   1      45.230  23.800  34.692  1.00  0.00    -0.744 OA
ENDBRANCH  98  99
ENDBRANCH  70  93
BRANCH  82 103
ATOM    103  C   UNL A   1      46.003  31.920  41.419  1.00  0.00    -0.014 A 
ATOM    104  C   UNL A   1      45.658  31.282  42.625  1.00  0.00     0.010 A 
ATOM    105  C   UNL A   1      47.354  32.217  41.165  1.00  0.00     0.010 A 
ATOM    106  C   UNL A   1      46.637  31.004  43.583  1.00  0.00     0.020 A 
ATOM    107  C   UNL A   1      48.340  31.913  42.107  1.00  0.00     0.020 A 
ATOM    108  C   UNL A   1      47.971  31.331  43.322  1.00  0.00     0.054 A 
BRANCH 108 109
ATOM    109  S   UNL A   1      49.224  30.972  44.583  1.00  0.00     0.124 S 
ATOM    110  O   UNL A   1      50.200  30.192  43.827  1.00  0.00    -0.237 OA
ATOM    111  O   UNL A   1      49.664  32.305  44.990  1.00  0.00    -0.237 OA
ATOM    112  O   UNL A   1      48.487  30.229  45.602  1.00  0.00    -0.744 OA
ENDBRANCH 108 109
ENDBRANCH  82 103
ENDBRANCH  56  57
ENDBRANCH  49  51
ENDBRANCH  48  49
ENDBRANCH  47  48
ENDBRANCH  46  47
ENDBRANCH  45  46
ENDBRANCH  44  45
ENDBRANCH   1  44
TORSDOF 29
ENDMDL
MODEL 3
REMARK VINA RESULT:      -7.5      7.967     15.842
REMARK SMILES O=C(N[C@@H](Cc1c[nH]c2ccccc12)C(=O)N[C@@H](CS)C(=O)N[C@@H](CO)C(=O)OCCOCCOC(=O)c1ccc(-c2c3nc(c(-c4ccc(S(=O)(=O)[O-])cc4)c4ccc([nH]4)c(-c4ccc(S(=O)(=O)[O-])cc4)c4nc(c(-c5ccc(S(=O)(=O)[O-])cc5)c5ccc2[nH]5)C=C4)C=C3)cc1)c1ccc(F)cc1
REMARK SMILES IDX 30 1 29 2 27 3 28 4 24 5 23 6 21 7 22 8 18 10 17 11 15 12
REMARK SMILES IDX 16 13 4 15 3 16 1 17 2 18 98 20 99 21 104 22 100 23 103 24
REMARK SMILES IDX 101 25 102 26 5 27 6 28 7 29 14 30 8 31 9 32 13 33 10 35
REMARK SMILES IDX 12 36 11 37 19 38 20 39 25 41 26 42 31 44 32 45 33 46 34 47
REMARK SMILES IDX 35 48 36 49 37 50 38 51 39 52 97 53 40 54 96 55 41 56 42 57
REMARK SMILES IDX 43 58 90 59 44 60 95 61 89 62 91 63 45 64 94 65 88 66 87 67
REMARK SMILES IDX 46 69 76 70 57 71 75 72 58 73 61 74 74 75 92 76 59 77 60 78
REMARK SMILES IDX 73 80 93 81 62 82 47 83 48 84 56 85 49 86 55 87 50 88 51 89
REMARK SMILES IDX 52 90 53 91 54 92 77 93 78 94 86 95 79 96 85 97 80 98 81 99
REMARK SMILES IDX 82 100 83 101 84 102 63 103 64 104 72 105 65 106 71 107
REMARK SMILES IDX 66 108 67 109 68 110 69 111 70 112
REMARK H PARENT 23 9 17 14 3 19 8 34 20 40 26 43 91 68 61 79
REMARK Flexibility Score: inf
ROOT
ATOM      1  C   UNL A   1      42.856  41.715  24.815  1.00  0.00     0.261 C 
ENDROOT
BRANCH   1   2
ATOM      2  O   UNL A   1      42.934  42.014  23.414  1.00  0.00    -0.462 OA
BRANCH   2   3
ATOM      3  C   UNL A   1      43.179  43.315  23.098  1.00  0.00     0.331 C 
ATOM      4  O   UNL A   1      43.272  44.231  23.905  1.00  0.00    -0.250 OA
BRANCH   3   5
ATOM      5  C   UNL A   1      43.293  43.507  21.580  1.00  0.00     0.218 C 
BRANCH   5   6
ATOM      6  N   UNL A   1      44.661  43.252  21.071  1.00  0.00    -0.339 N 
ATOM      7  C   UNL A   1      45.159  43.976  20.032  1.00  0.00     0.244 C 
ATOM      8  O   UNL A   1      44.875  43.581  18.899  1.00  0.00    -0.273 OA
ATOM      9  H   UNL A   1      45.213  42.551  21.486  1.00  0.00     0.164 HD
BRANCH   7  10
ATOM     10  C   UNL A   1      45.949  45.298  20.291  1.00  0.00     0.181 C 
BRANCH  10  11
ATOM     11  N   UNL A   1      47.371  45.023  20.080  1.00  0.00    -0.342 N 
ATOM     12  C   UNL A   1      48.241  44.276  20.819  1.00  0.00     0.243 C 
ATOM     13  O   UNL A   1      49.191  43.784  20.195  1.00  0.00    -0.273 OA
ATOM     14  H   UNL A   1      47.760  45.444  19.281  1.00  0.00     0.164 HD
BRANCH  12  15
ATOM     15  C   UNL A   1      48.146  44.061  22.353  1.00  0.00     0.176 C 
BRANCH  15  16
ATOM     16  N   UNL A   1      47.496  42.791  22.691  1.00  0.00    -0.340 N 
ATOM     17  O   UNL A   1      46.360  41.325  23.979  1.00  0.00    -0.269 OA
ATOM     18  C   UNL A   1      46.849  42.443  23.856  1.00  0.00     0.251 C 
ATOM     19  H   UNL A   1      47.526  42.096  21.993  1.00  0.00     0.164 HD
BRANCH  18  20
ATOM     20  C   UNL A   1      46.818  43.374  25.012  1.00  0.00     0.040 A 
ATOM     21  C   UNL A   1      47.535  43.128  26.191  1.00  0.00     0.017 A 
ATOM     22  C   UNL A   1      46.033  44.531  24.899  1.00  0.00     0.017 A 
ATOM     23  C   UNL A   1      47.399  43.995  27.280  1.00  0.00     0.040 A 
ATOM     24  C   UNL A   1      45.913  45.403  25.984  1.00  0.00     0.040 A 
ATOM     25  C   UNL A   1      46.584  45.118  27.169  1.00  0.00     0.123 A 
ATOM     26  F   UNL A   1      46.445  45.939  28.218  1.00  0.00    -0.207 F 
ENDBRANCH  18  20
ENDBRANCH  15  16
BRANCH  15  27
ATOM     27  C   UNL A   1      49.326  44.447  23.260  1.00  0.00     0.072 C 
BRANCH  27  28
ATOM     28  C   UNL A   1      49.707  45.886  23.351  1.00  0.00    -0.020 A 
ATOM     29  C   UNL A   1      50.027  46.682  22.270  1.00  0.00     0.087 A 
ATOM     30  C   UNL A   1      49.729  46.741  24.502  1.00  0.00     0.003 A 
ATOM     31  N   UNL A   1      50.413  47.911  22.730  1.00  0.00    -0.361 N 
ATOM     32  C   UNL A   1      50.235  47.977  24.090  1.00  0.00     0.046 A 
ATOM     33  C   UNL A   1      49.366  46.591  25.856  1.00  0.00     0.010 A 
ATOM     34  H   UNL A   1      50.765  48.639  22.168  1.00  0.00     0.166 HD
ATOM     35  C   UNL A   1      50.458  49.043  24.968  1.00  0.00     0.026 A 
ATOM     36  C   UNL A   1      49.528  47.669  26.738  1.00  0.00     0.001 A 
ATOM     37  C   UNL A   1      50.084  48.869  26.302  1.00  0.00     0.002 A 
ENDBRANCH  27  28
ENDBRANCH  15  27
ENDBRANCH  12  15
ENDBRANCH  10  11
BRANCH  10  38
ATOM     38  C   UNL A   1      45.435  46.595  19.655  1.00  0.00     0.101 C 
BRANCH  38  39
ATOM     39  S   UNL A   1      45.729  48.144  20.557  1.00  0.00    -0.177 SA
ATOM     40  H   UNL A   1      44.913  48.197  21.645  1.00  0.00     0.102 HD
ENDBRANCH  38  39
ENDBRANCH  10  38
ENDBRANCH   7  10
ENDBRANCH   5   6
BRANCH   5  41
ATOM     41  C   UNL A   1      42.258  42.595  20.903  1.00  0.00     0.193 C 
BRANCH  41  42
ATOM     42  O   UNL A   1      40.954  43.173  20.973  1.00  0.00    -0.394 OA
ATOM     43  H   UNL A   1      41.014  44.061  21.360  1.00  0.00     0.210 HD
ENDBRANCH  41  42
ENDBRANCH   5  41
ENDBRANCH   3   5
ENDBRANCH   2   3
ENDBRANCH   1   2
BRANCH   1  44
ATOM     44  C   UNL A   1      41.417  41.336  25.176  1.00  0.00     0.202 C 
BRANCH  44  45
ATOM     45  O   UNL A   1      41.238  40.627  26.408  1.00  0.00    -0.374 OA
BRANCH  45  46
ATOM     46  C   UNL A   1      42.336  39.857  26.887  1.00  0.00     0.202 C 
BRANCH  46  47
ATOM     47  C   UNL A   1      42.212  38.328  26.812  1.00  0.00     0.261 C 
BRANCH  47  48
ATOM     48  O   UNL A   1      42.848  37.645  27.903  1.00  0.00    -0.460 OA
BRANCH  48  49
ATOM     49  C   UNL A   1      42.333  36.417  28.159  1.00  0.00     0.338 C 
ATOM     50  O   UNL A   1      41.204  36.157  28.556  1.00  0.00    -0.246 OA
BRANCH  49  51
ATOM     51  C   UNL A   1      43.272  35.370  27.733  1.00  0.00     0.060 A 
ATOM     52  C   UNL A   1      44.082  34.797  28.721  1.00  0.00     0.016 A 
ATOM     53  C   UNL A   1      43.424  35.013  26.391  1.00  0.00     0.016 A 
ATOM     54  C   UNL A   1      45.074  33.889  28.364  1.00  0.00     0.010 A 
ATOM     55  C   UNL A   1      44.429  34.104  26.035  1.00  0.00     0.010 A 
ATOM     56  C   UNL A   1      45.279  33.564  27.015  1.00  0.00    -0.014 A 
BRANCH  56  57
ATOM     57  C   UNL A   1      46.464  32.748  26.659  1.00  0.00     0.031 A 
ATOM     58  C   UNL A   1      47.798  33.420  26.484  1.00  0.00     0.074 A 
ATOM     59  C   UNL A   1      46.367  31.409  26.586  1.00  0.00     0.049 A 
ATOM     60  N   UNL A   1      48.979  32.883  26.310  1.00  0.00    -0.248 NA
ATOM     61  C   UNL A   1      47.805  34.891  26.519  1.00  0.00     0.031 C 
ATOM     62  C   UNL A   1      45.134  30.643  26.767  1.00  0.00     0.029 A 
ATOM     63  N   UNL A   1      47.328  30.455  26.367  1.00  0.00    -0.354 N 
ATOM     64  C   UNL A   1      49.870  33.946  26.223  1.00  0.00     0.074 A 
ATOM     65  C   UNL A   1      49.088  35.160  26.320  1.00  0.00     0.031 C 
ATOM     66  C   UNL A   1      45.419  29.332  26.676  1.00  0.00     0.029 A 
ATOM     67  C   UNL A   1      46.846  29.169  26.412  1.00  0.00     0.049 A 
ATOM     68  H   UNL A   1      48.273  30.672  26.195  1.00  0.00     0.167 HD
ATOM     69  C   UNL A   1      51.218  33.917  26.085  1.00  0.00     0.031 A 
ATOM     70  C   UNL A   1      47.485  27.992  26.266  1.00  0.00     0.031 A 
ATOM     71  C   UNL A   1      51.991  32.708  25.957  1.00  0.00     0.049 A 
ATOM     72  C   UNL A   1      48.975  27.985  26.056  1.00  0.00     0.074 A 
ATOM     73  C   UNL A   1      53.360  32.570  25.818  1.00  0.00     0.029 A 
ATOM     74  N   UNL A   1      51.458  31.427  25.939  1.00  0.00    -0.354 N 
ATOM     75  N   UNL A   1      49.807  28.999  26.007  1.00  0.00    -0.248 NA
ATOM     76  C   UNL A   1      49.613  26.671  25.897  1.00  0.00     0.031 C 
ATOM     77  C   UNL A   1      53.650  31.208  25.659  1.00  0.00     0.029 A 
ATOM     78  C   UNL A   1      52.467  30.494  25.762  1.00  0.00     0.049 A 
ATOM     79  H   UNL A   1      50.501  31.212  26.036  1.00  0.00     0.167 HD
ATOM     80  C   UNL A   1      51.071  28.443  25.832  1.00  0.00     0.074 A 
ATOM     81  C   UNL A   1      50.892  27.005  25.808  1.00  0.00     0.031 C 
ATOM     82  C   UNL A   1      52.271  29.066  25.708  1.00  0.00     0.031 A 
BRANCH  69  83
ATOM     83  C   UNL A   1      51.932  35.243  26.026  1.00  0.00    -0.014 A 
ATOM     84  C   UNL A   1      52.008  35.979  24.829  1.00  0.00     0.010 A 
ATOM     85  C   UNL A   1      52.537  35.761  27.186  1.00  0.00     0.010 A 
ATOM     86  C   UNL A   1      52.722  37.180  24.781  1.00  0.00     0.020 A 
ATOM     87  C   UNL A   1      53.228  36.976  27.148  1.00  0.00     0.020 A 
ATOM     88  C   UNL A   1      53.336  37.666  25.938  1.00  0.00     0.054 A 
BRANCH  88  89
ATOM     89  S   UNL A   1      54.268  39.220  25.846  1.00  0.00     0.124 S 
ATOM     90  O   UNL A   1      55.649  38.744  25.888  1.00  0.00    -0.237 OA
ATOM     91  O   UNL A   1      53.835  39.779  24.568  1.00  0.00    -0.237 OA
ATOM     92  O   UNL A   1      53.829  39.959  27.027  1.00  0.00    -0.744 OA
ENDBRANCH  88  89
ENDBRANCH  69  83
BRANCH  70  93
ATOM     93  C   UNL A   1      46.713  26.722  26.335  1.00  0.00    -0.014 A 
ATOM     94  C   UNL A   1      46.592  26.020  27.546  1.00  0.00     0.010 A 
ATOM     95  C   UNL A   1      46.071  26.222  25.187  1.00  0.00     0.010 A 
ATOM     96  C   UNL A   1      45.844  24.840  27.609  1.00  0.00     0.020 A 
ATOM     97  C   UNL A   1      45.302  25.058  25.252  1.00  0.00     0.020 A 
ATOM     98  C   UNL A   1      45.198  24.371  26.462  1.00  0.00     0.054 A 
BRANCH  98  99
ATOM     99  S   UNL A   1      44.168  22.881  26.585  1.00  0.00     0.124 S 
ATOM    100  O   UNL A   1      45.038  21.861  26.011  1.00  0.00    -0.237 OA
ATOM    101  O   UNL A   1      43.933  22.780  28.023  1.00  0.00    -0.237 OA
ATOM    102  O   UNL A   1      42.987  23.217  25.792  1.00  0.00    -0.744 OA
ENDBRANCH  98  99
ENDBRANCH  70  93
BRANCH  82 103
ATOM    103  C   UNL A   1      53.483  28.185  25.546  1.00  0.00    -0.014 A 
ATOM    104  C   UNL A   1      54.055  27.523  26.648  1.00  0.00     0.010 A 
ATOM    105  C   UNL A   1      54.058  28.016  24.273  1.00  0.00     0.010 A 
ATOM    106  C   UNL A   1      55.215  26.759  26.490  1.00  0.00     0.020 A 
ATOM    107  C   UNL A   1      55.199  27.229  24.106  1.00  0.00     0.020 A 
ATOM    108  C   UNL A   1      55.786  26.625  25.221  1.00  0.00     0.054 A 
BRANCH 108 109
ATOM    109  S   UNL A   1      57.297  25.638  25.040  1.00  0.00     0.124 S 
ATOM    110  O   UNL A   1      57.471  25.615  23.590  1.00  0.00    -0.237 OA
ATOM    111  O   UNL A   1      58.284  26.421  25.780  1.00  0.00    -0.237 OA
ATOM    112  O   UNL A   1      56.947  24.356  25.646  1.00  0.00    -0.744 OA
ENDBRANCH 108 109
ENDBRANCH  82 103
ENDBRANCH  56  57
ENDBRANCH  49  51
ENDBRANCH  48  49
ENDBRANCH  47  48
ENDBRANCH  46  47
ENDBRANCH  45  46
ENDBRANCH  44  45
ENDBRANCH   1  44
TORSDOF 29
ENDMDL
