MODEL 1
REMARK VINA RESULT:      -8.3      0.000      0.000
REMARK SMILES CCOc1ccccc1-c1cc(C(=O)OCCOCCOC(=O)c2ccc(-c3c4nc(c(-c5ccc(S(=O)(=O)[O-])cc5)c5ccc([nH]5)c(-c5ccc(S(=O)(=O)[O-])cc5)c5nc(c(-c6ccc(S(=O)(=O)[O-])cc6)c6ccc3[nH]6)C=C5)C=C4)cc2)c2cc(C)cc(C)c2n1
REMARK SMILES IDX 18 1 17 2 16 3 15 4 13 5 14 6 12 7 10 8 11 9 92 10 91 11
REMARK SMILES IDX 84 12 89 13 85 14 88 15 90 16 86 17 87 18 9 19 4 20 5 21
REMARK SMILES IDX 6 22 8 23 7 24 3 25 2 26 1 27 19 28 20 29 21 30 22 31 23 32
REMARK SMILES IDX 24 33 25 34 83 35 26 36 82 37 27 38 28 39 29 40 76 41 30 42
REMARK SMILES IDX 81 43 75 44 77 45 31 46 80 47 74 48 73 49 32 51 62 52 43 53
REMARK SMILES IDX 61 54 44 55 47 56 60 57 78 58 45 59 46 60 59 62 79 63 48 64
REMARK SMILES IDX 33 65 34 66 42 67 35 68 41 69 36 70 37 71 38 72 39 73 40 74
REMARK SMILES IDX 63 75 64 76 72 77 65 78 71 79 66 80 67 81 68 82 69 83 70 84
REMARK SMILES IDX 49 85 50 86 58 87 51 88 57 89 52 90 53 91 54 92 55 93 56 94
REMARK H PARENT 77 50 47 61
REMARK Flexibility Score: inf
ROOT
ATOM      1  O   UNL A   1      33.303  32.839  27.637  1.00  0.00    -0.374 OA
ENDROOT
BRANCH   1   2
ATOM      2  C   UNL A   1      33.991  31.588  27.709  1.00  0.00     0.202 C 
BRANCH   2   3
ATOM      3  C   UNL A   1      34.920  31.446  28.913  1.00  0.00     0.261 C 
BRANCH   3   4
ATOM      4  O   UNL A   1      36.172  30.838  28.546  1.00  0.00    -0.460 OA
BRANCH   4   5
ATOM      5  C   UNL A   1      37.249  31.623  28.789  1.00  0.00     0.338 C 
ATOM      6  O   UNL A   1      37.256  32.845  28.801  1.00  0.00    -0.246 OA
BRANCH   5   7
ATOM      7  C   UNL A   1      38.478  30.840  29.042  1.00  0.00     0.071 A 
ATOM      8  C   UNL A   1      40.258  29.418  28.478  1.00  0.00     0.076 A 
ATOM      9  C   UNL A   1      39.068  30.003  28.094  1.00  0.00     0.045 A 
ATOM     10  N   UNL A   1      41.032  30.093  29.355  1.00  0.00    -0.247 NA
ATOM     11  C   UNL A   1      40.390  30.540  30.434  1.00  0.00     0.075 A 
ATOM     12  C   UNL A   1      39.033  30.863  30.339  1.00  0.00     0.015 A 
ATOM     13  C   UNL A   1      41.014  30.492  31.679  1.00  0.00    -0.024 A 
ATOM     14  C   UNL A   1      38.273  30.978  31.523  1.00  0.00     0.014 A 
ATOM     15  C   UNL A   1      40.231  30.526  32.842  1.00  0.00     0.009 A 
ATOM     16  C   UNL A   1      42.485  30.206  31.797  1.00  0.00     0.047 C 
ATOM     17  C   UNL A   1      38.849  30.706  32.764  1.00  0.00    -0.050 A 
ATOM     18  C   UNL A   1      37.966  30.424  33.943  1.00  0.00     0.044 C 
BRANCH   8  19
ATOM     19  C   UNL A   1      40.389  27.957  28.815  1.00  0.00     0.042 A 
ATOM     20  C   UNL A   1      41.304  27.134  28.116  1.00  0.00     0.128 A 
ATOM     21  C   UNL A   1      40.981  25.807  27.799  1.00  0.00     0.047 A 
ATOM     22  C   UNL A   1      39.811  25.237  28.286  1.00  0.00     0.004 A 
ATOM     23  C   UNL A   1      39.274  27.319  29.399  1.00  0.00     0.014 A 
ATOM     24  C   UNL A   1      38.986  25.975  29.130  1.00  0.00     0.001 A 
BRANCH  20  25
ATOM     25  O   UNL A   1      42.432  27.667  27.540  1.00  0.00    -0.493 OA
BRANCH  25  26
ATOM     26  C   UNL A   1      43.437  26.668  27.323  1.00  0.00     0.226 C 
ATOM     27  C   UNL A   1      44.594  27.253  26.535  1.00  0.00     0.049 C 
ENDBRANCH  25  26
ENDBRANCH  20  25
ENDBRANCH   8  19
ENDBRANCH   5   7
ENDBRANCH   4   5
ENDBRANCH   3   4
ENDBRANCH   2   3
ENDBRANCH   1   2
BRANCH   1  28
ATOM     28  C   UNL A   1      34.096  33.982  27.967  1.00  0.00     0.202 C 
BRANCH  28  29
ATOM     29  C   UNL A   1      33.277  35.166  28.499  1.00  0.00     0.261 C 
BRANCH  29  30
ATOM     30  O   UNL A   1      32.544  34.783  29.682  1.00  0.00    -0.460 OA
BRANCH  30  31
ATOM     31  C   UNL A   1      32.708  35.610  30.744  1.00  0.00     0.338 C 
ATOM     32  O   UNL A   1      31.970  36.514  31.090  1.00  0.00    -0.246 OA
BRANCH  31  33
ATOM     33  C   UNL A   1      33.839  35.142  31.577  1.00  0.00     0.060 A 
ATOM     34  C   UNL A   1      34.385  36.062  32.482  1.00  0.00     0.016 A 
ATOM     35  C   UNL A   1      34.389  33.864  31.453  1.00  0.00     0.016 A 
ATOM     36  C   UNL A   1      35.517  35.730  33.220  1.00  0.00     0.010 A 
ATOM     37  C   UNL A   1      35.532  33.534  32.194  1.00  0.00     0.010 A 
ATOM     38  C   UNL A   1      36.124  34.479  33.051  1.00  0.00    -0.014 A 
BRANCH  38  39
ATOM     39  C   UNL A   1      37.458  34.233  33.656  1.00  0.00     0.031 A 
ATOM     40  C   UNL A   1      37.543  33.884  35.119  1.00  0.00     0.074 A 
ATOM     41  C   UNL A   1      38.574  34.260  32.904  1.00  0.00     0.049 A 
ATOM     42  N   UNL A   1      38.597  33.612  35.846  1.00  0.00    -0.248 NA
ATOM     43  C   UNL A   1      36.272  33.834  35.859  1.00  0.00     0.031 C 
ATOM     44  C   UNL A   1      38.622  34.538  31.470  1.00  0.00     0.029 A 
ATOM     45  N   UNL A   1      39.886  34.045  33.249  1.00  0.00    -0.354 N 
ATOM     46  C   UNL A   1      38.118  33.362  37.126  1.00  0.00     0.074 A 
ATOM     47  C   UNL A   1      36.683  33.544  37.085  1.00  0.00     0.031 C 
ATOM     48  C   UNL A   1      39.899  34.477  31.056  1.00  0.00     0.029 A 
ATOM     49  C   UNL A   1      40.763  34.184  32.199  1.00  0.00     0.049 A 
ATOM     50  H   UNL A   1      40.172  33.812  34.162  1.00  0.00     0.167 HD
ATOM     51  C   UNL A   1      38.807  33.004  38.236  1.00  0.00     0.031 A 
ATOM     52  C   UNL A   1      42.108  34.100  32.165  1.00  0.00     0.031 A 
ATOM     53  C   UNL A   1      40.235  32.833  38.280  1.00  0.00     0.049 A 
ATOM     54  C   UNL A   1      42.861  33.769  33.427  1.00  0.00     0.074 A 
ATOM     55  C   UNL A   1      41.024  32.463  39.357  1.00  0.00     0.029 A 
ATOM     56  N   UNL A   1      41.089  33.025  37.206  1.00  0.00    -0.354 N 
ATOM     57  N   UNL A   1      42.389  33.516  34.625  1.00  0.00    -0.248 NA
ATOM     58  C   UNL A   1      44.326  33.703  33.330  1.00  0.00     0.031 C 
ATOM     59  C   UNL A   1      42.361  32.483  38.944  1.00  0.00     0.029 A 
ATOM     60  C   UNL A   1      42.399  32.806  37.597  1.00  0.00     0.049 A 
ATOM     61  H   UNL A   1      40.806  33.278  36.298  1.00  0.00     0.167 HD
ATOM     62  C   UNL A   1      43.499  33.233  35.417  1.00  0.00     0.074 A 
ATOM     63  C   UNL A   1      44.661  33.336  34.561  1.00  0.00     0.031 C 
ATOM     64  C   UNL A   1      43.548  32.911  36.734  1.00  0.00     0.031 A 
BRANCH  51  65
ATOM     65  C   UNL A   1      38.024  32.808  39.508  1.00  0.00    -0.014 A 
ATOM     66  C   UNL A   1      37.909  33.838  40.459  1.00  0.00     0.010 A 
ATOM     67  C   UNL A   1      37.366  31.587  39.737  1.00  0.00     0.010 A 
ATOM     68  C   UNL A   1      37.181  33.635  41.635  1.00  0.00     0.020 A 
ATOM     69  C   UNL A   1      36.617  31.389  40.900  1.00  0.00     0.020 A 
ATOM     70  C   UNL A   1      36.543  32.409  41.849  1.00  0.00     0.054 A 
BRANCH  70  71
ATOM     71  S   UNL A   1      35.592  32.177  43.378  1.00  0.00     0.124 S 
ATOM     72  O   UNL A   1      34.289  31.769  42.860  1.00  0.00    -0.237 OA
ATOM     73  O   UNL A   1      36.347  31.137  44.071  1.00  0.00    -0.237 OA
ATOM     74  O   UNL A   1      35.626  33.494  44.010  1.00  0.00    -0.744 OA
ENDBRANCH  70  71
ENDBRANCH  51  65
BRANCH  52  75
ATOM     75  C   UNL A   1      42.834  34.352  30.890  1.00  0.00    -0.014 A 
ATOM     76  C   UNL A   1      43.390  35.612  30.614  1.00  0.00     0.010 A 
ATOM     77  C   UNL A   1      42.973  33.320  29.943  1.00  0.00     0.010 A 
ATOM     78  C   UNL A   1      44.060  35.840  29.407  1.00  0.00     0.020 A 
ATOM     79  C   UNL A   1      43.665  33.536  28.749  1.00  0.00     0.020 A 
ATOM     80  C   UNL A   1      44.195  34.800  28.484  1.00  0.00     0.054 A 
BRANCH  80  81
ATOM     81  S   UNL A   1      45.117  35.101  26.949  1.00  0.00     0.124 S 
ATOM     82  O   UNL A   1      44.501  34.145  26.035  1.00  0.00    -0.237 OA
ATOM     83  O   UNL A   1      44.835  36.508  26.681  1.00  0.00    -0.237 OA
ATOM     84  O   UNL A   1      46.501  34.811  27.321  1.00  0.00    -0.744 OA
ENDBRANCH  80  81
ENDBRANCH  52  75
BRANCH  64  85
ATOM     85  C   UNL A   1      44.897  32.609  37.328  1.00  0.00    -0.014 A 
ATOM     86  C   UNL A   1      45.629  33.591  38.018  1.00  0.00     0.010 A 
ATOM     87  C   UNL A   1      45.412  31.302  37.248  1.00  0.00     0.010 A 
ATOM     88  C   UNL A   1      46.864  33.278  38.594  1.00  0.00     0.020 A 
ATOM     89  C   UNL A   1      46.634  30.978  37.843  1.00  0.00     0.020 A 
ATOM     90  C   UNL A   1      47.359  31.972  38.502  1.00  0.00     0.054 A 
BRANCH  90  91
ATOM     91  S   UNL A   1      48.941  31.579  39.297  1.00  0.00     0.124 S 
ATOM     92  O   UNL A   1      49.901  32.210  38.396  1.00  0.00    -0.237 OA
ATOM     93  O   UNL A   1      48.806  32.206  40.610  1.00  0.00    -0.237 OA
ATOM     94  O   UNL A   1      48.967  30.118  39.312  1.00  0.00    -0.744 OA
ENDBRANCH  90  91
ENDBRANCH  64  85
ENDBRANCH  38  39
ENDBRANCH  31  33
ENDBRANCH  30  31
ENDBRANCH  29  30
ENDBRANCH  28  29
ENDBRANCH   1  28
TORSDOF 20
ENDMDL
MODEL 2
REMARK VINA RESULT:      -8.3      0.527      7.913
REMARK SMILES CCOc1ccccc1-c1cc(C(=O)OCCOCCOC(=O)c2ccc(-c3c4nc(c(-c5ccc(S(=O)(=O)[O-])cc5)c5ccc([nH]5)c(-c5ccc(S(=O)(=O)[O-])cc5)c5nc(c(-c6ccc(S(=O)(=O)[O-])cc6)c6ccc3[nH]6)C=C5)C=C4)cc2)c2cc(C)cc(C)c2n1
REMARK SMILES IDX 18 1 17 2 16 3 15 4 13 5 14 6 12 7 10 8 11 9 92 10 91 11
REMARK SMILES IDX 84 12 89 13 85 14 88 15 90 16 86 17 87 18 9 19 4 20 5 21
REMARK SMILES IDX 6 22 8 23 7 24 3 25 2 26 1 27 19 28 20 29 21 30 22 31 23 32
REMARK SMILES IDX 24 33 25 34 83 35 26 36 82 37 27 38 28 39 29 40 76 41 30 42
REMARK SMILES IDX 81 43 75 44 77 45 31 46 80 47 74 48 73 49 32 51 62 52 43 53
REMARK SMILES IDX 61 54 44 55 47 56 60 57 78 58 45 59 46 60 59 62 79 63 48 64
REMARK SMILES IDX 33 65 34 66 42 67 35 68 41 69 36 70 37 71 38 72 39 73 40 74
REMARK SMILES IDX 63 75 64 76 72 77 65 78 71 79 66 80 67 81 68 82 69 83 70 84
REMARK SMILES IDX 49 85 50 86 58 87 51 88 57 89 52 90 53 91 54 92 55 93 56 94
REMARK H PARENT 77 50 47 61
REMARK Flexibility Score: inf
ROOT
ATOM      1  O   UNL A   1      33.338  32.781  27.617  1.00  0.00    -0.374 OA
ENDROOT
BRANCH   1   2
ATOM      2  C   UNL A   1      34.046  31.549  27.774  1.00  0.00     0.202 C 
BRANCH   2   3
ATOM      3  C   UNL A   1      34.986  31.510  28.978  1.00  0.00     0.261 C 
BRANCH   3   4
ATOM      4  O   UNL A   1      36.207  30.812  28.671  1.00  0.00    -0.460 OA
BRANCH   4   5
ATOM      5  C   UNL A   1      37.316  31.581  28.781  1.00  0.00     0.338 C 
ATOM      6  O   UNL A   1      37.360  32.796  28.651  1.00  0.00    -0.246 OA
BRANCH   5   7
ATOM      7  C   UNL A   1      38.530  30.791  29.080  1.00  0.00     0.071 A 
ATOM      8  C   UNL A   1      40.321  29.358  28.581  1.00  0.00     0.076 A 
ATOM      9  C   UNL A   1      39.150  29.951  28.154  1.00  0.00     0.045 A 
ATOM     10  N   UNL A   1      41.066  30.029  29.485  1.00  0.00    -0.247 NA
ATOM     11  C   UNL A   1      40.388  30.480  30.540  1.00  0.00     0.075 A 
ATOM     12  C   UNL A   1      39.038  30.811  30.396  1.00  0.00     0.015 A 
ATOM     13  C   UNL A   1      40.965  30.428  31.807  1.00  0.00    -0.024 A 
ATOM     14  C   UNL A   1      38.235  30.931  31.551  1.00  0.00     0.014 A 
ATOM     15  C   UNL A   1      40.141  30.468  32.941  1.00  0.00     0.009 A 
ATOM     16  C   UNL A   1      42.430  30.134  31.980  1.00  0.00     0.047 C 
ATOM     17  C   UNL A   1      38.764  30.656  32.812  1.00  0.00    -0.050 A 
ATOM     18  C   UNL A   1      37.836  30.379  33.959  1.00  0.00     0.044 C 
BRANCH   8  19
ATOM     19  C   UNL A   1      40.431  27.897  28.923  1.00  0.00     0.042 A 
ATOM     20  C   UNL A   1      41.461  27.100  28.368  1.00  0.00     0.128 A 
ATOM     21  C   UNL A   1      41.221  25.771  27.994  1.00  0.00     0.047 A 
ATOM     22  C   UNL A   1      40.002  25.172  28.289  1.00  0.00     0.004 A 
ATOM     23  C   UNL A   1      39.254  27.229  29.322  1.00  0.00     0.014 A 
ATOM     24  C   UNL A   1      39.041  25.882  29.001  1.00  0.00     0.001 A 
BRANCH  20  25
ATOM     25  O   UNL A   1      42.653  27.664  27.978  1.00  0.00    -0.493 OA
BRANCH  25  26
ATOM     26  C   UNL A   1      43.296  26.887  26.959  1.00  0.00     0.226 C 
ATOM     27  C   UNL A   1      43.960  27.800  25.945  1.00  0.00     0.049 C 
ENDBRANCH  25  26
ENDBRANCH  20  25
ENDBRANCH   8  19
ENDBRANCH   5   7
ENDBRANCH   4   5
ENDBRANCH   3   4
ENDBRANCH   2   3
ENDBRANCH   1   2
BRANCH   1  28
ATOM     28  C   UNL A   1      34.094  33.954  27.934  1.00  0.00     0.202 C 
BRANCH  28  29
ATOM     29  C   UNL A   1      33.245  35.093  28.515  1.00  0.00     0.261 C 
BRANCH  29  30
ATOM     30  O   UNL A   1      32.635  34.687  29.758  1.00  0.00    -0.460 OA
BRANCH  30  31
ATOM     31  C   UNL A   1      32.814  35.551  30.787  1.00  0.00     0.338 C 
ATOM     32  O   UNL A   1      32.110  36.501  31.078  1.00  0.00    -0.246 OA
BRANCH  31  33
ATOM     33  C   UNL A   1      33.905  35.071  31.664  1.00  0.00     0.060 A 
ATOM     34  C   UNL A   1      34.422  35.985  32.593  1.00  0.00     0.016 A 
ATOM     35  C   UNL A   1      34.448  33.788  31.561  1.00  0.00     0.016 A 
ATOM     36  C   UNL A   1      35.520  35.640  33.377  1.00  0.00     0.010 A 
ATOM     37  C   UNL A   1      35.556  33.446  32.348  1.00  0.00     0.010 A 
ATOM     38  C   UNL A   1      36.121  34.384  33.230  1.00  0.00    -0.014 A 
BRANCH  38  39
ATOM     39  C   UNL A   1      37.426  34.124  33.889  1.00  0.00     0.031 A 
ATOM     40  C   UNL A   1      38.684  34.162  33.060  1.00  0.00     0.074 A 
ATOM     41  C   UNL A   1      37.502  33.915  35.217  1.00  0.00     0.049 A 
ATOM     42  N   UNL A   1      39.926  33.984  33.430  1.00  0.00    -0.248 NA
ATOM     43  C   UNL A   1      38.517  34.439  31.624  1.00  0.00     0.031 C 
ATOM     44  C   UNL A   1      36.366  33.901  36.137  1.00  0.00     0.029 A 
ATOM     45  N   UNL A   1      38.590  33.680  36.021  1.00  0.00    -0.354 N 
ATOM     46  C   UNL A   1      40.688  34.124  32.276  1.00  0.00     0.074 A 
ATOM     47  C   UNL A   1      39.767  34.371  31.188  1.00  0.00     0.031 C 
ATOM     48  C   UNL A   1      36.816  33.669  37.382  1.00  0.00     0.029 A 
ATOM     49  C   UNL A   1      38.267  33.489  37.344  1.00  0.00     0.049 A 
ATOM     50  H   UNL A   1      39.514  33.651  35.683  1.00  0.00     0.167 HD
ATOM     51  C   UNL A   1      42.033  34.061  32.134  1.00  0.00     0.031 A 
ATOM     52  C   UNL A   1      39.048  33.189  38.401  1.00  0.00     0.031 A 
ATOM     53  C   UNL A   1      42.949  33.806  33.213  1.00  0.00     0.049 A 
ATOM     54  C   UNL A   1      40.537  33.055  38.207  1.00  0.00     0.074 A 
ATOM     55  C   UNL A   1      44.331  33.731  33.169  1.00  0.00     0.029 A 
ATOM     56  N   UNL A   1      42.578  33.576  34.528  1.00  0.00    -0.354 N 
ATOM     57  N   UNL A   1      41.241  33.211  37.111  1.00  0.00    -0.248 NA
ATOM     58  C   UNL A   1      41.334  32.715  39.394  1.00  0.00     0.031 C 
ATOM     59  C   UNL A   1      44.791  33.405  34.450  1.00  0.00     0.029 A 
ATOM     60  C   UNL A   1      43.701  33.335  35.302  1.00  0.00     0.049 A 
ATOM     61  H   UNL A   1      41.652  33.583  34.863  1.00  0.00     0.167 HD
ATOM     62  C   UNL A   1      42.568  33.016  37.484  1.00  0.00     0.074 A 
ATOM     63  C   UNL A   1      42.568  32.740  38.905  1.00  0.00     0.031 C 
ATOM     64  C   UNL A   1      43.686  33.065  36.718  1.00  0.00     0.031 A 
BRANCH  51  65
ATOM     65  C   UNL A   1      42.595  34.239  30.747  1.00  0.00    -0.014 A 
ATOM     66  C   UNL A   1      42.836  33.134  29.911  1.00  0.00     0.010 A 
ATOM     67  C   UNL A   1      42.853  35.533  30.262  1.00  0.00     0.010 A 
ATOM     68  C   UNL A   1      43.361  33.319  28.629  1.00  0.00     0.020 A 
ATOM     69  C   UNL A   1      43.354  35.724  28.972  1.00  0.00     0.020 A 
ATOM     70  C   UNL A   1      43.621  34.614  28.170  1.00  0.00     0.054 A 
BRANCH  70  71
ATOM     71  S   UNL A   1      44.288  34.827  26.496  1.00  0.00     0.124 S 
ATOM     72  O   UNL A   1      45.095  33.618  26.339  1.00  0.00    -0.237 OA
ATOM     73  O   UNL A   1      43.082  34.888  25.675  1.00  0.00    -0.237 OA
ATOM     74  O   UNL A   1      45.045  36.073  26.581  1.00  0.00    -0.744 OA
ENDBRANCH  70  71
ENDBRANCH  51  65
BRANCH  52  75
ATOM     75  C   UNL A   1      38.434  32.976  39.740  1.00  0.00    -0.014 A 
ATOM     76  C   UNL A   1      38.340  34.028  40.666  1.00  0.00     0.010 A 
ATOM     77  C   UNL A   1      37.937  31.708  40.093  1.00  0.00     0.010 A 
ATOM     78  C   UNL A   1      37.772  33.814  41.927  1.00  0.00     0.020 A 
ATOM     79  C   UNL A   1      37.344  31.496  41.341  1.00  0.00     0.020 A 
ATOM     80  C   UNL A   1      37.276  32.549  42.254  1.00  0.00     0.054 A 
BRANCH  80  81
ATOM     81  S   UNL A   1      36.492  32.305  43.873  1.00  0.00     0.124 S 
ATOM     82  O   UNL A   1      35.533  33.404  43.913  1.00  0.00    -0.237 OA
ATOM     83  O   UNL A   1      35.919  30.967  43.748  1.00  0.00    -0.237 OA
ATOM     84  O   UNL A   1      37.608  32.411  44.812  1.00  0.00    -0.744 OA
ENDBRANCH  80  81
ENDBRANCH  52  75
BRANCH  64  85
ATOM     85  C   UNL A   1      45.011  32.854  37.401  1.00  0.00    -0.014 A 
ATOM     86  C   UNL A   1      45.584  31.575  37.508  1.00  0.00     0.010 A 
ATOM     87  C   UNL A   1      45.722  33.966  37.890  1.00  0.00     0.010 A 
ATOM     88  C   UNL A   1      46.833  31.408  38.115  1.00  0.00     0.020 A 
ATOM     89  C   UNL A   1      46.981  33.808  38.474  1.00  0.00     0.020 A 
ATOM     90  C   UNL A   1      47.523  32.527  38.594  1.00  0.00     0.054 A 
BRANCH  90  91
ATOM     91  S   UNL A   1      49.162  32.291  39.335  1.00  0.00     0.124 S 
ATOM     92  O   UNL A   1      49.827  33.550  39.013  1.00  0.00    -0.237 OA
ATOM     93  O   UNL A   1      48.849  32.089  40.748  1.00  0.00    -0.237 OA
ATOM     94  O   UNL A   1      49.687  31.114  38.646  1.00  0.00    -0.744 OA
ENDBRANCH  90  91
ENDBRANCH  64  85
ENDBRANCH  38  39
ENDBRANCH  31  33
ENDBRANCH  30  31
ENDBRANCH  29  30
ENDBRANCH  28  29
ENDBRANCH   1  28
TORSDOF 20
ENDMDL
MODEL 3
REMARK VINA RESULT:      -8.2      7.374     12.632
REMARK SMILES CCOc1ccccc1-c1cc(C(=O)OCCOCCOC(=O)c2ccc(-c3c4nc(c(-c5ccc(S(=O)(=O)[O-])cc5)c5ccc([nH]5)c(-c5ccc(S(=O)(=O)[O-])cc5)c5nc(c(-c6ccc(S(=O)(=O)[O-])cc6)c6ccc3[nH]6)C=C5)C=C4)cc2)c2cc(C)cc(C)c2n1
REMARK SMILES IDX 18 1 17 2 16 3 15 4 13 5 14 6 12 7 10 8 11 9 92 10 91 11
REMARK SMILES IDX 84 12 89 13 85 14 88 15 90 16 86 17 87 18 9 19 4 20 5 21
REMARK SMILES IDX 6 22 8 23 7 24 3 25 2 26 1 27 19 28 20 29 21 30 22 31 23 32
REMARK SMILES IDX 24 33 25 34 83 35 26 36 82 37 27 38 28 39 29 40 76 41 30 42
REMARK SMILES IDX 81 43 75 44 77 45 31 46 80 47 74 48 73 49 32 51 62 52 43 53
REMARK SMILES IDX 61 54 44 55 47 56 60 57 78 58 45 59 46 60 59 62 79 63 48 64
REMARK SMILES IDX 33 65 34 66 42 67 35 68 41 69 36 70 37 71 38 72 39 73 40 74
REMARK SMILES IDX 63 75 64 76 72 77 65 78 71 79 66 80 67 81 68 82 69 83 70 84
REMARK SMILES IDX 49 85 50 86 58 87 51 88 57 89 52 90 53 91 54 92 55 93 56 94
REMARK H PARENT 77 50 47 61
REMARK Flexibility Score: inf
ROOT
ATOM      1  O   UNL A   1      33.590  28.243  26.967  1.00  0.00    -0.374 OA
ENDROOT
BRANCH   1   2
ATOM      2  C   UNL A   1      32.352  28.272  27.680  1.00  0.00     0.202 C 
BRANCH   2   3
ATOM      3  C   UNL A   1      31.200  27.558  26.974  1.00  0.00     0.261 C 
BRANCH   3   4
ATOM      4  O   UNL A   1      31.414  26.135  26.921  1.00  0.00    -0.460 OA
BRANCH   4   5
ATOM      5  C   UNL A   1      30.621  25.499  26.026  1.00  0.00     0.338 C 
ATOM      6  O   UNL A   1      29.400  25.534  26.001  1.00  0.00    -0.246 OA
BRANCH   5   7
ATOM      7  C   UNL A   1      31.393  24.715  25.038  1.00  0.00     0.071 A 
ATOM      8  C   UNL A   1      32.360  22.775  24.138  1.00  0.00     0.076 A 
ATOM      9  C   UNL A   1      31.706  23.364  25.201  1.00  0.00     0.045 A 
ATOM     10  N   UNL A   1      32.113  23.264  22.904  1.00  0.00    -0.247 NA
ATOM     11  C   UNL A   1      32.209  24.589  22.802  1.00  0.00     0.075 A 
ATOM     12  C   UNL A   1      31.923  25.384  23.915  1.00  0.00     0.015 A 
ATOM     13  C   UNL A   1      32.778  25.156  21.664  1.00  0.00    -0.024 A 
ATOM     14  C   UNL A   1      32.367  26.724  23.931  1.00  0.00     0.014 A 
ATOM     15  C   UNL A   1      33.286  26.462  21.725  1.00  0.00     0.009 A 
ATOM     16  C   UNL A   1      33.036  24.330  20.434  1.00  0.00     0.047 C 
ATOM     17  C   UNL A   1      33.138  27.228  22.883  1.00  0.00    -0.050 A 
ATOM     18  C   UNL A   1      33.940  28.479  23.089  1.00  0.00     0.044 C 
BRANCH   8  19
ATOM     19  C   UNL A   1      33.815  22.391  24.172  1.00  0.00     0.042 A 
ATOM     20  C   UNL A   1      34.202  21.044  24.374  1.00  0.00     0.128 A 
ATOM     21  C   UNL A   1      35.330  20.727  25.143  1.00  0.00     0.047 A 
ATOM     22  C   UNL A   1      36.165  21.737  25.608  1.00  0.00     0.004 A 
ATOM     23  C   UNL A   1      34.744  23.385  24.547  1.00  0.00     0.014 A 
ATOM     24  C   UNL A   1      35.902  23.059  25.263  1.00  0.00     0.001 A 
BRANCH  20  25
ATOM     25  O   UNL A   1      33.371  20.012  24.011  1.00  0.00    -0.493 OA
BRANCH  25  26
ATOM     26  C   UNL A   1      33.741  18.785  24.654  1.00  0.00     0.226 C 
ATOM     27  C   UNL A   1      32.515  17.916  24.869  1.00  0.00     0.049 C 
ENDBRANCH  25  26
ENDBRANCH  20  25
ENDBRANCH   8  19
ENDBRANCH   5   7
ENDBRANCH   4   5
ENDBRANCH   3   4
ENDBRANCH   2   3
ENDBRANCH   1   2
BRANCH   1  28
ATOM     28  C   UNL A   1      34.214  29.519  26.791  1.00  0.00     0.202 C 
BRANCH  28  29
ATOM     29  C   UNL A   1      35.043  29.969  28.001  1.00  0.00     0.261 C 
BRANCH  29  30
ATOM     30  O   UNL A   1      36.451  29.776  27.751  1.00  0.00    -0.460 OA
BRANCH  30  31
ATOM     31  C   UNL A   1      37.189  29.483  28.850  1.00  0.00     0.338 C 
ATOM     32  O   UNL A   1      36.787  29.360  29.992  1.00  0.00    -0.246 OA
BRANCH  31  33
ATOM     33  C   UNL A   1      38.569  29.130  28.450  1.00  0.00     0.060 A 
ATOM     34  C   UNL A   1      39.429  28.682  29.461  1.00  0.00     0.016 A 
ATOM     35  C   UNL A   1      39.036  29.274  27.141  1.00  0.00     0.016 A 
ATOM     36  C   UNL A   1      40.770  28.434  29.181  1.00  0.00     0.010 A 
ATOM     37  C   UNL A   1      40.388  29.029  26.863  1.00  0.00     0.010 A 
ATOM     38  C   UNL A   1      41.269  28.646  27.890  1.00  0.00    -0.014 A 
BRANCH  38  39
ATOM     39  C   UNL A   1      42.737  28.615  27.666  1.00  0.00     0.031 A 
ATOM     40  C   UNL A   1      43.365  27.360  27.119  1.00  0.00     0.074 A 
ATOM     41  C   UNL A   1      43.494  29.705  27.888  1.00  0.00     0.049 A 
ATOM     42  N   UNL A   1      44.618  27.119  26.829  1.00  0.00    -0.248 NA
ATOM     43  C   UNL A   1      42.460  26.228  26.863  1.00  0.00     0.031 C 
ATOM     44  C   UNL A   1      43.001  30.994  28.371  1.00  0.00     0.029 A 
ATOM     45  N   UNL A   1      44.844  29.900  27.729  1.00  0.00    -0.354 N 
ATOM     46  C   UNL A   1      44.654  25.811  26.361  1.00  0.00     0.074 A 
ATOM     47  C   UNL A   1      43.303  25.299  26.434  1.00  0.00     0.031 C 
ATOM     48  C   UNL A   1      44.035  31.847  28.470  1.00  0.00     0.029 A 
ATOM     49  C   UNL A   1      45.266  31.159  28.086  1.00  0.00     0.049 A 
ATOM     50  H   UNL A   1      45.453  29.204  27.391  1.00  0.00     0.167 HD
ATOM     51  C   UNL A   1      45.712  25.101  25.905  1.00  0.00     0.031 A 
ATOM     52  C   UNL A   1      46.504  31.692  28.114  1.00  0.00     0.031 A 
ATOM     53  C   UNL A   1      47.058  25.605  25.841  1.00  0.00     0.049 A 
ATOM     54  C   UNL A   1      47.678  30.860  27.666  1.00  0.00     0.074 A 
ATOM     55  C   UNL A   1      48.197  24.964  25.385  1.00  0.00     0.029 A 
ATOM     56  N   UNL A   1      47.448  26.870  26.252  1.00  0.00    -0.354 N 
ATOM     57  N   UNL A   1      47.689  29.631  27.208  1.00  0.00    -0.248 NA
ATOM     58  C   UNL A   1      49.004  31.491  27.731  1.00  0.00     0.031 C 
ATOM     59  C   UNL A   1      49.286  25.824  25.569  1.00  0.00     0.029 A 
ATOM     60  C   UNL A   1      48.815  27.022  26.084  1.00  0.00     0.049 A 
ATOM     61  H   UNL A   1      46.844  27.560  26.610  1.00  0.00     0.167 HD
ATOM     62  C   UNL A   1      49.019  29.353  26.903  1.00  0.00     0.074 A 
ATOM     63  C   UNL A   1      49.779  30.543  27.219  1.00  0.00     0.031 C 
ATOM     64  C   UNL A   1      49.559  28.214  26.401  1.00  0.00     0.031 A 
BRANCH  51  65
ATOM     65  C   UNL A   1      45.461  23.681  25.467  1.00  0.00    -0.014 A 
ATOM     66  C   UNL A   1      45.412  22.629  26.400  1.00  0.00     0.010 A 
ATOM     67  C   UNL A   1      45.237  23.402  24.107  1.00  0.00     0.010 A 
ATOM     68  C   UNL A   1      45.181  21.318  25.974  1.00  0.00     0.020 A 
ATOM     69  C   UNL A   1      44.980  22.096  23.681  1.00  0.00     0.020 A 
ATOM     70  C   UNL A   1      44.971  21.060  24.616  1.00  0.00     0.054 A 
BRANCH  70  71
ATOM     71  S   UNL A   1      44.659  19.351  24.091  1.00  0.00     0.124 S 
ATOM     72  O   UNL A   1      45.867  18.671  24.551  1.00  0.00    -0.237 OA
ATOM     73  O   UNL A   1      43.435  19.012  24.813  1.00  0.00    -0.237 OA
ATOM     74  O   UNL A   1      44.516  19.454  22.641  1.00  0.00    -0.744 OA
ENDBRANCH  70  71
ENDBRANCH  51  65
BRANCH  52  75
ATOM     75  C   UNL A   1      46.701  33.084  28.602  1.00  0.00    -0.014 A 
ATOM     76  C   UNL A   1      46.462  34.184  27.760  1.00  0.00     0.010 A 
ATOM     77  C   UNL A   1      47.132  33.314  29.922  1.00  0.00     0.010 A 
ATOM     78  C   UNL A   1      46.662  35.488  28.226  1.00  0.00     0.020 A 
ATOM     79  C   UNL A   1      47.308  34.615  30.399  1.00  0.00     0.020 A 
ATOM     80  C   UNL A   1      47.082  35.695  29.542  1.00  0.00     0.054 A 
BRANCH  80  81
ATOM     81  S   UNL A   1      47.282  37.396  30.144  1.00  0.00     0.124 S 
ATOM     82  O   UNL A   1      47.761  37.180  31.505  1.00  0.00    -0.237 OA
ATOM     83  O   UNL A   1      48.257  37.949  29.208  1.00  0.00    -0.237 OA
ATOM     84  O   UNL A   1      45.936  37.956  30.034  1.00  0.00    -0.744 OA
ENDBRANCH  80  81
ENDBRANCH  52  75
BRANCH  64  85
ATOM     85  C   UNL A   1      51.039  28.207  26.124  1.00  0.00    -0.014 A 
ATOM     86  C   UNL A   1      51.553  28.622  24.884  1.00  0.00     0.010 A 
ATOM     87  C   UNL A   1      51.933  27.838  27.146  1.00  0.00     0.010 A 
ATOM     88  C   UNL A   1      52.933  28.642  24.661  1.00  0.00     0.020 A 
ATOM     89  C   UNL A   1      53.313  27.880  26.937  1.00  0.00     0.020 A 
ATOM     90  C   UNL A   1      53.804  28.270  25.690  1.00  0.00     0.054 A 
BRANCH  90  91
ATOM     91  S   UNL A   1      55.592  28.349  25.393  1.00  0.00     0.124 S 
ATOM     92  O   UNL A   1      55.654  28.940  24.059  1.00  0.00    -0.237 OA
ATOM     93  O   UNL A   1      56.062  29.204  26.481  1.00  0.00    -0.237 OA
ATOM     94  O   UNL A   1      56.019  26.954  25.478  1.00  0.00    -0.744 OA
ENDBRANCH  90  91
ENDBRANCH  64  85
ENDBRANCH  38  39
ENDBRANCH  31  33
ENDBRANCH  30  31
ENDBRANCH  29  30
ENDBRANCH  28  29
ENDBRANCH   1  28
TORSDOF 20
ENDMDL
