MODEL 1
REMARK VINA RESULT:     -11.7      0.000      0.000
REMARK SMILES Cc1ccc(C(=O)OCCOCCOC(=O)c2ccc(-c3c4nc(c(-c5ccc(S(=O)(=O)[O-])cc5)c5ccc([nH]5)c(-c5ccc(S(=O)(=O)[O-])cc5)c5nc(c(-c6ccc(S(=O)(=O)[O-])cc6)c6ccc3[nH]6)C=C5)C=C4)cc2)c2c1N[C@H](c1ccccc1F)[C@H]1CC=C[C@@H]21
REMARK SMILES IDX 12 1 11 2 10 3 9 4 8 5 6 6 7 7 5 8 1 9 2 10 3 11 78 12 4 13
REMARK SMILES IDX 77 14 79 15 92 16 80 17 88 19 91 20 89 21 90 22 81 23 82 24
REMARK SMILES IDX 86 25 83 26 85 27 87 28 84 29 13 30 14 31 15 32 16 33 17 34
REMARK SMILES IDX 18 35 76 36 19 37 75 38 20 39 21 40 22 41 69 42 23 43 74 44
REMARK SMILES IDX 68 45 70 46 24 47 73 48 67 49 66 50 25 52 55 53 36 54 54 55
REMARK SMILES IDX 37 56 40 57 53 58 71 59 38 60 39 61 52 63 72 64 41 65 26 66
REMARK SMILES IDX 27 67 35 68 28 69 34 70 29 71 30 72 31 73 32 74 33 75 56 76
REMARK SMILES IDX 57 77 65 78 58 79 64 80 59 81 60 82 61 83 62 84 63 85 42 86
REMARK SMILES IDX 43 87 51 88 44 89 50 90 45 91 46 92 47 93 48 94 49 95
REMARK H PARENT 79 18 70 51 40 62
REMARK Flexibility Score: inf
ROOT
ATOM      1  C   UNL A   1      33.930  31.237  27.853  1.00  0.00     0.202 C 
ENDROOT
BRANCH   1   2
ATOM      2  O   UNL A   1      34.623  30.412  26.914  1.00  0.00    -0.374 OA
BRANCH   2   3
ATOM      3  C   UNL A   1      34.713  29.018  27.194  1.00  0.00     0.202 C 
BRANCH   3   4
ATOM      4  C   UNL A   1      33.431  28.184  27.097  1.00  0.00     0.261 C 
BRANCH   4   5
ATOM      5  O   UNL A   1      33.548  27.118  26.148  1.00  0.00    -0.460 OA
BRANCH   5   6
ATOM      6  C   UNL A   1      32.436  26.358  26.009  1.00  0.00     0.338 C 
ATOM      7  O   UNL A   1      31.471  26.336  26.762  1.00  0.00    -0.246 OA
BRANCH   6   8
ATOM      8  C   UNL A   1      32.521  25.564  24.764  1.00  0.00     0.065 A 
ATOM      9  C   UNL A   1      33.049  23.585  20.980  1.00  0.00     0.046 C 
ATOM     10  C   UNL A   1      32.825  24.211  22.331  1.00  0.00    -0.028 A 
ATOM     11  C   UNL A   1      32.531  25.584  22.355  1.00  0.00     0.006 A 
ATOM     12  C   UNL A   1      32.878  23.478  23.541  1.00  0.00     0.042 A 
ATOM     13  C   UNL A   1      32.382  26.258  23.560  1.00  0.00     0.016 A 
ATOM     14  C   UNL A   1      32.741  24.163  24.776  1.00  0.00    -0.003 A 
ATOM     15  N   UNL A   1      33.072  22.100  23.523  1.00  0.00    -0.377 N 
ATOM     16  C   UNL A   1      32.689  23.372  26.072  1.00  0.00     0.050 C 
ATOM     17  C   UNL A   1      33.526  21.424  24.729  1.00  0.00     0.117 C 
ATOM     18  H   UNL A   1      32.902  21.586  22.702  1.00  0.00     0.161 HD
ATOM     19  C   UNL A   1      32.604  21.835  25.895  1.00  0.00     0.031 C 
ATOM     20  C   UNL A   1      33.869  23.477  27.002  1.00  0.00    -0.023 C 
ATOM     21  C   UNL A   1      33.084  21.293  27.254  1.00  0.00     0.034 C 
ATOM     22  C   UNL A   1      34.055  22.341  27.686  1.00  0.00    -0.030 C 
BRANCH  17  23
ATOM     23  C   UNL A   1      33.716  19.942  24.442  1.00  0.00     0.010 A 
ATOM     24  C   UNL A   1      32.649  19.240  23.844  1.00  0.00     0.009 A 
ATOM     25  C   UNL A   1      34.900  19.237  24.676  1.00  0.00     0.128 A 
ATOM     26  C   UNL A   1      32.788  17.906  23.451  1.00  0.00     0.001 A 
ATOM     27  C   UNL A   1      35.049  17.909  24.275  1.00  0.00     0.039 A 
ATOM     28  F   UNL A   1      35.952  19.828  25.258  1.00  0.00    -0.207 F 
ATOM     29  C   UNL A   1      33.995  17.244  23.652  1.00  0.00     0.003 A 
ENDBRANCH  17  23
ENDBRANCH   6   8
ENDBRANCH   5   6
ENDBRANCH   4   5
ENDBRANCH   3   4
ENDBRANCH   2   3
ENDBRANCH   1   2
BRANCH   1  30
ATOM     30  C   UNL A   1      34.748  32.165  28.758  1.00  0.00     0.261 C 
BRANCH  30  31
ATOM     31  O   UNL A   1      36.146  31.827  28.780  1.00  0.00    -0.460 OA
BRANCH  31  32
ATOM     32  C   UNL A   1      36.537  31.086  29.843  1.00  0.00     0.338 C 
ATOM     33  O   UNL A   1      35.945  30.934  30.902  1.00  0.00    -0.246 OA
BRANCH  32  34
ATOM     34  C   UNL A   1      37.731  30.308  29.482  1.00  0.00     0.060 A 
ATOM     35  C   UNL A   1      38.583  29.888  30.513  1.00  0.00     0.016 A 
ATOM     36  C   UNL A   1      38.057  30.082  28.145  1.00  0.00     0.016 A 
ATOM     37  C   UNL A   1      39.785  29.260  30.205  1.00  0.00     0.010 A 
ATOM     38  C   UNL A   1      39.276  29.475  27.838  1.00  0.00     0.010 A 
ATOM     39  C   UNL A   1      40.156  29.092  28.866  1.00  0.00    -0.014 A 
BRANCH  39  40
ATOM     40  C   UNL A   1      41.538  28.678  28.546  1.00  0.00     0.031 A 
ATOM     41  C   UNL A   1      42.633  29.705  28.628  1.00  0.00     0.074 A 
ATOM     42  C   UNL A   1      41.816  27.402  28.227  1.00  0.00     0.049 A 
ATOM     43  N   UNL A   1      43.907  29.571  28.371  1.00  0.00    -0.248 NA
ATOM     44  C   UNL A   1      42.241  31.058  29.062  1.00  0.00     0.031 C 
ATOM     45  C   UNL A   1      40.843  26.311  28.181  1.00  0.00     0.029 A 
ATOM     46  N   UNL A   1      43.005  26.810  27.886  1.00  0.00    -0.354 N 
ATOM     47  C   UNL A   1      44.469  30.818  28.614  1.00  0.00     0.074 A 
ATOM     48  C   UNL A   1      43.400  31.702  29.016  1.00  0.00     0.031 C 
ATOM     49  C   UNL A   1      41.477  25.180  27.826  1.00  0.00     0.029 A 
ATOM     50  C   UNL A   1      42.889  25.473  27.593  1.00  0.00     0.049 A 
ATOM     51  H   UNL A   1      43.860  27.297  27.854  1.00  0.00     0.167 HD
ATOM     52  C   UNL A   1      45.766  31.189  28.514  1.00  0.00     0.031 A 
ATOM     53  C   UNL A   1      43.817  24.591  27.170  1.00  0.00     0.031 A 
ATOM     54  C   UNL A   1      46.824  30.309  28.101  1.00  0.00     0.049 A 
ATOM     55  C   UNL A   1      45.237  25.050  26.979  1.00  0.00     0.074 A 
ATOM     56  C   UNL A   1      48.172  30.592  27.969  1.00  0.00     0.029 A 
ATOM     57  N   UNL A   1      46.655  28.978  27.752  1.00  0.00    -0.354 N 
ATOM     58  N   UNL A   1      45.754  26.235  27.202  1.00  0.00    -0.248 NA
ATOM     59  C   UNL A   1      46.199  24.057  26.479  1.00  0.00     0.031 C 
ATOM     60  C   UNL A   1      48.811  29.445  27.492  1.00  0.00     0.029 A 
ATOM     61  C   UNL A   1      47.870  28.433  27.380  1.00  0.00     0.049 A 
ATOM     62  H   UNL A   1      45.798  28.494  27.767  1.00  0.00     0.167 HD
ATOM     63  C   UNL A   1      47.104  26.125  26.892  1.00  0.00     0.074 A 
ATOM     64  C   UNL A   1      47.326  24.758  26.467  1.00  0.00     0.031 C 
ATOM     65  C   UNL A   1      48.073  27.070  26.958  1.00  0.00     0.031 A 
BRANCH  52  66
ATOM     66  C   UNL A   1      46.119  32.613  28.836  1.00  0.00    -0.014 A 
ATOM     67  C   UNL A   1      46.030  33.616  27.855  1.00  0.00     0.010 A 
ATOM     68  C   UNL A   1      46.453  32.965  30.155  1.00  0.00     0.010 A 
ATOM     69  C   UNL A   1      46.275  34.950  28.190  1.00  0.00     0.020 A 
ATOM     70  C   UNL A   1      46.680  34.301  30.498  1.00  0.00     0.020 A 
ATOM     71  C   UNL A   1      46.587  35.284  29.511  1.00  0.00     0.054 A 
BRANCH  71  72
ATOM     72  S   UNL A   1      46.845  37.033  29.922  1.00  0.00     0.124 S 
ATOM     73  O   UNL A   1      47.722  36.947  31.088  1.00  0.00    -0.237 OA
ATOM     74  O   UNL A   1      47.464  37.551  28.706  1.00  0.00    -0.237 OA
ATOM     75  O   UNL A   1      45.499  37.529  30.198  1.00  0.00    -0.744 OA
ENDBRANCH  71  72
ENDBRANCH  52  66
BRANCH  53  76
ATOM     76  C   UNL A   1      43.417  23.187  26.891  1.00  0.00    -0.014 A 
ATOM     77  C   UNL A   1      43.567  22.643  25.604  1.00  0.00     0.010 A 
ATOM     78  C   UNL A   1      42.924  22.372  27.927  1.00  0.00     0.010 A 
ATOM     79  C   UNL A   1      43.237  21.308  25.359  1.00  0.00     0.020 A 
ATOM     80  C   UNL A   1      42.613  21.031  27.691  1.00  0.00     0.020 A 
ATOM     81  C   UNL A   1      42.773  20.506  26.408  1.00  0.00     0.054 A 
BRANCH  81  82
ATOM     82  S   UNL A   1      42.412  18.760  26.072  1.00  0.00     0.124 S 
ATOM     83  O   UNL A   1      41.009  18.806  25.673  1.00  0.00    -0.237 OA
ATOM     84  O   UNL A   1      43.364  18.450  25.008  1.00  0.00    -0.237 OA
ATOM     85  O   UNL A   1      42.678  18.101  27.350  1.00  0.00    -0.744 OA
ENDBRANCH  81  82
ENDBRANCH  53  76
BRANCH  65  86
ATOM     86  C   UNL A   1      49.475  26.675  26.585  1.00  0.00    -0.014 A 
ATOM     87  C   UNL A   1      50.293  25.983  27.492  1.00  0.00     0.010 A 
ATOM     88  C   UNL A   1      49.927  26.891  25.271  1.00  0.00     0.010 A 
ATOM     89  C   UNL A   1      51.547  25.513  27.089  1.00  0.00     0.020 A 
ATOM     90  C   UNL A   1      51.170  26.405  24.858  1.00  0.00     0.020 A 
ATOM     91  C   UNL A   1      51.971  25.717  25.772  1.00  0.00     0.054 A 
BRANCH  91  92
ATOM     92  S   UNL A   1      53.575  25.039  25.265  1.00  0.00     0.124 S 
ATOM     93  O   UNL A   1      53.775  25.662  23.960  1.00  0.00    -0.237 OA
ATOM     94  O   UNL A   1      54.462  25.505  26.327  1.00  0.00    -0.237 OA
ATOM     95  O   UNL A   1      53.349  23.596  25.234  1.00  0.00    -0.744 OA
ENDBRANCH  91  92
ENDBRANCH  65  86
ENDBRANCH  39  40
ENDBRANCH  32  34
ENDBRANCH  31  32
ENDBRANCH  30  31
ENDBRANCH   1  30
TORSDOF 18
ENDMDL
MODEL 2
REMARK VINA RESULT:     -11.4      1.608      2.525
REMARK SMILES Cc1ccc(C(=O)OCCOCCOC(=O)c2ccc(-c3c4nc(c(-c5ccc(S(=O)(=O)[O-])cc5)c5ccc([nH]5)c(-c5ccc(S(=O)(=O)[O-])cc5)c5nc(c(-c6ccc(S(=O)(=O)[O-])cc6)c6ccc3[nH]6)C=C5)C=C4)cc2)c2c1N[C@H](c1ccccc1F)[C@H]1CC=C[C@@H]21
REMARK SMILES IDX 12 1 11 2 10 3 9 4 8 5 6 6 7 7 5 8 1 9 2 10 3 11 78 12 4 13
REMARK SMILES IDX 77 14 79 15 92 16 80 17 88 19 91 20 89 21 90 22 81 23 82 24
REMARK SMILES IDX 86 25 83 26 85 27 87 28 84 29 13 30 14 31 15 32 16 33 17 34
REMARK SMILES IDX 18 35 76 36 19 37 75 38 20 39 21 40 22 41 69 42 23 43 74 44
REMARK SMILES IDX 68 45 70 46 24 47 73 48 67 49 66 50 25 52 55 53 36 54 54 55
REMARK SMILES IDX 37 56 40 57 53 58 71 59 38 60 39 61 52 63 72 64 41 65 26 66
REMARK SMILES IDX 27 67 35 68 28 69 34 70 29 71 30 72 31 73 32 74 33 75 56 76
REMARK SMILES IDX 57 77 65 78 58 79 64 80 59 81 60 82 61 83 62 84 63 85 42 86
REMARK SMILES IDX 43 87 51 88 44 89 50 90 45 91 46 92 47 93 48 94 49 95
REMARK H PARENT 79 18 70 51 40 62
REMARK Flexibility Score: inf
ROOT
ATOM      1  C   UNL A   1      34.439  30.023  27.200  1.00  0.00     0.202 C 
ENDROOT
BRANCH   1   2
ATOM      2  O   UNL A   1      33.012  29.979  27.235  1.00  0.00    -0.374 OA
BRANCH   2   3
ATOM      3  C   UNL A   1      32.313  30.051  25.995  1.00  0.00     0.202 C 
BRANCH   3   4
ATOM      4  C   UNL A   1      32.799  29.159  24.848  1.00  0.00     0.261 C 
BRANCH   4   5
ATOM      5  O   UNL A   1      32.652  27.766  25.145  1.00  0.00    -0.460 OA
BRANCH   5   6
ATOM      6  C   UNL A   1      31.715  27.125  24.406  1.00  0.00     0.338 C 
ATOM      7  O   UNL A   1      31.325  27.442  23.291  1.00  0.00    -0.246 OA
BRANCH   6   8
ATOM      8  C   UNL A   1      31.238  25.926  25.129  1.00  0.00     0.065 A 
ATOM      9  C   UNL A   1      29.425  22.594  27.161  1.00  0.00     0.046 C 
ATOM     10  C   UNL A   1      30.132  23.722  26.456  1.00  0.00    -0.028 A 
ATOM     11  C   UNL A   1      29.699  25.025  26.749  1.00  0.00     0.006 A 
ATOM     12  C   UNL A   1      31.201  23.518  25.551  1.00  0.00     0.042 A 
ATOM     13  C   UNL A   1      30.244  26.120  26.091  1.00  0.00     0.016 A 
ATOM     14  C   UNL A   1      31.753  24.631  24.865  1.00  0.00    -0.003 A 
ATOM     15  N   UNL A   1      31.702  22.240  25.327  1.00  0.00    -0.377 N 
ATOM     16  C   UNL A   1      32.968  24.437  23.975  1.00  0.00     0.050 C 
ATOM     17  C   UNL A   1      32.493  21.978  24.134  1.00  0.00     0.117 C 
ATOM     18  H   UNL A   1      31.524  21.518  25.972  1.00  0.00     0.161 HD
ATOM     19  C   UNL A   1      33.616  23.032  24.053  1.00  0.00     0.031 C 
ATOM     20  C   UNL A   1      32.774  24.569  22.487  1.00  0.00    -0.023 C 
ATOM     21  C   UNL A   1      34.426  22.940  22.746  1.00  0.00     0.034 C 
ATOM     22  C   UNL A   1      33.613  23.773  21.812  1.00  0.00    -0.030 C 
BRANCH  17  23
ATOM     23  C   UNL A   1      32.874  20.506  24.087  1.00  0.00     0.010 A 
ATOM     24  C   UNL A   1      32.156  19.662  23.215  1.00  0.00     0.009 A 
ATOM     25  C   UNL A   1      33.930  19.940  24.807  1.00  0.00     0.128 A 
ATOM     26  C   UNL A   1      32.520  18.325  23.036  1.00  0.00     0.001 A 
ATOM     27  C   UNL A   1      34.305  18.608  24.625  1.00  0.00     0.039 A 
ATOM     28  F   UNL A   1      34.647  20.671  25.671  1.00  0.00    -0.207 F 
ATOM     29  C   UNL A   1      33.606  17.801  23.730  1.00  0.00     0.003 A 
ENDBRANCH  17  23
ENDBRANCH   6   8
ENDBRANCH   5   6
ENDBRANCH   4   5
ENDBRANCH   3   4
ENDBRANCH   2   3
ENDBRANCH   1   2
BRANCH   1  30
ATOM     30  C   UNL A   1      35.183  30.665  28.377  1.00  0.00     0.261 C 
BRANCH  30  31
ATOM     31  O   UNL A   1      36.608  30.487  28.296  1.00  0.00    -0.460 OA
BRANCH  31  32
ATOM     32  C   UNL A   1      37.139  29.697  29.258  1.00  0.00     0.338 C 
ATOM     33  O   UNL A   1      36.597  29.302  30.280  1.00  0.00    -0.246 OA
BRANCH  32  34
ATOM     34  C   UNL A   1      38.451  29.203  28.814  1.00  0.00     0.060 A 
ATOM     35  C   UNL A   1      39.323  28.683  29.780  1.00  0.00     0.016 A 
ATOM     36  C   UNL A   1      38.852  29.341  27.486  1.00  0.00     0.016 A 
ATOM     37  C   UNL A   1      40.617  28.322  29.421  1.00  0.00     0.010 A 
ATOM     38  C   UNL A   1      40.159  29.003  27.133  1.00  0.00     0.010 A 
ATOM     39  C   UNL A   1      41.054  28.523  28.107  1.00  0.00    -0.014 A 
BRANCH  39  40
ATOM     40  C   UNL A   1      42.493  28.397  27.796  1.00  0.00     0.031 A 
ATOM     41  C   UNL A   1      43.392  29.571  28.067  1.00  0.00     0.074 A 
ATOM     42  C   UNL A   1      42.994  27.244  27.320  1.00  0.00     0.049 A 
ATOM     43  N   UNL A   1      44.675  29.691  27.852  1.00  0.00    -0.248 NA
ATOM     44  C   UNL A   1      42.763  30.763  28.663  1.00  0.00     0.031 C 
ATOM     45  C   UNL A   1      42.225  26.022  27.081  1.00  0.00     0.029 A 
ATOM     46  N   UNL A   1      44.274  26.915  26.956  1.00  0.00    -0.354 N 
ATOM     47  C   UNL A   1      45.008  30.968  28.288  1.00  0.00     0.074 A 
ATOM     48  C   UNL A   1      43.794  31.593  28.758  1.00  0.00     0.031 C 
ATOM     49  C   UNL A   1      43.052  25.076  26.606  1.00  0.00     0.029 A 
ATOM     50  C   UNL A   1      44.398  25.632  26.479  1.00  0.00     0.049 A 
ATOM     51  H   UNL A   1      45.032  27.539  27.030  1.00  0.00     0.167 HD
ATOM     52  C   UNL A   1      46.223  31.562  28.298  1.00  0.00     0.031 A 
ATOM     53  C   UNL A   1      45.473  24.988  25.982  1.00  0.00     0.031 A 
ATOM     54  C   UNL A   1      47.426  30.939  27.817  1.00  0.00     0.049 A 
ATOM     55  C   UNL A   1      46.796  25.702  25.920  1.00  0.00     0.074 A 
ATOM     56  C   UNL A   1      48.707  31.461  27.787  1.00  0.00     0.029 A 
ATOM     57  N   UNL A   1      47.497  29.663  27.284  1.00  0.00    -0.354 N 
ATOM     58  N   UNL A   1      47.095  26.913  26.326  1.00  0.00    -0.248 NA
ATOM     59  C   UNL A   1      47.925  24.966  25.334  1.00  0.00     0.031 C 
ATOM     60  C   UNL A   1      49.545  30.517  27.187  1.00  0.00     0.029 A 
ATOM     61  C   UNL A   1      48.796  29.388  26.897  1.00  0.00     0.049 A 
ATOM     62  H   UNL A   1      46.736  29.044  27.193  1.00  0.00     0.167 HD
ATOM     63  C   UNL A   1      48.451  27.077  26.065  1.00  0.00     0.074 A 
ATOM     64  C   UNL A   1      48.915  25.841  25.468  1.00  0.00     0.031 C 
ATOM     65  C   UNL A   1      49.240  28.152  26.303  1.00  0.00     0.031 A 
BRANCH  52  66
ATOM     66  C   UNL A   1      46.317  32.964  28.826  1.00  0.00    -0.014 A 
ATOM     67  C   UNL A   1      46.632  33.206  30.174  1.00  0.00     0.010 A 
ATOM     68  C   UNL A   1      46.181  34.050  27.944  1.00  0.00     0.010 A 
ATOM     69  C   UNL A   1      46.804  34.515  30.633  1.00  0.00     0.020 A 
ATOM     70  C   UNL A   1      46.371  35.360  28.395  1.00  0.00     0.020 A 
ATOM     71  C   UNL A   1      46.684  35.582  29.737  1.00  0.00     0.054 A 
BRANCH  71  72
ATOM     72  S   UNL A   1      46.967  37.264  30.354  1.00  0.00     0.124 S 
ATOM     73  O   UNL A   1      45.610  37.708  30.667  1.00  0.00    -0.237 OA
ATOM     74  O   UNL A   1      47.834  37.033  31.506  1.00  0.00    -0.237 OA
ATOM     75  O   UNL A   1      47.595  37.948  29.226  1.00  0.00    -0.744 OA
ENDBRANCH  71  72
ENDBRANCH  52  66
BRANCH  53  76
ATOM     76  C   UNL A   1      45.328  23.590  25.497  1.00  0.00    -0.014 A 
ATOM     77  C   UNL A   1      45.483  22.509  26.380  1.00  0.00     0.010 A 
ATOM     78  C   UNL A   1      44.992  23.338  24.154  1.00  0.00     0.010 A 
ATOM     79  C   UNL A   1      45.296  21.199  25.931  1.00  0.00     0.020 A 
ATOM     80  C   UNL A   1      44.784  22.031  23.706  1.00  0.00     0.020 A 
ATOM     81  C   UNL A   1      44.936  20.969  24.599  1.00  0.00     0.054 A 
BRANCH  81  82
ATOM     82  S   UNL A   1      44.640  19.261  24.061  1.00  0.00     0.124 S 
ATOM     83  O   UNL A   1      43.392  18.934  24.743  1.00  0.00    -0.237 OA
ATOM     84  O   UNL A   1      44.550  19.408  22.610  1.00  0.00    -0.237 OA
ATOM     85  O   UNL A   1      45.819  18.541  24.537  1.00  0.00    -0.744 OA
ENDBRANCH  81  82
ENDBRANCH  53  76
BRANCH  65  86
ATOM     86  C   UNL A   1      50.696  28.055  25.944  1.00  0.00    -0.014 A 
ATOM     87  C   UNL A   1      51.639  27.590  26.875  1.00  0.00     0.010 A 
ATOM     88  C   UNL A   1      51.101  28.314  24.622  1.00  0.00     0.010 A 
ATOM     89  C   UNL A   1      52.967  27.387  26.489  1.00  0.00     0.020 A 
ATOM     90  C   UNL A   1      52.423  28.093  24.226  1.00  0.00     0.020 A 
ATOM     91  C   UNL A   1      53.347  27.629  25.165  1.00  0.00     0.054 A 
BRANCH  91  92
ATOM     92  S   UNL A   1      55.063  27.294  24.683  1.00  0.00     0.124 S 
ATOM     93  O   UNL A   1      55.480  26.318  25.686  1.00  0.00    -0.237 OA
ATOM     94  O   UNL A   1      54.912  26.776  23.326  1.00  0.00    -0.237 OA
ATOM     95  O   UNL A   1      55.714  28.598  24.781  1.00  0.00    -0.744 OA
ENDBRANCH  91  92
ENDBRANCH  65  86
ENDBRANCH  39  40
ENDBRANCH  32  34
ENDBRANCH  31  32
ENDBRANCH  30  31
ENDBRANCH   1  30
TORSDOF 18
ENDMDL
MODEL 3
REMARK VINA RESULT:     -11.3      0.557      7.906
REMARK SMILES Cc1ccc(C(=O)OCCOCCOC(=O)c2ccc(-c3c4nc(c(-c5ccc(S(=O)(=O)[O-])cc5)c5ccc([nH]5)c(-c5ccc(S(=O)(=O)[O-])cc5)c5nc(c(-c6ccc(S(=O)(=O)[O-])cc6)c6ccc3[nH]6)C=C5)C=C4)cc2)c2c1N[C@H](c1ccccc1F)[C@H]1CC=C[C@@H]21
REMARK SMILES IDX 12 1 11 2 10 3 9 4 8 5 6 6 7 7 5 8 1 9 2 10 3 11 78 12 4 13
REMARK SMILES IDX 77 14 79 15 92 16 80 17 88 19 91 20 89 21 90 22 81 23 82 24
REMARK SMILES IDX 86 25 83 26 85 27 87 28 84 29 13 30 14 31 15 32 16 33 17 34
REMARK SMILES IDX 18 35 76 36 19 37 75 38 20 39 21 40 22 41 69 42 23 43 74 44
REMARK SMILES IDX 68 45 70 46 24 47 73 48 67 49 66 50 25 52 55 53 36 54 54 55
REMARK SMILES IDX 37 56 40 57 53 58 71 59 38 60 39 61 52 63 72 64 41 65 26 66
REMARK SMILES IDX 27 67 35 68 28 69 34 70 29 71 30 72 31 73 32 74 33 75 56 76
REMARK SMILES IDX 57 77 65 78 58 79 64 80 59 81 60 82 61 83 62 84 63 85 42 86
REMARK SMILES IDX 43 87 51 88 44 89 50 90 45 91 46 92 47 93 48 94 49 95
REMARK H PARENT 79 18 70 51 40 62
REMARK Flexibility Score: inf
ROOT
ATOM      1  C   UNL A   1      34.811  31.489  27.729  1.00  0.00     0.202 C 
ENDROOT
BRANCH   1   2
ATOM      2  O   UNL A   1      33.624  30.731  27.486  1.00  0.00    -0.374 OA
BRANCH   2   3
ATOM      3  C   UNL A   1      33.669  29.731  26.472  1.00  0.00     0.202 C 
BRANCH   3   4
ATOM      4  C   UNL A   1      33.986  28.293  26.899  1.00  0.00     0.261 C 
BRANCH   4   5
ATOM      5  O   UNL A   1      33.928  27.377  25.800  1.00  0.00    -0.460 OA
BRANCH   5   6
ATOM      6  C   UNL A   1      32.857  26.549  25.808  1.00  0.00     0.338 C 
ATOM      7  O   UNL A   1      31.992  26.486  26.671  1.00  0.00    -0.246 OA
BRANCH   6   8
ATOM      8  C   UNL A   1      32.842  25.733  24.574  1.00  0.00     0.065 A 
ATOM      9  C   UNL A   1      33.096  23.669  20.807  1.00  0.00     0.046 C 
ATOM     10  C   UNL A   1      32.965  24.328  22.155  1.00  0.00    -0.028 A 
ATOM     11  C   UNL A   1      32.773  25.719  22.166  1.00  0.00     0.006 A 
ATOM     12  C   UNL A   1      33.004  23.610  23.374  1.00  0.00     0.042 A 
ATOM     13  C   UNL A   1      32.714  26.420  23.364  1.00  0.00     0.016 A 
ATOM     14  C   UNL A   1      32.958  24.320  24.601  1.00  0.00    -0.003 A 
ATOM     15  N   UNL A   1      33.095  22.221  23.373  1.00  0.00    -0.377 N 
ATOM     16  C   UNL A   1      32.892  23.554  25.911  1.00  0.00     0.050 C 
ATOM     17  C   UNL A   1      33.538  21.530  24.574  1.00  0.00     0.117 C 
ATOM     18  H   UNL A   1      32.860  21.710  22.566  1.00  0.00     0.161 HD
ATOM     19  C   UNL A   1      32.688  22.025  25.763  1.00  0.00     0.031 C 
ATOM     20  C   UNL A   1      34.107  23.584  26.801  1.00  0.00    -0.023 C 
ATOM     21  C   UNL A   1      33.173  21.468  27.114  1.00  0.00     0.034 C 
ATOM     22  C   UNL A   1      34.232  22.447  27.497  1.00  0.00    -0.030 C 
BRANCH  17  23
ATOM     23  C   UNL A   1      33.609  20.035  24.306  1.00  0.00     0.010 A 
ATOM     24  C   UNL A   1      32.531  19.431  23.626  1.00  0.00     0.009 A 
ATOM     25  C   UNL A   1      34.700  19.224  24.634  1.00  0.00     0.128 A 
ATOM     26  C   UNL A   1      32.574  18.087  23.247  1.00  0.00     0.001 A 
ATOM     27  C   UNL A   1      34.753  17.884  24.248  1.00  0.00     0.039 A 
ATOM     28  F   UNL A   1      35.753  19.719  25.297  1.00  0.00    -0.207 F 
ATOM     29  C   UNL A   1      33.694  17.316  23.545  1.00  0.00     0.003 A 
ENDBRANCH  17  23
ENDBRANCH   6   8
ENDBRANCH   5   6
ENDBRANCH   4   5
ENDBRANCH   3   4
ENDBRANCH   2   3
ENDBRANCH   1   2
BRANCH   1  30
ATOM     30  C   UNL A   1      35.102  31.957  29.159  1.00  0.00     0.261 C 
BRANCH  30  31
ATOM     31  O   UNL A   1      36.506  31.943  29.472  1.00  0.00    -0.460 OA
BRANCH  31  32
ATOM     32  C   UNL A   1      36.877  31.016  30.386  1.00  0.00     0.338 C 
ATOM     33  O   UNL A   1      36.259  30.661  31.379  1.00  0.00    -0.246 OA
BRANCH  32  34
ATOM     34  C   UNL A   1      38.090  30.329  29.919  1.00  0.00     0.060 A 
ATOM     35  C   UNL A   1      39.038  29.938  30.873  1.00  0.00     0.016 A 
ATOM     36  C   UNL A   1      38.333  30.161  28.556  1.00  0.00     0.016 A 
ATOM     37  C   UNL A   1      40.253  29.399  30.463  1.00  0.00     0.010 A 
ATOM     38  C   UNL A   1      39.563  29.645  28.145  1.00  0.00     0.010 A 
ATOM     39  C   UNL A   1      40.537  29.292  29.096  1.00  0.00    -0.014 A 
BRANCH  39  40
ATOM     40  C   UNL A   1      41.916  28.979  28.668  1.00  0.00     0.031 A 
ATOM     41  C   UNL A   1      42.235  27.573  28.243  1.00  0.00     0.074 A 
ATOM     42  C   UNL A   1      42.855  29.940  28.621  1.00  0.00     0.049 A 
ATOM     43  N   UNL A   1      43.376  27.070  27.852  1.00  0.00    -0.248 NA
ATOM     44  C   UNL A   1      41.120  26.609  28.253  1.00  0.00     0.031 C 
ATOM     45  C   UNL A   1      42.640  31.349  28.949  1.00  0.00     0.029 A 
ATOM     46  N   UNL A   1      44.180  29.872  28.274  1.00  0.00    -0.354 N 
ATOM     47  C   UNL A   1      43.118  25.735  27.568  1.00  0.00     0.074 A 
ATOM     48  C   UNL A   1      41.722  25.496  27.851  1.00  0.00     0.031 C 
ATOM     49  C   UNL A   1      43.797  32.013  28.790  1.00  0.00     0.029 A 
ATOM     50  C   UNL A   1      44.838  31.073  28.379  1.00  0.00     0.049 A 
ATOM     51  H   UNL A   1      44.617  29.041  27.977  1.00  0.00     0.167 HD
ATOM     52  C   UNL A   1      43.973  24.794  27.108  1.00  0.00     0.031 A 
ATOM     53  C   UNL A   1      46.137  31.374  28.181  1.00  0.00     0.031 A 
ATOM     54  C   UNL A   1      45.364  25.033  26.840  1.00  0.00     0.049 A 
ATOM     55  C   UNL A   1      47.088  30.288  27.755  1.00  0.00     0.074 A 
ATOM     56  C   UNL A   1      46.312  24.142  26.370  1.00  0.00     0.029 A 
ATOM     57  N   UNL A   1      46.006  26.248  27.019  1.00  0.00    -0.354 N 
ATOM     58  N   UNL A   1      46.833  29.027  27.500  1.00  0.00    -0.248 NA
ATOM     59  C   UNL A   1      48.500  30.664  27.591  1.00  0.00     0.031 C 
ATOM     60  C   UNL A   1      47.540  24.805  26.312  1.00  0.00     0.029 A 
ATOM     61  C   UNL A   1      47.344  26.123  26.694  1.00  0.00     0.049 A 
ATOM     62  H   UNL A   1      45.574  27.075  27.333  1.00  0.00     0.167 HD
ATOM     63  C   UNL A   1      48.047  28.463  27.124  1.00  0.00     0.074 A 
ATOM     64  C   UNL A   1      49.036  29.520  27.183  1.00  0.00     0.031 C 
ATOM     65  C   UNL A   1      48.315  27.186  26.759  1.00  0.00     0.031 A 
BRANCH  52  66
ATOM     66  C   UNL A   1      43.439  23.408  26.880  1.00  0.00    -0.014 A 
ATOM     67  C   UNL A   1      43.272  22.906  25.578  1.00  0.00     0.010 A 
ATOM     68  C   UNL A   1      43.190  22.569  27.981  1.00  0.00     0.010 A 
ATOM     69  C   UNL A   1      42.859  21.586  25.381  1.00  0.00     0.020 A 
ATOM     70  C   UNL A   1      42.796  21.243  27.787  1.00  0.00     0.020 A 
ATOM     71  C   UNL A   1      42.635  20.760  26.487  1.00  0.00     0.054 A 
BRANCH  71  72
ATOM     72  S   UNL A   1      42.153  19.036  26.194  1.00  0.00     0.124 S 
ATOM     73  O   UNL A   1      40.740  19.168  25.841  1.00  0.00    -0.237 OA
ATOM     74  O   UNL A   1      43.039  18.644  25.102  1.00  0.00    -0.237 OA
ATOM     75  O   UNL A   1      42.410  18.379  27.474  1.00  0.00    -0.744 OA
ENDBRANCH  71  72
ENDBRANCH  52  66
BRANCH  53  76
ATOM     76  C   UNL A   1      46.606  32.768  28.395  1.00  0.00    -0.014 A 
ATOM     77  C   UNL A   1      46.612  33.690  27.336  1.00  0.00     0.010 A 
ATOM     78  C   UNL A   1      47.009  33.191  29.675  1.00  0.00     0.010 A 
ATOM     79  C   UNL A   1      47.006  35.013  27.554  1.00  0.00     0.020 A 
ATOM     80  C   UNL A   1      47.384  34.517  29.902  1.00  0.00     0.020 A 
ATOM     81  C   UNL A   1      47.378  35.421  28.839  1.00  0.00     0.054 A 
BRANCH  81  82
ATOM     82  S   UNL A   1      47.825  37.160  29.104  1.00  0.00     0.124 S 
ATOM     83  O   UNL A   1      48.389  37.133  30.449  1.00  0.00    -0.237 OA
ATOM     84  O   UNL A   1      48.777  37.399  28.022  1.00  0.00    -0.237 OA
ATOM     85  O   UNL A   1      46.552  37.866  28.974  1.00  0.00    -0.744 OA
ENDBRANCH  81  82
ENDBRANCH  53  76
BRANCH  65  86
ATOM     86  C   UNL A   1      49.726  26.842  26.370  1.00  0.00    -0.014 A 
ATOM     87  C   UNL A   1      50.629  26.328  27.315  1.00  0.00     0.010 A 
ATOM     88  C   UNL A   1      50.109  26.919  25.019  1.00  0.00     0.010 A 
ATOM     89  C   UNL A   1      51.897  25.896  26.913  1.00  0.00     0.020 A 
ATOM     90  C   UNL A   1      51.366  26.469  24.609  1.00  0.00     0.020 A 
ATOM     91  C   UNL A   1      52.252  25.959  25.561  1.00  0.00     0.054 A 
BRANCH  91  92
ATOM     92  S   UNL A   1      53.879  25.331  25.065  1.00  0.00     0.124 S 
ATOM     93  O   UNL A   1      54.687  25.595  26.253  1.00  0.00    -0.237 OA
ATOM     94  O   UNL A   1      53.603  23.924  24.792  1.00  0.00    -0.237 OA
ATOM     95  O   UNL A   1      54.221  26.135  23.894  1.00  0.00    -0.744 OA
ENDBRANCH  91  92
ENDBRANCH  65  86
ENDBRANCH  39  40
ENDBRANCH  32  34
ENDBRANCH  31  32
ENDBRANCH  30  31
ENDBRANCH   1  30
TORSDOF 18
ENDMDL
