MODEL 1
REMARK VINA RESULT:     -10.8      0.000      0.000
REMARK SMILES C[C@H](Sc1ccccn1)C(=O)N[C@H](C(=O)OCCOCCOC(=O)c1ccc(-c2c3nc(c(-c4ccc(S(=O)(=O)[O-])cc4)c4ccc([nH]4)c(-c4ccc(S(=O)(=O)[O-])cc4)c4nc(c(-c5ccc(S(=O)(=O)[O-])cc5)c5ccc2[nH]5)C=C4)C=C3)cc1)c1ccc(F)cc1
REMARK SMILES IDX 18 1 17 2 16 3 14 4 15 5 13 6 12 7 10 8 11 9 2 11 1 12 3 13
REMARK SMILES IDX 4 14 5 15 9 16 6 17 8 18 7 19 85 20 86 21 91 22 87 23 90 24
REMARK SMILES IDX 88 25 89 26 19 27 20 28 21 29 22 30 23 31 24 32 25 33 26 34
REMARK SMILES IDX 84 35 27 36 83 37 28 38 29 39 30 40 77 41 31 42 82 43 76 44
REMARK SMILES IDX 78 45 32 46 81 47 75 48 74 49 33 51 63 52 44 53 62 54 45 55
REMARK SMILES IDX 48 56 61 57 79 58 46 59 47 60 60 62 80 63 49 64 34 65 35 66
REMARK SMILES IDX 43 67 36 68 42 69 37 70 38 71 39 72 40 73 41 74 64 75 65 76
REMARK SMILES IDX 73 77 66 78 72 79 67 80 68 81 69 82 70 83 71 84 50 85 51 86
REMARK SMILES IDX 59 87 52 88 58 89 53 90 54 91 55 92 56 93 57 94
REMARK H PARENT 12 10 78 50 48 61
REMARK Flexibility Score: inf
ROOT
ATOM      1  C   UNL A   1      35.627  22.838  25.587  1.00  0.00     0.202 C 
ENDROOT
BRANCH   1   2
ATOM      2  C   UNL A   1      34.158  23.065  25.222  1.00  0.00     0.261 C 
BRANCH   2   3
ATOM      3  O   UNL A   1      33.085  22.886  26.177  1.00  0.00    -0.461 OA
BRANCH   3   4
ATOM      4  C   UNL A   1      32.224  23.866  26.548  1.00  0.00     0.333 C 
ATOM      5  O   UNL A   1      31.410  23.809  27.454  1.00  0.00    -0.249 OA
BRANCH   4   6
ATOM      6  C   UNL A   1      32.359  25.039  25.571  1.00  0.00     0.223 C 
BRANCH   6   7
ATOM      7  N   UNL A   1      31.205  24.992  24.649  1.00  0.00    -0.338 N 
ATOM      8  C   UNL A   1      30.606  26.070  24.048  1.00  0.00     0.234 C 
ATOM      9  O   UNL A   1      29.434  26.262  24.406  1.00  0.00    -0.274 OA
ATOM     10  H   UNL A   1      30.832  24.103  24.447  1.00  0.00     0.164 HD
BRANCH   8  11
ATOM     11  C   UNL A   1      31.179  26.867  22.859  1.00  0.00     0.139 C 
ATOM     12  C   UNL A   1      31.820  26.079  21.733  1.00  0.00     0.030 C 
BRANCH  11  13
ATOM     13  S   UNL A   1      31.558  28.676  23.031  1.00  0.00    -0.093 SA
BRANCH  13  14
ATOM     14  C   UNL A   1      30.087  29.661  22.898  1.00  0.00     0.097 A 
ATOM     15  C   UNL A   1      29.704  30.641  23.805  1.00  0.00     0.035 A 
ATOM     16  N   UNL A   1      29.377  29.466  21.774  1.00  0.00    -0.250 NA
ATOM     17  C   UNL A   1      28.464  31.283  23.638  1.00  0.00     0.004 A 
ATOM     18  C   UNL A   1      28.165  30.061  21.648  1.00  0.00     0.112 A 
ATOM     19  C   UNL A   1      27.654  30.952  22.563  1.00  0.00     0.020 A 
ENDBRANCH  13  14
ENDBRANCH  11  13
ENDBRANCH   8  11
ENDBRANCH   6   7
BRANCH   6  20
ATOM     20  C   UNL A   1      32.669  26.427  26.095  1.00  0.00    -0.014 A 
ATOM     21  C   UNL A   1      33.852  27.106  25.756  1.00  0.00     0.009 A 
ATOM     22  C   UNL A   1      31.745  27.115  26.872  1.00  0.00     0.009 A 
ATOM     23  C   UNL A   1      34.051  28.440  26.139  1.00  0.00     0.039 A 
ATOM     24  C   UNL A   1      31.913  28.451  27.235  1.00  0.00     0.039 A 
ATOM     25  C   UNL A   1      33.067  29.108  26.855  1.00  0.00     0.123 A 
ATOM     26  F   UNL A   1      33.227  30.399  27.177  1.00  0.00    -0.207 F 
ENDBRANCH   6  20
ENDBRANCH   4   6
ENDBRANCH   3   4
ENDBRANCH   2   3
ENDBRANCH   1   2
BRANCH   1  27
ATOM     27  O   UNL A   1      35.917  21.449  25.625  1.00  0.00    -0.374 OA
BRANCH  27  28
ATOM     28  C   UNL A   1      37.217  21.112  25.126  1.00  0.00     0.202 C 
BRANCH  28  29
ATOM     29  C   UNL A   1      38.103  22.301  25.499  1.00  0.00     0.261 C 
BRANCH  29  30
ATOM     30  O   UNL A   1      39.030  21.858  26.505  1.00  0.00    -0.460 OA
BRANCH  30  31
ATOM     31  C   UNL A   1      40.192  22.549  26.450  1.00  0.00     0.338 C 
ATOM     32  O   UNL A   1      41.208  22.187  25.877  1.00  0.00    -0.246 OA
BRANCH  31  33
ATOM     33  C   UNL A   1      39.981  23.930  26.937  1.00  0.00     0.060 A 
ATOM     34  C   UNL A   1      40.470  24.964  26.129  1.00  0.00     0.016 A 
ATOM     35  C   UNL A   1      39.319  24.221  28.136  1.00  0.00     0.016 A 
ATOM     36  C   UNL A   1      40.411  26.280  26.571  1.00  0.00     0.010 A 
ATOM     37  C   UNL A   1      39.257  25.542  28.582  1.00  0.00     0.010 A 
ATOM     38  C   UNL A   1      39.873  26.558  27.833  1.00  0.00    -0.014 A 
BRANCH  38  39
ATOM     39  C   UNL A   1      40.270  27.818  28.494  1.00  0.00     0.031 A 
ATOM     40  C   UNL A   1      41.691  27.907  28.990  1.00  0.00     0.074 A 
ATOM     41  C   UNL A   1      39.428  28.858  28.594  1.00  0.00     0.049 A 
ATOM     42  N   UNL A   1      42.311  28.905  29.561  1.00  0.00    -0.248 NA
ATOM     43  C   UNL A   1      42.528  26.705  28.812  1.00  0.00     0.031 C 
ATOM     44  C   UNL A   1      38.049  28.885  28.109  1.00  0.00     0.029 A 
ATOM     45  N   UNL A   1      39.620  30.101  29.137  1.00  0.00    -0.354 N 
ATOM     46  C   UNL A   1      43.603  28.451  29.803  1.00  0.00     0.074 A 
ATOM     47  C   UNL A   1      43.673  27.081  29.354  1.00  0.00     0.031 C 
ATOM     48  C   UNL A   1      37.515  30.090  28.383  1.00  0.00     0.029 A 
ATOM     49  C   UNL A   1      38.510  30.908  29.073  1.00  0.00     0.049 A 
ATOM     50  H   UNL A   1      40.473  30.389  29.536  1.00  0.00     0.167 HD
ATOM     51  C   UNL A   1      44.646  29.120  30.346  1.00  0.00     0.031 A 
ATOM     52  C   UNL A   1      38.328  32.164  29.529  1.00  0.00     0.031 A 
ATOM     53  C   UNL A   1      44.558  30.473  30.814  1.00  0.00     0.049 A 
ATOM     54  C   UNL A   1      39.485  32.870  30.187  1.00  0.00     0.074 A 
ATOM     55  C   UNL A   1      45.542  31.253  31.390  1.00  0.00     0.029 A 
ATOM     56  N   UNL A   1      43.405  31.243  30.761  1.00  0.00    -0.354 N 
ATOM     57  N   UNL A   1      40.708  32.436  30.387  1.00  0.00    -0.248 NA
ATOM     58  C   UNL A   1      39.241  34.235  30.670  1.00  0.00     0.031 C 
ATOM     59  C   UNL A   1      44.970  32.485  31.727  1.00  0.00     0.029 A 
ATOM     60  C   UNL A   1      43.645  32.484  31.316  1.00  0.00     0.049 A 
ATOM     61  H   UNL A   1      42.545  30.947  30.385  1.00  0.00     0.167 HD
ATOM     62  C   UNL A   1      41.386  33.482  31.003  1.00  0.00     0.074 A 
ATOM     63  C   UNL A   1      40.439  34.573  31.132  1.00  0.00     0.031 C 
ATOM     64  C   UNL A   1      42.673  33.543  31.427  1.00  0.00     0.031 A 
BRANCH  51  65
ATOM     65  C   UNL A   1      45.942  28.371  30.486  1.00  0.00    -0.014 A 
ATOM     66  C   UNL A   1      47.019  28.615  29.614  1.00  0.00     0.010 A 
ATOM     67  C   UNL A   1      46.080  27.398  31.491  1.00  0.00     0.010 A 
ATOM     68  C   UNL A   1      48.197  27.872  29.719  1.00  0.00     0.020 A 
ATOM     69  C   UNL A   1      47.266  26.667  31.614  1.00  0.00     0.020 A 
ATOM     70  C   UNL A   1      48.310  26.897  30.715  1.00  0.00     0.054 A 
BRANCH  70  71
ATOM     71  S   UNL A   1      49.852  25.948  30.839  1.00  0.00     0.124 S 
ATOM     72  O   UNL A   1      49.740  25.041  29.700  1.00  0.00    -0.237 OA
ATOM     73  O   UNL A   1      50.878  26.982  30.717  1.00  0.00    -0.237 OA
ATOM     74  O   UNL A   1      49.764  25.315  32.152  1.00  0.00    -0.744 OA
ENDBRANCH  70  71
ENDBRANCH  51  65
BRANCH  52  75
ATOM     75  C   UNL A   1      37.002  32.822  29.384  1.00  0.00    -0.014 A 
ATOM     76  C   UNL A   1      36.031  32.718  30.396  1.00  0.00     0.010 A 
ATOM     77  C   UNL A   1      36.709  33.576  28.233  1.00  0.00     0.010 A 
ATOM     78  C   UNL A   1      34.789  33.348  30.254  1.00  0.00     0.020 A 
ATOM     79  C   UNL A   1      35.478  34.224  28.097  1.00  0.00     0.020 A 
ATOM     80  C   UNL A   1      34.521  34.098  29.105  1.00  0.00     0.054 A 
BRANCH  80  81
ATOM     81  S   UNL A   1      32.928  34.959  28.966  1.00  0.00     0.124 S 
ATOM     82  O   UNL A   1      33.331  36.263  28.452  1.00  0.00    -0.237 OA
ATOM     83  O   UNL A   1      32.188  34.111  28.035  1.00  0.00    -0.237 OA
ATOM     84  O   UNL A   1      32.419  34.955  30.337  1.00  0.00    -0.744 OA
ENDBRANCH  80  81
ENDBRANCH  52  75
BRANCH  64  85
ATOM     85  C   UNL A   1      43.135  34.829  32.048  1.00  0.00    -0.014 A 
ATOM     86  C   UNL A   1      44.007  35.689  31.360  1.00  0.00     0.010 A 
ATOM     87  C   UNL A   1      42.624  35.216  33.302  1.00  0.00     0.010 A 
ATOM     88  C   UNL A   1      44.381  36.909  31.928  1.00  0.00     0.020 A 
ATOM     89  C   UNL A   1      42.980  36.445  33.860  1.00  0.00     0.020 A 
ATOM     90  C   UNL A   1      43.865  37.279  33.174  1.00  0.00     0.054 A 
BRANCH  90  91
ATOM     91  S   UNL A   1      44.321  38.893  33.865  1.00  0.00     0.124 S 
ATOM     92  O   UNL A   1      44.978  38.512  35.112  1.00  0.00    -0.237 OA
ATOM     93  O   UNL A   1      45.196  39.450  32.837  1.00  0.00    -0.237 OA
ATOM     94  O   UNL A   1      43.038  39.576  34.018  1.00  0.00    -0.744 OA
ENDBRANCH  90  91
ENDBRANCH  64  85
ENDBRANCH  38  39
ENDBRANCH  31  33
ENDBRANCH  30  31
ENDBRANCH  29  30
ENDBRANCH  28  29
ENDBRANCH  27  28
ENDBRANCH   1  27
TORSDOF 22
ENDMDL
MODEL 2
REMARK VINA RESULT:     -10.0      1.608      2.204
REMARK SMILES C[C@H](Sc1ccccn1)C(=O)N[C@H](C(=O)OCCOCCOC(=O)c1ccc(-c2c3nc(c(-c4ccc(S(=O)(=O)[O-])cc4)c4ccc([nH]4)c(-c4ccc(S(=O)(=O)[O-])cc4)c4nc(c(-c5ccc(S(=O)(=O)[O-])cc5)c5ccc2[nH]5)C=C4)C=C3)cc1)c1ccc(F)cc1
REMARK SMILES IDX 18 1 17 2 16 3 14 4 15 5 13 6 12 7 10 8 11 9 2 11 1 12 3 13
REMARK SMILES IDX 4 14 5 15 9 16 6 17 8 18 7 19 85 20 86 21 91 22 87 23 90 24
REMARK SMILES IDX 88 25 89 26 19 27 20 28 21 29 22 30 23 31 24 32 25 33 26 34
REMARK SMILES IDX 84 35 27 36 83 37 28 38 29 39 30 40 77 41 31 42 82 43 76 44
REMARK SMILES IDX 78 45 32 46 81 47 75 48 74 49 33 51 63 52 44 53 62 54 45 55
REMARK SMILES IDX 48 56 61 57 79 58 46 59 47 60 60 62 80 63 49 64 34 65 35 66
REMARK SMILES IDX 43 67 36 68 42 69 37 70 38 71 39 72 40 73 41 74 64 75 65 76
REMARK SMILES IDX 73 77 66 78 72 79 67 80 68 81 69 82 70 83 71 84 50 85 51 86
REMARK SMILES IDX 59 87 52 88 58 89 53 90 54 91 55 92 56 93 57 94
REMARK H PARENT 12 10 78 50 48 61
REMARK Flexibility Score: inf
ROOT
ATOM      1  C   UNL A   1      35.388  22.847  25.288  1.00  0.00     0.202 C 
ENDROOT
BRANCH   1   2
ATOM      2  C   UNL A   1      33.891  22.889  24.969  1.00  0.00     0.261 C 
BRANCH   2   3
ATOM      3  O   UNL A   1      32.875  22.753  25.992  1.00  0.00    -0.461 OA
BRANCH   3   4
ATOM      4  C   UNL A   1      32.096  23.771  26.432  1.00  0.00     0.333 C 
ATOM      5  O   UNL A   1      31.322  23.736  27.374  1.00  0.00    -0.249 OA
BRANCH   4   6
ATOM      6  C   UNL A   1      32.262  24.965  25.486  1.00  0.00     0.223 C 
BRANCH   6   7
ATOM      7  N   UNL A   1      31.128  24.949  24.538  1.00  0.00    -0.338 N 
ATOM      8  C   UNL A   1      30.387  26.036  24.145  1.00  0.00     0.234 C 
ATOM      9  O   UNL A   1      29.200  25.992  24.498  1.00  0.00    -0.274 OA
ATOM     10  H   UNL A   1      30.882  24.077  24.153  1.00  0.00     0.164 HD
BRANCH   8  11
ATOM     11  C   UNL A   1      30.848  27.125  23.156  1.00  0.00     0.139 C 
ATOM     12  C   UNL A   1      31.567  26.670  21.900  1.00  0.00     0.030 C 
BRANCH  11  13
ATOM     13  S   UNL A   1      31.010  28.890  23.706  1.00  0.00    -0.093 SA
BRANCH  13  14
ATOM     14  C   UNL A   1      29.706  29.896  23.041  1.00  0.00     0.097 A 
ATOM     15  C   UNL A   1      29.129  30.978  23.692  1.00  0.00     0.035 A 
ATOM     16  N   UNL A   1      29.355  29.602  21.778  1.00  0.00    -0.250 NA
ATOM     17  C   UNL A   1      28.036  31.633  23.099  1.00  0.00     0.004 A 
ATOM     18  C   UNL A   1      28.273  30.214  21.235  1.00  0.00     0.112 A 
ATOM     19  C   UNL A   1      27.565  31.212  21.864  1.00  0.00     0.020 A 
ENDBRANCH  13  14
ENDBRANCH  11  13
ENDBRANCH   8  11
ENDBRANCH   6   7
BRANCH   6  20
ATOM     20  C   UNL A   1      32.571  26.338  26.049  1.00  0.00    -0.014 A 
ATOM     21  C   UNL A   1      31.699  26.995  26.935  1.00  0.00     0.009 A 
ATOM     22  C   UNL A   1      33.779  26.965  25.769  1.00  0.00     0.009 A 
ATOM     23  C   UNL A   1      32.070  28.200  27.549  1.00  0.00     0.039 A 
ATOM     24  C   UNL A   1      34.177  28.146  26.395  1.00  0.00     0.039 A 
ATOM     25  C   UNL A   1      33.318  28.751  27.292  1.00  0.00     0.123 A 
ATOM     26  F   UNL A   1      33.702  29.872  27.917  1.00  0.00    -0.207 F 
ENDBRANCH   6  20
ENDBRANCH   4   6
ENDBRANCH   3   4
ENDBRANCH   2   3
ENDBRANCH   1   2
BRANCH   1  27
ATOM     27  O   UNL A   1      35.844  21.504  25.337  1.00  0.00    -0.374 OA
BRANCH  27  28
ATOM     28  C   UNL A   1      37.217  21.343  24.961  1.00  0.00     0.202 C 
BRANCH  28  29
ATOM     29  C   UNL A   1      37.916  22.603  25.470  1.00  0.00     0.261 C 
BRANCH  29  30
ATOM     30  O   UNL A   1      38.750  22.226  26.579  1.00  0.00    -0.460 OA
BRANCH  30  31
ATOM     31  C   UNL A   1      39.982  22.776  26.487  1.00  0.00     0.338 C 
ATOM     32  O   UNL A   1      40.930  22.300  25.881  1.00  0.00    -0.246 OA
BRANCH  31  33
ATOM     33  C   UNL A   1      39.949  24.170  26.980  1.00  0.00     0.060 A 
ATOM     34  C   UNL A   1      40.393  25.162  26.096  1.00  0.00     0.016 A 
ATOM     35  C   UNL A   1      39.493  24.515  28.258  1.00  0.00     0.016 A 
ATOM     36  C   UNL A   1      40.499  26.480  26.523  1.00  0.00     0.010 A 
ATOM     37  C   UNL A   1      39.598  25.838  28.691  1.00  0.00     0.010 A 
ATOM     38  C   UNL A   1      40.173  26.801  27.846  1.00  0.00    -0.014 A 
BRANCH  38  39
ATOM     39  C   UNL A   1      40.757  28.029  28.424  1.00  0.00     0.031 A 
ATOM     40  C   UNL A   1      42.254  28.182  28.325  1.00  0.00     0.074 A 
ATOM     41  C   UNL A   1      39.989  28.992  28.957  1.00  0.00     0.049 A 
ATOM     42  N   UNL A   1      43.014  29.173  28.707  1.00  0.00    -0.248 NA
ATOM     43  C   UNL A   1      42.991  27.063  27.706  1.00  0.00     0.031 C 
ATOM     44  C   UNL A   1      38.531  28.956  29.062  1.00  0.00     0.029 A 
ATOM     45  N   UNL A   1      40.339  30.197  29.508  1.00  0.00    -0.354 N 
ATOM     46  C   UNL A   1      44.311  28.797  28.370  1.00  0.00     0.074 A 
ATOM     47  C   UNL A   1      44.243  27.478  27.788  1.00  0.00     0.031 C 
ATOM     48  C   UNL A   1      38.110  30.091  29.649  1.00  0.00     0.029 A 
ATOM     49  C   UNL A   1      39.268  30.922  29.972  1.00  0.00     0.049 A 
ATOM     50  H   UNL A   1      41.269  30.513  29.566  1.00  0.00     0.167 HD
ATOM     51  C   UNL A   1      45.459  29.495  28.523  1.00  0.00     0.031 A 
ATOM     52  C   UNL A   1      39.240  32.119  30.591  1.00  0.00     0.031 A 
ATOM     53  C   UNL A   1      45.519  30.794  29.127  1.00  0.00     0.049 A 
ATOM     54  C   UNL A   1      40.538  32.852  30.810  1.00  0.00     0.074 A 
ATOM     55  C   UNL A   1      46.623  31.595  29.347  1.00  0.00     0.029 A 
ATOM     56  N   UNL A   1      44.415  31.478  29.615  1.00  0.00    -0.354 N 
ATOM     57  N   UNL A   1      41.753  32.496  30.464  1.00  0.00    -0.248 NA
ATOM     58  C   UNL A   1      40.460  34.151  31.490  1.00  0.00     0.031 C 
ATOM     59  C   UNL A   1      46.191  32.749  30.009  1.00  0.00     0.029 A 
ATOM     60  C   UNL A   1      44.813  32.684  30.157  1.00  0.00     0.049 A 
ATOM     61  H   UNL A   1      43.487  31.152  29.581  1.00  0.00     0.167 HD
ATOM     62  C   UNL A   1      42.584  33.535  30.868  1.00  0.00     0.074 A 
ATOM     63  C   UNL A   1      41.729  34.538  31.474  1.00  0.00     0.031 C 
ATOM     64  C   UNL A   1      43.930  33.655  30.753  1.00  0.00     0.031 A 
BRANCH  51  65
ATOM     65  C   UNL A   1      46.729  28.835  28.061  1.00  0.00    -0.014 A 
ATOM     66  C   UNL A   1      47.207  29.020  26.751  1.00  0.00     0.010 A 
ATOM     67  C   UNL A   1      47.444  28.004  28.942  1.00  0.00     0.010 A 
ATOM     68  C   UNL A   1      48.357  28.356  26.317  1.00  0.00     0.020 A 
ATOM     69  C   UNL A   1      48.608  27.355  28.517  1.00  0.00     0.020 A 
ATOM     70  C   UNL A   1      49.046  27.521  27.202  1.00  0.00     0.054 A 
BRANCH  70  71
ATOM     71  S   UNL A   1      50.541  26.673  26.620  1.00  0.00     0.124 S 
ATOM     72  O   UNL A   1      51.395  27.796  26.240  1.00  0.00    -0.237 OA
ATOM     73  O   UNL A   1      50.972  25.932  27.803  1.00  0.00    -0.237 OA
ATOM     74  O   UNL A   1      50.065  25.850  25.512  1.00  0.00    -0.744 OA
ENDBRANCH  70  71
ENDBRANCH  51  65
BRANCH  52  75
ATOM     75  C   UNL A   1      37.944  32.686  31.053  1.00  0.00    -0.014 A 
ATOM     76  C   UNL A   1      37.039  33.255  30.139  1.00  0.00     0.010 A 
ATOM     77  C   UNL A   1      37.599  32.643  32.416  1.00  0.00     0.010 A 
ATOM     78  C   UNL A   1      35.819  33.779  30.582  1.00  0.00     0.020 A 
ATOM     79  C   UNL A   1      36.373  33.145  32.860  1.00  0.00     0.020 A 
ATOM     80  C   UNL A   1      35.494  33.720  31.941  1.00  0.00     0.054 A 
BRANCH  80  81
ATOM     81  S   UNL A   1      33.881  34.348  32.489  1.00  0.00     0.124 S 
ATOM     82  O   UNL A   1      33.274  33.159  33.076  1.00  0.00    -0.237 OA
ATOM     83  O   UNL A   1      34.252  35.401  33.430  1.00  0.00    -0.237 OA
ATOM     84  O   UNL A   1      33.263  34.822  31.251  1.00  0.00    -0.744 OA
ENDBRANCH  80  81
ENDBRANCH  52  75
BRANCH  64  85
ATOM     85  C   UNL A   1      44.556  34.917  31.273  1.00  0.00    -0.014 A 
ATOM     86  C   UNL A   1      44.655  36.059  30.461  1.00  0.00     0.010 A 
ATOM     87  C   UNL A   1      44.976  34.981  32.615  1.00  0.00     0.010 A 
ATOM     88  C   UNL A   1      45.187  37.243  30.978  1.00  0.00     0.020 A 
ATOM     89  C   UNL A   1      45.487  36.169  33.139  1.00  0.00     0.020 A 
ATOM     90  C   UNL A   1      45.600  37.290  32.313  1.00  0.00     0.054 A 
BRANCH  90  91
ATOM     91  S   UNL A   1      46.236  38.853  32.978  1.00  0.00     0.124 S 
ATOM     92  O   UNL A   1      45.879  39.797  31.923  1.00  0.00    -0.237 OA
ATOM     93  O   UNL A   1      45.496  38.997  34.229  1.00  0.00    -0.237 OA
ATOM     94  O   UNL A   1      47.667  38.604  33.135  1.00  0.00    -0.744 OA
ENDBRANCH  90  91
ENDBRANCH  64  85
ENDBRANCH  38  39
ENDBRANCH  31  33
ENDBRANCH  30  31
ENDBRANCH  29  30
ENDBRANCH  28  29
ENDBRANCH  27  28
ENDBRANCH   1  27
TORSDOF 22
ENDMDL
MODEL 3
REMARK VINA RESULT:      -9.7      3.903      9.709
REMARK SMILES C[C@H](Sc1ccccn1)C(=O)N[C@H](C(=O)OCCOCCOC(=O)c1ccc(-c2c3nc(c(-c4ccc(S(=O)(=O)[O-])cc4)c4ccc([nH]4)c(-c4ccc(S(=O)(=O)[O-])cc4)c4nc(c(-c5ccc(S(=O)(=O)[O-])cc5)c5ccc2[nH]5)C=C4)C=C3)cc1)c1ccc(F)cc1
REMARK SMILES IDX 18 1 17 2 16 3 14 4 15 5 13 6 12 7 10 8 11 9 2 11 1 12 3 13
REMARK SMILES IDX 4 14 5 15 9 16 6 17 8 18 7 19 85 20 86 21 91 22 87 23 90 24
REMARK SMILES IDX 88 25 89 26 19 27 20 28 21 29 22 30 23 31 24 32 25 33 26 34
REMARK SMILES IDX 84 35 27 36 83 37 28 38 29 39 30 40 77 41 31 42 82 43 76 44
REMARK SMILES IDX 78 45 32 46 81 47 75 48 74 49 33 51 63 52 44 53 62 54 45 55
REMARK SMILES IDX 48 56 61 57 79 58 46 59 47 60 60 62 80 63 49 64 34 65 35 66
REMARK SMILES IDX 43 67 36 68 42 69 37 70 38 71 39 72 40 73 41 74 64 75 65 76
REMARK SMILES IDX 73 77 66 78 72 79 67 80 68 81 69 82 70 83 71 84 50 85 51 86
REMARK SMILES IDX 59 87 52 88 58 89 53 90 54 91 55 92 56 93 57 94
REMARK H PARENT 12 10 78 50 48 61
REMARK Flexibility Score: inf
ROOT
ATOM      1  C   UNL A   1      34.892  29.465  26.954  1.00  0.00     0.202 C 
ENDROOT
BRANCH   1   2
ATOM      2  C   UNL A   1      33.469  29.500  26.389  1.00  0.00     0.261 C 
BRANCH   2   3
ATOM      3  O   UNL A   1      32.961  28.473  25.504  1.00  0.00    -0.461 OA
BRANCH   3   4
ATOM      4  C   UNL A   1      32.822  28.624  24.163  1.00  0.00     0.333 C 
ATOM      5  O   UNL A   1      33.631  29.131  23.404  1.00  0.00    -0.249 OA
BRANCH   4   6
ATOM      6  C   UNL A   1      31.425  28.147  23.753  1.00  0.00     0.223 C 
BRANCH   6   7
ATOM      7  N   UNL A   1      31.034  27.056  24.671  1.00  0.00    -0.338 N 
ATOM      8  C   UNL A   1      31.314  25.722  24.508  1.00  0.00     0.234 C 
ATOM      9  O   UNL A   1      30.312  25.012  24.341  1.00  0.00    -0.274 OA
ATOM     10  H   UNL A   1      30.526  27.310  25.475  1.00  0.00     0.164 HD
BRANCH   8  11
ATOM     11  C   UNL A   1      32.687  25.060  24.737  1.00  0.00     0.139 C 
ATOM     12  C   UNL A   1      33.659  25.042  23.571  1.00  0.00     0.030 C 
BRANCH  11  13
ATOM     13  S   UNL A   1      32.944  23.884  26.150  1.00  0.00    -0.093 SA
BRANCH  13  14
ATOM     14  C   UNL A   1      33.189  22.223  25.573  1.00  0.00     0.097 A 
ATOM     15  C   UNL A   1      34.362  21.495  25.729  1.00  0.00     0.035 A 
ATOM     16  N   UNL A   1      32.102  21.646  25.035  1.00  0.00    -0.250 NA
ATOM     17  C   UNL A   1      34.463  20.223  25.139  1.00  0.00     0.004 A 
ATOM     18  C   UNL A   1      32.227  20.436  24.434  1.00  0.00     0.112 A 
ATOM     19  C   UNL A   1      33.388  19.701  24.435  1.00  0.00     0.020 A 
ENDBRANCH  13  14
ENDBRANCH  11  13
ENDBRANCH   8  11
ENDBRANCH   6   7
BRANCH   6  20
ATOM     20  C   UNL A   1      30.325  29.159  23.501  1.00  0.00    -0.014 A 
ATOM     21  C   UNL A   1      29.292  28.924  22.577  1.00  0.00     0.009 A 
ATOM     22  C   UNL A   1      30.255  30.331  24.244  1.00  0.00     0.009 A 
ATOM     23  C   UNL A   1      28.212  29.812  22.463  1.00  0.00     0.039 A 
ATOM     24  C   UNL A   1      29.174  31.208  24.165  1.00  0.00     0.039 A 
ATOM     25  C   UNL A   1      28.151  30.934  23.277  1.00  0.00     0.123 A 
ATOM     26  F   UNL A   1      27.096  31.757  23.213  1.00  0.00    -0.207 F 
ENDBRANCH   6  20
ENDBRANCH   4   6
ENDBRANCH   3   4
ENDBRANCH   2   3
ENDBRANCH   1   2
BRANCH   1  27
ATOM     27  O   UNL A   1      34.933  30.093  28.226  1.00  0.00    -0.374 OA
BRANCH  27  28
ATOM     28  C   UNL A   1      34.583  31.482  28.202  1.00  0.00     0.202 C 
BRANCH  28  29
ATOM     29  C   UNL A   1      35.429  32.121  29.302  1.00  0.00     0.261 C 
BRANCH  29  30
ATOM     30  O   UNL A   1      36.011  31.062  30.080  1.00  0.00    -0.460 OA
BRANCH  30  31
ATOM     31  C   UNL A   1      37.166  31.450  30.667  1.00  0.00     0.338 C 
ATOM     32  O   UNL A   1      37.259  32.200  31.627  1.00  0.00    -0.246 OA
BRANCH  31  33
ATOM     33  C   UNL A   1      38.287  30.624  30.168  1.00  0.00     0.060 A 
ATOM     34  C   UNL A   1      39.224  30.194  31.117  1.00  0.00     0.016 A 
ATOM     35  C   UNL A   1      38.428  30.264  28.822  1.00  0.00     0.016 A 
ATOM     36  C   UNL A   1      40.363  29.511  30.711  1.00  0.00     0.010 A 
ATOM     37  C   UNL A   1      39.571  29.577  28.411  1.00  0.00     0.010 A 
ATOM     38  C   UNL A   1      40.572  29.272  29.348  1.00  0.00    -0.014 A 
BRANCH  38  39
ATOM     39  C   UNL A   1      41.956  29.032  28.891  1.00  0.00     0.031 A 
ATOM     40  C   UNL A   1      42.284  27.638  28.419  1.00  0.00     0.074 A 
ATOM     41  C   UNL A   1      42.863  30.020  28.838  1.00  0.00     0.049 A 
ATOM     42  N   UNL A   1      43.400  27.168  27.927  1.00  0.00    -0.248 NA
ATOM     43  C   UNL A   1      41.202  26.639  28.511  1.00  0.00     0.031 C 
ATOM     44  C   UNL A   1      42.632  31.408  29.233  1.00  0.00     0.029 A 
ATOM     45  N   UNL A   1      44.168  29.999  28.422  1.00  0.00    -0.354 N 
ATOM     46  C   UNL A   1      43.149  25.828  27.650  1.00  0.00     0.074 A 
ATOM     47  C   UNL A   1      41.793  25.547  28.059  1.00  0.00     0.031 C 
ATOM     48  C   UNL A   1      43.765  32.109  29.043  1.00  0.00     0.029 A 
ATOM     49  C   UNL A   1      44.800  31.214  28.529  1.00  0.00     0.049 A 
ATOM     50  H   UNL A   1      44.612  29.190  28.079  1.00  0.00     0.167 HD
ATOM     51  C   UNL A   1      43.974  24.912  27.095  1.00  0.00     0.031 A 
ATOM     52  C   UNL A   1      46.073  31.554  28.245  1.00  0.00     0.031 A 
ATOM     53  C   UNL A   1      45.328  25.195  26.717  1.00  0.00     0.049 A 
ATOM     54  C   UNL A   1      46.995  30.501  27.686  1.00  0.00     0.074 A 
ATOM     55  C   UNL A   1      46.263  24.347  26.155  1.00  0.00     0.029 A 
ATOM     56  N   UNL A   1      45.939  26.430  26.874  1.00  0.00    -0.354 N 
ATOM     57  N   UNL A   1      46.737  29.244  27.406  1.00  0.00    -0.248 NA
ATOM     58  C   UNL A   1      48.374  30.914  27.393  1.00  0.00     0.031 C 
ATOM     59  C   UNL A   1      47.457  25.062  26.011  1.00  0.00     0.029 A 
ATOM     60  C   UNL A   1      47.248  26.364  26.441  1.00  0.00     0.049 A 
ATOM     61  H   UNL A   1      45.504  27.233  27.241  1.00  0.00     0.167 HD
ATOM     62  C   UNL A   1      47.916  28.721  26.887  1.00  0.00     0.074 A 
ATOM     63  C   UNL A   1      48.884  29.801  26.882  1.00  0.00     0.031 C 
ATOM     64  C   UNL A   1      48.181  27.463  26.454  1.00  0.00     0.031 A 
BRANCH  51  65
ATOM     65  C   UNL A   1      43.428  23.523  26.908  1.00  0.00    -0.014 A 
ATOM     66  C   UNL A   1      43.184  22.685  28.012  1.00  0.00     0.010 A 
ATOM     67  C   UNL A   1      43.174  23.041  25.612  1.00  0.00     0.010 A 
ATOM     68  C   UNL A   1      42.732  21.377  27.821  1.00  0.00     0.020 A 
ATOM     69  C   UNL A   1      42.701  21.740  25.418  1.00  0.00     0.020 A 
ATOM     70  C   UNL A   1      42.500  20.911  26.524  1.00  0.00     0.054 A 
BRANCH  70  71
ATOM     71  S   UNL A   1      41.906  19.211  26.298  1.00  0.00     0.124 S 
ATOM     72  O   UNL A   1      42.011  18.673  27.653  1.00  0.00    -0.237 OA
ATOM     73  O   UNL A   1      40.544  19.408  25.807  1.00  0.00    -0.237 OA
ATOM     74  O   UNL A   1      42.839  18.643  25.329  1.00  0.00    -0.744 OA
ENDBRANCH  70  71
ENDBRANCH  51  65
BRANCH  52  75
ATOM     75  C   UNL A   1      46.546  32.942  28.494  1.00  0.00    -0.014 A 
ATOM     76  C   UNL A   1      46.328  33.959  27.549  1.00  0.00     0.010 A 
ATOM     77  C   UNL A   1      47.205  33.259  29.697  1.00  0.00     0.010 A 
ATOM     78  C   UNL A   1      46.770  35.264  27.796  1.00  0.00     0.020 A 
ATOM     79  C   UNL A   1      47.628  34.565  29.957  1.00  0.00     0.020 A 
ATOM     80  C   UNL A   1      47.416  35.559  29.001  1.00  0.00     0.054 A 
BRANCH  80  81
ATOM     81  S   UNL A   1      47.927  37.269  29.331  1.00  0.00     0.124 S 
ATOM     82  O   UNL A   1      47.268  37.543  30.604  1.00  0.00    -0.237 OA
ATOM     83  O   UNL A   1      49.383  37.164  29.381  1.00  0.00    -0.237 OA
ATOM     84  O   UNL A   1      47.405  38.008  28.183  1.00  0.00    -0.744 OA
ENDBRANCH  80  81
ENDBRANCH  52  75
BRANCH  64  85
ATOM     85  C   UNL A   1      49.559  27.193  25.923  1.00  0.00    -0.014 A 
ATOM     86  C   UNL A   1      50.461  26.386  26.637  1.00  0.00     0.010 A 
ATOM     87  C   UNL A   1      49.924  27.689  24.657  1.00  0.00     0.010 A 
ATOM     88  C   UNL A   1      51.718  26.097  26.101  1.00  0.00     0.020 A 
ATOM     89  C   UNL A   1      51.171  27.383  24.112  1.00  0.00     0.020 A 
ATOM     90  C   UNL A   1      52.065  26.597  24.843  1.00  0.00     0.054 A 
BRANCH  90  91
ATOM     91  S   UNL A   1      53.682  26.163  24.144  1.00  0.00     0.124 S 
ATOM     92  O   UNL A   1      53.344  25.889  22.750  1.00  0.00    -0.237 OA
ATOM     93  O   UNL A   1      54.469  27.372  24.375  1.00  0.00    -0.237 OA
ATOM     94  O   UNL A   1      54.095  25.000  24.927  1.00  0.00    -0.744 OA
ENDBRANCH  90  91
ENDBRANCH  64  85
ENDBRANCH  38  39
ENDBRANCH  31  33
ENDBRANCH  30  31
ENDBRANCH  29  30
ENDBRANCH  28  29
ENDBRANCH  27  28
ENDBRANCH   1  27
TORSDOF 22
ENDMDL
