MODEL 1
REMARK VINA RESULT:     -10.3      0.000      0.000
REMARK SMILES Nc1nn(-c2ccc(Cl)cc2)nc1C(=O)OCCOCCOC(=O)c1ccc(-c2c3nc(c(-c4ccc(S(=O)(=O)[O-])cc4)c4ccc([nH]4)c(-c4ccc(S(=O)(=O)[O-])cc4)c4nc(c(-c5ccc(S(=O)(=O)[O-])cc5)c5ccc2[nH]5)C=C4)C=C3)cc1
REMARK SMILES IDX 20 1 19 2 18 3 17 4 16 5 14 6 15 7 13 8 2 9 3 10 4 11 12 12
REMARK SMILES IDX 1 13 5 16 6 17 11 18 7 19 10 20 8 21 9 22 21 23 22 24 23 25
REMARK SMILES IDX 24 26 25 27 26 28 84 29 27 30 83 31 28 32 29 33 30 34 77 35
REMARK SMILES IDX 31 36 82 37 76 38 78 39 32 40 81 41 75 42 74 43 33 45 63 46
REMARK SMILES IDX 44 47 62 48 45 49 48 50 61 51 79 52 46 53 47 54 60 56 80 57
REMARK SMILES IDX 49 58 34 59 35 60 43 61 36 62 42 63 37 64 38 65 39 66 40 67
REMARK SMILES IDX 41 68 64 69 65 70 73 71 66 72 72 73 67 74 68 75 69 76 70 77
REMARK SMILES IDX 71 78 50 79 51 80 59 81 52 82 58 83 53 84 54 85 55 86 56 87
REMARK SMILES IDX 57 88
REMARK H PARENT 1 14 1 15 78 44 48 55
REMARK Flexibility Score: inf
ROOT
ATOM      1  C   UNL A   1      46.028  23.144  25.569  1.00  0.00     0.202 C 
ENDROOT
BRANCH   1   2
ATOM      2  O   UNL A   1      46.025  21.738  25.807  1.00  0.00    -0.374 OA
BRANCH   2   3
ATOM      3  C   UNL A   1      45.998  20.828  24.708  1.00  0.00     0.202 C 
BRANCH   3   4
ATOM      4  C   UNL A   1      45.264  19.502  24.908  1.00  0.00     0.261 C 
BRANCH   4   5
ATOM      5  O   UNL A   1      43.886  19.597  24.514  1.00  0.00    -0.458 OA
BRANCH   5   6
ATOM      6  C   UNL A   1      43.006  19.043  25.403  1.00  0.00     0.362 C 
ATOM      7  O   UNL A   1      42.973  17.848  25.682  1.00  0.00    -0.244 OA
BRANCH   6   8
ATOM      8  C   UNL A   1      42.192  20.036  26.089  1.00  0.00     0.214 A 
ATOM      9  C   UNL A   1      40.810  20.050  26.405  1.00  0.00     0.181 A 
ATOM     10  N   UNL A   1      40.552  21.079  27.212  1.00  0.00    -0.130 NA
ATOM     11  N   UNL A   1      41.718  21.756  27.187  1.00  0.00    -0.149 N 
ATOM     12  N   UNL A   1      42.736  21.195  26.509  1.00  0.00    -0.139 NA
BRANCH   9  13
ATOM     13  N   UNL A   1      39.872  19.178  26.013  1.00  0.00    -0.380 N 
ATOM     14  H   UNL A   1      40.038  18.210  26.090  1.00  0.00     0.158 HD
ATOM     15  H   UNL A   1      39.018  19.505  25.649  1.00  0.00     0.158 HD
ENDBRANCH   9  13
BRANCH  11  16
ATOM     16  C   UNL A   1      41.944  22.930  27.925  1.00  0.00     0.086 A 
ATOM     17  C   UNL A   1      41.024  23.983  27.830  1.00  0.00     0.032 A 
ATOM     18  C   UNL A   1      43.138  23.074  28.637  1.00  0.00     0.032 A 
ATOM     19  C   UNL A   1      41.297  25.190  28.474  1.00  0.00     0.023 A 
ATOM     20  C   UNL A   1      43.430  24.307  29.226  1.00  0.00     0.023 A 
ATOM     21  C   UNL A   1      42.507  25.353  29.150  1.00  0.00     0.041 A 
ATOM     22  Cl  UNL A   1      42.878  26.870  29.874  1.00  0.00    -0.084 Cl
ENDBRANCH  11  16
ENDBRANCH   6   8
ENDBRANCH   5   6
ENDBRANCH   4   5
ENDBRANCH   3   4
ENDBRANCH   2   3
ENDBRANCH   1   2
BRANCH   1  23
ATOM     23  C   UNL A   1      44.758  23.788  25.027  1.00  0.00     0.261 C 
BRANCH  23  24
ATOM     24  O   UNL A   1      44.478  25.008  25.693  1.00  0.00    -0.460 OA
BRANCH  24  25
ATOM     25  C   UNL A   1      43.302  25.578  25.344  1.00  0.00     0.338 C 
ATOM     26  O   UNL A   1      42.348  25.037  24.814  1.00  0.00    -0.246 OA
BRANCH  25  27
ATOM     27  C   UNL A   1      43.383  27.013  25.642  1.00  0.00     0.060 A 
ATOM     28  C   UNL A   1      44.414  27.395  26.504  1.00  0.00     0.016 A 
ATOM     29  C   UNL A   1      42.300  27.854  25.346  1.00  0.00     0.016 A 
ATOM     30  C   UNL A   1      44.211  28.494  27.301  1.00  0.00     0.010 A 
ATOM     31  C   UNL A   1      42.091  28.942  26.155  1.00  0.00     0.010 A 
ATOM     32  C   UNL A   1      42.996  29.171  27.192  1.00  0.00    -0.014 A 
BRANCH  32  33
ATOM     33  C   UNL A   1      42.627  30.065  28.266  1.00  0.00     0.031 A 
ATOM     34  C   UNL A   1      43.614  31.120  28.570  1.00  0.00     0.074 A 
ATOM     35  C   UNL A   1      41.402  29.979  28.816  1.00  0.00     0.049 A 
ATOM     36  N   UNL A   1      44.175  31.399  29.698  1.00  0.00    -0.248 NA
ATOM     37  C   UNL A   1      44.116  31.902  27.428  1.00  0.00     0.031 C 
ATOM     38  C   UNL A   1      40.266  29.170  28.351  1.00  0.00     0.029 A 
ATOM     39  N   UNL A   1      40.863  30.719  29.819  1.00  0.00    -0.354 N 
ATOM     40  C   UNL A   1      44.980  32.504  29.446  1.00  0.00     0.074 A 
ATOM     41  C   UNL A   1      45.024  32.672  28.017  1.00  0.00     0.031 C 
ATOM     42  C   UNL A   1      39.130  29.648  28.903  1.00  0.00     0.029 A 
ATOM     43  C   UNL A   1      39.475  30.706  29.839  1.00  0.00     0.049 A 
ATOM     44  H   UNL A   1      41.406  31.218  30.471  1.00  0.00     0.167 HD
ATOM     45  C   UNL A   1      45.393  33.351  30.425  1.00  0.00     0.031 A 
ATOM     46  C   UNL A   1      38.673  31.584  30.489  1.00  0.00     0.031 A 
ATOM     47  C   UNL A   1      45.281  32.777  31.735  1.00  0.00     0.049 A 
ATOM     48  C   UNL A   1      39.504  32.282  31.502  1.00  0.00     0.074 A 
ATOM     49  C   UNL A   1      45.874  31.704  32.369  1.00  0.00     0.029 A 
ATOM     50  N   UNL A   1      44.171  33.098  32.480  1.00  0.00    -0.354 N 
ATOM     51  N   UNL A   1      40.031  31.693  32.540  1.00  0.00    -0.248 NA
ATOM     52  C   UNL A   1      40.112  33.554  31.141  1.00  0.00     0.031 C 
ATOM     53  C   UNL A   1      44.862  31.159  33.208  1.00  0.00     0.029 A 
ATOM     54  C   UNL A   1      43.713  31.942  33.064  1.00  0.00     0.049 A 
ATOM     55  H   UNL A   1      43.776  33.995  32.576  1.00  0.00     0.167 HD
ATOM     56  C   UNL A   1      41.268  32.300  32.714  1.00  0.00     0.074 A 
ATOM     57  C   UNL A   1      41.211  33.510  31.900  1.00  0.00     0.031 C 
ATOM     58  C   UNL A   1      42.314  31.627  33.281  1.00  0.00     0.031 A 
BRANCH  45  59
ATOM     59  C   UNL A   1      45.580  34.823  30.180  1.00  0.00    -0.014 A 
ATOM     60  C   UNL A   1      44.458  35.659  30.051  1.00  0.00     0.010 A 
ATOM     61  C   UNL A   1      46.836  35.367  29.828  1.00  0.00     0.010 A 
ATOM     62  C   UNL A   1      44.587  36.965  29.556  1.00  0.00     0.020 A 
ATOM     63  C   UNL A   1      46.982  36.679  29.385  1.00  0.00     0.020 A 
ATOM     64  C   UNL A   1      45.848  37.459  29.216  1.00  0.00     0.054 A 
BRANCH  64  65
ATOM     65  S   UNL A   1      45.995  39.098  28.467  1.00  0.00     0.124 S 
ATOM     66  O   UNL A   1      45.241  39.923  29.406  1.00  0.00    -0.237 OA
ATOM     67  O   UNL A   1      47.440  39.308  28.453  1.00  0.00    -0.237 OA
ATOM     68  O   UNL A   1      45.384  38.929  27.150  1.00  0.00    -0.744 OA
ENDBRANCH  64  65
ENDBRANCH  45  59
BRANCH  46  69
ATOM     69  C   UNL A   1      37.355  32.083  30.026  1.00  0.00    -0.014 A 
ATOM     70  C   UNL A   1      36.241  32.108  30.881  1.00  0.00     0.010 A 
ATOM     71  C   UNL A   1      37.253  32.766  28.794  1.00  0.00     0.010 A 
ATOM     72  C   UNL A   1      35.080  32.820  30.530  1.00  0.00     0.020 A 
ATOM     73  C   UNL A   1      36.098  33.465  28.432  1.00  0.00     0.020 A 
ATOM     74  C   UNL A   1      35.022  33.506  29.312  1.00  0.00     0.054 A 
BRANCH  74  75
ATOM     75  S   UNL A   1      33.580  34.542  28.933  1.00  0.00     0.124 S 
ATOM     76  O   UNL A   1      32.960  34.703  30.246  1.00  0.00    -0.237 OA
ATOM     77  O   UNL A   1      34.192  35.741  28.370  1.00  0.00    -0.237 OA
ATOM     78  O   UNL A   1      32.817  33.735  27.982  1.00  0.00    -0.744 OA
ENDBRANCH  74  75
ENDBRANCH  46  69
BRANCH  58  79
ATOM     79  C   UNL A   1      42.026  30.298  33.947  1.00  0.00    -0.014 A 
ATOM     80  C   UNL A   1      41.956  29.084  33.232  1.00  0.00     0.010 A 
ATOM     81  C   UNL A   1      42.000  30.247  35.352  1.00  0.00     0.010 A 
ATOM     82  C   UNL A   1      41.849  27.858  33.904  1.00  0.00     0.020 A 
ATOM     83  C   UNL A   1      41.909  29.026  36.028  1.00  0.00     0.020 A 
ATOM     84  C   UNL A   1      41.830  27.836  35.300  1.00  0.00     0.054 A 
BRANCH  84  85
ATOM     85  S   UNL A   1      41.774  26.240  36.162  1.00  0.00     0.124 S 
ATOM     86  O   UNL A   1      40.653  25.567  35.512  1.00  0.00    -0.237 OA
ATOM     87  O   UNL A   1      43.093  25.673  35.886  1.00  0.00    -0.237 OA
ATOM     88  O   UNL A   1      41.549  26.607  37.560  1.00  0.00    -0.744 OA
ENDBRANCH  84  85
ENDBRANCH  58  79
ENDBRANCH  32  33
ENDBRANCH  25  27
ENDBRANCH  24  25
ENDBRANCH  23  24
ENDBRANCH   1  23
TORSDOF 19
ENDMDL
MODEL 2
REMARK VINA RESULT:     -10.1      5.363      7.089
REMARK SMILES Nc1nn(-c2ccc(Cl)cc2)nc1C(=O)OCCOCCOC(=O)c1ccc(-c2c3nc(c(-c4ccc(S(=O)(=O)[O-])cc4)c4ccc([nH]4)c(-c4ccc(S(=O)(=O)[O-])cc4)c4nc(c(-c5ccc(S(=O)(=O)[O-])cc5)c5ccc2[nH]5)C=C4)C=C3)cc1
REMARK SMILES IDX 20 1 19 2 18 3 17 4 16 5 14 6 15 7 13 8 2 9 3 10 4 11 12 12
REMARK SMILES IDX 1 13 5 16 6 17 11 18 7 19 10 20 8 21 9 22 21 23 22 24 23 25
REMARK SMILES IDX 24 26 25 27 26 28 84 29 27 30 83 31 28 32 29 33 30 34 77 35
REMARK SMILES IDX 31 36 82 37 76 38 78 39 32 40 81 41 75 42 74 43 33 45 63 46
REMARK SMILES IDX 44 47 62 48 45 49 48 50 61 51 79 52 46 53 47 54 60 56 80 57
REMARK SMILES IDX 49 58 34 59 35 60 43 61 36 62 42 63 37 64 38 65 39 66 40 67
REMARK SMILES IDX 41 68 64 69 65 70 73 71 66 72 72 73 67 74 68 75 69 76 70 77
REMARK SMILES IDX 71 78 50 79 51 80 59 81 52 82 58 83 53 84 54 85 55 86 56 87
REMARK SMILES IDX 57 88
REMARK H PARENT 1 14 1 15 78 44 48 55
REMARK Flexibility Score: inf
ROOT
ATOM      1  C   UNL A   1      37.430  21.612  24.469  1.00  0.00     0.202 C 
ENDROOT
BRANCH   1   2
ATOM      2  O   UNL A   1      36.762  22.872  24.439  1.00  0.00    -0.374 OA
BRANCH   2   3
ATOM      3  C   UNL A   1      35.351  22.936  24.641  1.00  0.00     0.202 C 
BRANCH   3   4
ATOM      4  C   UNL A   1      34.476  23.226  23.421  1.00  0.00     0.261 C 
BRANCH   4   5
ATOM      5  O   UNL A   1      33.377  24.089  23.754  1.00  0.00    -0.458 OA
BRANCH   5   6
ATOM      6  C   UNL A   1      32.826  24.739  22.684  1.00  0.00     0.362 C 
ATOM      7  O   UNL A   1      33.271  24.677  21.541  1.00  0.00    -0.244 OA
BRANCH   6   8
ATOM      8  C   UNL A   1      31.578  25.412  23.009  1.00  0.00     0.214 A 
ATOM      9  C   UNL A   1      30.533  25.060  23.899  1.00  0.00     0.181 A 
ATOM     10  N   UNL A   1      29.684  26.081  24.009  1.00  0.00    -0.130 NA
ATOM     11  N   UNL A   1      30.120  26.917  23.045  1.00  0.00    -0.149 N 
ATOM     12  N   UNL A   1      31.240  26.561  22.389  1.00  0.00    -0.139 NA
BRANCH   9  13
ATOM     13  N   UNL A   1      30.386  23.914  24.575  1.00  0.00    -0.380 N 
ATOM     14  H   UNL A   1      29.894  23.163  24.170  1.00  0.00     0.158 HD
ATOM     15  H   UNL A   1      30.769  23.822  25.477  1.00  0.00     0.158 HD
ENDBRANCH   9  13
BRANCH  11  16
ATOM     16  C   UNL A   1      29.540  28.171  22.790  1.00  0.00     0.086 A 
ATOM     17  C   UNL A   1      30.366  29.247  22.440  1.00  0.00     0.032 A 
ATOM     18  C   UNL A   1      28.171  28.351  23.013  1.00  0.00     0.032 A 
ATOM     19  C   UNL A   1      29.809  30.517  22.291  1.00  0.00     0.023 A 
ATOM     20  C   UNL A   1      27.635  29.638  22.922  1.00  0.00     0.023 A 
ATOM     21  C   UNL A   1      28.452  30.710  22.554  1.00  0.00     0.041 A 
ATOM     22  Cl  UNL A   1      27.784  32.293  22.452  1.00  0.00    -0.084 Cl
ENDBRANCH  11  16
ENDBRANCH   6   8
ENDBRANCH   5   6
ENDBRANCH   4   5
ENDBRANCH   3   4
ENDBRANCH   2   3
ENDBRANCH   1   2
BRANCH   1  23
ATOM     23  C   UNL A   1      38.398  21.334  25.611  1.00  0.00     0.261 C 
BRANCH  23  24
ATOM     24  O   UNL A   1      38.872  22.541  26.186  1.00  0.00    -0.460 OA
BRANCH  24  25
ATOM     25  C   UNL A   1      39.999  22.404  26.921  1.00  0.00     0.338 C 
ATOM     26  O   UNL A   1      40.344  21.433  27.572  1.00  0.00    -0.246 OA
BRANCH  25  27
ATOM     27  C   UNL A   1      40.734  23.674  26.874  1.00  0.00     0.060 A 
ATOM     28  C   UNL A   1      41.850  23.759  27.709  1.00  0.00     0.016 A 
ATOM     29  C   UNL A   1      40.145  24.804  26.287  1.00  0.00     0.016 A 
ATOM     30  C   UNL A   1      42.194  24.996  28.198  1.00  0.00     0.010 A 
ATOM     31  C   UNL A   1      40.478  26.036  26.789  1.00  0.00     0.010 A 
ATOM     32  C   UNL A   1      41.418  26.092  27.819  1.00  0.00    -0.014 A 
BRANCH  32  33
ATOM     33  C   UNL A   1      41.529  27.296  28.610  1.00  0.00     0.031 A 
ATOM     34  C   UNL A   1      42.760  28.080  28.389  1.00  0.00     0.074 A 
ATOM     35  C   UNL A   1      40.491  27.696  29.368  1.00  0.00     0.049 A 
ATOM     36  N   UNL A   1      43.632  28.473  29.256  1.00  0.00    -0.248 NA
ATOM     37  C   UNL A   1      43.113  28.374  26.990  1.00  0.00     0.031 C 
ATOM     38  C   UNL A   1      39.130  27.139  29.389  1.00  0.00     0.029 A 
ATOM     39  N   UNL A   1      40.390  28.786  30.171  1.00  0.00    -0.354 N 
ATOM     40  C   UNL A   1      44.563  29.210  28.534  1.00  0.00     0.074 A 
ATOM     41  C   UNL A   1      44.281  28.988  27.139  1.00  0.00     0.031 C 
ATOM     42  C   UNL A   1      38.297  28.037  29.958  1.00  0.00     0.029 A 
ATOM     43  C   UNL A   1      39.082  29.161  30.441  1.00  0.00     0.049 A 
ATOM     44  H   UNL A   1      41.172  29.266  30.527  1.00  0.00     0.167 HD
ATOM     45  C   UNL A   1      45.378  30.132  29.110  1.00  0.00     0.031 A 
ATOM     46  C   UNL A   1      38.673  30.362  30.918  1.00  0.00     0.031 A 
ATOM     47  C   UNL A   1      45.479  29.966  30.532  1.00  0.00     0.049 A 
ATOM     48  C   UNL A   1      39.859  31.039  31.499  1.00  0.00     0.074 A 
ATOM     49  C   UNL A   1      45.972  28.971  31.351  1.00  0.00     0.029 A 
ATOM     50  N   UNL A   1      44.685  30.761  31.325  1.00  0.00    -0.354 N 
ATOM     51  N   UNL A   1      40.493  30.614  32.557  1.00  0.00    -0.248 NA
ATOM     52  C   UNL A   1      40.612  31.958  30.658  1.00  0.00     0.031 C 
ATOM     53  C   UNL A   1      45.111  28.960  32.485  1.00  0.00     0.029 A 
ATOM     54  C   UNL A   1      44.155  29.965  32.311  1.00  0.00     0.049 A 
ATOM     55  H   UNL A   1      44.527  31.725  31.207  1.00  0.00     0.167 HD
ATOM     56  C   UNL A   1      41.833  30.881  32.310  1.00  0.00     0.074 A 
ATOM     57  C   UNL A   1      41.831  31.809  31.184  1.00  0.00     0.031 C 
ATOM     58  C   UNL A   1      42.821  30.114  32.862  1.00  0.00     0.031 A 
BRANCH  45  59
ATOM     59  C   UNL A   1      45.804  31.381  28.390  1.00  0.00    -0.014 A 
ATOM     60  C   UNL A   1      44.966  32.509  28.390  1.00  0.00     0.010 A 
ATOM     61  C   UNL A   1      46.904  31.394  27.504  1.00  0.00     0.010 A 
ATOM     62  C   UNL A   1      45.201  33.580  27.515  1.00  0.00     0.020 A 
ATOM     63  C   UNL A   1      47.176  32.473  26.667  1.00  0.00     0.020 A 
ATOM     64  C   UNL A   1      46.298  33.546  26.652  1.00  0.00     0.054 A 
BRANCH  64  65
ATOM     65  S   UNL A   1      46.528  34.871  25.443  1.00  0.00     0.124 S 
ATOM     66  O   UNL A   1      47.942  34.729  25.109  1.00  0.00    -0.237 OA
ATOM     67  O   UNL A   1      45.585  34.502  24.391  1.00  0.00    -0.237 OA
ATOM     68  O   UNL A   1      46.178  36.079  26.189  1.00  0.00    -0.744 OA
ENDBRANCH  64  65
ENDBRANCH  45  59
BRANCH  46  69
ATOM     69  C   UNL A   1      37.417  31.069  30.566  1.00  0.00    -0.014 A 
ATOM     70  C   UNL A   1      36.824  31.991  31.445  1.00  0.00     0.010 A 
ATOM     71  C   UNL A   1      36.922  31.011  29.244  1.00  0.00     0.010 A 
ATOM     72  C   UNL A   1      35.798  32.847  31.007  1.00  0.00     0.020 A 
ATOM     73  C   UNL A   1      35.894  31.850  28.805  1.00  0.00     0.020 A 
ATOM     74  C   UNL A   1      35.350  32.779  29.684  1.00  0.00     0.054 A 
BRANCH  74  75
ATOM     75  S   UNL A   1      34.131  33.986  29.087  1.00  0.00     0.124 S 
ATOM     76  O   UNL A   1      34.980  35.036  28.531  1.00  0.00    -0.237 OA
ATOM     77  O   UNL A   1      33.366  33.209  28.117  1.00  0.00    -0.237 OA
ATOM     78  O   UNL A   1      33.396  34.359  30.295  1.00  0.00    -0.744 OA
ENDBRANCH  74  75
ENDBRANCH  46  69
BRANCH  58  79
ATOM     79  C   UNL A   1      42.436  29.132  33.948  1.00  0.00    -0.014 A 
ATOM     80  C   UNL A   1      41.857  27.876  33.672  1.00  0.00     0.010 A 
ATOM     81  C   UNL A   1      42.828  29.410  35.269  1.00  0.00     0.010 A 
ATOM     82  C   UNL A   1      41.664  26.932  34.692  1.00  0.00     0.020 A 
ATOM     83  C   UNL A   1      42.653  28.467  36.287  1.00  0.00     0.020 A 
ATOM     84  C   UNL A   1      42.068  27.233  35.994  1.00  0.00     0.054 A 
BRANCH  84  85
ATOM     85  S   UNL A   1      41.890  25.976  37.291  1.00  0.00     0.124 S 
ATOM     86  O   UNL A   1      42.907  26.374  38.261  1.00  0.00    -0.237 OA
ATOM     87  O   UNL A   1      40.505  26.149  37.726  1.00  0.00    -0.237 OA
ATOM     88  O   UNL A   1      42.158  24.717  36.594  1.00  0.00    -0.744 OA
ENDBRANCH  84  85
ENDBRANCH  58  79
ENDBRANCH  32  33
ENDBRANCH  25  27
ENDBRANCH  24  25
ENDBRANCH  23  24
ENDBRANCH   1  23
TORSDOF 19
ENDMDL
MODEL 3
REMARK VINA RESULT:      -9.9      4.253      5.997
REMARK SMILES Nc1nn(-c2ccc(Cl)cc2)nc1C(=O)OCCOCCOC(=O)c1ccc(-c2c3nc(c(-c4ccc(S(=O)(=O)[O-])cc4)c4ccc([nH]4)c(-c4ccc(S(=O)(=O)[O-])cc4)c4nc(c(-c5ccc(S(=O)(=O)[O-])cc5)c5ccc2[nH]5)C=C4)C=C3)cc1
REMARK SMILES IDX 20 1 19 2 18 3 17 4 16 5 14 6 15 7 13 8 2 9 3 10 4 11 12 12
REMARK SMILES IDX 1 13 5 16 6 17 11 18 7 19 10 20 8 21 9 22 21 23 22 24 23 25
REMARK SMILES IDX 24 26 25 27 26 28 84 29 27 30 83 31 28 32 29 33 30 34 77 35
REMARK SMILES IDX 31 36 82 37 76 38 78 39 32 40 81 41 75 42 74 43 33 45 63 46
REMARK SMILES IDX 44 47 62 48 45 49 48 50 61 51 79 52 46 53 47 54 60 56 80 57
REMARK SMILES IDX 49 58 34 59 35 60 43 61 36 62 42 63 37 64 38 65 39 66 40 67
REMARK SMILES IDX 41 68 64 69 65 70 73 71 66 72 72 73 67 74 68 75 69 76 70 77
REMARK SMILES IDX 71 78 50 79 51 80 59 81 52 82 58 83 53 84 54 85 55 86 56 87
REMARK SMILES IDX 57 88
REMARK H PARENT 1 14 1 15 78 44 48 55
REMARK Flexibility Score: inf
ROOT
ATOM      1  C   UNL A   1      41.345  19.458  26.488  1.00  0.00     0.202 C 
ENDROOT
BRANCH   1   2
ATOM      2  O   UNL A   1      41.162  20.330  27.602  1.00  0.00    -0.374 OA
BRANCH   2   3
ATOM      3  C   UNL A   1      40.517  21.590  27.422  1.00  0.00     0.202 C 
BRANCH   3   4
ATOM      4  C   UNL A   1      39.885  21.871  26.059  1.00  0.00     0.261 C 
BRANCH   4   5
ATOM      5  O   UNL A   1      38.466  22.067  26.166  1.00  0.00    -0.458 OA
BRANCH   5   6
ATOM      6  C   UNL A   1      37.718  21.184  25.437  1.00  0.00     0.362 C 
ATOM      7  O   UNL A   1      38.150  20.125  24.990  1.00  0.00    -0.244 OA
BRANCH   6   8
ATOM      8  C   UNL A   1      36.316  21.564  25.348  1.00  0.00     0.214 A 
ATOM      9  C   UNL A   1      35.147  20.780  25.177  1.00  0.00     0.181 A 
ATOM     10  N   UNL A   1      34.072  21.548  25.352  1.00  0.00    -0.130 NA
ATOM     11  N   UNL A   1      34.613  22.783  25.413  1.00  0.00    -0.149 N 
ATOM     12  N   UNL A   1      35.956  22.862  25.390  1.00  0.00    -0.139 NA
BRANCH   9  13
ATOM     13  N   UNL A   1      35.072  19.470  24.916  1.00  0.00    -0.380 N 
ATOM     14  H   UNL A   1      35.059  18.820  25.656  1.00  0.00     0.158 HD
ATOM     15  H   UNL A   1      35.031  19.156  23.984  1.00  0.00     0.158 HD
ENDBRANCH   9  13
BRANCH  11  16
ATOM     16  C   UNL A   1      33.855  23.947  25.619  1.00  0.00     0.086 A 
ATOM     17  C   UNL A   1      34.447  25.196  25.391  1.00  0.00     0.032 A 
ATOM     18  C   UNL A   1      32.572  23.843  26.165  1.00  0.00     0.032 A 
ATOM     19  C   UNL A   1      33.736  26.357  25.696  1.00  0.00     0.023 A 
ATOM     20  C   UNL A   1      31.894  25.010  26.526  1.00  0.00     0.023 A 
ATOM     21  C   UNL A   1      32.473  26.258  26.282  1.00  0.00     0.041 A 
ATOM     22  Cl  UNL A   1      31.632  27.689  26.735  1.00  0.00    -0.084 Cl
ENDBRANCH  11  16
ENDBRANCH   6   8
ENDBRANCH   5   6
ENDBRANCH   4   5
ENDBRANCH   3   4
ENDBRANCH   2   3
ENDBRANCH   1   2
BRANCH   1  23
ATOM     23  C   UNL A   1      42.753  19.274  25.938  1.00  0.00     0.261 C 
BRANCH  23  24
ATOM     24  O   UNL A   1      43.097  20.325  25.050  1.00  0.00    -0.460 OA
BRANCH  24  25
ATOM     25  C   UNL A   1      44.423  20.441  24.810  1.00  0.00     0.338 C 
ATOM     26  O   UNL A   1      45.226  19.539  24.645  1.00  0.00    -0.246 OA
BRANCH  25  27
ATOM     27  C   UNL A   1      44.774  21.866  24.851  1.00  0.00     0.060 A 
ATOM     28  C   UNL A   1      45.908  22.188  25.599  1.00  0.00     0.016 A 
ATOM     29  C   UNL A   1      43.838  22.830  24.450  1.00  0.00     0.016 A 
ATOM     30  C   UNL A   1      45.954  23.422  26.199  1.00  0.00     0.010 A 
ATOM     31  C   UNL A   1      43.876  24.057  25.064  1.00  0.00     0.010 A 
ATOM     32  C   UNL A   1      44.872  24.284  26.014  1.00  0.00    -0.014 A 
BRANCH  32  33
ATOM     33  C   UNL A   1      44.735  25.395  26.929  1.00  0.00     0.031 A 
ATOM     34  C   UNL A   1      45.775  26.436  26.809  1.00  0.00     0.074 A 
ATOM     35  C   UNL A   1      43.643  25.487  27.710  1.00  0.00     0.049 A 
ATOM     36  N   UNL A   1      46.553  26.908  27.724  1.00  0.00    -0.248 NA
ATOM     37  C   UNL A   1      46.047  26.943  25.453  1.00  0.00     0.031 C 
ATOM     38  C   UNL A   1      42.429  24.661  27.653  1.00  0.00     0.029 A 
ATOM     39  N   UNL A   1      43.325  26.442  28.621  1.00  0.00    -0.354 N 
ATOM     40  C   UNL A   1      47.304  27.894  27.096  1.00  0.00     0.074 A 
ATOM     41  C   UNL A   1      47.064  27.767  25.682  1.00  0.00     0.031 C 
ATOM     42  C   UNL A   1      41.431  25.300  28.301  1.00  0.00     0.029 A 
ATOM     43  C   UNL A   1      41.969  26.506  28.911  1.00  0.00     0.049 A 
ATOM     44  H   UNL A   1      43.993  27.033  29.037  1.00  0.00     0.167 HD
ATOM     45  C   UNL A   1      47.914  28.899  27.777  1.00  0.00     0.031 A 
ATOM     46  C   UNL A   1      41.323  27.538  29.505  1.00  0.00     0.031 A 
ATOM     47  C   UNL A   1      48.059  28.609  29.175  1.00  0.00     0.049 A 
ATOM     48  C   UNL A   1      42.347  28.382  30.171  1.00  0.00     0.074 A 
ATOM     49  C   UNL A   1      48.755  27.658  29.892  1.00  0.00     0.029 A 
ATOM     50  N   UNL A   1      47.124  29.133  30.036  1.00  0.00    -0.354 N 
ATOM     51  N   UNL A   1      43.064  27.989  31.187  1.00  0.00    -0.248 NA
ATOM     52  C   UNL A   1      42.885  29.521  29.441  1.00  0.00     0.031 C 
ATOM     53  C   UNL A   1      47.924  27.348  31.006  1.00  0.00     0.029 A 
ATOM     54  C   UNL A   1      46.779  28.145  30.926  1.00  0.00     0.049 A 
ATOM     55  H   UNL A   1      46.767  30.051  30.017  1.00  0.00     0.167 HD
ATOM     56  C   UNL A   1      44.318  28.553  30.988  1.00  0.00     0.074 A 
ATOM     57  C   UNL A   1      44.113  29.574  29.966  1.00  0.00     0.031 C 
ATOM     58  C   UNL A   1      45.448  27.955  31.470  1.00  0.00     0.031 A 
BRANCH  45  59
ATOM     59  C   UNL A   1      48.065  30.279  27.199  1.00  0.00    -0.014 A 
ATOM     60  C   UNL A   1      49.337  30.874  27.132  1.00  0.00     0.010 A 
ATOM     61  C   UNL A   1      46.950  31.107  26.941  1.00  0.00     0.010 A 
ATOM     62  C   UNL A   1      49.478  32.242  26.859  1.00  0.00     0.020 A 
ATOM     63  C   UNL A   1      47.081  32.456  26.618  1.00  0.00     0.020 A 
ATOM     64  C   UNL A   1      48.346  33.024  26.616  1.00  0.00     0.054 A 
BRANCH  64  65
ATOM     65  S   UNL A   1      48.523  34.808  26.383  1.00  0.00     0.124 S 
ATOM     66  O   UNL A   1      48.894  34.889  24.973  1.00  0.00    -0.237 OA
ATOM     67  O   UNL A   1      47.191  35.302  26.720  1.00  0.00    -0.237 OA
ATOM     68  O   UNL A   1      49.575  35.174  27.330  1.00  0.00    -0.744 OA
ENDBRANCH  64  65
ENDBRANCH  45  59
BRANCH  46  69
ATOM     69  C   UNL A   1      39.945  28.002  29.212  1.00  0.00    -0.014 A 
ATOM     70  C   UNL A   1      38.957  28.041  30.210  1.00  0.00     0.010 A 
ATOM     71  C   UNL A   1      39.662  28.640  27.984  1.00  0.00     0.010 A 
ATOM     72  C   UNL A   1      37.746  28.723  29.999  1.00  0.00     0.020 A 
ATOM     73  C   UNL A   1      38.455  29.310  27.762  1.00  0.00     0.020 A 
ATOM     74  C   UNL A   1      37.509  29.365  28.779  1.00  0.00     0.054 A 
BRANCH  74  75
ATOM     75  S   UNL A   1      36.009  30.367  28.568  1.00  0.00     0.124 S 
ATOM     76  O   UNL A   1      36.467  31.428  27.674  1.00  0.00    -0.237 OA
ATOM     77  O   UNL A   1      35.070  29.412  27.989  1.00  0.00    -0.237 OA
ATOM     78  O   UNL A   1      35.689  30.799  29.928  1.00  0.00    -0.744 OA
ENDBRANCH  74  75
ENDBRANCH  46  69
BRANCH  58  79
ATOM     79  C   UNL A   1      45.284  26.805  32.442  1.00  0.00    -0.014 A 
ATOM     80  C   UNL A   1      45.029  25.482  32.025  1.00  0.00     0.010 A 
ATOM     81  C   UNL A   1      45.569  27.032  33.800  1.00  0.00     0.010 A 
ATOM     82  C   UNL A   1      45.044  24.421  32.942  1.00  0.00     0.020 A 
ATOM     83  C   UNL A   1      45.602  25.977  34.717  1.00  0.00     0.020 A 
ATOM     84  C   UNL A   1      45.335  24.676  34.284  1.00  0.00     0.054 A 
BRANCH  84  85
ATOM     85  S   UNL A   1      45.435  23.287  35.450  1.00  0.00     0.124 S 
ATOM     86  O   UNL A   1      46.418  22.412  34.817  1.00  0.00    -0.237 OA
ATOM     87  O   UNL A   1      45.870  23.931  36.688  1.00  0.00    -0.237 OA
ATOM     88  O   UNL A   1      44.069  22.763  35.482  1.00  0.00    -0.744 OA
ENDBRANCH  84  85
ENDBRANCH  58  79
ENDBRANCH  32  33
ENDBRANCH  25  27
ENDBRANCH  24  25
ENDBRANCH  23  24
ENDBRANCH   1  23
TORSDOF 19
ENDMDL
