MODEL 1
REMARK VINA RESULT:      -8.9      0.000      0.000
REMARK SMILES CCN(CC)c1ccc([C@@H]2c3[nH]c4ccccc4c3C[C@@H](C(=O)OCCOCCOC(=O)c3ccc(-c4c5nc(c(-c6ccc(S(=O)(=O)[O-])cc6)c6ccc([nH]6)c(-c6ccc(S(=O)(=O)[O-])cc6)c6nc(c(-c7ccc(S(=O)(=O)[O-])cc7)c7ccc4[nH]7)C=C6)C=C5)cc3)N2C(C)=O)cc1
REMARK SMILES IDX 27 1 26 2 25 3 24 4 22 5 23 6 21 7 10 8 11 9 93 10 12 11
REMARK SMILES IDX 19 12 13 13 18 15 20 16 14 17 17 18 15 19 16 20 9 21 6 22
REMARK SMILES IDX 7 23 98 24 8 25 97 26 3 27 2 28 1 29 4 30 5 31 94 32 95 33
REMARK SMILES IDX 96 34 28 35 29 36 30 37 31 38 32 39 33 40 34 41 92 42 35 43
REMARK SMILES IDX 91 44 36 45 37 46 38 47 85 48 39 49 90 50 84 51 86 52 40 53
REMARK SMILES IDX 89 54 83 55 82 56 41 58 71 59 52 60 70 61 53 62 56 63 69 64
REMARK SMILES IDX 87 65 54 66 55 67 68 69 88 70 57 71 42 72 43 73 51 74 44 75
REMARK SMILES IDX 50 76 45 77 46 78 47 79 48 80 49 81 72 82 73 83 81 84 74 85
REMARK SMILES IDX 80 86 75 87 76 88 77 89 78 90 79 91 58 92 59 93 67 94 60 95
REMARK SMILES IDX 66 96 61 97 62 98 63 99 64 100 65 101
REMARK H PARENT 12 14 86 57 56 68
REMARK Flexibility Score: inf
ROOT
ATOM      1  O   UNL A   1      50.661  39.027  30.701  1.00  0.00    -0.374 OA
ENDROOT
BRANCH   1   2
ATOM      2  C   UNL A   1      49.795  40.105  31.080  1.00  0.00     0.202 C 
BRANCH   2   3
ATOM      3  C   UNL A   1      48.342  39.653  31.366  1.00  0.00     0.261 C 
BRANCH   3   4
ATOM      4  O   UNL A   1      47.489  39.632  30.185  1.00  0.00    -0.462 OA
BRANCH   4   5
ATOM      5  C   UNL A   1      46.722  40.657  29.688  1.00  0.00     0.329 C 
ATOM      6  O   UNL A   1      47.138  41.495  28.898  1.00  0.00    -0.250 OA
BRANCH   5   7
ATOM      7  C   UNL A   1      45.158  40.466  30.095  1.00  0.00     0.200 C 
ATOM      8  C   UNL A   1      44.630  40.699  27.734  1.00  0.00     0.163 C 
ATOM      9  C   UNL A   1      44.699  39.182  27.717  1.00  0.00     0.047 A 
ATOM     10  N   UNL A   1      44.135  40.975  29.071  1.00  0.00    -0.316 N 
ATOM     11  N   UNL A   1      44.459  38.350  26.665  1.00  0.00    -0.356 N 
ATOM     12  C   UNL A   1      44.723  38.376  28.865  1.00  0.00    -0.014 A 
ATOM     13  C   UNL A   1      43.733  37.289  27.166  1.00  0.00     0.046 A 
ATOM     14  H   UNL A   1      44.747  38.479  25.733  1.00  0.00     0.166 HD
ATOM     15  C   UNL A   1      44.004  37.210  28.531  1.00  0.00     0.003 A 
ATOM     16  C   UNL A   1      44.943  38.941  30.248  1.00  0.00     0.075 C 
ATOM     17  C   UNL A   1      42.775  36.488  26.551  1.00  0.00     0.026 A 
ATOM     18  C   UNL A   1      43.357  36.252  29.324  1.00  0.00     0.010 A 
ATOM     19  C   UNL A   1      42.038  35.641  27.384  1.00  0.00     0.002 A 
ATOM     20  C   UNL A   1      42.333  35.510  28.742  1.00  0.00     0.001 A 
BRANCH   8  21
ATOM     21  C   UNL A   1      44.004  41.529  26.632  1.00  0.00    -0.019 A 
ATOM     22  C   UNL A   1      43.254  42.918  24.264  1.00  0.00     0.037 A 
ATOM     23  C   UNL A   1      42.621  41.741  24.666  1.00  0.00     0.026 A 
ATOM     24  C   UNL A   1      44.139  43.489  25.185  1.00  0.00     0.026 A 
ATOM     25  C   UNL A   1      42.973  41.066  25.830  1.00  0.00     0.008 A 
ATOM     26  C   UNL A   1      44.507  42.814  26.358  1.00  0.00     0.008 A 
BRANCH  22  27
ATOM     27  N   UNL A   1      43.086  43.455  22.994  1.00  0.00    -0.372 N 
BRANCH  27  28
ATOM     28  C   UNL A   1      44.308  43.801  22.244  1.00  0.00     0.113 C 
ATOM     29  C   UNL A   1      45.211  42.596  22.008  1.00  0.00     0.027 C 
ENDBRANCH  27  28
BRANCH  27  30
ATOM     30  C   UNL A   1      41.864  43.223  22.208  1.00  0.00     0.113 C 
ATOM     31  C   UNL A   1      42.008  43.489  20.713  1.00  0.00     0.027 C 
ENDBRANCH  27  30
ENDBRANCH  22  27
ENDBRANCH   8  21
BRANCH  10  32
ATOM     32  C   UNL A   1      42.744  40.708  29.166  1.00  0.00     0.221 C 
ATOM     33  C   UNL A   1      41.934  41.242  30.298  1.00  0.00     0.114 C 
ATOM     34  O   UNL A   1      42.113  40.052  28.328  1.00  0.00    -0.275 OA
ENDBRANCH  10  32
ENDBRANCH   5   7
ENDBRANCH   4   5
ENDBRANCH   3   4
ENDBRANCH   2   3
ENDBRANCH   1   2
BRANCH   1  35
ATOM     35  C   UNL A   1      50.800  38.860  29.295  1.00  0.00     0.202 C 
BRANCH  35  36
ATOM     36  C   UNL A   1      50.622  37.412  28.835  1.00  0.00     0.261 C 
BRANCH  36  37
ATOM     37  O   UNL A   1      49.368  36.849  29.269  1.00  0.00    -0.460 OA
BRANCH  37  38
ATOM     38  C   UNL A   1      48.402  36.903  28.331  1.00  0.00     0.338 C 
ATOM     39  O   UNL A   1      48.280  37.747  27.437  1.00  0.00    -0.246 OA
BRANCH  38  40
ATOM     40  C   UNL A   1      47.535  35.723  28.381  1.00  0.00     0.060 A 
ATOM     41  C   UNL A   1      47.564  34.971  29.556  1.00  0.00     0.016 A 
ATOM     42  C   UNL A   1      46.855  35.254  27.253  1.00  0.00     0.016 A 
ATOM     43  C   UNL A   1      46.981  33.708  29.580  1.00  0.00     0.010 A 
ATOM     44  C   UNL A   1      46.218  34.005  27.301  1.00  0.00     0.010 A 
ATOM     45  C   UNL A   1      46.334  33.195  28.443  1.00  0.00    -0.014 A 
BRANCH  45  46
ATOM     46  C   UNL A   1      45.916  31.765  28.454  1.00  0.00     0.031 A 
ATOM     47  C   UNL A   1      44.492  31.395  28.793  1.00  0.00     0.074 A 
ATOM     48  C   UNL A   1      46.772  30.813  28.034  1.00  0.00     0.049 A 
ATOM     49  N   UNL A   1      43.893  30.234  28.693  1.00  0.00    -0.248 NA
ATOM     50  C   UNL A   1      43.627  32.468  29.311  1.00  0.00     0.031 C 
ATOM     51  C   UNL A   1      48.170  31.042  27.665  1.00  0.00     0.029 A 
ATOM     52  N   UNL A   1      46.582  29.472  27.810  1.00  0.00    -0.354 N 
ATOM     53  C   UNL A   1      42.588  30.437  29.130  1.00  0.00     0.074 A 
ATOM     54  C   UNL A   1      42.494  31.821  29.542  1.00  0.00     0.031 C 
ATOM     55  C   UNL A   1      48.697  29.892  27.216  1.00  0.00     0.029 A 
ATOM     56  C   UNL A   1      47.691  28.837  27.302  1.00  0.00     0.049 A 
ATOM     57  H   UNL A   1      45.734  29.009  27.998  1.00  0.00     0.167 HD
ATOM     58  C   UNL A   1      41.555  29.560  29.173  1.00  0.00     0.031 A 
ATOM     59  C   UNL A   1      47.877  27.553  26.940  1.00  0.00     0.031 A 
ATOM     60  C   UNL A   1      41.651  28.179  28.771  1.00  0.00     0.049 A 
ATOM     61  C   UNL A   1      46.726  26.588  27.034  1.00  0.00     0.074 A 
ATOM     62  C   UNL A   1      40.657  27.215  28.758  1.00  0.00     0.029 A 
ATOM     63  N   UNL A   1      42.808  27.561  28.321  1.00  0.00    -0.354 N 
ATOM     64  N   UNL A   1      45.489  26.809  27.413  1.00  0.00    -0.248 NA
ATOM     65  C   UNL A   1      46.994  25.200  26.631  1.00  0.00     0.031 C 
ATOM     66  C   UNL A   1      41.227  26.001  28.363  1.00  0.00     0.029 A 
ATOM     67  C   UNL A   1      42.559  26.224  28.056  1.00  0.00     0.049 A 
ATOM     68  H   UNL A   1      43.678  28.007  28.205  1.00  0.00     0.167 HD
ATOM     69  C   UNL A   1      44.826  25.595  27.272  1.00  0.00     0.074 A 
ATOM     70  C   UNL A   1      45.793  24.652  26.745  1.00  0.00     0.031 C 
ATOM     71  C   UNL A   1      43.534  25.287  27.551  1.00  0.00     0.031 A 
BRANCH  58  72
ATOM     72  C   UNL A   1      40.233  30.058  29.702  1.00  0.00    -0.014 A 
ATOM     73  C   UNL A   1      39.301  30.702  28.866  1.00  0.00     0.010 A 
ATOM     74  C   UNL A   1      39.895  29.835  31.050  1.00  0.00     0.010 A 
ATOM     75  C   UNL A   1      38.077  31.146  29.376  1.00  0.00     0.020 A 
ATOM     76  C   UNL A   1      38.659  30.250  31.557  1.00  0.00     0.020 A 
ATOM     77  C   UNL A   1      37.763  30.917  30.720  1.00  0.00     0.054 A 
BRANCH  77  78
ATOM     78  S   UNL A   1      36.158  31.482  31.348  1.00  0.00     0.124 S 
ATOM     79  O   UNL A   1      36.445  32.868  31.706  1.00  0.00    -0.237 OA
ATOM     80  O   UNL A   1      35.281  31.300  30.194  1.00  0.00    -0.237 OA
ATOM     81  O   UNL A   1      35.893  30.591  32.475  1.00  0.00    -0.744 OA
ENDBRANCH  77  78
ENDBRANCH  58  72
BRANCH  59  82
ATOM     82  C   UNL A   1      49.214  27.105  26.457  1.00  0.00    -0.014 A 
ATOM     83  C   UNL A   1      50.191  26.634  27.351  1.00  0.00     0.010 A 
ATOM     84  C   UNL A   1      49.513  27.148  25.083  1.00  0.00     0.010 A 
ATOM     85  C   UNL A   1      51.446  26.232  26.882  1.00  0.00     0.020 A 
ATOM     86  C   UNL A   1      50.753  26.716  24.606  1.00  0.00     0.020 A 
ATOM     87  C   UNL A   1      51.718  26.272  25.512  1.00  0.00     0.054 A 
BRANCH  87  88
ATOM     88  S   UNL A   1      53.333  25.698  24.920  1.00  0.00     0.124 S 
ATOM     89  O   UNL A   1      53.353  24.314  25.384  1.00  0.00    -0.237 OA
ATOM     90  O   UNL A   1      53.221  25.879  23.475  1.00  0.00    -0.237 OA
ATOM     91  O   UNL A   1      54.279  26.594  25.580  1.00  0.00    -0.744 OA
ENDBRANCH  87  88
ENDBRANCH  59  82
BRANCH  71  92
ATOM     92  C   UNL A   1      43.087  23.876  27.260  1.00  0.00    -0.014 A 
ATOM     93  C   UNL A   1      42.950  22.921  28.285  1.00  0.00     0.010 A 
ATOM     94  C   UNL A   1      42.801  23.499  25.935  1.00  0.00     0.010 A 
ATOM     95  C   UNL A   1      42.608  21.600  27.980  1.00  0.00     0.020 A 
ATOM     96  C   UNL A   1      42.421  22.189  25.631  1.00  0.00     0.020 A 
ATOM     97  C   UNL A   1      42.354  21.241  26.653  1.00  0.00     0.054 A 
BRANCH  97  98
ATOM     98  S   UNL A   1      41.929  19.517  26.281  1.00  0.00     0.124 S 
ATOM     99  O   UNL A   1      40.471  19.569  26.228  1.00  0.00    -0.237 OA
ATOM    100  O   UNL A   1      42.596  19.291  25.001  1.00  0.00    -0.237 OA
ATOM    101  O   UNL A   1      42.487  18.771  27.407  1.00  0.00    -0.744 OA
ENDBRANCH  97  98
ENDBRANCH  71  92
ENDBRANCH  45  46
ENDBRANCH  38  40
ENDBRANCH  37  38
ENDBRANCH  36  37
ENDBRANCH  35  36
ENDBRANCH   1  35
TORSDOF 22
ENDMDL
MODEL 2
REMARK VINA RESULT:      -8.6      5.133     13.721
REMARK SMILES CCN(CC)c1ccc([C@@H]2c3[nH]c4ccccc4c3C[C@@H](C(=O)OCCOCCOC(=O)c3ccc(-c4c5nc(c(-c6ccc(S(=O)(=O)[O-])cc6)c6ccc([nH]6)c(-c6ccc(S(=O)(=O)[O-])cc6)c6nc(c(-c7ccc(S(=O)(=O)[O-])cc7)c7ccc4[nH]7)C=C6)C=C5)cc3)N2C(C)=O)cc1
REMARK SMILES IDX 27 1 26 2 25 3 24 4 22 5 23 6 21 7 10 8 11 9 93 10 12 11
REMARK SMILES IDX 19 12 13 13 18 15 20 16 14 17 17 18 15 19 16 20 9 21 6 22
REMARK SMILES IDX 7 23 98 24 8 25 97 26 3 27 2 28 1 29 4 30 5 31 94 32 95 33
REMARK SMILES IDX 96 34 28 35 29 36 30 37 31 38 32 39 33 40 34 41 92 42 35 43
REMARK SMILES IDX 91 44 36 45 37 46 38 47 85 48 39 49 90 50 84 51 86 52 40 53
REMARK SMILES IDX 89 54 83 55 82 56 41 58 71 59 52 60 70 61 53 62 56 63 69 64
REMARK SMILES IDX 87 65 54 66 55 67 68 69 88 70 57 71 42 72 43 73 51 74 44 75
REMARK SMILES IDX 50 76 45 77 46 78 47 79 48 80 49 81 72 82 73 83 81 84 74 85
REMARK SMILES IDX 80 86 75 87 76 88 77 89 78 90 79 91 58 92 59 93 67 94 60 95
REMARK SMILES IDX 66 96 61 97 62 98 63 99 64 100 65 101
REMARK H PARENT 12 14 86 57 56 68
REMARK Flexibility Score: inf
ROOT
ATOM      1  O   UNL A   1      33.428  33.551  28.947  1.00  0.00    -0.374 OA
ENDROOT
BRANCH   1   2
ATOM      2  C   UNL A   1      33.594  32.802  27.735  1.00  0.00     0.202 C 
BRANCH   2   3
ATOM      3  C   UNL A   1      33.819  31.290  27.974  1.00  0.00     0.261 C 
BRANCH   3   4
ATOM      4  O   UNL A   1      33.638  30.472  26.781  1.00  0.00    -0.462 OA
BRANCH   4   5
ATOM      5  C   UNL A   1      34.355  29.361  26.412  1.00  0.00     0.329 C 
ATOM      6  O   UNL A   1      34.999  28.676  27.197  1.00  0.00    -0.250 OA
BRANCH   5   7
ATOM      7  C   UNL A   1      34.041  28.949  24.869  1.00  0.00     0.200 C 
ATOM      8  C   UNL A   1      33.576  26.705  25.678  1.00  0.00     0.163 C 
ATOM      9  C   UNL A   1      32.134  27.180  25.732  1.00  0.00     0.047 A 
ATOM     10  N   UNL A   1      34.109  27.450  24.551  1.00  0.00    -0.316 N 
ATOM     11  N   UNL A   1      31.032  26.458  26.079  1.00  0.00    -0.356 N 
ATOM     12  C   UNL A   1      31.664  28.360  25.135  1.00  0.00    -0.014 A 
ATOM     13  C   UNL A   1      30.039  26.809  25.188  1.00  0.00     0.046 A 
ATOM     14  H   UNL A   1      30.959  25.813  26.820  1.00  0.00     0.166 HD
ATOM     15  C   UNL A   1      30.357  28.072  24.692  1.00  0.00     0.003 A 
ATOM     16  C   UNL A   1      32.593  29.419  24.591  1.00  0.00     0.075 C 
ATOM     17  C   UNL A   1      28.971  26.064  24.696  1.00  0.00     0.026 A 
ATOM     18  C   UNL A   1      29.549  28.669  23.714  1.00  0.00     0.010 A 
ATOM     19  C   UNL A   1      28.266  26.614  23.621  1.00  0.00     0.002 A 
ATOM     20  C   UNL A   1      28.536  27.899  23.149  1.00  0.00     0.001 A 
BRANCH   8  21
ATOM     21  C   UNL A   1      33.988  25.249  25.741  1.00  0.00    -0.019 A 
ATOM     22  C   UNL A   1      34.495  22.472  25.384  1.00  0.00     0.037 A 
ATOM     23  C   UNL A   1      35.472  23.441  25.148  1.00  0.00     0.026 A 
ATOM     24  C   UNL A   1      33.318  22.917  25.996  1.00  0.00     0.026 A 
ATOM     25  C   UNL A   1      35.234  24.798  25.335  1.00  0.00     0.008 A 
ATOM     26  C   UNL A   1      33.065  24.283  26.182  1.00  0.00     0.008 A 
BRANCH  22  27
ATOM     27  N   UNL A   1      34.639  21.155  24.965  1.00  0.00    -0.372 N 
BRANCH  27  28
ATOM     28  C   UNL A   1      35.942  20.509  25.216  1.00  0.00     0.113 C 
ATOM     29  C   UNL A   1      37.066  21.115  24.385  1.00  0.00     0.027 C 
ENDBRANCH  27  28
BRANCH  27  30
ATOM     30  C   UNL A   1      33.481  20.268  24.777  1.00  0.00     0.113 C 
ATOM     31  C   UNL A   1      32.659  20.551  23.523  1.00  0.00     0.027 C 
ENDBRANCH  27  30
ENDBRANCH  22  27
ENDBRANCH   8  21
BRANCH  10  32
ATOM     32  C   UNL A   1      33.667  26.897  23.320  1.00  0.00     0.221 C 
ATOM     33  C   UNL A   1      33.931  27.593  22.028  1.00  0.00     0.114 C 
ATOM     34  O   UNL A   1      33.071  25.817  23.227  1.00  0.00    -0.275 OA
ENDBRANCH  10  32
ENDBRANCH   5   7
ENDBRANCH   4   5
ENDBRANCH   3   4
ENDBRANCH   2   3
ENDBRANCH   1   2
BRANCH   1  35
ATOM     35  C   UNL A   1      34.651  33.962  29.547  1.00  0.00     0.202 C 
BRANCH  35  36
ATOM     36  C   UNL A   1      35.147  33.004  30.632  1.00  0.00     0.261 C 
BRANCH  36  37
ATOM     37  O   UNL A   1      36.494  32.553  30.390  1.00  0.00    -0.460 OA
BRANCH  37  38
ATOM     38  C   UNL A   1      36.874  31.540  31.195  1.00  0.00     0.338 C 
ATOM     39  O   UNL A   1      36.318  31.168  32.233  1.00  0.00    -0.246 OA
BRANCH  38  40
ATOM     40  C   UNL A   1      37.992  30.787  30.623  1.00  0.00     0.060 A 
ATOM     41  C   UNL A   1      38.819  30.110  31.520  1.00  0.00     0.016 A 
ATOM     42  C   UNL A   1      38.341  30.887  29.272  1.00  0.00     0.016 A 
ATOM     43  C   UNL A   1      40.038  29.601  31.084  1.00  0.00     0.010 A 
ATOM     44  C   UNL A   1      39.543  30.320  28.825  1.00  0.00     0.010 A 
ATOM     45  C   UNL A   1      40.432  29.732  29.741  1.00  0.00    -0.014 A 
BRANCH  45  46
ATOM     46  C   UNL A   1      41.827  29.362  29.375  1.00  0.00     0.031 A 
ATOM     47  C   UNL A   1      42.129  27.981  28.845  1.00  0.00     0.074 A 
ATOM     48  C   UNL A   1      42.796  30.298  29.393  1.00  0.00     0.049 A 
ATOM     49  N   UNL A   1      43.237  27.523  28.316  1.00  0.00    -0.248 NA
ATOM     50  C   UNL A   1      41.048  26.985  28.917  1.00  0.00     0.031 C 
ATOM     51  C   UNL A   1      42.630  31.672  29.869  1.00  0.00     0.029 A 
ATOM     52  N   UNL A   1      44.099  30.248  28.965  1.00  0.00    -0.354 N 
ATOM     53  C   UNL A   1      42.985  26.193  27.991  1.00  0.00     0.074 A 
ATOM     54  C   UNL A   1      41.636  25.903  28.425  1.00  0.00     0.031 C 
ATOM     55  C   UNL A   1      43.772  32.347  29.664  1.00  0.00     0.029 A 
ATOM     56  C   UNL A   1      44.762  31.447  29.079  1.00  0.00     0.049 A 
ATOM     57  H   UNL A   1      44.519  29.430  28.612  1.00  0.00     0.167 HD
ATOM     58  C   UNL A   1      43.794  25.296  27.375  1.00  0.00     0.031 A 
ATOM     59  C   UNL A   1      46.022  31.787  28.746  1.00  0.00     0.031 A 
ATOM     60  C   UNL A   1      45.141  25.582  26.949  1.00  0.00     0.049 A 
ATOM     61  C   UNL A   1      46.915  30.763  28.098  1.00  0.00     0.074 A 
ATOM     62  C   UNL A   1      46.034  24.748  26.298  1.00  0.00     0.029 A 
ATOM     63  N   UNL A   1      45.795  26.791  27.140  1.00  0.00    -0.354 N 
ATOM     64  N   UNL A   1      46.644  29.523  27.765  1.00  0.00    -0.248 NA
ATOM     65  C   UNL A   1      48.280  31.193  27.766  1.00  0.00     0.031 C 
ATOM     66  C   UNL A   1      47.247  25.429  26.154  1.00  0.00     0.029 A 
ATOM     67  C   UNL A   1      47.087  26.714  26.646  1.00  0.00     0.049 A 
ATOM     68  H   UNL A   1      45.399  27.586  27.563  1.00  0.00     0.167 HD
ATOM     69  C   UNL A   1      47.797  29.033  27.161  1.00  0.00     0.074 A 
ATOM     70  C   UNL A   1      48.755  30.120  27.151  1.00  0.00     0.031 C 
ATOM     71  C   UNL A   1      48.042  27.796  26.658  1.00  0.00     0.031 A 
BRANCH  58  72
ATOM     72  C   UNL A   1      43.255  23.905  27.147  1.00  0.00    -0.014 A 
ATOM     73  C   UNL A   1      43.191  22.962  28.190  1.00  0.00     0.010 A 
ATOM     74  C   UNL A   1      42.760  23.551  25.879  1.00  0.00     0.010 A 
ATOM     75  C   UNL A   1      42.677  21.681  27.958  1.00  0.00     0.020 A 
ATOM     76  C   UNL A   1      42.218  22.282  25.650  1.00  0.00     0.020 A 
ATOM     77  C   UNL A   1      42.194  21.349  26.689  1.00  0.00     0.054 A 
BRANCH  77  78
ATOM     78  S   UNL A   1      41.511  19.689  26.423  1.00  0.00     0.124 S 
ATOM     79  O   UNL A   1      41.835  19.025  27.683  1.00  0.00    -0.237 OA
ATOM     80  O   UNL A   1      40.092  19.960  26.202  1.00  0.00    -0.237 OA
ATOM     81  O   UNL A   1      42.238  19.197  25.256  1.00  0.00    -0.744 OA
ENDBRANCH  77  78
ENDBRANCH  58  72
BRANCH  59  82
ATOM     82  C   UNL A   1      46.516  33.166  29.025  1.00  0.00    -0.014 A 
ATOM     83  C   UNL A   1      46.377  34.195  28.077  1.00  0.00     0.010 A 
ATOM     84  C   UNL A   1      47.134  33.453  30.256  1.00  0.00     0.010 A 
ATOM     85  C   UNL A   1      46.860  35.479  28.350  1.00  0.00     0.020 A 
ATOM     86  C   UNL A   1      47.587  34.742  30.546  1.00  0.00     0.020 A 
ATOM     87  C   UNL A   1      47.459  35.746  29.584  1.00  0.00     0.054 A 
BRANCH  87  88
ATOM     88  S   UNL A   1      48.032  37.429  29.937  1.00  0.00     0.124 S 
ATOM     89  O   UNL A   1      48.438  37.896  28.614  1.00  0.00    -0.237 OA
ATOM     90  O   UNL A   1      46.837  38.059  30.491  1.00  0.00    -0.237 OA
ATOM     91  O   UNL A   1      49.120  37.229  30.891  1.00  0.00    -0.744 OA
ENDBRANCH  87  88
ENDBRANCH  59  82
BRANCH  71  92
ATOM     92  C   UNL A   1      49.392  27.566  26.027  1.00  0.00    -0.014 A 
ATOM     93  C   UNL A   1      49.591  27.704  24.641  1.00  0.00     0.010 A 
ATOM     94  C   UNL A   1      50.483  27.202  26.838  1.00  0.00     0.010 A 
ATOM     95  C   UNL A   1      50.833  27.411  24.071  1.00  0.00     0.020 A 
ATOM     96  C   UNL A   1      51.737  26.946  26.277  1.00  0.00     0.020 A 
ATOM     97  C   UNL A   1      51.896  27.025  24.893  1.00  0.00     0.054 A 
BRANCH  97  98
ATOM     98  S   UNL A   1      53.495  26.634  24.129  1.00  0.00     0.124 S 
ATOM     99  O   UNL A   1      53.517  25.176  24.204  1.00  0.00    -0.237 OA
ATOM    100  O   UNL A   1      53.354  27.192  22.787  1.00  0.00    -0.237 OA
ATOM    101  O   UNL A   1      54.463  27.317  24.983  1.00  0.00    -0.744 OA
ENDBRANCH  97  98
ENDBRANCH  71  92
ENDBRANCH  45  46
ENDBRANCH  38  40
ENDBRANCH  37  38
ENDBRANCH  36  37
ENDBRANCH  35  36
ENDBRANCH   1  35
TORSDOF 22
ENDMDL
MODEL 3
REMARK VINA RESULT:      -8.4      1.729      3.792
REMARK SMILES CCN(CC)c1ccc([C@@H]2c3[nH]c4ccccc4c3C[C@@H](C(=O)OCCOCCOC(=O)c3ccc(-c4c5nc(c(-c6ccc(S(=O)(=O)[O-])cc6)c6ccc([nH]6)c(-c6ccc(S(=O)(=O)[O-])cc6)c6nc(c(-c7ccc(S(=O)(=O)[O-])cc7)c7ccc4[nH]7)C=C6)C=C5)cc3)N2C(C)=O)cc1
REMARK SMILES IDX 27 1 26 2 25 3 24 4 22 5 23 6 21 7 10 8 11 9 93 10 12 11
REMARK SMILES IDX 19 12 13 13 18 15 20 16 14 17 17 18 15 19 16 20 9 21 6 22
REMARK SMILES IDX 7 23 98 24 8 25 97 26 3 27 2 28 1 29 4 30 5 31 94 32 95 33
REMARK SMILES IDX 96 34 28 35 29 36 30 37 31 38 32 39 33 40 34 41 92 42 35 43
REMARK SMILES IDX 91 44 36 45 37 46 38 47 85 48 39 49 90 50 84 51 86 52 40 53
REMARK SMILES IDX 89 54 83 55 82 56 41 58 71 59 52 60 70 61 53 62 56 63 69 64
REMARK SMILES IDX 87 65 54 66 55 67 68 69 88 70 57 71 42 72 43 73 51 74 44 75
REMARK SMILES IDX 50 76 45 77 46 78 47 79 48 80 49 81 72 82 73 83 81 84 74 85
REMARK SMILES IDX 80 86 75 87 76 88 77 89 78 90 79 91 58 92 59 93 67 94 60 95
REMARK SMILES IDX 66 96 61 97 62 98 63 99 64 100 65 101
REMARK H PARENT 12 14 86 57 56 68
REMARK Flexibility Score: inf
ROOT
ATOM      1  O   UNL A   1      42.140  36.830  28.002  1.00  0.00    -0.374 OA
ENDROOT
BRANCH   1   2
ATOM      2  C   UNL A   1      42.057  38.235  28.274  1.00  0.00     0.202 C 
BRANCH   2   3
ATOM      3  C   UNL A   1      41.609  39.072  27.051  1.00  0.00     0.261 C 
BRANCH   3   4
ATOM      4  O   UNL A   1      42.165  40.419  27.024  1.00  0.00    -0.462 OA
BRANCH   4   5
ATOM      5  C   UNL A   1      43.278  40.878  27.684  1.00  0.00     0.329 C 
ATOM      6  O   UNL A   1      43.254  41.327  28.824  1.00  0.00    -0.250 OA
BRANCH   5   7
ATOM      7  C   UNL A   1      44.635  40.527  26.857  1.00  0.00     0.200 C 
ATOM      8  C   UNL A   1      44.131  42.434  25.438  1.00  0.00     0.163 C 
ATOM      9  C   UNL A   1      45.037  43.198  26.389  1.00  0.00     0.047 A 
ATOM     10  N   UNL A   1      44.721  41.108  25.439  1.00  0.00    -0.316 N 
ATOM     11  N   UNL A   1      45.408  44.506  26.313  1.00  0.00    -0.356 N 
ATOM     12  C   UNL A   1      45.885  42.596  27.330  1.00  0.00    -0.014 A 
ATOM     13  C   UNL A   1      46.750  44.549  26.632  1.00  0.00     0.046 A 
ATOM     14  H   UNL A   1      44.833  45.271  26.079  1.00  0.00     0.166 HD
ATOM     15  C   UNL A   1      47.030  43.416  27.394  1.00  0.00     0.003 A 
ATOM     16  C   UNL A   1      45.800  41.129  27.678  1.00  0.00     0.075 C 
ATOM     17  C   UNL A   1      47.747  45.421  26.201  1.00  0.00     0.026 A 
ATOM     18  C   UNL A   1      48.341  43.159  27.820  1.00  0.00     0.010 A 
ATOM     19  C   UNL A   1      49.063  45.069  26.512  1.00  0.00     0.002 A 
ATOM     20  C   UNL A   1      49.357  43.970  27.321  1.00  0.00     0.001 A 
BRANCH   8  21
ATOM     21  C   UNL A   1      43.709  42.949  24.077  1.00  0.00    -0.019 A 
ATOM     22  C   UNL A   1      43.386  43.694  21.349  1.00  0.00     0.037 A 
ATOM     23  C   UNL A   1      42.682  42.630  21.917  1.00  0.00     0.026 A 
ATOM     24  C   UNL A   1      44.107  44.500  22.236  1.00  0.00     0.026 A 
ATOM     25  C   UNL A   1      42.825  42.271  23.253  1.00  0.00     0.008 A 
ATOM     26  C   UNL A   1      44.264  44.144  23.583  1.00  0.00     0.008 A 
BRANCH  22  27
ATOM     27  N   UNL A   1      43.441  43.899  19.976  1.00  0.00    -0.372 N 
BRANCH  27  28
ATOM     28  C   UNL A   1      44.766  44.178  19.391  1.00  0.00     0.113 C 
ATOM     29  C   UNL A   1      44.689  45.083  18.168  1.00  0.00     0.027 C 
ENDBRANCH  27  28
BRANCH  27  30
ATOM     30  C   UNL A   1      42.409  43.370  19.070  1.00  0.00     0.113 C 
ATOM     31  C   UNL A   1      41.044  44.039  19.199  1.00  0.00     0.027 C 
ENDBRANCH  27  30
ENDBRANCH  22  27
ENDBRANCH   8  21
BRANCH  10  32
ATOM     32  C   UNL A   1      45.907  41.076  24.659  1.00  0.00     0.221 C 
ATOM     33  C   UNL A   1      46.912  39.989  24.834  1.00  0.00     0.114 C 
ATOM     34  O   UNL A   1      46.175  41.908  23.784  1.00  0.00    -0.275 OA
ENDBRANCH  10  32
ENDBRANCH   5   7
ENDBRANCH   4   5
ENDBRANCH   3   4
ENDBRANCH   2   3
ENDBRANCH   1   2
BRANCH   1  35
ATOM     35  C   UNL A   1      43.435  36.390  27.609  1.00  0.00     0.202 C 
BRANCH  35  36
ATOM     36  C   UNL A   1      44.568  37.094  28.357  1.00  0.00     0.261 C 
BRANCH  36  37
ATOM     37  O   UNL A   1      45.686  37.397  27.499  1.00  0.00    -0.460 OA
BRANCH  37  38
ATOM     38  C   UNL A   1      46.872  37.003  28.004  1.00  0.00     0.338 C 
ATOM     39  O   UNL A   1      47.757  37.726  28.473  1.00  0.00    -0.246 OA
BRANCH  38  40
ATOM     40  C   UNL A   1      46.969  35.544  28.078  1.00  0.00     0.060 A 
ATOM     41  C   UNL A   1      46.760  34.838  26.892  1.00  0.00     0.016 A 
ATOM     42  C   UNL A   1      47.073  34.868  29.298  1.00  0.00     0.016 A 
ATOM     43  C   UNL A   1      46.572  33.460  26.934  1.00  0.00     0.010 A 
ATOM     44  C   UNL A   1      46.941  33.472  29.328  1.00  0.00     0.010 A 
ATOM     45  C   UNL A   1      46.624  32.766  28.155  1.00  0.00    -0.014 A 
BRANCH  45  46
ATOM     46  C   UNL A   1      46.208  31.336  28.172  1.00  0.00     0.031 A 
ATOM     47  C   UNL A   1      44.776  30.968  28.479  1.00  0.00     0.074 A 
ATOM     48  C   UNL A   1      47.075  30.381  27.786  1.00  0.00     0.049 A 
ATOM     49  N   UNL A   1      44.181  29.805  28.377  1.00  0.00    -0.248 NA
ATOM     50  C   UNL A   1      43.897  32.046  28.961  1.00  0.00     0.031 C 
ATOM     51  C   UNL A   1      48.482  30.607  27.450  1.00  0.00     0.029 A 
ATOM     52  N   UNL A   1      46.893  29.037  27.573  1.00  0.00    -0.354 N 
ATOM     53  C   UNL A   1      42.865  30.011  28.778  1.00  0.00     0.074 A 
ATOM     54  C   UNL A   1      42.758  31.400  29.170  1.00  0.00     0.031 C 
ATOM     55  C   UNL A   1      49.022  29.452  27.029  1.00  0.00     0.029 A 
ATOM     56  C   UNL A   1      48.015  28.397  27.101  1.00  0.00     0.049 A 
ATOM     57  H   UNL A   1      46.041  28.575  27.744  1.00  0.00     0.167 HD
ATOM     58  C   UNL A   1      41.832  29.133  28.804  1.00  0.00     0.031 A 
ATOM     59  C   UNL A   1      48.212  27.109  26.759  1.00  0.00     0.031 A 
ATOM     60  C   UNL A   1      41.940  27.748  28.422  1.00  0.00     0.049 A 
ATOM     61  C   UNL A   1      47.060  26.143  26.835  1.00  0.00     0.074 A 
ATOM     62  C   UNL A   1      40.948  26.783  28.394  1.00  0.00     0.029 A 
ATOM     63  N   UNL A   1      43.110  27.126  28.009  1.00  0.00    -0.354 N 
ATOM     64  N   UNL A   1      45.814  26.368  27.179  1.00  0.00    -0.248 NA
ATOM     65  C   UNL A   1      47.340  24.752  26.456  1.00  0.00     0.031 C 
ATOM     66  C   UNL A   1      41.530  25.564  28.028  1.00  0.00     0.029 A 
ATOM     67  C   UNL A   1      42.869  25.785  27.753  1.00  0.00     0.049 A 
ATOM     68  H   UNL A   1      43.981  27.572  27.910  1.00  0.00     0.167 HD
ATOM     69  C   UNL A   1      45.156  25.151  27.035  1.00  0.00     0.074 A 
ATOM     70  C   UNL A   1      46.137  24.203  26.545  1.00  0.00     0.031 C 
ATOM     71  C   UNL A   1      43.857  24.844  27.285  1.00  0.00     0.031 A 
BRANCH  58  72
ATOM     72  C   UNL A   1      40.496  29.635  29.293  1.00  0.00    -0.014 A 
ATOM     73  C   UNL A   1      39.450  29.933  28.399  1.00  0.00     0.010 A 
ATOM     74  C   UNL A   1      40.266  29.766  30.675  1.00  0.00     0.010 A 
ATOM     75  C   UNL A   1      38.216  30.388  28.876  1.00  0.00     0.020 A 
ATOM     76  C   UNL A   1      39.024  30.191  31.158  1.00  0.00     0.020 A 
ATOM     77  C   UNL A   1      38.011  30.514  30.253  1.00  0.00     0.054 A 
BRANCH  77  78
ATOM     78  S   UNL A   1      36.392  31.082  30.844  1.00  0.00     0.124 S 
ATOM     79  O   UNL A   1      36.712  32.402  31.379  1.00  0.00    -0.237 OA
ATOM     80  O   UNL A   1      35.587  31.077  29.624  1.00  0.00    -0.237 OA
ATOM     81  O   UNL A   1      36.015  30.082  31.841  1.00  0.00    -0.744 OA
ENDBRANCH  77  78
ENDBRANCH  58  72
BRANCH  59  82
ATOM     82  C   UNL A   1      49.562  26.657  26.316  1.00  0.00    -0.014 A 
ATOM     83  C   UNL A   1      49.997  26.852  24.994  1.00  0.00     0.010 A 
ATOM     84  C   UNL A   1      50.424  26.024  27.231  1.00  0.00     0.010 A 
ATOM     85  C   UNL A   1      51.261  26.407  24.592  1.00  0.00     0.020 A 
ATOM     86  C   UNL A   1      51.700  25.609  26.842  1.00  0.00     0.020 A 
ATOM     87  C   UNL A   1      52.106  25.792  25.520  1.00  0.00     0.054 A 
BRANCH  87  88
ATOM     88  S   UNL A   1      53.760  25.271  24.991  1.00  0.00     0.124 S 
ATOM     89  O   UNL A   1      54.048  24.182  25.920  1.00  0.00    -0.237 OA
ATOM     90  O   UNL A   1      53.536  24.875  23.603  1.00  0.00    -0.237 OA
ATOM     91  O   UNL A   1      54.571  26.473  25.164  1.00  0.00    -0.744 OA
ENDBRANCH  87  88
ENDBRANCH  59  82
BRANCH  71  92
ATOM     92  C   UNL A   1      43.419  23.429  26.999  1.00  0.00    -0.014 A 
ATOM     93  C   UNL A   1      42.672  22.688  27.933  1.00  0.00     0.010 A 
ATOM     94  C   UNL A   1      43.766  22.830  25.775  1.00  0.00     0.010 A 
ATOM     95  C   UNL A   1      42.343  21.353  27.677  1.00  0.00     0.020 A 
ATOM     96  C   UNL A   1      43.407  21.508  25.498  1.00  0.00     0.020 A 
ATOM     97  C   UNL A   1      42.722  20.769  26.464  1.00  0.00     0.054 A 
BRANCH  97  98
ATOM     98  S   UNL A   1      42.300  19.031  26.161  1.00  0.00     0.124 S 
ATOM     99  O   UNL A   1      42.640  18.410  27.438  1.00  0.00    -0.237 OA
ATOM    100  O   UNL A   1      40.874  19.096  25.853  1.00  0.00    -0.237 OA
ATOM    101  O   UNL A   1      43.157  18.657  25.038  1.00  0.00    -0.744 OA
ENDBRANCH  97  98
ENDBRANCH  71  92
ENDBRANCH  45  46
ENDBRANCH  38  40
ENDBRANCH  37  38
ENDBRANCH  36  37
ENDBRANCH  35  36
ENDBRANCH   1  35
TORSDOF 22
ENDMDL
