MODEL 1
REMARK VINA RESULT:      -9.8      0.000      0.000
REMARK SMILES CC[C@H](NC(=O)N1CCO[C@@H](CC(=O)OCCOCCOC(=O)c2ccc(-c3c4nc(c(-c5ccc(S(=O)(=O)[O-])cc5)c5ccc([nH]5)c(-c5ccc(S(=O)(=O)[O-])cc5)c5nc(c(-c6ccc(S(=O)(=O)[O-])cc6)c6ccc3[nH]6)C=C5)C=C4)cc2)C1)c1cccs1
REMARK SMILES IDX 17 1 16 2 15 3 13 4 14 5 12 6 11 7 7 8 8 9 84 10 9 11 10 12
REMARK SMILES IDX 5 13 4 14 6 16 3 17 2 18 1 19 85 20 86 21 89 22 87 23 88 24
REMARK SMILES IDX 18 25 19 26 20 27 21 28 22 29 23 30 24 31 25 32 83 33 26 34
REMARK SMILES IDX 82 35 27 36 28 37 29 38 76 39 30 40 81 41 75 42 77 43 31 44
REMARK SMILES IDX 80 45 74 46 73 47 32 49 62 50 43 51 61 52 44 53 47 54 60 55
REMARK SMILES IDX 78 56 45 57 46 58 59 60 79 61 48 62 33 63 34 64 42 65 35 66
REMARK SMILES IDX 41 67 36 68 37 69 38 70 39 71 40 72 63 73 64 74 72 75 65 76
REMARK SMILES IDX 71 77 66 78 67 79 68 80 69 81 70 82 49 83 50 84 58 85 51 86
REMARK SMILES IDX 57 87 52 88 53 89 54 90 55 91 56 92
REMARK H PARENT 4 15 77 48 47 59
REMARK Flexibility Score: inf
ROOT
ATOM      1  C   UNL A   1      34.978  32.893  28.125  1.00  0.00     0.202 C 
ENDROOT
BRANCH   1   2
ATOM      2  C   UNL A   1      34.722  31.515  27.511  1.00  0.00     0.261 C 
BRANCH   2   3
ATOM      3  O   UNL A   1      33.351  31.099  27.689  1.00  0.00    -0.463 OA
BRANCH   3   4
ATOM      4  C   UNL A   1      32.761  30.484  26.634  1.00  0.00     0.308 C 
ATOM      5  O   UNL A   1      31.720  30.846  26.098  1.00  0.00    -0.252 OA
BRANCH   4   6
ATOM      6  C   UNL A   1      33.510  29.247  26.212  1.00  0.00     0.156 C 
BRANCH   6   7
ATOM      7  C   UNL A   1      32.831  28.376  25.154  1.00  0.00     0.149 C 
ATOM      8  N   UNL A   1      32.967  26.281  23.833  1.00  0.00    -0.320 N 
ATOM      9  C   UNL A   1      31.802  25.767  24.541  1.00  0.00     0.150 C 
ATOM     10  C   UNL A   1      33.741  27.241  24.627  1.00  0.00     0.154 C 
ATOM     11  C   UNL A   1      30.918  26.937  24.946  1.00  0.00     0.182 C 
ATOM     12  O   UNL A   1      31.644  27.838  25.797  1.00  0.00    -0.374 OA
BRANCH   8  13
ATOM     13  C   UNL A   1      33.586  25.629  22.812  1.00  0.00     0.318 C 
ATOM     14  N   UNL A   1      34.029  24.365  22.969  1.00  0.00    -0.330 N 
ATOM     15  H   UNL A   1      34.516  24.022  22.185  1.00  0.00     0.166 HD
ATOM     16  O   UNL A   1      33.703  26.138  21.699  1.00  0.00    -0.249 OA
BRANCH  14  17
ATOM     17  C   UNL A   1      33.933  23.402  24.057  1.00  0.00     0.124 C 
BRANCH  17  18
ATOM     18  C   UNL A   1      33.482  22.019  23.548  1.00  0.00     0.027 C 
ATOM     19  C   UNL A   1      32.415  22.125  22.468  1.00  0.00     0.006 C 
ENDBRANCH  17  18
BRANCH  17  20
ATOM     20  C   UNL A   1      35.294  23.309  24.716  1.00  0.00     0.027 A 
ATOM     21  C   UNL A   1      35.797  24.001  25.804  1.00  0.00     0.017 A 
ATOM     22  S   UNL A   1      36.456  22.196  24.106  1.00  0.00    -0.147 S 
ATOM     23  C   UNL A   1      37.134  23.628  26.123  1.00  0.00     0.012 A 
ATOM     24  C   UNL A   1      37.616  22.665  25.268  1.00  0.00     0.065 A 
ENDBRANCH  17  20
ENDBRANCH  14  17
ENDBRANCH   8  13
ENDBRANCH   6   7
ENDBRANCH   4   6
ENDBRANCH   3   4
ENDBRANCH   2   3
ENDBRANCH   1   2
BRANCH   1  25
ATOM     25  O   UNL A   1      34.132  33.237  29.223  1.00  0.00    -0.374 OA
BRANCH  25  26
ATOM     26  C   UNL A   1      34.784  33.516  30.459  1.00  0.00     0.202 C 
BRANCH  26  27
ATOM     27  C   UNL A   1      35.137  32.295  31.312  1.00  0.00     0.261 C 
BRANCH  27  28
ATOM     28  O   UNL A   1      36.094  31.439  30.663  1.00  0.00    -0.460 OA
BRANCH  28  29
ATOM     29  C   UNL A   1      36.823  30.655  31.495  1.00  0.00     0.338 C 
ATOM     30  O   UNL A   1      36.415  30.061  32.487  1.00  0.00    -0.246 OA
BRANCH  29  31
ATOM     31  C   UNL A   1      38.184  30.462  30.961  1.00  0.00     0.060 A 
ATOM     32  C   UNL A   1      38.372  30.551  29.577  1.00  0.00     0.016 A 
ATOM     33  C   UNL A   1      39.257  30.147  31.792  1.00  0.00     0.016 A 
ATOM     34  C   UNL A   1      39.628  30.294  29.022  1.00  0.00     0.010 A 
ATOM     35  C   UNL A   1      40.521  29.916  31.239  1.00  0.00     0.010 A 
ATOM     36  C   UNL A   1      40.708  29.947  29.846  1.00  0.00    -0.014 A 
BRANCH  36  37
ATOM     37  C   UNL A   1      41.983  29.469  29.247  1.00  0.00     0.031 A 
ATOM     38  C   UNL A   1      43.133  30.435  29.117  1.00  0.00     0.074 A 
ATOM     39  C   UNL A   1      42.132  28.194  28.843  1.00  0.00     0.049 A 
ATOM     40  N   UNL A   1      44.329  30.239  28.623  1.00  0.00    -0.248 NA
ATOM     41  C   UNL A   1      42.904  31.806  29.604  1.00  0.00     0.031 C 
ATOM     42  C   UNL A   1      41.106  27.154  28.923  1.00  0.00     0.029 A 
ATOM     43  N   UNL A   1      43.213  27.556  28.284  1.00  0.00    -0.354 N 
ATOM     44  C   UNL A   1      44.986  31.460  28.723  1.00  0.00     0.074 A 
ATOM     45  C   UNL A   1      44.045  32.400  29.294  1.00  0.00     0.031 C 
ATOM     46  C   UNL A   1      41.609  26.006  28.436  1.00  0.00     0.029 A 
ATOM     47  C   UNL A   1      42.981  26.234  27.982  1.00  0.00     0.049 A 
ATOM     48  H   UNL A   1      44.073  28.002  28.115  1.00  0.00     0.167 HD
ATOM     49  C   UNL A   1      46.260  31.773  28.388  1.00  0.00     0.031 A 
ATOM     50  C   UNL A   1      43.775  25.316  27.397  1.00  0.00     0.031 A 
ATOM     51  C   UNL A   1      47.201  30.840  27.826  1.00  0.00     0.049 A 
ATOM     52  C   UNL A   1      45.177  25.696  26.993  1.00  0.00     0.074 A 
ATOM     53  C   UNL A   1      48.524  31.057  27.484  1.00  0.00     0.029 A 
ATOM     54  N   UNL A   1      46.919  29.518  27.521  1.00  0.00    -0.354 N 
ATOM     55  N   UNL A   1      45.793  26.846  27.134  1.00  0.00    -0.248 NA
ATOM     56  C   UNL A   1      45.994  24.650  26.360  1.00  0.00     0.031 C 
ATOM     57  C   UNL A   1      49.028  29.878  26.924  1.00  0.00     0.029 A 
ATOM     58  C   UNL A   1      48.036  28.912  26.972  1.00  0.00     0.049 A 
ATOM     59  H   UNL A   1      46.052  29.075  27.672  1.00  0.00     0.167 HD
ATOM     60  C   UNL A   1      47.077  26.653  26.631  1.00  0.00     0.074 A 
ATOM     61  C   UNL A   1      47.153  25.274  26.196  1.00  0.00     0.031 C 
ATOM     62  C   UNL A   1      48.101  27.538  26.543  1.00  0.00     0.031 A 
BRANCH  49  63
ATOM     63  C   UNL A   1      46.703  33.196  28.598  1.00  0.00    -0.014 A 
ATOM     64  C   UNL A   1      46.534  34.167  27.593  1.00  0.00     0.010 A 
ATOM     65  C   UNL A   1      47.269  33.575  29.828  1.00  0.00     0.010 A 
ATOM     66  C   UNL A   1      46.962  35.481  27.803  1.00  0.00     0.020 A 
ATOM     67  C   UNL A   1      47.672  34.894  30.051  1.00  0.00     0.020 A 
ATOM     68  C   UNL A   1      47.532  35.836  29.029  1.00  0.00     0.054 A 
BRANCH  68  69
ATOM     69  S   UNL A   1      48.063  37.551  29.280  1.00  0.00     0.124 S 
ATOM     70  O   UNL A   1      47.166  37.990  30.347  1.00  0.00    -0.237 OA
ATOM     71  O   UNL A   1      49.464  37.402  29.660  1.00  0.00    -0.237 OA
ATOM     72  O   UNL A   1      47.836  38.179  27.980  1.00  0.00    -0.744 OA
ENDBRANCH  68  69
ENDBRANCH  49  63
BRANCH  50  73
ATOM     73  C   UNL A   1      43.263  23.940  27.146  1.00  0.00    -0.014 A 
ATOM     74  C   UNL A   1      42.684  23.603  25.909  1.00  0.00     0.010 A 
ATOM     75  C   UNL A   1      43.348  22.958  28.150  1.00  0.00     0.010 A 
ATOM     76  C   UNL A   1      42.190  22.314  25.686  1.00  0.00     0.020 A 
ATOM     77  C   UNL A   1      42.879  21.662  27.922  1.00  0.00     0.020 A 
ATOM     78  C   UNL A   1      42.293  21.350  26.694  1.00  0.00     0.054 A 
BRANCH  78  79
ATOM     79  S   UNL A   1      41.695  19.668  26.364  1.00  0.00     0.124 S 
ATOM     80  O   UNL A   1      40.267  19.888  26.158  1.00  0.00    -0.237 OA
ATOM     81  O   UNL A   1      42.457  19.289  25.176  1.00  0.00    -0.237 OA
ATOM     82  O   UNL A   1      42.048  18.937  27.579  1.00  0.00    -0.744 OA
ENDBRANCH  78  79
ENDBRANCH  50  73
BRANCH  62  83
ATOM     83  C   UNL A   1      49.408  27.042  25.984  1.00  0.00    -0.014 A 
ATOM     84  C   UNL A   1      49.705  27.148  24.614  1.00  0.00     0.010 A 
ATOM     85  C   UNL A   1      50.382  26.521  26.857  1.00  0.00     0.010 A 
ATOM     86  C   UNL A   1      50.940  26.716  24.122  1.00  0.00     0.020 A 
ATOM     87  C   UNL A   1      51.628  26.112  26.374  1.00  0.00     0.020 A 
ATOM     88  C   UNL A   1      51.894  26.200  25.006  1.00  0.00     0.054 A 
BRANCH  88  89
ATOM     89  S   UNL A   1      53.508  25.689  24.352  1.00  0.00     0.124 S 
ATOM     90  O   UNL A   1      54.420  26.578  25.066  1.00  0.00    -0.237 OA
ATOM     91  O   UNL A   1      53.578  24.280  24.732  1.00  0.00    -0.237 OA
ATOM     92  O   UNL A   1      53.394  25.936  22.916  1.00  0.00    -0.744 OA
ENDBRANCH  88  89
ENDBRANCH  62  83
ENDBRANCH  36  37
ENDBRANCH  29  31
ENDBRANCH  28  29
ENDBRANCH  27  28
ENDBRANCH  26  27
ENDBRANCH  25  26
ENDBRANCH   1  25
TORSDOF 22
ENDMDL
MODEL 2
REMARK VINA RESULT:      -9.5      0.724      8.117
REMARK SMILES CC[C@H](NC(=O)N1CCO[C@@H](CC(=O)OCCOCCOC(=O)c2ccc(-c3c4nc(c(-c5ccc(S(=O)(=O)[O-])cc5)c5ccc([nH]5)c(-c5ccc(S(=O)(=O)[O-])cc5)c5nc(c(-c6ccc(S(=O)(=O)[O-])cc6)c6ccc3[nH]6)C=C5)C=C4)cc2)C1)c1cccs1
REMARK SMILES IDX 17 1 16 2 15 3 13 4 14 5 12 6 11 7 7 8 8 9 84 10 9 11 10 12
REMARK SMILES IDX 5 13 4 14 6 16 3 17 2 18 1 19 85 20 86 21 89 22 87 23 88 24
REMARK SMILES IDX 18 25 19 26 20 27 21 28 22 29 23 30 24 31 25 32 83 33 26 34
REMARK SMILES IDX 82 35 27 36 28 37 29 38 76 39 30 40 81 41 75 42 77 43 31 44
REMARK SMILES IDX 80 45 74 46 73 47 32 49 62 50 43 51 61 52 44 53 47 54 60 55
REMARK SMILES IDX 78 56 45 57 46 58 59 60 79 61 48 62 33 63 34 64 42 65 35 66
REMARK SMILES IDX 41 67 36 68 37 69 38 70 39 71 40 72 63 73 64 74 72 75 65 76
REMARK SMILES IDX 71 77 66 78 67 79 68 80 69 81 70 82 49 83 50 84 58 85 51 86
REMARK SMILES IDX 57 87 52 88 53 89 54 90 55 91 56 92
REMARK H PARENT 4 15 77 48 47 59
REMARK Flexibility Score: inf
ROOT
ATOM      1  C   UNL A   1      34.435  32.005  27.634  1.00  0.00     0.202 C 
ENDROOT
BRANCH   1   2
ATOM      2  C   UNL A   1      33.679  30.680  27.515  1.00  0.00     0.261 C 
BRANCH   2   3
ATOM      3  O   UNL A   1      32.318  30.880  27.077  1.00  0.00    -0.463 OA
BRANCH   3   4
ATOM      4  C   UNL A   1      31.886  30.096  26.058  1.00  0.00     0.308 C 
ATOM      5  O   UNL A   1      31.123  30.454  25.168  1.00  0.00    -0.252 OA
BRANCH   4   6
ATOM      6  C   UNL A   1      32.414  28.690  26.165  1.00  0.00     0.156 C 
BRANCH   6   7
ATOM      7  C   UNL A   1      32.064  27.749  25.012  1.00  0.00     0.149 C 
ATOM      8  N   UNL A   1      32.716  25.702  23.770  1.00  0.00    -0.320 N 
ATOM      9  C   UNL A   1      31.514  25.035  24.255  1.00  0.00     0.150 C 
ATOM     10  C   UNL A   1      33.196  26.747  24.681  1.00  0.00     0.154 C 
ATOM     11  C   UNL A   1      30.426  26.077  24.470  1.00  0.00     0.182 C 
ATOM     12  O   UNL A   1      30.858  27.055  25.428  1.00  0.00    -0.374 OA
BRANCH   8  13
ATOM     13  C   UNL A   1      33.594  25.147  22.893  1.00  0.00     0.318 C 
ATOM     14  N   UNL A   1      34.266  24.021  23.210  1.00  0.00    -0.330 N 
ATOM     15  H   UNL A   1      34.919  23.750  22.525  1.00  0.00     0.166 HD
ATOM     16  O   UNL A   1      33.755  25.606  21.764  1.00  0.00    -0.249 OA
BRANCH  14  17
ATOM     17  C   UNL A   1      34.223  23.123  24.356  1.00  0.00     0.124 C 
BRANCH  17  18
ATOM     18  C   UNL A   1      33.711  21.725  23.956  1.00  0.00     0.027 C 
ATOM     19  C   UNL A   1      32.775  21.136  25.002  1.00  0.00     0.006 C 
ENDBRANCH  17  18
BRANCH  17  20
ATOM     20  C   UNL A   1      35.622  23.033  24.928  1.00  0.00     0.027 A 
ATOM     21  C   UNL A   1      36.377  24.000  25.570  1.00  0.00     0.017 A 
ATOM     22  S   UNL A   1      36.485  21.547  24.830  1.00  0.00    -0.147 S 
ATOM     23  C   UNL A   1      37.660  23.524  25.965  1.00  0.00     0.012 A 
ATOM     24  C   UNL A   1      37.852  22.209  25.609  1.00  0.00     0.065 A 
ENDBRANCH  17  20
ENDBRANCH  14  17
ENDBRANCH   8  13
ENDBRANCH   6   7
ENDBRANCH   4   6
ENDBRANCH   3   4
ENDBRANCH   2   3
ENDBRANCH   1   2
BRANCH   1  25
ATOM     25  O   UNL A   1      34.047  32.830  28.734  1.00  0.00    -0.374 OA
BRANCH  25  26
ATOM     26  C   UNL A   1      35.088  33.226  29.624  1.00  0.00     0.202 C 
BRANCH  26  27
ATOM     27  C   UNL A   1      35.333  32.294  30.812  1.00  0.00     0.261 C 
BRANCH  27  28
ATOM     28  O   UNL A   1      35.928  31.048  30.411  1.00  0.00    -0.460 OA
BRANCH  28  29
ATOM     29  C   UNL A   1      36.695  30.446  31.353  1.00  0.00     0.338 C 
ATOM     30  O   UNL A   1      36.376  30.202  32.512  1.00  0.00    -0.246 OA
BRANCH  29  31
ATOM     31  C   UNL A   1      37.951  29.953  30.759  1.00  0.00     0.060 A 
ATOM     32  C   UNL A   1      38.981  29.553  31.618  1.00  0.00     0.016 A 
ATOM     33  C   UNL A   1      38.145  29.928  29.379  1.00  0.00     0.016 A 
ATOM     34  C   UNL A   1      40.215  29.158  31.099  1.00  0.00     0.010 A 
ATOM     35  C   UNL A   1      39.374  29.505  28.857  1.00  0.00     0.010 A 
ATOM     36  C   UNL A   1      40.432  29.157  29.713  1.00  0.00    -0.014 A 
BRANCH  36  37
ATOM     37  C   UNL A   1      41.800  28.942  29.170  1.00  0.00     0.031 A 
ATOM     38  C   UNL A   1      42.158  27.588  28.612  1.00  0.00     0.074 A 
ATOM     39  C   UNL A   1      42.708  29.935  29.148  1.00  0.00     0.049 A 
ATOM     40  N   UNL A   1      43.287  27.176  28.095  1.00  0.00    -0.248 NA
ATOM     41  C   UNL A   1      41.104  26.559  28.647  1.00  0.00     0.031 C 
ATOM     42  C   UNL A   1      42.490  31.294  29.643  1.00  0.00     0.029 A 
ATOM     43  N   UNL A   1      44.003  29.950  28.687  1.00  0.00    -0.354 N 
ATOM     44  C   UNL A   1      43.086  25.842  27.760  1.00  0.00     0.074 A 
ATOM     45  C   UNL A   1      41.738  25.503  28.163  1.00  0.00     0.031 C 
ATOM     46  C   UNL A   1      43.611  32.013  29.454  1.00  0.00     0.029 A 
ATOM     47  C   UNL A   1      44.635  31.160  28.852  1.00  0.00     0.049 A 
ATOM     48  H   UNL A   1      44.437  29.168  28.277  1.00  0.00     0.167 HD
ATOM     49  C   UNL A   1      43.936  24.977  27.157  1.00  0.00     0.031 A 
ATOM     50  C   UNL A   1      45.897  31.535  28.564  1.00  0.00     0.031 A 
ATOM     51  C   UNL A   1      45.275  25.311  26.748  1.00  0.00     0.049 A 
ATOM     52  C   UNL A   1      46.841  30.545  27.931  1.00  0.00     0.074 A 
ATOM     53  C   UNL A   1      46.200  24.510  26.100  1.00  0.00     0.029 A 
ATOM     54  N   UNL A   1      45.881  26.540  26.950  1.00  0.00    -0.354 N 
ATOM     55  N   UNL A   1      46.619  29.299  27.584  1.00  0.00    -0.248 NA
ATOM     56  C   UNL A   1      48.204  31.016  27.641  1.00  0.00     0.031 C 
ATOM     57  C   UNL A   1      47.384  25.241  25.956  1.00  0.00     0.029 A 
ATOM     58  C   UNL A   1      47.176  26.515  26.462  1.00  0.00     0.049 A 
ATOM     59  H   UNL A   1      45.453  27.318  27.378  1.00  0.00     0.167 HD
ATOM     60  C   UNL A   1      47.805  28.847  27.012  1.00  0.00     0.074 A 
ATOM     61  C   UNL A   1      48.736  29.956  27.047  1.00  0.00     0.031 C 
ATOM     62  C   UNL A   1      48.093  27.625  26.501  1.00  0.00     0.031 A 
BRANCH  49  63
ATOM     63  C   UNL A   1      43.448  23.572  26.925  1.00  0.00    -0.014 A 
ATOM     64  C   UNL A   1      43.393  22.637  27.976  1.00  0.00     0.010 A 
ATOM     65  C   UNL A   1      43.008  23.190  25.645  1.00  0.00     0.010 A 
ATOM     66  C   UNL A   1      42.947  21.334  27.739  1.00  0.00     0.020 A 
ATOM     67  C   UNL A   1      42.535  21.896  25.411  1.00  0.00     0.020 A 
ATOM     68  C   UNL A   1      42.525  20.970  26.457  1.00  0.00     0.054 A 
BRANCH  68  69
ATOM     69  S   UNL A   1      41.934  19.278  26.182  1.00  0.00     0.124 S 
ATOM     70  O   UNL A   1      42.719  18.872  25.017  1.00  0.00    -0.237 OA
ATOM     71  O   UNL A   1      42.279  18.609  27.433  1.00  0.00    -0.237 OA
ATOM     72  O   UNL A   1      40.503  19.444  25.940  1.00  0.00    -0.744 OA
ENDBRANCH  68  69
ENDBRANCH  49  63
BRANCH  50  73
ATOM     73  C   UNL A   1      46.352  32.918  28.880  1.00  0.00    -0.014 A 
ATOM     74  C   UNL A   1      46.922  33.220  30.130  1.00  0.00     0.010 A 
ATOM     75  C   UNL A   1      46.213  33.945  27.927  1.00  0.00     0.010 A 
ATOM     76  C   UNL A   1      47.332  34.524  30.427  1.00  0.00     0.020 A 
ATOM     77  C   UNL A   1      46.646  35.243  28.210  1.00  0.00     0.020 A 
ATOM     78  C   UNL A   1      47.193  35.527  29.463  1.00  0.00     0.054 A 
BRANCH  78  79
ATOM     79  S   UNL A   1      47.782  37.201  29.848  1.00  0.00     0.124 S 
ATOM     80  O   UNL A   1      48.350  37.025  31.180  1.00  0.00    -0.237 OA
ATOM     81  O   UNL A   1      48.745  37.451  28.777  1.00  0.00    -0.237 OA
ATOM     82  O   UNL A   1      46.569  38.012  29.785  1.00  0.00    -0.744 OA
ENDBRANCH  78  79
ENDBRANCH  50  73
BRANCH  62  83
ATOM     83  C   UNL A   1      49.461  27.422  25.903  1.00  0.00    -0.014 A 
ATOM     84  C   UNL A   1      50.549  27.011  26.693  1.00  0.00     0.010 A 
ATOM     85  C   UNL A   1      49.643  27.581  24.517  1.00  0.00     0.010 A 
ATOM     86  C   UNL A   1      51.801  26.791  26.111  1.00  0.00     0.020 A 
ATOM     87  C   UNL A   1      50.886  27.337  23.927  1.00  0.00     0.020 A 
ATOM     88  C   UNL A   1      51.961  26.957  24.731  1.00  0.00     0.054 A 
BRANCH  88  89
ATOM     89  S   UNL A   1      53.584  26.620  23.992  1.00  0.00     0.124 S 
ATOM     90  O   UNL A   1      53.799  25.222  24.356  1.00  0.00    -0.237 OA
ATOM     91  O   UNL A   1      53.349  26.870  22.572  1.00  0.00    -0.237 OA
ATOM     92  O   UNL A   1      54.470  27.578  24.648  1.00  0.00    -0.744 OA
ENDBRANCH  88  89
ENDBRANCH  62  83
ENDBRANCH  36  37
ENDBRANCH  29  31
ENDBRANCH  28  29
ENDBRANCH  27  28
ENDBRANCH  26  27
ENDBRANCH  25  26
ENDBRANCH   1  25
TORSDOF 22
ENDMDL
MODEL 3
REMARK VINA RESULT:      -9.0      2.377      9.226
REMARK SMILES CC[C@H](NC(=O)N1CCO[C@@H](CC(=O)OCCOCCOC(=O)c2ccc(-c3c4nc(c(-c5ccc(S(=O)(=O)[O-])cc5)c5ccc([nH]5)c(-c5ccc(S(=O)(=O)[O-])cc5)c5nc(c(-c6ccc(S(=O)(=O)[O-])cc6)c6ccc3[nH]6)C=C5)C=C4)cc2)C1)c1cccs1
REMARK SMILES IDX 17 1 16 2 15 3 13 4 14 5 12 6 11 7 7 8 8 9 84 10 9 11 10 12
REMARK SMILES IDX 5 13 4 14 6 16 3 17 2 18 1 19 85 20 86 21 89 22 87 23 88 24
REMARK SMILES IDX 18 25 19 26 20 27 21 28 22 29 23 30 24 31 25 32 83 33 26 34
REMARK SMILES IDX 82 35 27 36 28 37 29 38 76 39 30 40 81 41 75 42 77 43 31 44
REMARK SMILES IDX 80 45 74 46 73 47 32 49 62 50 43 51 61 52 44 53 47 54 60 55
REMARK SMILES IDX 78 56 45 57 46 58 59 60 79 61 48 62 33 63 34 64 42 65 35 66
REMARK SMILES IDX 41 67 36 68 37 69 38 70 39 71 40 72 63 73 64 74 72 75 65 76
REMARK SMILES IDX 71 77 66 78 67 79 68 80 69 81 70 82 49 83 50 84 58 85 51 86
REMARK SMILES IDX 57 87 52 88 53 89 54 90 55 91 56 92
REMARK H PARENT 4 15 77 48 47 59
REMARK Flexibility Score: inf
ROOT
ATOM      1  C   UNL A   1      37.374  22.145  24.908  1.00  0.00     0.202 C 
ENDROOT
BRANCH   1   2
ATOM      2  C   UNL A   1      35.873  21.856  24.994  1.00  0.00     0.261 C 
BRANCH   2   3
ATOM      3  O   UNL A   1      35.449  21.647  26.357  1.00  0.00    -0.463 OA
BRANCH   3   4
ATOM      4  C   UNL A   1      34.448  22.442  26.811  1.00  0.00     0.308 C 
ATOM      5  O   UNL A   1      33.591  22.105  27.619  1.00  0.00    -0.252 OA
BRANCH   4   6
ATOM      6  C   UNL A   1      34.470  23.801  26.163  1.00  0.00     0.156 C 
BRANCH   6   7
ATOM      7  C   UNL A   1      33.331  24.101  25.188  1.00  0.00     0.149 C 
ATOM      8  N   UNL A   1      32.736  24.645  22.841  1.00  0.00    -0.320 N 
ATOM      9  C   UNL A   1      32.071  23.354  22.719  1.00  0.00     0.150 C 
ATOM     10  C   UNL A   1      33.827  24.634  23.822  1.00  0.00     0.154 C 
ATOM     11  C   UNL A   1      31.538  22.945  24.084  1.00  0.00     0.182 C 
ATOM     12  O   UNL A   1      32.614  22.848  25.029  1.00  0.00    -0.374 OA
BRANCH   8  13
ATOM     13  C   UNL A   1      32.743  25.593  21.866  1.00  0.00     0.318 C 
ATOM     14  N   UNL A   1      32.320  26.848  22.123  1.00  0.00    -0.330 N 
ATOM     15  H   UNL A   1      32.310  27.427  21.326  1.00  0.00     0.166 HD
ATOM     16  O   UNL A   1      33.194  25.363  20.746  1.00  0.00    -0.249 OA
BRANCH  14  17
ATOM     17  C   UNL A   1      31.877  27.523  23.335  1.00  0.00     0.124 C 
BRANCH  17  18
ATOM     18  C   UNL A   1      32.807  28.698  23.697  1.00  0.00     0.027 C 
ATOM     19  C   UNL A   1      33.934  28.869  22.689  1.00  0.00     0.006 C 
ENDBRANCH  17  18
BRANCH  17  20
ATOM     20  C   UNL A   1      30.464  28.017  23.101  1.00  0.00     0.027 A 
ATOM     21  C   UNL A   1      29.257  27.443  23.463  1.00  0.00     0.017 A 
ATOM     22  S   UNL A   1      30.212  29.510  22.285  1.00  0.00    -0.147 S 
ATOM     23  C   UNL A   1      28.135  28.220  23.060  1.00  0.00     0.012 A 
ATOM     24  C   UNL A   1      28.514  29.363  22.395  1.00  0.00     0.065 A 
ENDBRANCH  17  20
ENDBRANCH  14  17
ENDBRANCH   8  13
ENDBRANCH   6   7
ENDBRANCH   4   6
ENDBRANCH   3   4
ENDBRANCH   2   3
ENDBRANCH   1   2
BRANCH   1  25
ATOM     25  O   UNL A   1      38.197  21.351  25.763  1.00  0.00    -0.374 OA
BRANCH  25  26
ATOM     26  C   UNL A   1      38.852  20.240  25.157  1.00  0.00     0.202 C 
BRANCH  26  27
ATOM     27  C   UNL A   1      39.916  19.550  26.014  1.00  0.00     0.261 C 
BRANCH  27  28
ATOM     28  O   UNL A   1      41.202  20.183  25.895  1.00  0.00    -0.460 OA
BRANCH  28  29
ATOM     29  C   UNL A   1      41.891  20.308  27.056  1.00  0.00     0.338 C 
ATOM     30  O   UNL A   1      42.385  19.401  27.717  1.00  0.00    -0.246 OA
BRANCH  29  31
ATOM     31  C   UNL A   1      42.128  21.730  27.364  1.00  0.00     0.060 A 
ATOM     32  C   UNL A   1      41.916  22.673  26.352  1.00  0.00     0.016 A 
ATOM     33  C   UNL A   1      42.601  22.139  28.609  1.00  0.00     0.016 A 
ATOM     34  C   UNL A   1      42.206  24.021  26.576  1.00  0.00     0.010 A 
ATOM     35  C   UNL A   1      42.867  23.493  28.843  1.00  0.00     0.010 A 
ATOM     36  C   UNL A   1      42.711  24.439  27.815  1.00  0.00    -0.014 A 
BRANCH  36  37
ATOM     37  C   UNL A   1      43.217  25.827  27.987  1.00  0.00     0.031 A 
ATOM     38  C   UNL A   1      44.650  26.129  27.630  1.00  0.00     0.074 A 
ATOM     39  C   UNL A   1      42.416  26.814  28.429  1.00  0.00     0.049 A 
ATOM     40  N   UNL A   1      45.303  27.261  27.705  1.00  0.00    -0.248 NA
ATOM     41  C   UNL A   1      45.458  25.004  27.128  1.00  0.00     0.031 C 
ATOM     42  C   UNL A   1      41.009  26.663  28.797  1.00  0.00     0.029 A 
ATOM     43  N   UNL A   1      42.678  28.146  28.644  1.00  0.00    -0.354 N 
ATOM     44  C   UNL A   1      46.596  26.982  27.277  1.00  0.00     0.074 A 
ATOM     45  C   UNL A   1      46.646  25.567  26.977  1.00  0.00     0.031 C 
ATOM     46  C   UNL A   1      40.528  27.857  29.187  1.00  0.00     0.029 A 
ATOM     47  C   UNL A   1      41.599  28.852  29.125  1.00  0.00     0.049 A 
ATOM     48  H   UNL A   1      43.554  28.558  28.469  1.00  0.00     0.167 HD
ATOM     49  C   UNL A   1      47.646  27.825  27.130  1.00  0.00     0.031 A 
ATOM     50  C   UNL A   1      41.489  30.146  29.486  1.00  0.00     0.031 A 
ATOM     51  C   UNL A   1      47.599  29.233  27.420  1.00  0.00     0.049 A 
ATOM     52  C   UNL A   1      42.682  31.059  29.353  1.00  0.00     0.074 A 
ATOM     53  C   UNL A   1      48.604  30.174  27.271  1.00  0.00     0.029 A 
ATOM     54  N   UNL A   1      46.494  29.902  27.922  1.00  0.00    -0.354 N 
ATOM     55  N   UNL A   1      43.885  30.784  28.908  1.00  0.00    -0.248 NA
ATOM     56  C   UNL A   1      42.497  32.459  29.763  1.00  0.00     0.031 C 
ATOM     57  C   UNL A   1      48.120  31.404  27.731  1.00  0.00     0.029 A 
ATOM     58  C   UNL A   1      46.797  31.239  28.111  1.00  0.00     0.049 A 
ATOM     59  H   UNL A   1      45.621  29.487  28.114  1.00  0.00     0.167 HD
ATOM     60  C   UNL A   1      44.592  31.983  28.960  1.00  0.00     0.074 A 
ATOM     61  C   UNL A   1      43.678  32.986  29.467  1.00  0.00     0.031 C 
ATOM     62  C   UNL A   1      45.879  32.229  28.615  1.00  0.00     0.031 A 
BRANCH  49  63
ATOM     63  C   UNL A   1      48.947  27.236  26.654  1.00  0.00    -0.014 A 
ATOM     64  C   UNL A   1      49.242  27.135  25.281  1.00  0.00     0.010 A 
ATOM     65  C   UNL A   1      49.901  26.806  27.593  1.00  0.00     0.010 A 
ATOM     66  C   UNL A   1      50.451  26.576  24.858  1.00  0.00     0.020 A 
ATOM     67  C   UNL A   1      51.123  26.272  27.173  1.00  0.00     0.020 A 
ATOM     68  C   UNL A   1      51.382  26.143  25.807  1.00  0.00     0.054 A 
BRANCH  68  69
ATOM     69  S   UNL A   1      52.950  25.437  25.231  1.00  0.00     0.124 S 
ATOM     70  O   UNL A   1      53.919  26.123  26.082  1.00  0.00    -0.237 OA
ATOM     71  O   UNL A   1      52.778  24.012  25.498  1.00  0.00    -0.237 OA
ATOM     72  O   UNL A   1      52.997  25.802  23.817  1.00  0.00    -0.744 OA
ENDBRANCH  68  69
ENDBRANCH  49  63
BRANCH  50  73
ATOM     73  C   UNL A   1      40.198  30.662  30.019  1.00  0.00    -0.014 A 
ATOM     74  C   UNL A   1      40.017  30.859  31.400  1.00  0.00     0.010 A 
ATOM     75  C   UNL A   1      39.136  30.956  29.143  1.00  0.00     0.010 A 
ATOM     76  C   UNL A   1      38.797  31.327  31.896  1.00  0.00     0.020 A 
ATOM     77  C   UNL A   1      37.924  31.450  29.633  1.00  0.00     0.020 A 
ATOM     78  C   UNL A   1      37.758  31.623  31.008  1.00  0.00     0.054 A 
BRANCH  78  79
ATOM     79  S   UNL A   1      36.201  32.283  31.667  1.00  0.00     0.124 S 
ATOM     80  O   UNL A   1      35.769  31.210  32.558  1.00  0.00    -0.237 OA
ATOM     81  O   UNL A   1      36.632  33.515  32.322  1.00  0.00    -0.237 OA
ATOM     82  O   UNL A   1      35.380  32.476  30.474  1.00  0.00    -0.744 OA
ENDBRANCH  78  79
ENDBRANCH  50  73
BRANCH  62  83
ATOM     83  C   UNL A   1      46.378  33.645  28.739  1.00  0.00    -0.014 A 
ATOM     84  C   UNL A   1      47.023  34.093  29.905  1.00  0.00     0.010 A 
ATOM     85  C   UNL A   1      46.257  34.521  27.644  1.00  0.00     0.010 A 
ATOM     86  C   UNL A   1      47.512  35.400  29.984  1.00  0.00     0.020 A 
ATOM     87  C   UNL A   1      46.767  35.820  27.709  1.00  0.00     0.020 A 
ATOM     88  C   UNL A   1      47.380  36.256  28.885  1.00  0.00     0.054 A 
BRANCH  88  89
ATOM     89  S   UNL A   1      48.065  37.933  28.994  1.00  0.00     0.124 S 
ATOM     90  O   UNL A   1      49.402  37.752  28.438  1.00  0.00    -0.237 OA
ATOM     91  O   UNL A   1      47.143  38.711  28.171  1.00  0.00    -0.237 OA
ATOM     92  O   UNL A   1      48.020  38.234  30.423  1.00  0.00    -0.744 OA
ENDBRANCH  88  89
ENDBRANCH  62  83
ENDBRANCH  36  37
ENDBRANCH  29  31
ENDBRANCH  28  29
ENDBRANCH  27  28
ENDBRANCH  26  27
ENDBRANCH  25  26
ENDBRANCH   1  25
TORSDOF 22
ENDMDL
