MODEL 1
REMARK VINA RESULT:     -11.7      0.000      0.000
REMARK SMILES CCc1ccc(-c2cc(Cl)cc3c2O[C@@H](C(F)(F)F)C(C(=O)OCCOCCOC(=O)c2ccc(-c4c5nc(c(-c6ccc(S(=O)(=O)[O-])cc6)c6ccc([nH]6)c(-c6ccc(S(=O)(=O)[O-])cc6)c6nc(c(-c7ccc(S(=O)(=O)[O-])cc7)c7ccc4[nH]7)C=C6)C=C5)cc2)=C3)cc1
REMARK SMILES IDX 27 1 26 2 25 3 24 4 23 5 21 6 22 7 20 8 7 9 8 10 13 11 9 12
REMARK SMILES IDX 12 13 14 14 10 15 11 16 92 17 15 18 6 19 3 20 4 21 94 22
REMARK SMILES IDX 5 23 93 24 2 25 1 26 16 27 17 28 18 29 19 30 28 31 29 32
REMARK SMILES IDX 30 33 31 34 32 35 33 36 91 37 34 38 90 39 35 40 36 41 37 42
REMARK SMILES IDX 84 43 38 44 89 45 83 46 85 47 39 48 88 49 82 50 81 51 40 53
REMARK SMILES IDX 70 54 51 55 69 56 52 57 55 58 68 59 86 60 53 61 54 62 67 64
REMARK SMILES IDX 87 65 56 66 41 67 42 68 50 69 43 70 49 71 44 72 45 73 46 74
REMARK SMILES IDX 47 75 48 76 71 77 72 78 80 79 73 80 79 81 74 82 75 83 76 84
REMARK SMILES IDX 77 85 78 86 57 87 58 88 66 89 59 90 65 91 60 92 61 93 62 94
REMARK SMILES IDX 63 95 64 96
REMARK H PARENT 85 52 55 63
REMARK Flexibility Score: inf
ROOT
ATOM      1  C   UNL A   1      33.755  31.104  27.584  1.00  0.00     0.202 C 
ENDROOT
BRANCH   1   2
ATOM      2  O   UNL A   1      32.466  30.543  27.348  1.00  0.00    -0.374 OA
BRANCH   2   3
ATOM      3  C   UNL A   1      31.888  30.707  26.058  1.00  0.00     0.202 C 
BRANCH   3   4
ATOM      4  C   UNL A   1      31.904  29.513  25.089  1.00  0.00     0.261 C 
BRANCH   4   5
ATOM      5  O   UNL A   1      32.438  28.316  25.676  1.00  0.00    -0.460 OA
BRANCH   5   6
ATOM      6  C   UNL A   1      31.971  27.157  25.176  1.00  0.00     0.338 C 
ATOM      7  O   UNL A   1      30.793  26.894  24.977  1.00  0.00    -0.246 OA
BRANCH   6   8
ATOM      8  C   UNL A   1      33.058  26.266  24.699  1.00  0.00     0.087 C 
ATOM      9  C   UNL A   1      32.053  22.251  24.345  1.00  0.00     0.026 A 
ATOM     10  C   UNL A   1      30.997  22.047  25.265  1.00  0.00     0.033 A 
ATOM     11  C   UNL A   1      32.637  23.536  24.375  1.00  0.00     0.135 A 
ATOM     12  C   UNL A   1      30.781  22.922  26.329  1.00  0.00     0.042 A 
ATOM     13  C   UNL A   1      32.602  24.265  25.576  1.00  0.00     0.019 A 
ATOM     14  O   UNL A   1      32.867  24.244  23.185  1.00  0.00    -0.475 OA
ATOM     15  Cl  UNL A   1      29.506  22.618  27.439  1.00  0.00    -0.084 Cl
ATOM     16  C   UNL A   1      31.652  23.976  26.547  1.00  0.00     0.032 A 
ATOM     17  C   UNL A   1      33.456  25.465  25.701  1.00  0.00     0.027 C 
ATOM     18  C   UNL A   1      33.256  25.683  23.315  1.00  0.00     0.316 C 
BRANCH   9  19
ATOM     19  C   UNL A   1      32.763  20.975  23.954  1.00  0.00    -0.015 A 
ATOM     20  C   UNL A   1      33.533  18.187  23.908  1.00  0.00    -0.048 A 
ATOM     21  C   UNL A   1      32.530  18.688  23.066  1.00  0.00     0.004 A 
ATOM     22  C   UNL A   1      34.206  19.110  24.713  1.00  0.00     0.004 A 
ATOM     23  C   UNL A   1      32.166  20.049  23.076  1.00  0.00     0.009 A 
ATOM     24  C   UNL A   1      33.831  20.477  24.731  1.00  0.00     0.009 A 
BRANCH  20  25
ATOM     25  C   UNL A   1      33.782  16.691  23.904  1.00  0.00     0.032 C 
ATOM     26  C   UNL A   1      34.125  16.001  25.221  1.00  0.00     0.009 C 
ENDBRANCH  20  25
ENDBRANCH   9  19
BRANCH  18  27
ATOM     27  C   UNL A   1      32.874  26.620  22.147  1.00  0.00     0.430 C 
ATOM     28  F   UNL A   1      33.527  27.807  22.297  1.00  0.00    -0.167 F 
ATOM     29  F   UNL A   1      33.269  26.120  20.954  1.00  0.00    -0.167 F 
ATOM     30  F   UNL A   1      31.565  26.908  22.044  1.00  0.00    -0.167 F 
ENDBRANCH  18  27
ENDBRANCH   6   8
ENDBRANCH   5   6
ENDBRANCH   4   5
ENDBRANCH   3   4
ENDBRANCH   2   3
ENDBRANCH   1   2
BRANCH   1  31
ATOM     31  C   UNL A   1      34.889  30.186  28.051  1.00  0.00     0.261 C 
BRANCH  31  32
ATOM     32  O   UNL A   1      35.921  30.866  28.782  1.00  0.00    -0.460 OA
BRANCH  32  33
ATOM     33  C   UNL A   1      36.576  30.088  29.677  1.00  0.00     0.338 C 
ATOM     34  O   UNL A   1      36.084  29.417  30.577  1.00  0.00    -0.246 OA
BRANCH  33  35
ATOM     35  C   UNL A   1      38.003  30.007  29.334  1.00  0.00     0.060 A 
ATOM     36  C   UNL A   1      38.341  29.810  27.990  1.00  0.00     0.016 A 
ATOM     37  C   UNL A   1      38.985  30.007  30.326  1.00  0.00     0.016 A 
ATOM     38  C   UNL A   1      39.665  29.565  27.637  1.00  0.00     0.010 A 
ATOM     39  C   UNL A   1      40.313  29.754  29.969  1.00  0.00     0.010 A 
ATOM     40  C   UNL A   1      40.652  29.496  28.628  1.00  0.00    -0.014 A 
BRANCH  40  41
ATOM     41  C   UNL A   1      42.008  29.016  28.267  1.00  0.00     0.031 A 
ATOM     42  C   UNL A   1      43.146  30.002  28.220  1.00  0.00     0.074 A 
ATOM     43  C   UNL A   1      42.227  27.711  28.030  1.00  0.00     0.049 A 
ATOM     44  N   UNL A   1      44.405  29.795  27.934  1.00  0.00    -0.248 NA
ATOM     45  C   UNL A   1      42.822  31.403  28.535  1.00  0.00     0.031 C 
ATOM     46  C   UNL A   1      41.211  26.659  28.085  1.00  0.00     0.029 A 
ATOM     47  N   UNL A   1      43.381  27.045  27.698  1.00  0.00    -0.354 N 
ATOM     48  C   UNL A   1      45.021  31.039  28.024  1.00  0.00     0.074 A 
ATOM     49  C   UNL A   1      43.993  31.998  28.363  1.00  0.00     0.031 C 
ATOM     50  C   UNL A   1      41.785  25.480  27.792  1.00  0.00     0.029 A 
ATOM     51  C   UNL A   1      43.200  25.697  27.497  1.00  0.00     0.049 A 
ATOM     52  H   UNL A   1      44.254  27.491  27.610  1.00  0.00     0.167 HD
ATOM     53  C   UNL A   1      46.326  31.351  27.845  1.00  0.00     0.031 A 
ATOM     54  C   UNL A   1      44.073  24.750  27.102  1.00  0.00     0.031 A 
ATOM     55  C   UNL A   1      47.344  30.391  27.503  1.00  0.00     0.049 A 
ATOM     56  C   UNL A   1      45.508  25.134  26.851  1.00  0.00     0.074 A 
ATOM     57  C   UNL A   1      48.700  30.602  27.327  1.00  0.00     0.029 A 
ATOM     58  N   UNL A   1      47.115  29.042  27.278  1.00  0.00    -0.354 N 
ATOM     59  N   UNL A   1      46.082  26.307  26.978  1.00  0.00    -0.248 NA
ATOM     60  C   UNL A   1      46.415  24.064  26.413  1.00  0.00     0.031 C 
ATOM     61  C   UNL A   1      49.280  29.393  26.931  1.00  0.00     0.029 A 
ATOM     62  C   UNL A   1      48.300  28.414  26.931  1.00  0.00     0.049 A 
ATOM     63  H   UNL A   1      46.241  28.596  27.353  1.00  0.00     0.167 HD
ATOM     64  C   UNL A   1      47.423  26.109  26.663  1.00  0.00     0.074 A 
ATOM     65  C   UNL A   1      47.577  24.702  26.358  1.00  0.00     0.031 C 
ATOM     66  C   UNL A   1      48.436  27.010  26.630  1.00  0.00     0.031 A 
BRANCH  53  67
ATOM     67  C   UNL A   1      46.731  32.797  27.982  1.00  0.00    -0.014 A 
ATOM     68  C   UNL A   1      47.177  33.320  29.208  1.00  0.00     0.010 A 
ATOM     69  C   UNL A   1      46.720  33.628  26.846  1.00  0.00     0.010 A 
ATOM     70  C   UNL A   1      47.579  34.656  29.303  1.00  0.00     0.020 A 
ATOM     71  C   UNL A   1      47.148  34.956  26.930  1.00  0.00     0.020 A 
ATOM     72  C   UNL A   1      47.564  35.465  28.161  1.00  0.00     0.054 A 
BRANCH  72  73
ATOM     73  S   UNL A   1      48.133  37.182  28.305  1.00  0.00     0.124 S 
ATOM     74  O   UNL A   1      47.296  37.860  27.318  1.00  0.00    -0.237 OA
ATOM     75  O   UNL A   1      47.842  37.499  29.700  1.00  0.00    -0.237 OA
ATOM     76  O   UNL A   1      49.553  37.107  27.968  1.00  0.00    -0.744 OA
ENDBRANCH  72  73
ENDBRANCH  53  67
BRANCH  54  77
ATOM     77  C   UNL A   1      43.610  23.349  26.892  1.00  0.00    -0.014 A 
ATOM     78  C   UNL A   1      43.414  22.836  25.598  1.00  0.00     0.010 A 
ATOM     79  C   UNL A   1      43.351  22.519  28.000  1.00  0.00     0.010 A 
ATOM     80  C   UNL A   1      42.943  21.532  25.416  1.00  0.00     0.020 A 
ATOM     81  C   UNL A   1      42.912  21.205  27.822  1.00  0.00     0.020 A 
ATOM     82  C   UNL A   1      42.696  20.724  26.530  1.00  0.00     0.054 A 
BRANCH  82  83
ATOM     83  S   UNL A   1      42.117  19.024  26.268  1.00  0.00     0.124 S 
ATOM     84  O   UNL A   1      43.104  18.510  25.323  1.00  0.00    -0.237 OA
ATOM     85  O   UNL A   1      42.177  18.462  27.615  1.00  0.00    -0.237 OA
ATOM     86  O   UNL A   1      40.769  19.201  25.733  1.00  0.00    -0.744 OA
ENDBRANCH  82  83
ENDBRANCH  54  77
BRANCH  66  87
ATOM     87  C   UNL A   1      49.812  26.499  26.286  1.00  0.00    -0.014 A 
ATOM     88  C   UNL A   1      50.330  26.611  24.985  1.00  0.00     0.010 A 
ATOM     89  C   UNL A   1      50.619  25.950  27.300  1.00  0.00     0.010 A 
ATOM     90  C   UNL A   1      51.617  26.150  24.694  1.00  0.00     0.020 A 
ATOM     91  C   UNL A   1      51.918  25.517  27.021  1.00  0.00     0.020 A 
ATOM     92  C   UNL A   1      52.403  25.606  25.716  1.00  0.00     0.054 A 
BRANCH  92  93
ATOM     93  S   UNL A   1      54.084  25.052  25.321  1.00  0.00     0.124 S 
ATOM     94  O   UNL A   1      54.786  25.289  26.580  1.00  0.00    -0.237 OA
ATOM     95  O   UNL A   1      53.885  23.650  24.967  1.00  0.00    -0.237 OA
ATOM     96  O   UNL A   1      54.484  25.918  24.214  1.00  0.00    -0.744 OA
ENDBRANCH  92  93
ENDBRANCH  66  87
ENDBRANCH  40  41
ENDBRANCH  33  35
ENDBRANCH  32  33
ENDBRANCH  31  32
ENDBRANCH   1  31
TORSDOF 20
ENDMDL
MODEL 2
REMARK VINA RESULT:     -11.7      3.273      8.577
REMARK SMILES CCc1ccc(-c2cc(Cl)cc3c2O[C@@H](C(F)(F)F)C(C(=O)OCCOCCOC(=O)c2ccc(-c4c5nc(c(-c6ccc(S(=O)(=O)[O-])cc6)c6ccc([nH]6)c(-c6ccc(S(=O)(=O)[O-])cc6)c6nc(c(-c7ccc(S(=O)(=O)[O-])cc7)c7ccc4[nH]7)C=C6)C=C5)cc2)=C3)cc1
REMARK SMILES IDX 27 1 26 2 25 3 24 4 23 5 21 6 22 7 20 8 7 9 8 10 13 11 9 12
REMARK SMILES IDX 12 13 14 14 10 15 11 16 92 17 15 18 6 19 3 20 4 21 94 22
REMARK SMILES IDX 5 23 93 24 2 25 1 26 16 27 17 28 18 29 19 30 28 31 29 32
REMARK SMILES IDX 30 33 31 34 32 35 33 36 91 37 34 38 90 39 35 40 36 41 37 42
REMARK SMILES IDX 84 43 38 44 89 45 83 46 85 47 39 48 88 49 82 50 81 51 40 53
REMARK SMILES IDX 70 54 51 55 69 56 52 57 55 58 68 59 86 60 53 61 54 62 67 64
REMARK SMILES IDX 87 65 56 66 41 67 42 68 50 69 43 70 49 71 44 72 45 73 46 74
REMARK SMILES IDX 47 75 48 76 71 77 72 78 80 79 73 80 79 81 74 82 75 83 76 84
REMARK SMILES IDX 77 85 78 86 57 87 58 88 66 89 59 90 65 91 60 92 61 93 62 94
REMARK SMILES IDX 63 95 64 96
REMARK H PARENT 85 52 55 63
REMARK Flexibility Score: inf
ROOT
ATOM      1  C   UNL A   1      31.769  29.544  26.052  1.00  0.00     0.202 C 
ENDROOT
BRANCH   1   2
ATOM      2  O   UNL A   1      31.791  29.727  24.638  1.00  0.00    -0.374 OA
BRANCH   2   3
ATOM      3  C   UNL A   1      30.621  29.394  23.900  1.00  0.00     0.202 C 
BRANCH   3   4
ATOM      4  C   UNL A   1      30.633  28.120  23.040  1.00  0.00     0.261 C 
BRANCH   4   5
ATOM      5  O   UNL A   1      31.952  27.595  22.826  1.00  0.00    -0.460 OA
BRANCH   5   6
ATOM      6  C   UNL A   1      32.317  26.576  23.627  1.00  0.00     0.338 C 
ATOM      7  O   UNL A   1      33.171  26.632  24.500  1.00  0.00    -0.246 OA
BRANCH   6   8
ATOM      8  C   UNL A   1      31.434  25.393  23.477  1.00  0.00     0.087 C 
ATOM      9  C   UNL A   1      33.129  21.752  24.539  1.00  0.00     0.026 A 
ATOM     10  C   UNL A   1      34.523  21.922  24.360  1.00  0.00     0.033 A 
ATOM     11  C   UNL A   1      32.333  22.841  24.125  1.00  0.00     0.135 A 
ATOM     12  C   UNL A   1      35.033  22.930  23.543  1.00  0.00     0.042 A 
ATOM     13  C   UNL A   1      32.812  23.678  23.102  1.00  0.00     0.019 A 
ATOM     14  O   UNL A   1      31.315  23.338  24.954  1.00  0.00    -0.475 OA
ATOM     15  Cl  UNL A   1      36.731  23.080  23.333  1.00  0.00    -0.084 Cl
ATOM     16  C   UNL A   1      34.172  23.744  22.828  1.00  0.00     0.032 A 
ATOM     17  C   UNL A   1      31.876  24.627  22.465  1.00  0.00     0.027 C 
ATOM     18  C   UNL A   1      30.686  24.635  24.555  1.00  0.00     0.316 C 
BRANCH   9  19
ATOM     19  C   UNL A   1      32.697  20.303  24.545  1.00  0.00    -0.015 A 
ATOM     20  C   UNL A   1      32.837  17.416  24.449  1.00  0.00    -0.048 A 
ATOM     21  C   UNL A   1      32.876  18.115  25.663  1.00  0.00     0.004 A 
ATOM     22  C   UNL A   1      32.642  18.170  23.288  1.00  0.00     0.004 A 
ATOM     23  C   UNL A   1      32.791  19.520  25.712  1.00  0.00     0.009 A 
ATOM     24  C   UNL A   1      32.569  19.584  23.337  1.00  0.00     0.009 A 
BRANCH  20  25
ATOM     25  C   UNL A   1      33.043  15.914  24.486  1.00  0.00     0.032 C 
ATOM     26  C   UNL A   1      32.445  15.119  25.642  1.00  0.00     0.009 C 
ENDBRANCH  20  25
ENDBRANCH   9  19
BRANCH  18  27
ATOM     27  C   UNL A   1      30.106  25.511  25.690  1.00  0.00     0.430 C 
ATOM     28  F   UNL A   1      29.233  26.410  25.154  1.00  0.00    -0.167 F 
ATOM     29  F   UNL A   1      29.396  24.776  26.576  1.00  0.00    -0.167 F 
ATOM     30  F   UNL A   1      31.009  26.217  26.392  1.00  0.00    -0.167 F 
ENDBRANCH  18  27
ENDBRANCH   6   8
ENDBRANCH   5   6
ENDBRANCH   4   5
ENDBRANCH   3   4
ENDBRANCH   2   3
ENDBRANCH   1   2
BRANCH   1  31
ATOM     31  C   UNL A   1      32.640  30.447  26.931  1.00  0.00     0.261 C 
BRANCH  31  32
ATOM     32  O   UNL A   1      33.882  29.847  27.328  1.00  0.00    -0.460 OA
BRANCH  32  33
ATOM     33  C   UNL A   1      34.678  30.651  28.073  1.00  0.00     0.338 C 
ATOM     34  O   UNL A   1      34.357  31.681  28.653  1.00  0.00    -0.246 OA
BRANCH  33  35
ATOM     35  C   UNL A   1      36.002  30.037  28.247  1.00  0.00     0.060 A 
ATOM     36  C   UNL A   1      36.341  29.568  29.522  1.00  0.00     0.016 A 
ATOM     37  C   UNL A   1      36.937  30.028  27.211  1.00  0.00     0.016 A 
ATOM     38  C   UNL A   1      37.637  29.127  29.777  1.00  0.00     0.010 A 
ATOM     39  C   UNL A   1      38.240  29.593  27.472  1.00  0.00     0.010 A 
ATOM     40  C   UNL A   1      38.604  29.175  28.766  1.00  0.00    -0.014 A 
BRANCH  40  41
ATOM     41  C   UNL A   1      40.023  28.918  29.109  1.00  0.00     0.031 A 
ATOM     42  C   UNL A   1      40.637  27.592  28.742  1.00  0.00     0.074 A 
ATOM     43  C   UNL A   1      40.765  29.872  29.698  1.00  0.00     0.049 A 
ATOM     44  N   UNL A   1      41.857  27.163  28.943  1.00  0.00    -0.248 NA
ATOM     45  C   UNL A   1      39.763  26.623  28.060  1.00  0.00     0.031 C 
ATOM     46  C   UNL A   1      40.289  31.206  30.065  1.00  0.00     0.029 A 
ATOM     47  N   UNL A   1      42.080  29.866  30.090  1.00  0.00    -0.354 N 
ATOM     48  C   UNL A   1      41.893  25.874  28.423  1.00  0.00     0.074 A 
ATOM     49  C   UNL A   1      40.568  25.579  27.924  1.00  0.00     0.031 C 
ATOM     50  C   UNL A   1      41.297  31.889  30.632  1.00  0.00     0.029 A 
ATOM     51  C   UNL A   1      42.478  31.032  30.699  1.00  0.00     0.049 A 
ATOM     52  H   UNL A   1      42.681  29.099  29.950  1.00  0.00     0.167 HD
ATOM     53  C   UNL A   1      42.939  25.016  28.363  1.00  0.00     0.031 A 
ATOM     54  C   UNL A   1      43.657  31.362  31.265  1.00  0.00     0.031 A 
ATOM     55  C   UNL A   1      44.254  25.315  28.866  1.00  0.00     0.049 A 
ATOM     56  C   UNL A   1      44.787  30.366  31.238  1.00  0.00     0.074 A 
ATOM     57  C   UNL A   1      45.389  24.524  28.829  1.00  0.00     0.029 A 
ATOM     58  N   UNL A   1      44.609  26.493  29.504  1.00  0.00    -0.354 N 
ATOM     59  N   UNL A   1      44.817  29.166  30.709  1.00  0.00    -0.248 NA
ATOM     60  C   UNL A   1      46.046  30.774  31.877  1.00  0.00     0.031 C 
ATOM     61  C   UNL A   1      46.412  25.197  29.503  1.00  0.00     0.029 A 
ATOM     62  C   UNL A   1      45.937  26.438  29.896  1.00  0.00     0.049 A 
ATOM     63  H   UNL A   1      44.007  27.257  29.657  1.00  0.00     0.167 HD
ATOM     64  C   UNL A   1      46.105  28.687  30.926  1.00  0.00     0.074 A 
ATOM     65  C   UNL A   1      46.828  29.735  31.617  1.00  0.00     0.031 C 
ATOM     66  C   UNL A   1      46.642  27.490  30.584  1.00  0.00     0.031 A 
BRANCH  53  67
ATOM     67  C   UNL A   1      42.700  23.654  27.763  1.00  0.00    -0.014 A 
ATOM     68  C   UNL A   1      43.166  23.329  26.476  1.00  0.00     0.010 A 
ATOM     69  C   UNL A   1      42.050  22.666  28.525  1.00  0.00     0.010 A 
ATOM     70  C   UNL A   1      42.962  22.048  25.953  1.00  0.00     0.020 A 
ATOM     71  C   UNL A   1      41.869  21.376  28.017  1.00  0.00     0.020 A 
ATOM     72  C   UNL A   1      42.317  21.079  26.728  1.00  0.00     0.054 A 
BRANCH  72  73
ATOM     73  S   UNL A   1      42.106  19.414  26.040  1.00  0.00     0.124 S 
ATOM     74  O   UNL A   1      40.658  19.345  25.857  1.00  0.00    -0.237 OA
ATOM     75  O   UNL A   1      42.891  19.474  24.811  1.00  0.00    -0.237 OA
ATOM     76  O   UNL A   1      42.643  18.537  27.079  1.00  0.00    -0.744 OA
ENDBRANCH  72  73
ENDBRANCH  53  67
BRANCH  54  77
ATOM     77  C   UNL A   1      43.821  32.686  31.928  1.00  0.00    -0.014 A 
ATOM     78  C   UNL A   1      43.519  32.857  33.290  1.00  0.00     0.010 A 
ATOM     79  C   UNL A   1      44.275  33.794  31.187  1.00  0.00     0.010 A 
ATOM     80  C   UNL A   1      43.642  34.114  33.891  1.00  0.00     0.020 A 
ATOM     81  C   UNL A   1      44.430  35.044  31.791  1.00  0.00     0.020 A 
ATOM     82  C   UNL A   1      44.098  35.199  33.138  1.00  0.00     0.054 A 
BRANCH  82  83
ATOM     83  S   UNL A   1      44.281  36.813  33.947  1.00  0.00     0.124 S 
ATOM     84  O   UNL A   1      45.191  37.506  33.041  1.00  0.00    -0.237 OA
ATOM     85  O   UNL A   1      42.908  37.311  33.970  1.00  0.00    -0.237 OA
ATOM     86  O   UNL A   1      44.836  36.477  35.257  1.00  0.00    -0.744 OA
ENDBRANCH  82  83
ENDBRANCH  54  77
BRANCH  66  87
ATOM     87  C   UNL A   1      48.093  27.257  30.918  1.00  0.00    -0.014 A 
ATOM     88  C   UNL A   1      49.113  27.561  30.001  1.00  0.00     0.010 A 
ATOM     89  C   UNL A   1      48.441  26.777  32.195  1.00  0.00     0.010 A 
ATOM     90  C   UNL A   1      50.454  27.357  30.341  1.00  0.00     0.020 A 
ATOM     91  C   UNL A   1      49.781  26.601  32.550  1.00  0.00     0.020 A 
ATOM     92  C   UNL A   1      50.778  26.879  31.615  1.00  0.00     0.054 A 
BRANCH  92  93
ATOM     93  S   UNL A   1      52.527  26.661  32.045  1.00  0.00     0.124 S 
ATOM     94  O   UNL A   1      53.190  26.933  30.773  1.00  0.00    -0.237 OA
ATOM     95  O   UNL A   1      52.728  27.664  33.086  1.00  0.00    -0.237 OA
ATOM     96  O   UNL A   1      52.602  25.274  32.501  1.00  0.00    -0.744 OA
ENDBRANCH  92  93
ENDBRANCH  66  87
ENDBRANCH  40  41
ENDBRANCH  33  35
ENDBRANCH  32  33
ENDBRANCH  31  32
ENDBRANCH   1  31
TORSDOF 20
ENDMDL
MODEL 3
REMARK VINA RESULT:     -11.6      1.413      7.896
REMARK SMILES CCc1ccc(-c2cc(Cl)cc3c2O[C@@H](C(F)(F)F)C(C(=O)OCCOCCOC(=O)c2ccc(-c4c5nc(c(-c6ccc(S(=O)(=O)[O-])cc6)c6ccc([nH]6)c(-c6ccc(S(=O)(=O)[O-])cc6)c6nc(c(-c7ccc(S(=O)(=O)[O-])cc7)c7ccc4[nH]7)C=C6)C=C5)cc2)=C3)cc1
REMARK SMILES IDX 27 1 26 2 25 3 24 4 23 5 21 6 22 7 20 8 7 9 8 10 13 11 9 12
REMARK SMILES IDX 12 13 14 14 10 15 11 16 92 17 15 18 6 19 3 20 4 21 94 22
REMARK SMILES IDX 5 23 93 24 2 25 1 26 16 27 17 28 18 29 19 30 28 31 29 32
REMARK SMILES IDX 30 33 31 34 32 35 33 36 91 37 34 38 90 39 35 40 36 41 37 42
REMARK SMILES IDX 84 43 38 44 89 45 83 46 85 47 39 48 88 49 82 50 81 51 40 53
REMARK SMILES IDX 70 54 51 55 69 56 52 57 55 58 68 59 86 60 53 61 54 62 67 64
REMARK SMILES IDX 87 65 56 66 41 67 42 68 50 69 43 70 49 71 44 72 45 73 46 74
REMARK SMILES IDX 47 75 48 76 71 77 72 78 80 79 73 80 79 81 74 82 75 83 76 84
REMARK SMILES IDX 77 85 78 86 57 87 58 88 66 89 59 90 65 91 60 92 61 93 62 94
REMARK SMILES IDX 63 95 64 96
REMARK H PARENT 85 52 55 63
REMARK Flexibility Score: inf
ROOT
ATOM      1  C   UNL A   1      34.180  30.853  27.726  1.00  0.00     0.202 C 
ENDROOT
BRANCH   1   2
ATOM      2  O   UNL A   1      32.839  30.398  27.558  1.00  0.00    -0.374 OA
BRANCH   2   3
ATOM      3  C   UNL A   1      32.205  30.624  26.304  1.00  0.00     0.202 C 
BRANCH   3   4
ATOM      4  C   UNL A   1      32.230  29.501  25.255  1.00  0.00     0.261 C 
BRANCH   4   5
ATOM      5  O   UNL A   1      32.773  28.270  25.758  1.00  0.00    -0.460 OA
BRANCH   5   6
ATOM      6  C   UNL A   1      32.261  27.142  25.230  1.00  0.00     0.338 C 
ATOM      7  O   UNL A   1      31.075  26.938  25.010  1.00  0.00    -0.246 OA
BRANCH   6   8
ATOM      8  C   UNL A   1      33.312  26.210  24.755  1.00  0.00     0.087 C 
ATOM      9  C   UNL A   1      32.131  22.250  24.326  1.00  0.00     0.026 A 
ATOM     10  C   UNL A   1      31.054  22.081  25.229  1.00  0.00     0.033 A 
ATOM     11  C   UNL A   1      32.772  23.507  24.383  1.00  0.00     0.135 A 
ATOM     12  C   UNL A   1      30.864  22.950  26.304  1.00  0.00     0.042 A 
ATOM     13  C   UNL A   1      32.754  24.219  25.595  1.00  0.00     0.019 A 
ATOM     14  O   UNL A   1      33.050  24.221  23.208  1.00  0.00    -0.475 OA
ATOM     15  Cl  UNL A   1      29.561  22.688  27.391  1.00  0.00    -0.084 Cl
ATOM     16  C   UNL A   1      31.779  23.959  26.549  1.00  0.00     0.032 A 
ATOM     17  C   UNL A   1      33.660  25.377  25.750  1.00  0.00     0.027 C 
ATOM     18  C   UNL A   1      33.503  25.638  23.365  1.00  0.00     0.316 C 
BRANCH   9  19
ATOM     19  C   UNL A   1      32.788  20.949  23.925  1.00  0.00    -0.015 A 
ATOM     20  C   UNL A   1      33.466  18.138  23.879  1.00  0.00    -0.048 A 
ATOM     21  C   UNL A   1      32.455  18.665  23.063  1.00  0.00     0.004 A 
ATOM     22  C   UNL A   1      34.192  19.045  24.656  1.00  0.00     0.004 A 
ATOM     23  C   UNL A   1      32.135  20.037  23.073  1.00  0.00     0.009 A 
ATOM     24  C   UNL A   1      33.862  20.423  24.674  1.00  0.00     0.009 A 
BRANCH  20  25
ATOM     25  C   UNL A   1      33.667  16.634  23.881  1.00  0.00     0.032 C 
ATOM     26  C   UNL A   1      33.184  15.831  25.084  1.00  0.00     0.009 C 
ENDBRANCH  20  25
ENDBRANCH   9  19
BRANCH  18  27
ATOM     27  C   UNL A   1      33.179  26.609  22.206  1.00  0.00     0.430 C 
ATOM     28  F   UNL A   1      34.038  27.667  22.260  1.00  0.00    -0.167 F 
ATOM     29  F   UNL A   1      33.370  26.029  20.999  1.00  0.00    -0.167 F 
ATOM     30  F   UNL A   1      31.935  27.118  22.211  1.00  0.00    -0.167 F 
ENDBRANCH  18  27
ENDBRANCH   6   8
ENDBRANCH   5   6
ENDBRANCH   4   5
ENDBRANCH   3   4
ENDBRANCH   2   3
ENDBRANCH   1   2
BRANCH   1  31
ATOM     31  C   UNL A   1      35.330  29.855  27.550  1.00  0.00     0.261 C 
BRANCH  31  32
ATOM     32  O   UNL A   1      36.606  30.362  27.969  1.00  0.00    -0.460 OA
BRANCH  32  33
ATOM     33  C   UNL A   1      37.186  29.657  28.968  1.00  0.00     0.338 C 
ATOM     34  O   UNL A   1      36.665  29.283  30.012  1.00  0.00    -0.246 OA
BRANCH  33  35
ATOM     35  C   UNL A   1      38.536  29.230  28.574  1.00  0.00     0.060 A 
ATOM     36  C   UNL A   1      39.417  28.832  29.587  1.00  0.00     0.016 A 
ATOM     37  C   UNL A   1      38.968  29.330  27.251  1.00  0.00     0.016 A 
ATOM     38  C   UNL A   1      40.752  28.575  29.285  1.00  0.00     0.010 A 
ATOM     39  C   UNL A   1      40.311  29.079  26.951  1.00  0.00     0.010 A 
ATOM     40  C   UNL A   1      41.215  28.736  27.973  1.00  0.00    -0.014 A 
BRANCH  40  41
ATOM     41  C   UNL A   1      42.673  28.679  27.709  1.00  0.00     0.031 A 
ATOM     42  C   UNL A   1      43.265  27.417  27.139  1.00  0.00     0.074 A 
ATOM     43  C   UNL A   1      43.449  29.754  27.933  1.00  0.00     0.049 A 
ATOM     44  N   UNL A   1      44.509  27.155  26.828  1.00  0.00    -0.248 NA
ATOM     45  C   UNL A   1      42.335  26.304  26.885  1.00  0.00     0.031 C 
ATOM     46  C   UNL A   1      42.980  31.041  28.447  1.00  0.00     0.029 A 
ATOM     47  N   UNL A   1      44.797  29.936  27.753  1.00  0.00    -0.354 N 
ATOM     48  C   UNL A   1      44.512  25.848  26.354  1.00  0.00     0.074 A 
ATOM     49  C   UNL A   1      43.154  25.360  26.444  1.00  0.00     0.031 C 
ATOM     50  C   UNL A   1      44.025  31.880  28.545  1.00  0.00     0.029 A 
ATOM     51  C   UNL A   1      45.240  31.180  28.133  1.00  0.00     0.049 A 
ATOM     52  H   UNL A   1      45.391  29.240  27.388  1.00  0.00     0.167 HD
ATOM     53  C   UNL A   1      45.553  25.122  25.882  1.00  0.00     0.031 A 
ATOM     54  C   UNL A   1      46.488  31.690  28.163  1.00  0.00     0.031 A 
ATOM     55  C   UNL A   1      46.904  25.614  25.799  1.00  0.00     0.049 A 
ATOM     56  C   UNL A   1      47.638  30.841  27.689  1.00  0.00     0.074 A 
ATOM     57  C   UNL A   1      48.025  24.967  25.310  1.00  0.00     0.029 A 
ATOM     58  N   UNL A   1      47.318  26.867  26.223  1.00  0.00    -0.354 N 
ATOM     59  N   UNL A   1      47.619  29.620  27.207  1.00  0.00    -0.248 NA
ATOM     60  C   UNL A   1      48.978  31.442  27.752  1.00  0.00     0.031 C 
ATOM     61  C   UNL A   1      49.129  25.805  25.500  1.00  0.00     0.029 A 
ATOM     62  C   UNL A   1      48.685  27.001  26.039  1.00  0.00     0.049 A 
ATOM     63  H   UNL A   1      46.728  27.560  26.600  1.00  0.00     0.167 HD
ATOM     64  C   UNL A   1      48.938  29.319  26.884  1.00  0.00     0.074 A 
ATOM     65  C   UNL A   1      49.725  30.491  27.207  1.00  0.00     0.031 C 
ATOM     66  C   UNL A   1      49.453  28.176  26.366  1.00  0.00     0.031 A 
BRANCH  53  67
ATOM     67  C   UNL A   1      45.285  23.705  25.447  1.00  0.00    -0.014 A 
ATOM     68  C   UNL A   1      44.879  23.405  24.134  1.00  0.00     0.010 A 
ATOM     69  C   UNL A   1      45.502  22.650  26.353  1.00  0.00     0.010 A 
ATOM     70  C   UNL A   1      44.668  22.079  23.744  1.00  0.00     0.020 A 
ATOM     71  C   UNL A   1      45.320  21.321  25.959  1.00  0.00     0.020 A 
ATOM     72  C   UNL A   1      44.893  21.045  24.659  1.00  0.00     0.054 A 
BRANCH  72  73
ATOM     73  S   UNL A   1      44.654  19.332  24.111  1.00  0.00     0.124 S 
ATOM     74  O   UNL A   1      44.584  19.486  22.660  1.00  0.00    -0.237 OA
ATOM     75  O   UNL A   1      45.851  18.666  24.615  1.00  0.00    -0.237 OA
ATOM     76  O   UNL A   1      43.403  18.932  24.754  1.00  0.00    -0.744 OA
ENDBRANCH  72  73
ENDBRANCH  53  67
BRANCH  54  77
ATOM     77  C   UNL A   1      46.719  33.066  28.686  1.00  0.00    -0.014 A 
ATOM     78  C   UNL A   1      46.717  34.178  27.825  1.00  0.00     0.010 A 
ATOM     79  C   UNL A   1      46.955  33.268  30.059  1.00  0.00     0.010 A 
ATOM     80  C   UNL A   1      46.974  35.459  28.324  1.00  0.00     0.020 A 
ATOM     81  C   UNL A   1      47.179  34.550  30.566  1.00  0.00     0.020 A 
ATOM     82  C   UNL A   1      47.202  35.637  29.691  1.00  0.00     0.054 A 
BRANCH  82  83
ATOM     83  S   UNL A   1      47.499  37.314  30.319  1.00  0.00     0.124 S 
ATOM     84  O   UNL A   1      46.810  37.283  31.605  1.00  0.00    -0.237 OA
ATOM     85  O   UNL A   1      48.957  37.372  30.382  1.00  0.00    -0.237 OA
ATOM     86  O   UNL A   1      46.892  38.172  29.303  1.00  0.00    -0.744 OA
ENDBRANCH  82  83
ENDBRANCH  54  77
BRANCH  66  87
ATOM     87  C   UNL A   1      50.932  28.146  26.080  1.00  0.00    -0.014 A 
ATOM     88  C   UNL A   1      51.855  27.703  27.043  1.00  0.00     0.010 A 
ATOM     89  C   UNL A   1      51.398  28.514  24.804  1.00  0.00     0.010 A 
ATOM     90  C   UNL A   1      53.221  27.662  26.747  1.00  0.00     0.020 A 
ATOM     91  C   UNL A   1      52.759  28.445  24.494  1.00  0.00     0.020 A 
ATOM     92  C   UNL A   1      53.663  28.033  25.474  1.00  0.00     0.054 A 
BRANCH  92  93
ATOM     93  S   UNL A   1      55.436  27.933  25.103  1.00  0.00     0.124 S 
ATOM     94  O   UNL A   1      55.433  27.411  23.739  1.00  0.00    -0.237 OA
ATOM     95  O   UNL A   1      55.872  29.319  25.244  1.00  0.00    -0.237 OA
ATOM     96  O   UNL A   1      55.952  27.017  26.118  1.00  0.00    -0.744 OA
ENDBRANCH  92  93
ENDBRANCH  66  87
ENDBRANCH  40  41
ENDBRANCH  33  35
ENDBRANCH  32  33
ENDBRANCH  31  32
ENDBRANCH   1  31
TORSDOF 20
ENDMDL
