MODEL 1
REMARK VINA RESULT:     -10.3      0.000      0.000
REMARK SMILES CC(C)(C[N@@H+]1C[C@@H]2C[NH2+]C[C@H]2C1(C)C)C(=O)OCCOCCOC(=O)c1ccc(-c2c3nc(c(-c4ccc(S(=O)(=O)[O-])cc4)c4ccc([nH]4)c(-c4ccc(S(=O)(=O)[O-])cc4)c4nc(c(-c5ccc(S(=O)(=O)[O-])cc5)c5ccc2[nH]5)C=C4)C=C3)cc1
REMARK SMILES IDX 21 1 20 2 19 3 18 4 17 5 15 6 16 7 2 8 1 9 3 10 4 11 5 12
REMARK SMILES IDX 6 13 12 14 7 16 11 17 13 18 14 19 8 20 10 21 9 22 22 25
REMARK SMILES IDX 23 26 24 27 25 28 26 29 27 30 85 31 28 32 84 33 29 34 30 35
REMARK SMILES IDX 31 36 78 37 32 38 83 39 77 40 79 41 33 42 82 43 76 44 75 45
REMARK SMILES IDX 34 47 64 48 45 49 63 50 46 51 49 52 62 53 80 54 47 55 48 56
REMARK SMILES IDX 61 58 81 59 50 60 35 61 36 62 44 63 37 64 43 65 38 66 39 67
REMARK SMILES IDX 40 68 41 69 42 70 65 71 66 72 74 73 67 74 73 75 68 76 69 77
REMARK SMILES IDX 70 78 71 79 72 80 51 81 52 82 60 83 53 84 59 85 54 86 55 87
REMARK SMILES IDX 56 88 57 89 58 90
REMARK H PARENT 5 15 9 23 9 24 79 46 49 57
REMARK Flexibility Score: inf
ROOT
ATOM      1  C   UNL A   1      43.466  22.273  26.031  1.00  0.00     0.202 C 
ENDROOT
BRANCH   1   2
ATOM      2  O   UNL A   1      42.234  21.912  25.425  1.00  0.00    -0.374 OA
BRANCH   2   3
ATOM      3  C   UNL A   1      41.230  21.279  26.216  1.00  0.00     0.202 C 
BRANCH   3   4
ATOM      4  C   UNL A   1      39.959  22.071  26.536  1.00  0.00     0.261 C 
BRANCH   4   5
ATOM      5  O   UNL A   1      38.817  21.783  25.690  1.00  0.00    -0.463 OA
BRANCH   5   6
ATOM      6  C   UNL A   1      37.815  22.712  25.718  1.00  0.00     0.317 C 
ATOM      7  O   UNL A   1      37.900  23.772  26.330  1.00  0.00    -0.251 OA
BRANCH   6   8
ATOM      8  C   UNL A   1      36.511  22.229  25.049  1.00  0.00     0.111 C 
ATOM      9  C   UNL A   1      36.542  20.683  24.991  1.00  0.00     0.029 C 
ATOM     10  C   UNL A   1      36.602  22.723  23.587  1.00  0.00     0.029 C 
BRANCH   8  11
ATOM     11  C   UNL A   1      35.201  22.785  25.707  1.00  0.00     0.280 C 
BRANCH  11  12
ATOM     12  N   UNL A   1      34.377  23.638  24.854  1.00  0.00    -0.329 N 
ATOM     13  C   UNL A   1      34.524  25.098  24.960  1.00  0.00     0.272 C 
ATOM     14  C   UNL A   1      33.001  23.293  24.416  1.00  0.00     0.101 C 
ATOM     15  H   UNL A   1      34.936  23.264  24.087  1.00  0.00     0.348 HD
ATOM     16  C   UNL A   1      33.740  25.466  23.726  1.00  0.00     0.114 C 
ATOM     17  C   UNL A   1      32.482  24.653  23.928  1.00  0.00     0.119 C 
ATOM     18  C   UNL A   1      33.066  22.267  23.281  1.00  0.00     0.079 C 
ATOM     19  C   UNL A   1      32.073  22.846  25.558  1.00  0.00     0.079 C 
ATOM     20  C   UNL A   1      33.125  26.801  23.405  1.00  0.00     0.270 C 
ATOM     21  C   UNL A   1      31.755  24.963  22.647  1.00  0.00     0.271 C 
ATOM     22  N   UNL A   1      32.001  26.428  22.488  1.00  0.00    -0.345 N 
ATOM     23  H   UNL A   1      32.256  26.635  21.522  1.00  0.00     0.346 HD
ATOM     24  H   UNL A   1      31.161  26.959  22.717  1.00  0.00     0.346 HD
ENDBRANCH  11  12
ENDBRANCH   8  11
ENDBRANCH   6   8
ENDBRANCH   5   6
ENDBRANCH   4   5
ENDBRANCH   3   4
ENDBRANCH   2   3
ENDBRANCH   1   2
BRANCH   1  25
ATOM     25  C   UNL A   1      43.697  23.745  26.376  1.00  0.00     0.261 C 
BRANCH  25  26
ATOM     26  O   UNL A   1      42.529  24.381  26.876  1.00  0.00    -0.460 OA
BRANCH  26  27
ATOM     27  C   UNL A   1      42.139  25.526  26.284  1.00  0.00     0.338 C 
ATOM     28  O   UNL A   1      42.233  25.842  25.115  1.00  0.00    -0.246 OA
BRANCH  27  29
ATOM     29  C   UNL A   1      41.647  26.392  27.365  1.00  0.00     0.060 A 
ATOM     30  C   UNL A   1      42.264  27.628  27.576  1.00  0.00     0.016 A 
ATOM     31  C   UNL A   1      40.574  25.976  28.160  1.00  0.00     0.016 A 
ATOM     32  C   UNL A   1      41.849  28.426  28.632  1.00  0.00     0.010 A 
ATOM     33  C   UNL A   1      40.133  26.800  29.198  1.00  0.00     0.010 A 
ATOM     34  C   UNL A   1      40.799  28.007  29.464  1.00  0.00    -0.014 A 
BRANCH  34  35
ATOM     35  C   UNL A   1      40.498  28.814  30.668  1.00  0.00     0.031 A 
ATOM     36  C   UNL A   1      41.378  28.683  31.878  1.00  0.00     0.074 A 
ATOM     37  C   UNL A   1      39.519  29.735  30.624  1.00  0.00     0.049 A 
ATOM     38  N   UNL A   1      41.417  29.425  32.953  1.00  0.00    -0.248 NA
ATOM     39  C   UNL A   1      42.348  27.575  31.878  1.00  0.00     0.031 C 
ATOM     40  C   UNL A   1      38.612  29.949  29.495  1.00  0.00     0.029 A 
ATOM     41  N   UNL A   1      39.147  30.687  31.538  1.00  0.00    -0.354 N 
ATOM     42  C   UNL A   1      42.421  28.887  33.749  1.00  0.00     0.074 A 
ATOM     43  C   UNL A   1      42.935  27.726  33.055  1.00  0.00     0.031 C 
ATOM     44  C   UNL A   1      37.812  30.993  29.768  1.00  0.00     0.029 A 
ATOM     45  C   UNL A   1      38.139  31.510  31.094  1.00  0.00     0.049 A 
ATOM     46  H   UNL A   1      39.561  30.773  32.426  1.00  0.00     0.167 HD
ATOM     47  C   UNL A   1      42.882  29.329  34.943  1.00  0.00     0.031 A 
ATOM     48  C   UNL A   1      37.559  32.572  31.685  1.00  0.00     0.031 A 
ATOM     49  C   UNL A   1      42.347  30.471  35.635  1.00  0.00     0.049 A 
ATOM     50  C   UNL A   1      38.071  33.026  33.025  1.00  0.00     0.074 A 
ATOM     51  C   UNL A   1      42.741  31.009  36.847  1.00  0.00     0.029 A 
ATOM     52  N   UNL A   1      41.293  31.247  35.177  1.00  0.00    -0.354 N 
ATOM     53  N   UNL A   1      39.052  32.531  33.743  1.00  0.00    -0.248 NA
ATOM     54  C   UNL A   1      37.412  34.195  33.622  1.00  0.00     0.031 C 
ATOM     55  C   UNL A   1      41.891  32.080  37.146  1.00  0.00     0.029 A 
ATOM     56  C   UNL A   1      41.006  32.246  36.092  1.00  0.00     0.049 A 
ATOM     57  H   UNL A   1      40.817  31.109  34.325  1.00  0.00     0.167 HD
ATOM     58  C   UNL A   1      39.141  33.342  34.870  1.00  0.00     0.074 A 
ATOM     59  C   UNL A   1      38.131  34.371  34.722  1.00  0.00     0.031 C 
ATOM     60  C   UNL A   1      39.982  33.247  35.932  1.00  0.00     0.031 A 
BRANCH  47  61
ATOM     61  C   UNL A   1      44.003  28.552  35.583  1.00  0.00    -0.014 A 
ATOM     62  C   UNL A   1      43.747  27.582  36.570  1.00  0.00     0.010 A 
ATOM     63  C   UNL A   1      45.330  28.778  35.177  1.00  0.00     0.010 A 
ATOM     64  C   UNL A   1      44.800  26.881  37.165  1.00  0.00     0.020 A 
ATOM     65  C   UNL A   1      46.384  28.061  35.752  1.00  0.00     0.020 A 
ATOM     66  C   UNL A   1      46.113  27.128  36.755  1.00  0.00     0.054 A 
BRANCH  66  67
ATOM     67  S   UNL A   1      47.460  26.194  37.531  1.00  0.00     0.124 S 
ATOM     68  O   UNL A   1      46.928  24.834  37.522  1.00  0.00    -0.237 OA
ATOM     69  O   UNL A   1      48.582  26.436  36.627  1.00  0.00    -0.237 OA
ATOM     70  O   UNL A   1      47.587  26.803  38.854  1.00  0.00    -0.744 OA
ENDBRANCH  66  67
ENDBRANCH  47  61
BRANCH  48  71
ATOM     71  C   UNL A   1      36.443  33.282  31.003  1.00  0.00    -0.014 A 
ATOM     72  C   UNL A   1      35.160  33.336  31.575  1.00  0.00     0.010 A 
ATOM     73  C   UNL A   1      36.669  33.926  29.772  1.00  0.00     0.010 A 
ATOM     74  C   UNL A   1      34.121  34.008  30.922  1.00  0.00     0.020 A 
ATOM     75  C   UNL A   1      35.641  34.621  29.130  1.00  0.00     0.020 A 
ATOM     76  C   UNL A   1      34.369  34.648  29.704  1.00  0.00     0.054 A 
BRANCH  76  77
ATOM     77  S   UNL A   1      33.023  35.563  28.901  1.00  0.00     0.124 S 
ATOM     78  O   UNL A   1      32.383  34.523  28.103  1.00  0.00    -0.237 OA
ATOM     79  O   UNL A   1      32.252  36.056  30.039  1.00  0.00    -0.237 OA
ATOM     80  O   UNL A   1      33.723  36.596  28.140  1.00  0.00    -0.744 OA
ENDBRANCH  76  77
ENDBRANCH  48  71
BRANCH  60  81
ATOM     81  C   UNL A   1      39.849  34.298  37.002  1.00  0.00    -0.014 A 
ATOM     82  C   UNL A   1      39.044  34.085  38.135  1.00  0.00     0.010 A 
ATOM     83  C   UNL A   1      40.550  35.510  36.876  1.00  0.00     0.010 A 
ATOM     84  C   UNL A   1      38.898  35.090  39.095  1.00  0.00     0.020 A 
ATOM     85  C   UNL A   1      40.431  36.505  37.848  1.00  0.00     0.020 A 
ATOM     86  C   UNL A   1      39.587  36.297  38.940  1.00  0.00     0.054 A 
BRANCH  86  87
ATOM     87  S   UNL A   1      39.382  37.588  40.197  1.00  0.00     0.124 S 
ATOM     88  O   UNL A   1      39.044  36.805  41.382  1.00  0.00    -0.237 OA
ATOM     89  O   UNL A   1      40.695  38.229  40.219  1.00  0.00    -0.237 OA
ATOM     90  O   UNL A   1      38.301  38.417  39.668  1.00  0.00    -0.744 OA
ENDBRANCH  86  87
ENDBRANCH  60  81
ENDBRANCH  34  35
ENDBRANCH  27  29
ENDBRANCH  26  27
ENDBRANCH  25  26
ENDBRANCH   1  25
TORSDOF 19
ENDMDL
MODEL 2
REMARK VINA RESULT:     -10.1      1.098      2.037
REMARK SMILES CC(C)(C[N@@H+]1C[C@@H]2C[NH2+]C[C@H]2C1(C)C)C(=O)OCCOCCOC(=O)c1ccc(-c2c3nc(c(-c4ccc(S(=O)(=O)[O-])cc4)c4ccc([nH]4)c(-c4ccc(S(=O)(=O)[O-])cc4)c4nc(c(-c5ccc(S(=O)(=O)[O-])cc5)c5ccc2[nH]5)C=C4)C=C3)cc1
REMARK SMILES IDX 21 1 20 2 19 3 18 4 17 5 15 6 16 7 2 8 1 9 3 10 4 11 5 12
REMARK SMILES IDX 6 13 12 14 7 16 11 17 13 18 14 19 8 20 10 21 9 22 22 25
REMARK SMILES IDX 23 26 24 27 25 28 26 29 27 30 85 31 28 32 84 33 29 34 30 35
REMARK SMILES IDX 31 36 78 37 32 38 83 39 77 40 79 41 33 42 82 43 76 44 75 45
REMARK SMILES IDX 34 47 64 48 45 49 63 50 46 51 49 52 62 53 80 54 47 55 48 56
REMARK SMILES IDX 61 58 81 59 50 60 35 61 36 62 44 63 37 64 43 65 38 66 39 67
REMARK SMILES IDX 40 68 41 69 42 70 65 71 66 72 74 73 67 74 73 75 68 76 69 77
REMARK SMILES IDX 70 78 71 79 72 80 51 81 52 82 60 83 53 84 59 85 54 86 55 87
REMARK SMILES IDX 56 88 57 89 58 90
REMARK H PARENT 5 15 9 23 9 24 79 46 49 57
REMARK Flexibility Score: inf
ROOT
ATOM      1  C   UNL A   1      40.683  22.494  27.706  1.00  0.00     0.202 C 
ENDROOT
BRANCH   1   2
ATOM      2  O   UNL A   1      40.222  21.210  27.314  1.00  0.00    -0.374 OA
BRANCH   2   3
ATOM      3  C   UNL A   1      40.060  20.923  25.927  1.00  0.00     0.202 C 
BRANCH   3   4
ATOM      4  C   UNL A   1      38.640  20.729  25.391  1.00  0.00     0.261 C 
BRANCH   4   5
ATOM      5  O   UNL A   1      37.719  21.816  25.661  1.00  0.00    -0.463 OA
BRANCH   5   6
ATOM      6  C   UNL A   1      36.775  22.041  24.698  1.00  0.00     0.317 C 
ATOM      7  O   UNL A   1      36.987  22.714  23.695  1.00  0.00    -0.251 OA
BRANCH   6   8
ATOM      8  C   UNL A   1      35.376  21.510  25.075  1.00  0.00     0.111 C 
ATOM      9  C   UNL A   1      35.130  21.816  26.571  1.00  0.00     0.029 C 
ATOM     10  C   UNL A   1      35.484  19.972  24.954  1.00  0.00     0.029 C 
BRANCH   8  11
ATOM     11  C   UNL A   1      34.217  22.026  24.152  1.00  0.00     0.280 C 
BRANCH  11  12
ATOM     12  N   UNL A   1      33.068  22.605  24.843  1.00  0.00    -0.329 N 
ATOM     13  C   UNL A   1      31.985  21.713  25.286  1.00  0.00     0.272 C 
ATOM     14  C   UNL A   1      32.533  23.963  24.571  1.00  0.00     0.101 C 
ATOM     15  H   UNL A   1      33.727  22.792  25.600  1.00  0.00     0.348 HD
ATOM     16  C   UNL A   1      31.260  22.703  26.162  1.00  0.00     0.114 C 
ATOM     17  C   UNL A   1      31.150  23.888  25.232  1.00  0.00     0.119 C 
ATOM     18  C   UNL A   1      33.429  25.011  25.238  1.00  0.00     0.079 C 
ATOM     19  C   UNL A   1      32.299  24.257  23.079  1.00  0.00     0.079 C 
ATOM     20  C   UNL A   1      29.834  22.623  26.634  1.00  0.00     0.270 C 
ATOM     21  C   UNL A   1      30.507  24.891  26.152  1.00  0.00     0.271 C 
ATOM     22  N   UNL A   1      29.488  24.063  26.863  1.00  0.00    -0.345 N 
ATOM     23  H   UNL A   1      29.505  24.271  27.862  1.00  0.00     0.346 HD
ATOM     24  H   UNL A   1      28.552  24.266  26.512  1.00  0.00     0.346 HD
ENDBRANCH  11  12
ENDBRANCH   8  11
ENDBRANCH   6   8
ENDBRANCH   5   6
ENDBRANCH   4   5
ENDBRANCH   3   4
ENDBRANCH   2   3
ENDBRANCH   1   2
BRANCH   1  25
ATOM     25  C   UNL A   1      41.182  23.446  26.618  1.00  0.00     0.261 C 
BRANCH  25  26
ATOM     26  O   UNL A   1      40.301  24.538  26.398  1.00  0.00    -0.460 OA
BRANCH  26  27
ATOM     27  C   UNL A   1      40.847  25.745  26.157  1.00  0.00     0.338 C 
ATOM     28  O   UNL A   1      41.370  26.147  25.138  1.00  0.00    -0.246 OA
BRANCH  27  29
ATOM     29  C   UNL A   1      40.778  26.480  27.428  1.00  0.00     0.060 A 
ATOM     30  C   UNL A   1      39.766  26.164  28.338  1.00  0.00     0.016 A 
ATOM     31  C   UNL A   1      41.720  27.476  27.712  1.00  0.00     0.016 A 
ATOM     32  C   UNL A   1      39.653  26.894  29.513  1.00  0.00     0.010 A 
ATOM     33  C   UNL A   1      41.626  28.181  28.914  1.00  0.00     0.010 A 
ATOM     34  C   UNL A   1      40.567  27.921  29.796  1.00  0.00    -0.014 A 
BRANCH  34  35
ATOM     35  C   UNL A   1      40.313  28.773  30.981  1.00  0.00     0.031 A 
ATOM     36  C   UNL A   1      41.198  28.634  32.188  1.00  0.00     0.074 A 
ATOM     37  C   UNL A   1      39.377  29.736  30.920  1.00  0.00     0.049 A 
ATOM     38  N   UNL A   1      41.279  29.402  33.242  1.00  0.00    -0.248 NA
ATOM     39  C   UNL A   1      42.116  27.483  32.209  1.00  0.00     0.031 C 
ATOM     40  C   UNL A   1      38.471  29.961  29.791  1.00  0.00     0.029 A 
ATOM     41  N   UNL A   1      39.056  30.728  31.810  1.00  0.00    -0.354 N 
ATOM     42  C   UNL A   1      42.265  28.840  34.044  1.00  0.00     0.074 A 
ATOM     43  C   UNL A   1      42.720  27.639  33.378  1.00  0.00     0.031 C 
ATOM     44  C   UNL A   1      37.722  31.048  30.043  1.00  0.00     0.029 A 
ATOM     45  C   UNL A   1      38.083  31.584  31.352  1.00  0.00     0.049 A 
ATOM     46  H   UNL A   1      39.482  30.819  32.693  1.00  0.00     0.167 HD
ATOM     47  C   UNL A   1      42.756  29.292  35.222  1.00  0.00     0.031 A 
ATOM     48  C   UNL A   1      37.557  32.687  31.918  1.00  0.00     0.031 A 
ATOM     49  C   UNL A   1      42.279  30.475  35.887  1.00  0.00     0.049 A 
ATOM     50  C   UNL A   1      38.101  33.152  33.242  1.00  0.00     0.074 A 
ATOM     51  C   UNL A   1      42.707  31.026  37.082  1.00  0.00     0.029 A 
ATOM     52  N   UNL A   1      41.257  31.286  35.417  1.00  0.00    -0.354 N 
ATOM     53  N   UNL A   1      39.065  32.633  33.966  1.00  0.00    -0.248 NA
ATOM     54  C   UNL A   1      37.501  34.365  33.813  1.00  0.00     0.031 C 
ATOM     55  C   UNL A   1      41.909  32.142  37.358  1.00  0.00     0.029 A 
ATOM     56  C   UNL A   1      41.024  32.321  36.307  1.00  0.00     0.049 A 
ATOM     57  H   UNL A   1      40.768  31.147  34.573  1.00  0.00     0.167 HD
ATOM     58  C   UNL A   1      39.200  33.468  35.070  1.00  0.00     0.074 A 
ATOM     59  C   UNL A   1      38.236  34.538  34.902  1.00  0.00     0.031 C 
ATOM     60  C   UNL A   1      40.044  33.363  36.127  1.00  0.00     0.031 A 
BRANCH  47  61
ATOM     61  C   UNL A   1      43.846  28.482  35.875  1.00  0.00    -0.014 A 
ATOM     62  C   UNL A   1      43.542  27.428  36.757  1.00  0.00     0.010 A 
ATOM     63  C   UNL A   1      45.193  28.763  35.586  1.00  0.00     0.010 A 
ATOM     64  C   UNL A   1      44.566  26.696  37.366  1.00  0.00     0.020 A 
ATOM     65  C   UNL A   1      46.219  28.017  36.174  1.00  0.00     0.020 A 
ATOM     66  C   UNL A   1      45.899  26.999  37.073  1.00  0.00     0.054 A 
BRANCH  66  67
ATOM     67  S   UNL A   1      47.208  26.025  37.865  1.00  0.00     0.124 S 
ATOM     68  O   UNL A   1      47.419  26.758  39.110  1.00  0.00    -0.237 OA
ATOM     69  O   UNL A   1      46.588  24.710  38.009  1.00  0.00    -0.237 OA
ATOM     70  O   UNL A   1      48.313  26.088  36.911  1.00  0.00    -0.744 OA
ENDBRANCH  66  67
ENDBRANCH  47  61
BRANCH  48  71
ATOM     71  C   UNL A   1      36.468  33.428  31.225  1.00  0.00    -0.014 A 
ATOM     72  C   UNL A   1      36.626  33.881  29.904  1.00  0.00     0.010 A 
ATOM     73  C   UNL A   1      35.252  33.673  31.890  1.00  0.00     0.010 A 
ATOM     74  C   UNL A   1      35.594  34.576  29.265  1.00  0.00     0.020 A 
ATOM     75  C   UNL A   1      34.209  34.343  31.246  1.00  0.00     0.020 A 
ATOM     76  C   UNL A   1      34.391  34.801  29.940  1.00  0.00     0.054 A 
BRANCH  76  77
ATOM     77  S   UNL A   1      33.042  35.654  29.075  1.00  0.00     0.124 S 
ATOM     78  O   UNL A   1      32.204  36.099  30.183  1.00  0.00    -0.237 OA
ATOM     79  O   UNL A   1      33.748  36.707  28.349  1.00  0.00    -0.237 OA
ATOM     80  O   UNL A   1      32.465  34.609  28.232  1.00  0.00    -0.744 OA
ENDBRANCH  76  77
ENDBRANCH  48  71
BRANCH  60  81
ATOM     81  C   UNL A   1      39.968  34.446  37.170  1.00  0.00    -0.014 A 
ATOM     82  C   UNL A   1      40.738  35.618  37.060  1.00  0.00     0.010 A 
ATOM     83  C   UNL A   1      39.103  34.294  38.268  1.00  0.00     0.010 A 
ATOM     84  C   UNL A   1      40.687  36.592  38.060  1.00  0.00     0.020 A 
ATOM     85  C   UNL A   1      39.026  35.279  39.254  1.00  0.00     0.020 A 
ATOM     86  C   UNL A   1      39.837  36.411  39.156  1.00  0.00     0.054 A 
BRANCH  86  87
ATOM     87  S   UNL A   1      39.787  37.688  40.443  1.00  0.00     0.124 S 
ATOM     88  O   UNL A   1      38.434  38.215  40.294  1.00  0.00    -0.237 OA
ATOM     89  O   UNL A   1      40.035  36.924  41.664  1.00  0.00    -0.237 OA
ATOM     90  O   UNL A   1      40.859  38.605  40.062  1.00  0.00    -0.744 OA
ENDBRANCH  86  87
ENDBRANCH  60  81
ENDBRANCH  34  35
ENDBRANCH  27  29
ENDBRANCH  26  27
ENDBRANCH  25  26
ENDBRANCH   1  25
TORSDOF 19
ENDMDL
MODEL 3
REMARK VINA RESULT:     -10.1      1.048      1.896
REMARK SMILES CC(C)(C[N@@H+]1C[C@@H]2C[NH2+]C[C@H]2C1(C)C)C(=O)OCCOCCOC(=O)c1ccc(-c2c3nc(c(-c4ccc(S(=O)(=O)[O-])cc4)c4ccc([nH]4)c(-c4ccc(S(=O)(=O)[O-])cc4)c4nc(c(-c5ccc(S(=O)(=O)[O-])cc5)c5ccc2[nH]5)C=C4)C=C3)cc1
REMARK SMILES IDX 21 1 20 2 19 3 18 4 17 5 15 6 16 7 2 8 1 9 3 10 4 11 5 12
REMARK SMILES IDX 6 13 12 14 7 16 11 17 13 18 14 19 8 20 10 21 9 22 22 25
REMARK SMILES IDX 23 26 24 27 25 28 26 29 27 30 85 31 28 32 84 33 29 34 30 35
REMARK SMILES IDX 31 36 78 37 32 38 83 39 77 40 79 41 33 42 82 43 76 44 75 45
REMARK SMILES IDX 34 47 64 48 45 49 63 50 46 51 49 52 62 53 80 54 47 55 48 56
REMARK SMILES IDX 61 58 81 59 50 60 35 61 36 62 44 63 37 64 43 65 38 66 39 67
REMARK SMILES IDX 40 68 41 69 42 70 65 71 66 72 74 73 67 74 73 75 68 76 69 77
REMARK SMILES IDX 70 78 71 79 72 80 51 81 52 82 60 83 53 84 59 85 54 86 55 87
REMARK SMILES IDX 56 88 57 89 58 90
REMARK H PARENT 5 15 9 23 9 24 79 46 49 57
REMARK Flexibility Score: inf
ROOT
ATOM      1  C   UNL A   1      39.769  22.029  26.356  1.00  0.00     0.202 C 
ENDROOT
BRANCH   1   2
ATOM      2  O   UNL A   1      38.366  22.240  26.329  1.00  0.00    -0.374 OA
BRANCH   2   3
ATOM      3  C   UNL A   1      37.700  22.325  25.072  1.00  0.00     0.202 C 
BRANCH   3   4
ATOM      4  C   UNL A   1      36.686  21.235  24.717  1.00  0.00     0.261 C 
BRANCH   4   5
ATOM      5  O   UNL A   1      35.376  21.709  24.316  1.00  0.00    -0.463 OA
BRANCH   5   6
ATOM      6  C   UNL A   1      34.431  21.734  25.304  1.00  0.00     0.317 C 
ATOM      7  O   UNL A   1      34.572  21.163  26.381  1.00  0.00    -0.251 OA
BRANCH   6   8
ATOM      8  C   UNL A   1      33.110  22.403  24.873  1.00  0.00     0.111 C 
ATOM      9  C   UNL A   1      31.960  21.392  25.097  1.00  0.00     0.029 C 
ATOM     10  C   UNL A   1      33.234  22.592  23.344  1.00  0.00     0.029 C 
BRANCH   8  11
ATOM     11  C   UNL A   1      32.836  23.792  25.549  1.00  0.00     0.280 C 
BRANCH  11  12
ATOM     12  N   UNL A   1      32.645  24.915  24.635  1.00  0.00    -0.329 N 
ATOM     13  C   UNL A   1      33.753  25.863  24.438  1.00  0.00     0.272 C 
ATOM     14  C   UNL A   1      31.344  25.595  24.415  1.00  0.00     0.101 C 
ATOM     15  H   UNL A   1      32.631  24.204  23.902  1.00  0.00     0.348 HD
ATOM     16  C   UNL A   1      33.184  26.585  23.242  1.00  0.00     0.114 C 
ATOM     17  C   UNL A   1      31.787  26.894  23.727  1.00  0.00     0.119 C 
ATOM     18  C   UNL A   1      30.464  24.737  23.502  1.00  0.00     0.079 C 
ATOM     19  C   UNL A   1      30.623  26.002  25.711  1.00  0.00     0.079 C 
ATOM     20  C   UNL A   1      33.577  27.944  22.730  1.00  0.00     0.270 C 
ATOM     21  C   UNL A   1      31.210  27.531  22.490  1.00  0.00     0.271 C 
ATOM     22  N   UNL A   1      32.336  28.395  22.024  1.00  0.00    -0.345 N 
ATOM     23  H   UNL A   1      32.454  28.297  21.015  1.00  0.00     0.346 HD
ATOM     24  H   UNL A   1      32.144  29.376  22.229  1.00  0.00     0.346 HD
ENDBRANCH  11  12
ENDBRANCH   8  11
ENDBRANCH   6   8
ENDBRANCH   5   6
ENDBRANCH   4   5
ENDBRANCH   3   4
ENDBRANCH   2   3
ENDBRANCH   1   2
BRANCH   1  25
ATOM     25  C   UNL A   1      40.681  23.248  26.509  1.00  0.00     0.261 C 
BRANCH  25  26
ATOM     26  O   UNL A   1      39.967  24.475  26.466  1.00  0.00    -0.460 OA
BRANCH  26  27
ATOM     27  C   UNL A   1      40.672  25.601  26.245  1.00  0.00     0.338 C 
ATOM     28  O   UNL A   1      41.300  25.916  25.255  1.00  0.00    -0.246 OA
BRANCH  27  29
ATOM     29  C   UNL A   1      40.618  26.364  27.500  1.00  0.00     0.060 A 
ATOM     30  C   UNL A   1      39.642  26.042  28.446  1.00  0.00     0.016 A 
ATOM     31  C   UNL A   1      41.539  27.392  27.734  1.00  0.00     0.016 A 
ATOM     32  C   UNL A   1      39.543  26.795  29.608  1.00  0.00     0.010 A 
ATOM     33  C   UNL A   1      41.460  28.122  28.922  1.00  0.00     0.010 A 
ATOM     34  C   UNL A   1      40.434  27.854  29.841  1.00  0.00    -0.014 A 
BRANCH  34  35
ATOM     35  C   UNL A   1      40.191  28.726  31.013  1.00  0.00     0.031 A 
ATOM     36  C   UNL A   1      41.085  28.607  32.214  1.00  0.00     0.074 A 
ATOM     37  C   UNL A   1      39.254  29.688  30.943  1.00  0.00     0.049 A 
ATOM     38  N   UNL A   1      41.175  29.393  33.255  1.00  0.00    -0.248 NA
ATOM     39  C   UNL A   1      42.003  27.456  32.248  1.00  0.00     0.031 C 
ATOM     40  C   UNL A   1      38.338  29.894  29.819  1.00  0.00     0.029 A 
ATOM     41  N   UNL A   1      38.941  30.694  31.819  1.00  0.00    -0.354 N 
ATOM     42  C   UNL A   1      42.167  28.844  34.059  1.00  0.00     0.074 A 
ATOM     43  C   UNL A   1      42.616  27.631  33.409  1.00  0.00     0.031 C 
ATOM     44  C   UNL A   1      37.592  30.985  30.057  1.00  0.00     0.029 A 
ATOM     45  C   UNL A   1      37.964  31.543  31.354  1.00  0.00     0.049 A 
ATOM     46  H   UNL A   1      39.374  30.800  32.697  1.00  0.00     0.167 HD
ATOM     47  C   UNL A   1      42.668  29.316  35.225  1.00  0.00     0.031 A 
ATOM     48  C   UNL A   1      37.442  32.656  31.906  1.00  0.00     0.031 A 
ATOM     49  C   UNL A   1      42.197  30.510  35.873  1.00  0.00     0.049 A 
ATOM     50  C   UNL A   1      37.998  33.143  33.217  1.00  0.00     0.074 A 
ATOM     51  C   UNL A   1      42.635  31.081  37.055  1.00  0.00     0.029 A 
ATOM     52  N   UNL A   1      41.171  31.314  35.397  1.00  0.00    -0.354 N 
ATOM     53  N   UNL A   1      38.967  32.636  33.942  1.00  0.00    -0.248 NA
ATOM     54  C   UNL A   1      37.403  34.366  33.772  1.00  0.00     0.031 C 
ATOM     55  C   UNL A   1      41.839  32.202  37.319  1.00  0.00     0.029 A 
ATOM     56  C   UNL A   1      40.946  32.363  36.272  1.00  0.00     0.049 A 
ATOM     57  H   UNL A   1      40.675  31.160  34.560  1.00  0.00     0.167 HD
ATOM     58  C   UNL A   1      39.112  33.490  35.030  1.00  0.00     0.074 A 
ATOM     59  C   UNL A   1      38.147  34.557  34.852  1.00  0.00     0.031 C 
ATOM     60  C   UNL A   1      39.965  33.402  36.082  1.00  0.00     0.031 A 
BRANCH  47  61
ATOM     61  C   UNL A   1      43.763  28.516  35.882  1.00  0.00    -0.014 A 
ATOM     62  C   UNL A   1      43.466  27.465  36.769  1.00  0.00     0.010 A 
ATOM     63  C   UNL A   1      45.108  28.806  35.593  1.00  0.00     0.010 A 
ATOM     64  C   UNL A   1      44.494  26.743  37.382  1.00  0.00     0.020 A 
ATOM     65  C   UNL A   1      46.139  28.070  36.185  1.00  0.00     0.020 A 
ATOM     66  C   UNL A   1      45.825  27.053  37.089  1.00  0.00     0.054 A 
BRANCH  66  67
ATOM     67  S   UNL A   1      47.141  26.092  37.886  1.00  0.00     0.124 S 
ATOM     68  O   UNL A   1      46.896  26.362  39.301  1.00  0.00    -0.237 OA
ATOM     69  O   UNL A   1      46.852  24.728  37.449  1.00  0.00    -0.237 OA
ATOM     70  O   UNL A   1      48.369  26.671  37.346  1.00  0.00    -0.744 OA
ENDBRANCH  66  67
ENDBRANCH  47  61
BRANCH  48  71
ATOM     71  C   UNL A   1      36.349  33.386  31.210  1.00  0.00    -0.014 A 
ATOM     72  C   UNL A   1      35.174  33.752  31.889  1.00  0.00     0.010 A 
ATOM     73  C   UNL A   1      36.490  33.734  29.854  1.00  0.00     0.010 A 
ATOM     74  C   UNL A   1      34.154  34.439  31.221  1.00  0.00     0.020 A 
ATOM     75  C   UNL A   1      35.485  34.443  29.190  1.00  0.00     0.020 A 
ATOM     76  C   UNL A   1      34.318  34.782  29.876  1.00  0.00     0.054 A 
BRANCH  76  77
ATOM     77  S   UNL A   1      33.010  35.724  29.043  1.00  0.00     0.124 S 
ATOM     78  O   UNL A   1      32.375  34.700  28.220  1.00  0.00    -0.237 OA
ATOM     79  O   UNL A   1      32.215  36.221  30.163  1.00  0.00    -0.237 OA
ATOM     80  O   UNL A   1      33.746  36.751  28.309  1.00  0.00    -0.744 OA
ENDBRANCH  76  77
ENDBRANCH  48  71
BRANCH  60  81
ATOM     81  C   UNL A   1      39.898  34.503  37.107  1.00  0.00    -0.014 A 
ATOM     82  C   UNL A   1      40.697  35.655  36.992  1.00  0.00     0.010 A 
ATOM     83  C   UNL A   1      39.011  34.388  38.193  1.00  0.00     0.010 A 
ATOM     84  C   UNL A   1      40.652  36.645  37.976  1.00  0.00     0.020 A 
ATOM     85  C   UNL A   1      38.941  35.390  39.163  1.00  0.00     0.020 A 
ATOM     86  C   UNL A   1      39.780  36.502  39.061  1.00  0.00     0.054 A 
BRANCH  86  87
ATOM     87  S   UNL A   1      39.740  37.799  40.328  1.00  0.00     0.124 S 
ATOM     88  O   UNL A   1      39.203  37.080  41.479  1.00  0.00    -0.237 OA
ATOM     89  O   UNL A   1      41.143  38.193  40.430  1.00  0.00    -0.237 OA
ATOM     90  O   UNL A   1      38.855  38.811  39.756  1.00  0.00    -0.744 OA
ENDBRANCH  86  87
ENDBRANCH  60  81
ENDBRANCH  34  35
ENDBRANCH  27  29
ENDBRANCH  26  27
ENDBRANCH  25  26
ENDBRANCH   1  25
TORSDOF 19
ENDMDL
