MODEL 1
REMARK VINA RESULT:     -11.8      0.000      0.000
REMARK SMILES O=C(OCCOCCOC(=O)[C@H]1CC2=c3ccccc3=N[C@H]2[C@@H](c2ccccc2)[NH2+]1)c1ccc(-c2c3nc(c(-c4ccc(S(=O)(=O)[O-])cc4)c4ccc([nH]4)c(-c4ccc(S(=O)(=O)[O-])cc4)c4nc(c(-c5ccc(S(=O)(=O)[O-])cc5)c5ccc2[nH]5)C=C4)C=C3)cc1
REMARK SMILES IDX 5 1 4 2 3 3 2 4 1 5 31 6 32 7 90 8 33 9 89 10 34 11 35 12
REMARK SMILES IDX 36 13 83 14 37 15 88 16 82 17 84 18 38 19 87 20 81 21 80 22
REMARK SMILES IDX 39 24 69 25 50 26 68 27 51 28 54 29 67 30 85 31 52 32 53 33
REMARK SMILES IDX 66 35 86 36 55 37 40 38 41 39 49 40 42 41 48 42 43 43 44 44
REMARK SMILES IDX 45 45 46 46 47 47 70 48 71 49 79 50 72 51 78 52 73 53 74 54
REMARK SMILES IDX 75 55 76 56 77 57 56 58 57 59 65 60 58 61 64 62 59 63 60 64
REMARK SMILES IDX 61 65 62 66 63 67 6 68 7 69 8 70 9 71 10 72 11 73 12 74
REMARK SMILES IDX 13 75 30 76 14 77 23 78 15 81 22 82 16 83 20 84 21 85 17 86
REMARK SMILES IDX 19 87 18 88 24 89 25 90 29 91 26 92 28 93 27 94
REMARK H PARENT 84 23 54 34 30 79 30 80
REMARK Flexibility Score: inf
ROOT
ATOM      1  C   UNL A   1      35.654  21.126  25.229  1.00  0.00     0.202 C 
ENDROOT
BRANCH   1   2
ATOM      2  C   UNL A   1      36.802  22.014  24.726  1.00  0.00     0.261 C 
BRANCH   2   3
ATOM      3  O   UNL A   1      37.289  22.915  25.729  1.00  0.00    -0.460 OA
BRANCH   3   4
ATOM      4  C   UNL A   1      38.538  23.022  26.237  1.00  0.00     0.338 C 
ATOM      5  O   UNL A   1      39.235  22.006  26.244  1.00  0.00    -0.246 OA
BRANCH   4   6
ATOM      6  C   UNL A   1      39.092  24.261  26.882  1.00  0.00     0.060 A 
ATOM      7  C   UNL A   1      39.918  25.069  26.077  1.00  0.00     0.016 A 
ATOM      8  C   UNL A   1      38.922  24.645  28.215  1.00  0.00     0.016 A 
ATOM      9  C   UNL A   1      40.560  26.196  26.598  1.00  0.00     0.010 A 
ATOM     10  C   UNL A   1      39.565  25.751  28.748  1.00  0.00     0.010 A 
ATOM     11  C   UNL A   1      40.381  26.532  27.941  1.00  0.00    -0.014 A 
BRANCH  11  12
ATOM     12  C   UNL A   1      40.868  27.789  28.520  1.00  0.00     0.031 A 
ATOM     13  C   UNL A   1      42.247  27.893  29.080  1.00  0.00     0.074 A 
ATOM     14  C   UNL A   1      39.947  28.753  28.696  1.00  0.00     0.049 A 
ATOM     15  N   UNL A   1      42.824  28.926  29.628  1.00  0.00    -0.248 NA
ATOM     16  C   UNL A   1      43.082  26.679  29.047  1.00  0.00     0.031 C 
ATOM     17  C   UNL A   1      38.543  28.646  28.285  1.00  0.00     0.029 A 
ATOM     18  N   UNL A   1      40.032  29.981  29.287  1.00  0.00    -0.354 N 
ATOM     19  C   UNL A   1      44.099  28.503  29.982  1.00  0.00     0.074 A 
ATOM     20  C   UNL A   1      44.191  27.100  29.644  1.00  0.00     0.031 C 
ATOM     21  C   UNL A   1      37.900  29.770  28.628  1.00  0.00     0.029 A 
ATOM     22  C   UNL A   1      38.844  30.668  29.283  1.00  0.00     0.049 A 
ATOM     23  H   UNL A   1      40.863  30.338  29.676  1.00  0.00     0.167 HD
ATOM     24  C   UNL A   1      45.094  29.244  30.518  1.00  0.00     0.031 A 
ATOM     25  C   UNL A   1      38.554  31.901  29.736  1.00  0.00     0.031 A 
ATOM     26  C   UNL A   1      44.925  30.633  30.872  1.00  0.00     0.049 A 
ATOM     27  C   UNL A   1      39.678  32.720  30.290  1.00  0.00     0.074 A 
ATOM     28  C   UNL A   1      45.874  31.522  31.340  1.00  0.00     0.029 A 
ATOM     29  N   UNL A   1      43.722  31.326  30.810  1.00  0.00    -0.354 N 
ATOM     30  N   UNL A   1      40.929  32.365  30.478  1.00  0.00    -0.248 NA
ATOM     31  C   UNL A   1      39.378  34.106  30.658  1.00  0.00     0.031 C 
ATOM     32  C   UNL A   1      45.230  32.727  31.633  1.00  0.00     0.029 A 
ATOM     33  C   UNL A   1      43.895  32.620  31.267  1.00  0.00     0.049 A 
ATOM     34  H   UNL A   1      42.870  30.951  30.488  1.00  0.00     0.167 HD
ATOM     35  C   UNL A   1      41.573  33.489  30.972  1.00  0.00     0.074 A 
ATOM     36  C   UNL A   1      40.574  34.541  31.034  1.00  0.00     0.031 C 
ATOM     37  C   UNL A   1      42.871  33.638  31.338  1.00  0.00     0.031 A 
BRANCH  24  38
ATOM     38  C   UNL A   1      46.447  28.608  30.724  1.00  0.00    -0.014 A 
ATOM     39  C   UNL A   1      46.837  28.161  32.000  1.00  0.00     0.010 A 
ATOM     40  C   UNL A   1      47.390  28.570  29.679  1.00  0.00     0.010 A 
ATOM     41  C   UNL A   1      48.146  27.726  32.237  1.00  0.00     0.020 A 
ATOM     42  C   UNL A   1      48.691  28.108  29.903  1.00  0.00     0.020 A 
ATOM     43  C   UNL A   1      49.069  27.714  31.188  1.00  0.00     0.054 A 
BRANCH  43  44
ATOM     44  S   UNL A   1      50.774  27.191  31.521  1.00  0.00     0.124 S 
ATOM     45  O   UNL A   1      51.487  27.703  30.355  1.00  0.00    -0.237 OA
ATOM     46  O   UNL A   1      51.073  27.857  32.787  1.00  0.00    -0.237 OA
ATOM     47  O   UNL A   1      50.677  25.735  31.603  1.00  0.00    -0.744 OA
ENDBRANCH  43  44
ENDBRANCH  24  38
BRANCH  25  48
ATOM     48  C   UNL A   1      37.177  32.418  29.527  1.00  0.00    -0.014 A 
ATOM     49  C   UNL A   1      36.822  33.036  28.312  1.00  0.00     0.010 A 
ATOM     50  C   UNL A   1      36.288  32.485  30.613  1.00  0.00     0.010 A 
ATOM     51  C   UNL A   1      35.641  33.777  28.214  1.00  0.00     0.020 A 
ATOM     52  C   UNL A   1      35.093  33.202  30.510  1.00  0.00     0.020 A 
ATOM     53  C   UNL A   1      34.797  33.876  29.323  1.00  0.00     0.054 A 
BRANCH  53  54
ATOM     54  S   UNL A   1      33.336  34.947  29.215  1.00  0.00     0.124 S 
ATOM     55  O   UNL A   1      32.521  34.242  28.228  1.00  0.00    -0.237 OA
ATOM     56  O   UNL A   1      32.824  34.928  30.582  1.00  0.00    -0.237 OA
ATOM     57  O   UNL A   1      33.882  36.228  28.773  1.00  0.00    -0.744 OA
ENDBRANCH  53  54
ENDBRANCH  25  48
BRANCH  37  58
ATOM     58  C   UNL A   1      43.290  34.980  31.874  1.00  0.00    -0.014 A 
ATOM     59  C   UNL A   1      43.080  35.287  33.231  1.00  0.00     0.010 A 
ATOM     60  C   UNL A   1      43.761  35.980  31.006  1.00  0.00     0.010 A 
ATOM     61  C   UNL A   1      43.289  36.582  33.702  1.00  0.00     0.020 A 
ATOM     62  C   UNL A   1      44.004  37.270  31.481  1.00  0.00     0.020 A 
ATOM     63  C   UNL A   1      43.739  37.569  32.820  1.00  0.00     0.054 A 
BRANCH  63  64
ATOM     64  S   UNL A   1      43.960  39.257  33.440  1.00  0.00     0.124 S 
ATOM     65  O   UNL A   1      42.590  39.760  33.456  1.00  0.00    -0.237 OA
ATOM     66  O   UNL A   1      44.568  39.040  34.751  1.00  0.00    -0.237 OA
ATOM     67  O   UNL A   1      44.840  39.874  32.449  1.00  0.00    -0.744 OA
ENDBRANCH  63  64
ENDBRANCH  37  58
ENDBRANCH  11  12
ENDBRANCH   4   6
ENDBRANCH   3   4
ENDBRANCH   2   3
ENDBRANCH   1   2
BRANCH   1  68
ATOM     68  O   UNL A   1      34.676  21.708  26.093  1.00  0.00    -0.374 OA
BRANCH  68  69
ATOM     69  C   UNL A   1      33.660  22.500  25.462  1.00  0.00     0.202 C 
BRANCH  69  70
ATOM     70  C   UNL A   1      32.400  22.614  26.318  1.00  0.00     0.261 C 
BRANCH  70  71
ATOM     71  O   UNL A   1      31.331  22.962  25.427  1.00  0.00    -0.459 OA
BRANCH  71  72
ATOM     72  C   UNL A   1      30.666  24.105  25.734  1.00  0.00     0.365 C 
ATOM     73  O   UNL A   1      30.207  24.391  26.834  1.00  0.00    -0.245 OA
BRANCH  72  74
ATOM     74  C   UNL A   1      30.707  25.053  24.536  1.00  0.00     0.298 C 
ATOM     75  C   UNL A   1      29.473  25.993  24.468  1.00  0.00     0.111 C 
ATOM     76  N   UNL A   1      32.077  25.610  24.368  1.00  0.00    -0.326 N 
ATOM     77  C   UNL A   1      29.669  27.046  23.422  1.00  0.00    -0.024 C 
ATOM     78  C   UNL A   1      32.110  27.006  23.901  1.00  0.00     0.243 C 
ATOM     79  H   UNL A   1      32.576  25.034  23.689  1.00  0.00     0.347 HD
ATOM     80  H   UNL A   1      32.511  25.600  25.291  1.00  0.00     0.347 HD
ATOM     81  C   UNL A   1      28.952  28.116  23.101  1.00  0.00     0.002 A 
ATOM     82  C   UNL A   1      31.023  27.102  22.770  1.00  0.00     0.196 C 
ATOM     83  C   UNL A   1      27.715  28.678  23.530  1.00  0.00     0.010 A 
ATOM     84  C   UNL A   1      29.859  28.845  22.192  1.00  0.00     0.066 A 
ATOM     85  N   UNL A   1      31.042  28.352  21.968  1.00  0.00    -0.270 NA
ATOM     86  C   UNL A   1      27.359  29.883  23.050  1.00  0.00     0.001 A 
ATOM     87  C   UNL A   1      29.366  30.126  21.653  1.00  0.00     0.028 A 
ATOM     88  C   UNL A   1      28.186  30.596  22.087  1.00  0.00     0.002 A 
BRANCH  78  89
ATOM     89  C   UNL A   1      31.959  28.020  25.053  1.00  0.00     0.012 A 
ATOM     90  C   UNL A   1      31.926  29.415  24.858  1.00  0.00     0.010 A 
ATOM     91  C   UNL A   1      31.882  27.558  26.376  1.00  0.00     0.010 A 
ATOM     92  C   UNL A   1      31.907  30.302  25.937  1.00  0.00     0.001 A 
ATOM     93  C   UNL A   1      31.884  28.442  27.457  1.00  0.00     0.001 A 
ATOM     94  C   UNL A   1      31.907  29.815  27.238  1.00  0.00     0.000 A 
ENDBRANCH  78  89
ENDBRANCH  72  74
ENDBRANCH  71  72
ENDBRANCH  70  71
ENDBRANCH  69  70
ENDBRANCH  68  69
ENDBRANCH   1  68
TORSDOF 18
ENDMDL
MODEL 2
REMARK VINA RESULT:     -11.7      1.498      2.687
REMARK SMILES O=C(OCCOCCOC(=O)[C@H]1CC2=c3ccccc3=N[C@H]2[C@@H](c2ccccc2)[NH2+]1)c1ccc(-c2c3nc(c(-c4ccc(S(=O)(=O)[O-])cc4)c4ccc([nH]4)c(-c4ccc(S(=O)(=O)[O-])cc4)c4nc(c(-c5ccc(S(=O)(=O)[O-])cc5)c5ccc2[nH]5)C=C4)C=C3)cc1
REMARK SMILES IDX 5 1 4 2 3 3 2 4 1 5 31 6 32 7 90 8 33 9 89 10 34 11 35 12
REMARK SMILES IDX 36 13 83 14 37 15 88 16 82 17 84 18 38 19 87 20 81 21 80 22
REMARK SMILES IDX 39 24 69 25 50 26 68 27 51 28 54 29 67 30 85 31 52 32 53 33
REMARK SMILES IDX 66 35 86 36 55 37 40 38 41 39 49 40 42 41 48 42 43 43 44 44
REMARK SMILES IDX 45 45 46 46 47 47 70 48 71 49 79 50 72 51 78 52 73 53 74 54
REMARK SMILES IDX 75 55 76 56 77 57 56 58 57 59 65 60 58 61 64 62 59 63 60 64
REMARK SMILES IDX 61 65 62 66 63 67 6 68 7 69 8 70 9 71 10 72 11 73 12 74
REMARK SMILES IDX 13 75 30 76 14 77 23 78 15 81 22 82 16 83 20 84 21 85 17 86
REMARK SMILES IDX 19 87 18 88 24 89 25 90 29 91 26 92 28 93 27 94
REMARK H PARENT 84 23 54 34 30 79 30 80
REMARK Flexibility Score: inf
ROOT
ATOM      1  C   UNL A   1      35.603  21.281  25.084  1.00  0.00     0.202 C 
ENDROOT
BRANCH   1   2
ATOM      2  C   UNL A   1      37.138  21.320  25.104  1.00  0.00     0.261 C 
BRANCH   2   3
ATOM      3  O   UNL A   1      37.657  22.415  25.869  1.00  0.00    -0.460 OA
BRANCH   3   4
ATOM      4  C   UNL A   1      38.942  22.686  26.197  1.00  0.00     0.338 C 
ATOM      5  O   UNL A   1      39.749  21.758  26.135  1.00  0.00    -0.246 OA
BRANCH   4   6
ATOM      6  C   UNL A   1      39.425  24.006  26.726  1.00  0.00     0.060 A 
ATOM      7  C   UNL A   1      39.005  24.351  28.026  1.00  0.00     0.016 A 
ATOM      8  C   UNL A   1      40.186  24.948  26.028  1.00  0.00     0.016 A 
ATOM      9  C   UNL A   1      39.319  25.593  28.584  1.00  0.00     0.010 A 
ATOM     10  C   UNL A   1      40.491  26.189  26.564  1.00  0.00     0.010 A 
ATOM     11  C   UNL A   1      40.063  26.513  27.844  1.00  0.00    -0.014 A 
BRANCH  11  12
ATOM     12  C   UNL A   1      40.587  27.758  28.415  1.00  0.00     0.031 A 
ATOM     13  C   UNL A   1      41.978  27.830  28.953  1.00  0.00     0.074 A 
ATOM     14  C   UNL A   1      39.692  28.743  28.608  1.00  0.00     0.049 A 
ATOM     15  N   UNL A   1      42.587  28.849  29.493  1.00  0.00    -0.248 NA
ATOM     16  C   UNL A   1      42.784  26.597  28.906  1.00  0.00     0.031 C 
ATOM     17  C   UNL A   1      38.279  28.668  28.220  1.00  0.00     0.029 A 
ATOM     18  N   UNL A   1      39.814  29.967  29.198  1.00  0.00    -0.354 N 
ATOM     19  C   UNL A   1      43.857  28.396  29.825  1.00  0.00     0.074 A 
ATOM     20  C   UNL A   1      43.913  26.992  29.484  1.00  0.00     0.031 C 
ATOM     21  C   UNL A   1      37.668  29.806  28.574  1.00  0.00     0.029 A 
ATOM     22  C   UNL A   1      38.643  30.681  29.215  1.00  0.00     0.049 A 
ATOM     23  H   UNL A   1      40.660  30.305  29.574  1.00  0.00     0.167 HD
ATOM     24  C   UNL A   1      44.878  29.115  30.346  1.00  0.00     0.031 A 
ATOM     25  C   UNL A   1      38.388  31.920  29.674  1.00  0.00     0.031 A 
ATOM     26  C   UNL A   1      44.747  30.506  30.704  1.00  0.00     0.049 A 
ATOM     27  C   UNL A   1      39.539  32.712  30.211  1.00  0.00     0.074 A 
ATOM     28  C   UNL A   1      45.723  31.372  31.158  1.00  0.00     0.029 A 
ATOM     29  N   UNL A   1      43.558  31.226  30.663  1.00  0.00    -0.354 N 
ATOM     30  N   UNL A   1      40.785  32.329  30.377  1.00  0.00    -0.248 NA
ATOM     31  C   UNL A   1      39.276  34.104  30.585  1.00  0.00     0.031 C 
ATOM     32  C   UNL A   1      45.111  32.592  31.462  1.00  0.00     0.029 A 
ATOM     33  C   UNL A   1      43.768  32.516  31.118  1.00  0.00     0.049 A 
ATOM     34  H   UNL A   1      42.693  30.871  30.355  1.00  0.00     0.167 HD
ATOM     35  C   UNL A   1      41.462  33.437  30.862  1.00  0.00     0.074 A 
ATOM     36  C   UNL A   1      40.488  34.512  30.942  1.00  0.00     0.031 C 
ATOM     37  C   UNL A   1      42.769  33.556  31.207  1.00  0.00     0.031 A 
BRANCH  24  38
ATOM     38  C   UNL A   1      46.219  28.447  30.529  1.00  0.00    -0.014 A 
ATOM     39  C   UNL A   1      47.121  28.354  29.452  1.00  0.00     0.010 A 
ATOM     40  C   UNL A   1      46.537  27.792  31.734  1.00  0.00     0.010 A 
ATOM     41  C   UNL A   1      48.290  27.592  29.562  1.00  0.00     0.020 A 
ATOM     42  C   UNL A   1      47.720  27.054  31.859  1.00  0.00     0.020 A 
ATOM     43  C   UNL A   1      48.576  26.937  30.763  1.00  0.00     0.054 A 
BRANCH  43  44
ATOM     44  S   UNL A   1      50.073  25.917  30.875  1.00  0.00     0.124 S 
ATOM     45  O   UNL A   1      51.110  26.917  31.109  1.00  0.00    -0.237 OA
ATOM     46  O   UNL A   1      49.777  25.037  32.004  1.00  0.00    -0.237 OA
ATOM     47  O   UNL A   1      50.131  25.250  29.577  1.00  0.00    -0.744 OA
ENDBRANCH  43  44
ENDBRANCH  24  38
BRANCH  25  48
ATOM     48  C   UNL A   1      37.020  32.469  29.488  1.00  0.00    -0.014 A 
ATOM     49  C   UNL A   1      36.665  33.112  28.286  1.00  0.00     0.010 A 
ATOM     50  C   UNL A   1      36.144  32.537  30.585  1.00  0.00     0.010 A 
ATOM     51  C   UNL A   1      35.498  33.879  28.213  1.00  0.00     0.020 A 
ATOM     52  C   UNL A   1      34.963  33.280  30.506  1.00  0.00     0.020 A 
ATOM     53  C   UNL A   1      34.668  33.978  29.333  1.00  0.00     0.054 A 
BRANCH  53  54
ATOM     54  S   UNL A   1      33.229  35.081  29.256  1.00  0.00     0.124 S 
ATOM     55  O   UNL A   1      33.837  36.337  28.825  1.00  0.00    -0.237 OA
ATOM     56  O   UNL A   1      32.376  34.423  28.270  1.00  0.00    -0.237 OA
ATOM     57  O   UNL A   1      32.717  35.072  30.625  1.00  0.00    -0.744 OA
ENDBRANCH  53  54
ENDBRANCH  25  48
BRANCH  37  58
ATOM     58  C   UNL A   1      43.227  34.888  31.738  1.00  0.00    -0.014 A 
ATOM     59  C   UNL A   1      43.010  35.213  33.089  1.00  0.00     0.010 A 
ATOM     60  C   UNL A   1      43.744  35.863  30.868  1.00  0.00     0.010 A 
ATOM     61  C   UNL A   1      43.257  36.505  33.552  1.00  0.00     0.020 A 
ATOM     62  C   UNL A   1      44.025  37.148  31.335  1.00  0.00     0.020 A 
ATOM     63  C   UNL A   1      43.753  37.468  32.668  1.00  0.00     0.054 A 
BRANCH  63  64
ATOM     64  S   UNL A   1      44.024  39.153  33.277  1.00  0.00     0.124 S 
ATOM     65  O   UNL A   1      42.685  39.541  33.711  1.00  0.00    -0.237 OA
ATOM     66  O   UNL A   1      45.002  38.955  34.345  1.00  0.00    -0.237 OA
ATOM     67  O   UNL A   1      44.530  39.863  32.104  1.00  0.00    -0.744 OA
ENDBRANCH  63  64
ENDBRANCH  37  58
ENDBRANCH  11  12
ENDBRANCH   4   6
ENDBRANCH   3   4
ENDBRANCH   2   3
ENDBRANCH   1   2
BRANCH   1  68
ATOM     68  O   UNL A   1      34.960  20.074  24.672  1.00  0.00    -0.374 OA
BRANCH  68  69
ATOM     69  C   UNL A   1      33.603  20.197  24.220  1.00  0.00     0.202 C 
BRANCH  69  70
ATOM     70  C   UNL A   1      32.596  19.826  25.307  1.00  0.00     0.261 C 
BRANCH  70  71
ATOM     71  O   UNL A   1      31.842  21.013  25.588  1.00  0.00    -0.459 OA
BRANCH  71  72
ATOM     72  C   UNL A   1      32.316  21.775  26.606  1.00  0.00     0.365 C 
ATOM     73  O   UNL A   1      33.204  21.452  27.386  1.00  0.00    -0.245 OA
BRANCH  72  74
ATOM     74  C   UNL A   1      31.677  23.163  26.542  1.00  0.00     0.298 C 
ATOM     75  C   UNL A   1      32.725  24.308  26.511  1.00  0.00     0.111 C 
ATOM     76  N   UNL A   1      30.544  23.163  25.577  1.00  0.00    -0.326 N 
ATOM     77  C   UNL A   1      32.064  25.619  26.220  1.00  0.00    -0.024 C 
ATOM     78  C   UNL A   1      30.394  24.418  24.821  1.00  0.00     0.243 C 
ATOM     79  H   UNL A   1      29.682  22.997  26.097  1.00  0.00     0.347 HD
ATOM     80  H   UNL A   1      30.742  22.432  24.894  1.00  0.00     0.347 HD
ATOM     81  C   UNL A   1      32.563  26.826  25.978  1.00  0.00     0.002 A 
ATOM     82  C   UNL A   1      30.603  25.572  25.867  1.00  0.00     0.196 C 
ATOM     83  C   UNL A   1      33.867  27.401  25.955  1.00  0.00     0.010 A 
ATOM     84  C   UNL A   1      31.380  27.569  25.501  1.00  0.00     0.066 A 
ATOM     85  N   UNL A   1      30.250  26.936  25.395  1.00  0.00    -0.270 NA
ATOM     86  C   UNL A   1      33.998  28.670  25.528  1.00  0.00     0.001 A 
ATOM     87  C   UNL A   1      31.595  28.977  25.117  1.00  0.00     0.028 A 
ATOM     88  C   UNL A   1      32.846  29.464  25.129  1.00  0.00     0.002 A 
BRANCH  78  89
ATOM     89  C   UNL A   1      31.306  24.475  23.579  1.00  0.00     0.012 A 
ATOM     90  C   UNL A   1      32.237  23.469  23.255  1.00  0.00     0.010 A 
ATOM     91  C   UNL A   1      31.247  25.590  22.729  1.00  0.00     0.010 A 
ATOM     92  C   UNL A   1      33.125  23.615  22.187  1.00  0.00     0.001 A 
ATOM     93  C   UNL A   1      32.147  25.748  21.673  1.00  0.00     0.001 A 
ATOM     94  C   UNL A   1      33.094  24.765  21.408  1.00  0.00     0.000 A 
ENDBRANCH  78  89
ENDBRANCH  72  74
ENDBRANCH  71  72
ENDBRANCH  70  71
ENDBRANCH  69  70
ENDBRANCH  68  69
ENDBRANCH   1  68
TORSDOF 18
ENDMDL
MODEL 3
REMARK VINA RESULT:     -11.2      3.899      5.245
REMARK SMILES O=C(OCCOCCOC(=O)[C@H]1CC2=c3ccccc3=N[C@H]2[C@@H](c2ccccc2)[NH2+]1)c1ccc(-c2c3nc(c(-c4ccc(S(=O)(=O)[O-])cc4)c4ccc([nH]4)c(-c4ccc(S(=O)(=O)[O-])cc4)c4nc(c(-c5ccc(S(=O)(=O)[O-])cc5)c5ccc2[nH]5)C=C4)C=C3)cc1
REMARK SMILES IDX 5 1 4 2 3 3 2 4 1 5 31 6 32 7 90 8 33 9 89 10 34 11 35 12
REMARK SMILES IDX 36 13 83 14 37 15 88 16 82 17 84 18 38 19 87 20 81 21 80 22
REMARK SMILES IDX 39 24 69 25 50 26 68 27 51 28 54 29 67 30 85 31 52 32 53 33
REMARK SMILES IDX 66 35 86 36 55 37 40 38 41 39 49 40 42 41 48 42 43 43 44 44
REMARK SMILES IDX 45 45 46 46 47 47 70 48 71 49 79 50 72 51 78 52 73 53 74 54
REMARK SMILES IDX 75 55 76 56 77 57 56 58 57 59 65 60 58 61 64 62 59 63 60 64
REMARK SMILES IDX 61 65 62 66 63 67 6 68 7 69 8 70 9 71 10 72 11 73 12 74
REMARK SMILES IDX 13 75 30 76 14 77 23 78 15 81 22 82 16 83 20 84 21 85 17 86
REMARK SMILES IDX 19 87 18 88 24 89 25 90 29 91 26 92 28 93 27 94
REMARK H PARENT 84 23 54 34 30 79 30 80
REMARK Flexibility Score: inf
ROOT
ATOM      1  C   UNL A   1      40.620  22.472  27.383  1.00  0.00     0.202 C 
ENDROOT
BRANCH   1   2
ATOM      2  C   UNL A   1      42.015  23.109  27.313  1.00  0.00     0.261 C 
BRANCH   2   3
ATOM      3  O   UNL A   1      42.158  24.016  26.212  1.00  0.00    -0.460 OA
BRANCH   3   4
ATOM      4  C   UNL A   1      41.826  25.326  26.146  1.00  0.00     0.338 C 
ATOM      5  O   UNL A   1      41.786  25.844  25.030  1.00  0.00    -0.246 OA
BRANCH   4   6
ATOM      6  C   UNL A   1      41.605  26.209  27.341  1.00  0.00     0.060 A 
ATOM      7  C   UNL A   1      42.568  27.212  27.565  1.00  0.00     0.016 A 
ATOM      8  C   UNL A   1      40.580  26.083  28.284  1.00  0.00     0.016 A 
ATOM      9  C   UNL A   1      42.512  28.032  28.695  1.00  0.00     0.010 A 
ATOM     10  C   UNL A   1      40.523  26.879  29.417  1.00  0.00     0.010 A 
ATOM     11  C   UNL A   1      41.485  27.859  29.623  1.00  0.00    -0.014 A 
BRANCH  11  12
ATOM     12  C   UNL A   1      41.249  28.786  30.735  1.00  0.00     0.031 A 
ATOM     13  C   UNL A   1      41.998  28.652  32.019  1.00  0.00     0.074 A 
ATOM     14  C   UNL A   1      40.198  29.613  30.601  1.00  0.00     0.049 A 
ATOM     15  N   UNL A   1      41.904  29.384  33.093  1.00  0.00    -0.248 NA
ATOM     16  C   UNL A   1      42.959  27.539  32.126  1.00  0.00     0.031 C 
ATOM     17  C   UNL A   1      39.345  29.687  29.410  1.00  0.00     0.029 A 
ATOM     18  N   UNL A   1      39.645  30.513  31.466  1.00  0.00    -0.354 N 
ATOM     19  C   UNL A   1      42.809  28.845  33.998  1.00  0.00     0.074 A 
ATOM     20  C   UNL A   1      43.400  27.684  33.370  1.00  0.00     0.031 C 
ATOM     21  C   UNL A   1      38.382  30.594  29.617  1.00  0.00     0.029 A 
ATOM     22  C   UNL A   1      38.548  31.158  30.952  1.00  0.00     0.049 A 
ATOM     23  H   UNL A   1      39.998  30.683  32.369  1.00  0.00     0.167 HD
ATOM     24  C   UNL A   1      43.120  29.311  35.229  1.00  0.00     0.031 A 
ATOM     25  C   UNL A   1      37.776  32.119  31.489  1.00  0.00     0.031 A 
ATOM     26  C   UNL A   1      42.464  30.453  35.818  1.00  0.00     0.049 A 
ATOM     27  C   UNL A   1      38.160  32.647  32.836  1.00  0.00     0.074 A 
ATOM     28  C   UNL A   1      42.742  31.080  37.017  1.00  0.00     0.029 A 
ATOM     29  N   UNL A   1      41.386  31.126  35.253  1.00  0.00    -0.354 N 
ATOM     30  N   UNL A   1      39.125  32.236  33.627  1.00  0.00    -0.248 NA
ATOM     31  C   UNL A   1      37.392  33.783  33.353  1.00  0.00     0.031 C 
ATOM     32  C   UNL A   1      41.787  32.082  37.212  1.00  0.00     0.029 A 
ATOM     33  C   UNL A   1      40.964  32.138  36.096  1.00  0.00     0.049 A 
ATOM     34  H   UNL A   1      40.982  30.913  34.380  1.00  0.00     0.167 HD
ATOM     35  C   UNL A   1      39.094  33.073  34.732  1.00  0.00     0.074 A 
ATOM     36  C   UNL A   1      38.024  34.027  34.495  1.00  0.00     0.031 C 
ATOM     37  C   UNL A   1      39.877  33.056  35.839  1.00  0.00     0.031 A 
BRANCH  24  38
ATOM     38  C   UNL A   1      44.221  28.632  36.008  1.00  0.00    -0.014 A 
ATOM     39  C   UNL A   1      43.913  27.656  36.974  1.00  0.00     0.010 A 
ATOM     40  C   UNL A   1      45.558  29.055  35.878  1.00  0.00     0.010 A 
ATOM     41  C   UNL A   1      44.907  27.145  37.817  1.00  0.00     0.020 A 
ATOM     42  C   UNL A   1      46.560  28.525  36.698  1.00  0.00     0.020 A 
ATOM     43  C   UNL A   1      46.223  27.593  37.681  1.00  0.00     0.054 A 
BRANCH  43  44
ATOM     44  S   UNL A   1      47.492  26.954  38.811  1.00  0.00     0.124 S 
ATOM     45  O   UNL A   1      47.201  25.524  38.825  1.00  0.00    -0.237 OA
ATOM     46  O   UNL A   1      48.735  27.340  38.148  1.00  0.00    -0.237 OA
ATOM     47  O   UNL A   1      47.221  27.658  40.063  1.00  0.00    -0.744 OA
ENDBRANCH  43  44
ENDBRANCH  24  38
BRANCH  25  48
ATOM     48  C   UNL A   1      36.685  32.689  30.656  1.00  0.00    -0.014 A 
ATOM     49  C   UNL A   1      36.952  33.726  29.741  1.00  0.00     0.010 A 
ATOM     50  C   UNL A   1      35.351  32.344  30.929  1.00  0.00     0.010 A 
ATOM     51  C   UNL A   1      35.904  34.459  29.177  1.00  0.00     0.020 A 
ATOM     52  C   UNL A   1      34.300  33.058  30.346  1.00  0.00     0.020 A 
ATOM     53  C   UNL A   1      34.584  34.135  29.504  1.00  0.00     0.054 A 
BRANCH  53  54
ATOM     54  S   UNL A   1      33.246  35.179  28.864  1.00  0.00     0.124 S 
ATOM     55  O   UNL A   1      32.557  34.262  27.960  1.00  0.00    -0.237 OA
ATOM     56  O   UNL A   1      32.514  35.538  30.075  1.00  0.00    -0.237 OA
ATOM     57  O   UNL A   1      33.952  36.282  28.215  1.00  0.00    -0.744 OA
ENDBRANCH  53  54
ENDBRANCH  25  48
BRANCH  37  58
ATOM     58  C   UNL A   1      39.593  34.080  36.905  1.00  0.00    -0.014 A 
ATOM     59  C   UNL A   1      40.203  35.346  36.837  1.00  0.00     0.010 A 
ATOM     60  C   UNL A   1      38.837  33.738  38.039  1.00  0.00     0.010 A 
ATOM     61  C   UNL A   1      40.100  36.237  37.905  1.00  0.00     0.020 A 
ATOM     62  C   UNL A   1      38.704  34.640  39.096  1.00  0.00     0.020 A 
ATOM     63  C   UNL A   1      39.360  35.872  39.033  1.00  0.00     0.054 A 
BRANCH  63  64
ATOM     64  S   UNL A   1      39.277  37.024  40.430  1.00  0.00     0.124 S 
ATOM     65  O   UNL A   1      38.515  36.259  41.413  1.00  0.00    -0.237 OA
ATOM     66  O   UNL A   1      40.686  37.238  40.753  1.00  0.00    -0.237 OA
ATOM     67  O   UNL A   1      38.590  38.188  39.875  1.00  0.00    -0.744 OA
ENDBRANCH  63  64
ENDBRANCH  37  58
ENDBRANCH  11  12
ENDBRANCH   4   6
ENDBRANCH   3   4
ENDBRANCH   2   3
ENDBRANCH   1   2
BRANCH   1  68
ATOM     68  O   UNL A   1      39.907  22.263  26.163  1.00  0.00    -0.374 OA
BRANCH  68  69
ATOM     69  C   UNL A   1      38.544  22.713  26.137  1.00  0.00     0.202 C 
BRANCH  69  70
ATOM     70  C   UNL A   1      37.685  21.898  25.171  1.00  0.00     0.261 C 
BRANCH  70  71
ATOM     71  O   UNL A   1      36.341  21.959  25.669  1.00  0.00    -0.459 OA
BRANCH  71  72
ATOM     72  C   UNL A   1      35.418  22.432  24.795  1.00  0.00     0.365 C 
ATOM     73  O   UNL A   1      35.353  22.151  23.603  1.00  0.00    -0.245 OA
BRANCH  72  74
ATOM     74  C   UNL A   1      34.374  23.254  25.552  1.00  0.00     0.298 C 
ATOM     75  C   UNL A   1      34.697  24.773  25.566  1.00  0.00     0.111 C 
ATOM     76  N   UNL A   1      33.004  22.787  25.207  1.00  0.00    -0.326 N 
ATOM     77  C   UNL A   1      33.542  25.552  26.114  1.00  0.00    -0.024 C 
ATOM     78  C   UNL A   1      31.997  23.860  25.145  1.00  0.00     0.243 C 
ATOM     79  H   UNL A   1      32.709  22.112  25.913  1.00  0.00     0.347 HD
ATOM     80  H   UNL A   1      33.060  22.384  24.272  1.00  0.00     0.347 HD
ATOM     81  C   UNL A   1      33.319  26.858  26.199  1.00  0.00     0.002 A 
ATOM     82  C   UNL A   1      32.280  24.781  26.386  1.00  0.00     0.196 C 
ATOM     83  C   UNL A   1      34.055  28.038  25.890  1.00  0.00     0.010 A 
ATOM     84  C   UNL A   1      31.892  26.912  26.574  1.00  0.00     0.066 A 
ATOM     85  N   UNL A   1      31.235  25.795  26.683  1.00  0.00    -0.270 NA
ATOM     86  C   UNL A   1      33.433  29.226  25.993  1.00  0.00     0.001 A 
ATOM     87  C   UNL A   1      31.301  28.254  26.734  1.00  0.00     0.028 A 
ATOM     88  C   UNL A   1      32.051  29.327  26.441  1.00  0.00     0.002 A 
BRANCH  78  89
ATOM     89  C   UNL A   1      31.976  24.576  23.779  1.00  0.00     0.012 A 
ATOM     90  C   UNL A   1      32.844  24.247  22.719  1.00  0.00     0.010 A 
ATOM     91  C   UNL A   1      31.079  25.633  23.566  1.00  0.00     0.010 A 
ATOM     92  C   UNL A   1      32.871  24.997  21.541  1.00  0.00     0.001 A 
ATOM     93  C   UNL A   1      31.118  26.398  22.398  1.00  0.00     0.001 A 
ATOM     94  C   UNL A   1      32.022  26.085  21.389  1.00  0.00     0.000 A 
ENDBRANCH  78  89
ENDBRANCH  72  74
ENDBRANCH  71  72
ENDBRANCH  70  71
ENDBRANCH  69  70
ENDBRANCH  68  69
ENDBRANCH   1  68
TORSDOF 18
ENDMDL
