MODEL 1
REMARK VINA RESULT:      -9.9      0.000      0.000
REMARK SMILES O=C(OCCOCCOC(=O)[C@@H]1CCC[N@@H+](Cc2ccc(F)cc2Cl)C1)c1ccc(-c2c3nc(c(-c4ccc(S(=O)(=O)[O-])cc4)c4ccc([nH]4)c(-c4ccc(S(=O)(=O)[O-])cc4)c4nc(c(-c5ccc(S(=O)(=O)[O-])cc5)c5ccc2[nH]5)C=C4)C=C3)cc1
REMARK SMILES IDX 5 1 4 2 3 3 2 4 1 5 27 6 28 7 86 8 29 9 85 10 30 11 31 12
REMARK SMILES IDX 32 13 79 14 33 15 84 16 78 17 80 18 34 19 83 20 77 21 76 22
REMARK SMILES IDX 35 24 65 25 46 26 64 27 47 28 50 29 63 30 81 31 48 32 49 33
REMARK SMILES IDX 62 35 82 36 51 37 36 38 37 39 45 40 38 41 44 42 39 43 40 44
REMARK SMILES IDX 41 45 42 46 43 47 66 48 67 49 75 50 68 51 74 52 69 53 70 54
REMARK SMILES IDX 71 55 72 56 73 57 52 58 53 59 61 60 54 61 60 62 55 63 56 64
REMARK SMILES IDX 57 65 58 66 59 67 6 68 7 69 8 70 9 71 10 72 11 73 12 74
REMARK SMILES IDX 13 75 26 76 14 77 16 78 15 79 17 81 18 82 19 83 24 84 20 85
REMARK SMILES IDX 23 86 25 87 21 88 22 89
REMARK H PARENT 80 23 50 34 16 80
REMARK Flexibility Score: inf
ROOT
ATOM      1  C   UNL A   1      35.496  23.090  26.355  1.00  0.00     0.202 C 
ENDROOT
BRANCH   1   2
ATOM      2  C   UNL A   1      36.660  23.512  25.456  1.00  0.00     0.261 C 
BRANCH   2   3
ATOM      3  O   UNL A   1      37.746  22.583  25.562  1.00  0.00    -0.460 OA
BRANCH   3   4
ATOM      4  C   UNL A   1      38.931  22.761  26.193  1.00  0.00     0.338 C 
ATOM      5  O   UNL A   1      39.700  21.801  26.255  1.00  0.00    -0.246 OA
BRANCH   4   6
ATOM      6  C   UNL A   1      39.384  24.057  26.793  1.00  0.00     0.060 A 
ATOM      7  C   UNL A   1      40.072  25.073  26.124  1.00  0.00     0.016 A 
ATOM      8  C   UNL A   1      39.005  24.295  28.126  1.00  0.00     0.016 A 
ATOM      9  C   UNL A   1      40.408  26.262  26.752  1.00  0.00     0.010 A 
ATOM     10  C   UNL A   1      39.318  25.500  28.762  1.00  0.00     0.010 A 
ATOM     11  C   UNL A   1      40.035  26.480  28.072  1.00  0.00    -0.014 A 
BRANCH  11  12
ATOM     12  C   UNL A   1      40.517  27.710  28.715  1.00  0.00     0.031 A 
ATOM     13  C   UNL A   1      41.969  27.795  29.070  1.00  0.00     0.074 A 
ATOM     14  C   UNL A   1      39.693  28.769  28.810  1.00  0.00     0.049 A 
ATOM     15  N   UNL A   1      42.625  28.773  29.627  1.00  0.00    -0.248 NA
ATOM     16  C   UNL A   1      42.800  26.624  28.728  1.00  0.00     0.031 C 
ATOM     17  C   UNL A   1      38.301  28.799  28.348  1.00  0.00     0.029 A 
ATOM     18  N   UNL A   1      39.912  30.033  29.285  1.00  0.00    -0.354 N 
ATOM     19  C   UNL A   1      43.939  28.333  29.722  1.00  0.00     0.074 A 
ATOM     20  C   UNL A   1      43.991  27.000  29.169  1.00  0.00     0.031 C 
ATOM     21  C   UNL A   1      37.800  30.029  28.543  1.00  0.00     0.029 A 
ATOM     22  C   UNL A   1      38.809  30.851  29.199  1.00  0.00     0.049 A 
ATOM     23  H   UNL A   1      40.776  30.330  29.651  1.00  0.00     0.167 HD
ATOM     24  C   UNL A   1      45.000  28.992  30.239  1.00  0.00     0.031 A 
ATOM     25  C   UNL A   1      38.637  32.111  29.639  1.00  0.00     0.031 A 
ATOM     26  C   UNL A   1      44.902  30.310  30.802  1.00  0.00     0.049 A 
ATOM     27  C   UNL A   1      39.806  32.775  30.317  1.00  0.00     0.074 A 
ATOM     28  C   UNL A   1      45.876  31.055  31.438  1.00  0.00     0.029 A 
ATOM     29  N   UNL A   1      43.744  31.079  30.793  1.00  0.00    -0.354 N 
ATOM     30  N   UNL A   1      41.030  32.323  30.477  1.00  0.00    -0.248 NA
ATOM     31  C   UNL A   1      39.574  34.107  30.887  1.00  0.00     0.031 C 
ATOM     32  C   UNL A   1      45.292  32.256  31.856  1.00  0.00     0.029 A 
ATOM     33  C   UNL A   1      43.972  32.284  31.428  1.00  0.00     0.049 A 
ATOM     34  H   UNL A   1      42.888  30.804  30.392  1.00  0.00     0.167 HD
ATOM     35  C   UNL A   1      41.718  33.319  31.158  1.00  0.00     0.074 A 
ATOM     36  C   UNL A   1      40.779  34.409  31.351  1.00  0.00     0.031 C 
ATOM     37  C   UNL A   1      43.002  33.336  31.595  1.00  0.00     0.031 A 
BRANCH  24  38
ATOM     38  C   UNL A   1      46.311  28.258  30.284  1.00  0.00    -0.014 A 
ATOM     39  C   UNL A   1      47.269  28.401  29.263  1.00  0.00     0.010 A 
ATOM     40  C   UNL A   1      46.582  27.395  31.361  1.00  0.00     0.010 A 
ATOM     41  C   UNL A   1      48.459  27.667  29.303  1.00  0.00     0.020 A 
ATOM     42  C   UNL A   1      47.780  26.677  31.416  1.00  0.00     0.020 A 
ATOM     43  C   UNL A   1      48.704  26.806  30.379  1.00  0.00     0.054 A 
BRANCH  43  44
ATOM     44  S   UNL A   1      50.261  25.874  30.413  1.00  0.00     0.124 S 
ATOM     45  O   UNL A   1      49.985  24.864  31.431  1.00  0.00    -0.237 OA
ATOM     46  O   UNL A   1      50.364  25.373  29.044  1.00  0.00    -0.237 OA
ATOM     47  O   UNL A   1      51.257  26.875  30.784  1.00  0.00    -0.744 OA
ENDBRANCH  43  44
ENDBRANCH  24  38
BRANCH  25  48
ATOM     48  C   UNL A   1      37.311  32.783  29.531  1.00  0.00    -0.014 A 
ATOM     49  C   UNL A   1      36.814  33.230  28.293  1.00  0.00     0.010 A 
ATOM     50  C   UNL A   1      36.539  33.006  30.689  1.00  0.00     0.010 A 
ATOM     51  C   UNL A   1      35.592  33.911  28.222  1.00  0.00     0.020 A 
ATOM     52  C   UNL A   1      35.305  33.657  30.618  1.00  0.00     0.020 A 
ATOM     53  C   UNL A   1      34.848  34.125  29.386  1.00  0.00     0.054 A 
BRANCH  53  54
ATOM     54  S   UNL A   1      33.265  35.006  29.274  1.00  0.00     0.124 S 
ATOM     55  O   UNL A   1      33.694  36.351  28.903  1.00  0.00    -0.237 OA
ATOM     56  O   UNL A   1      32.558  34.259  28.237  1.00  0.00    -0.237 OA
ATOM     57  O   UNL A   1      32.705  34.876  30.616  1.00  0.00    -0.744 OA
ENDBRANCH  53  54
ENDBRANCH  25  48
BRANCH  37  58
ATOM     58  C   UNL A   1      43.458  34.583  32.297  1.00  0.00    -0.014 A 
ATOM     59  C   UNL A   1      43.996  35.664  31.578  1.00  0.00     0.010 A 
ATOM     60  C   UNL A   1      43.292  34.689  33.689  1.00  0.00     0.010 A 
ATOM     61  C   UNL A   1      44.394  36.822  32.247  1.00  0.00     0.020 A 
ATOM     62  C   UNL A   1      43.662  35.856  34.357  1.00  0.00     0.020 A 
ATOM     63  C   UNL A   1      44.224  36.910  33.633  1.00  0.00     0.054 A 
BRANCH  63  64
ATOM     64  S   UNL A   1      44.708  38.439  34.475  1.00  0.00     0.124 S 
ATOM     65  O   UNL A   1      45.275  37.933  35.721  1.00  0.00    -0.237 OA
ATOM     66  O   UNL A   1      45.665  39.030  33.541  1.00  0.00    -0.237 OA
ATOM     67  O   UNL A   1      43.451  39.171  34.613  1.00  0.00    -0.744 OA
ENDBRANCH  63  64
ENDBRANCH  37  58
ENDBRANCH  11  12
ENDBRANCH   4   6
ENDBRANCH   3   4
ENDBRANCH   2   3
ENDBRANCH   1   2
BRANCH   1  68
ATOM     68  O   UNL A   1      35.063  21.747  26.138  1.00  0.00    -0.374 OA
BRANCH  68  69
ATOM     69  C   UNL A   1      33.645  21.557  26.042  1.00  0.00     0.202 C 
BRANCH  69  70
ATOM     70  C   UNL A   1      33.061  22.524  25.013  1.00  0.00     0.261 C 
BRANCH  70  71
ATOM     71  O   UNL A   1      31.870  23.088  25.575  1.00  0.00    -0.463 OA
BRANCH  71  72
ATOM     72  C   UNL A   1      31.875  24.449  25.640  1.00  0.00     0.314 C 
ATOM     73  O   UNL A   1      32.818  25.129  26.029  1.00  0.00    -0.252 OA
BRANCH  72  74
ATOM     74  C   UNL A   1      30.633  25.043  24.999  1.00  0.00     0.154 C 
ATOM     75  C   UNL A   1      30.534  24.645  23.529  1.00  0.00     0.027 C 
ATOM     76  C   UNL A   1      30.517  26.560  25.139  1.00  0.00     0.277 C 
ATOM     77  C   UNL A   1      31.624  25.352  22.738  1.00  0.00     0.062 C 
ATOM     78  N   UNL A   1      31.507  27.291  24.343  1.00  0.00    -0.330 N 
ATOM     79  C   UNL A   1      31.552  26.866  22.936  1.00  0.00     0.262 C 
ATOM     80  H   UNL A   1      32.415  27.029  24.727  1.00  0.00     0.348 HD
BRANCH  78  81
ATOM     81  C   UNL A   1      31.412  28.759  24.512  1.00  0.00     0.300 C 
BRANCH  81  82
ATOM     82  C   UNL A   1      32.443  29.364  25.452  1.00  0.00     0.025 A 
ATOM     83  C   UNL A   1      33.615  28.637  25.741  1.00  0.00     0.014 A 
ATOM     84  C   UNL A   1      32.211  30.562  26.157  1.00  0.00     0.052 A 
ATOM     85  C   UNL A   1      34.463  29.030  26.776  1.00  0.00     0.040 A 
ATOM     86  C   UNL A   1      33.060  30.953  27.190  1.00  0.00     0.060 A 
ATOM     87  Cl  UNL A   1      30.862  31.591  25.820  1.00  0.00    -0.084 Cl
ATOM     88  C   UNL A   1      34.162  30.172  27.504  1.00  0.00     0.124 A 
ATOM     89  F   UNL A   1      34.949  30.524  28.530  1.00  0.00    -0.207 F 
ENDBRANCH  81  82
ENDBRANCH  78  81
ENDBRANCH  72  74
ENDBRANCH  71  72
ENDBRANCH  70  71
ENDBRANCH  69  70
ENDBRANCH  68  69
ENDBRANCH   1  68
TORSDOF 19
ENDMDL
MODEL 2
REMARK VINA RESULT:      -9.7      2.995      9.257
REMARK SMILES O=C(OCCOCCOC(=O)[C@@H]1CCC[N@@H+](Cc2ccc(F)cc2Cl)C1)c1ccc(-c2c3nc(c(-c4ccc(S(=O)(=O)[O-])cc4)c4ccc([nH]4)c(-c4ccc(S(=O)(=O)[O-])cc4)c4nc(c(-c5ccc(S(=O)(=O)[O-])cc5)c5ccc2[nH]5)C=C4)C=C3)cc1
REMARK SMILES IDX 5 1 4 2 3 3 2 4 1 5 27 6 28 7 86 8 29 9 85 10 30 11 31 12
REMARK SMILES IDX 32 13 79 14 33 15 84 16 78 17 80 18 34 19 83 20 77 21 76 22
REMARK SMILES IDX 35 24 65 25 46 26 64 27 47 28 50 29 63 30 81 31 48 32 49 33
REMARK SMILES IDX 62 35 82 36 51 37 36 38 37 39 45 40 38 41 44 42 39 43 40 44
REMARK SMILES IDX 41 45 42 46 43 47 66 48 67 49 75 50 68 51 74 52 69 53 70 54
REMARK SMILES IDX 71 55 72 56 73 57 52 58 53 59 61 60 54 61 60 62 55 63 56 64
REMARK SMILES IDX 57 65 58 66 59 67 6 68 7 69 8 70 9 71 10 72 11 73 12 74
REMARK SMILES IDX 13 75 26 76 14 77 16 78 15 79 17 81 18 82 19 83 24 84 20 85
REMARK SMILES IDX 23 86 25 87 21 88 22 89
REMARK H PARENT 80 23 50 34 16 80
REMARK Flexibility Score: inf
ROOT
ATOM      1  C   UNL A   1      33.095  28.841  25.298  1.00  0.00     0.202 C 
ENDROOT
BRANCH   1   2
ATOM      2  C   UNL A   1      33.692  28.472  26.657  1.00  0.00     0.261 C 
BRANCH   2   3
ATOM      3  O   UNL A   1      33.544  29.554  27.586  1.00  0.00    -0.460 OA
BRANCH   3   4
ATOM      4  C   UNL A   1      34.502  30.400  28.033  1.00  0.00     0.338 C 
ATOM      5  O   UNL A   1      34.183  31.571  28.242  1.00  0.00    -0.246 OA
BRANCH   4   6
ATOM      6  C   UNL A   1      35.917  30.001  28.321  1.00  0.00     0.060 A 
ATOM      7  C   UNL A   1      36.387  29.454  29.518  1.00  0.00     0.016 A 
ATOM      8  C   UNL A   1      36.828  30.115  27.255  1.00  0.00     0.016 A 
ATOM      9  C   UNL A   1      37.708  29.069  29.675  1.00  0.00     0.010 A 
ATOM     10  C   UNL A   1      38.158  29.707  27.395  1.00  0.00     0.010 A 
ATOM     11  C   UNL A   1      38.599  29.195  28.617  1.00  0.00    -0.014 A 
BRANCH  11  12
ATOM     12  C   UNL A   1      40.009  28.876  28.880  1.00  0.00     0.031 A 
ATOM     13  C   UNL A   1      40.832  29.885  29.618  1.00  0.00     0.074 A 
ATOM     14  C   UNL A   1      40.466  27.640  28.605  1.00  0.00     0.049 A 
ATOM     15  N   UNL A   1      42.084  29.824  29.975  1.00  0.00    -0.248 NA
ATOM     16  C   UNL A   1      40.143  31.123  30.031  1.00  0.00     0.031 C 
ATOM     17  C   UNL A   1      39.670  26.559  28.015  1.00  0.00     0.029 A 
ATOM     18  N   UNL A   1      41.691  27.071  28.821  1.00  0.00    -0.354 N 
ATOM     19  C   UNL A   1      42.341  31.019  30.636  1.00  0.00     0.074 A 
ATOM     20  C   UNL A   1      41.118  31.789  30.630  1.00  0.00     0.031 C 
ATOM     21  C   UNL A   1      40.424  25.450  27.939  1.00  0.00     0.029 A 
ATOM     22  C   UNL A   1      41.768  25.760  28.411  1.00  0.00     0.049 A 
ATOM     23  H   UNL A   1      42.444  27.553  29.231  1.00  0.00     0.167 HD
ATOM     24  C   UNL A   1      43.504  31.430  31.187  1.00  0.00     0.031 A 
ATOM     25  C   UNL A   1      42.823  24.926  28.393  1.00  0.00     0.031 A 
ATOM     26  C   UNL A   1      44.706  30.645  31.150  1.00  0.00     0.049 A 
ATOM     27  C   UNL A   1      44.136  25.456  28.906  1.00  0.00     0.074 A 
ATOM     28  C   UNL A   1      45.973  30.977  31.589  1.00  0.00     0.029 A 
ATOM     29  N   UNL A   1      44.780  29.355  30.637  1.00  0.00    -0.354 N 
ATOM     30  N   UNL A   1      44.394  26.620  29.459  1.00  0.00    -0.248 NA
ATOM     31  C   UNL A   1      45.302  24.574  28.781  1.00  0.00     0.031 C 
ATOM     32  C   UNL A   1      46.823  29.906  31.296  1.00  0.00     0.029 A 
ATOM     33  C   UNL A   1      46.075  28.883  30.730  1.00  0.00     0.049 A 
ATOM     34  H   UNL A   1      44.021  28.852  30.262  1.00  0.00     0.167 HD
ATOM     35  C   UNL A   1      45.750  26.608  29.758  1.00  0.00     0.074 A 
ATOM     36  C   UNL A   1      46.250  25.307  29.351  1.00  0.00     0.031 C 
ATOM     37  C   UNL A   1      46.521  27.579  30.309  1.00  0.00     0.031 A 
BRANCH  24  38
ATOM     38  C   UNL A   1      43.532  32.808  31.788  1.00  0.00    -0.014 A 
ATOM     39  C   UNL A   1      43.955  33.926  31.045  1.00  0.00     0.010 A 
ATOM     40  C   UNL A   1      43.144  32.984  33.128  1.00  0.00     0.010 A 
ATOM     41  C   UNL A   1      44.019  35.188  31.643  1.00  0.00     0.020 A 
ATOM     42  C   UNL A   1      43.185  34.248  33.723  1.00  0.00     0.020 A 
ATOM     43  C   UNL A   1      43.638  35.340  32.981  1.00  0.00     0.054 A 
BRANCH  43  44
ATOM     44  S   UNL A   1      43.721  36.990  33.730  1.00  0.00     0.124 S 
ATOM     45  O   UNL A   1      42.584  36.962  34.647  1.00  0.00    -0.237 OA
ATOM     46  O   UNL A   1      45.037  36.989  34.363  1.00  0.00    -0.237 OA
ATOM     47  O   UNL A   1      43.580  37.895  32.593  1.00  0.00    -0.744 OA
ENDBRANCH  43  44
ENDBRANCH  24  38
BRANCH  25  48
ATOM     48  C   UNL A   1      42.707  23.561  27.806  1.00  0.00    -0.014 A 
ATOM     49  C   UNL A   1      43.007  23.315  26.455  1.00  0.00     0.010 A 
ATOM     50  C   UNL A   1      42.263  22.488  28.606  1.00  0.00     0.010 A 
ATOM     51  C   UNL A   1      42.835  22.037  25.909  1.00  0.00     0.020 A 
ATOM     52  C   UNL A   1      42.121  21.204  28.074  1.00  0.00     0.020 A 
ATOM     53  C   UNL A   1      42.388  20.990  26.721  1.00  0.00     0.054 A 
BRANCH  53  54
ATOM     54  S   UNL A   1      42.174  19.339  25.998  1.00  0.00     0.124 S 
ATOM     55  O   UNL A   1      42.653  18.475  27.071  1.00  0.00    -0.237 OA
ATOM     56  O   UNL A   1      40.737  19.290  25.738  1.00  0.00    -0.237 OA
ATOM     57  O   UNL A   1      43.014  19.376  24.803  1.00  0.00    -0.744 OA
ENDBRANCH  53  54
ENDBRANCH  25  48
BRANCH  37  58
ATOM     58  C   UNL A   1      47.971  27.249  30.519  1.00  0.00    -0.014 A 
ATOM     59  C   UNL A   1      48.943  27.629  29.579  1.00  0.00     0.010 A 
ATOM     60  C   UNL A   1      48.364  26.598  31.702  1.00  0.00     0.010 A 
ATOM     61  C   UNL A   1      50.288  27.332  29.804  1.00  0.00     0.020 A 
ATOM     62  C   UNL A   1      49.711  26.326  31.942  1.00  0.00     0.020 A 
ATOM     63  C   UNL A   1      50.663  26.682  30.984  1.00  0.00     0.054 A 
BRANCH  63  64
ATOM     64  S   UNL A   1      52.419  26.345  31.274  1.00  0.00     0.124 S 
ATOM     65  O   UNL A   1      52.367  25.104  32.042  1.00  0.00    -0.237 OA
ATOM     66  O   UNL A   1      52.951  26.225  29.918  1.00  0.00    -0.237 OA
ATOM     67  O   UNL A   1      52.879  27.518  32.014  1.00  0.00    -0.744 OA
ENDBRANCH  63  64
ENDBRANCH  37  58
ENDBRANCH  11  12
ENDBRANCH   4   6
ENDBRANCH   3   4
ENDBRANCH   2   3
ENDBRANCH   1   2
BRANCH   1  68
ATOM     68  O   UNL A   1      33.865  28.373  24.189  1.00  0.00    -0.374 OA
BRANCH  68  69
ATOM     69  C   UNL A   1      34.002  26.950  24.082  1.00  0.00     0.202 C 
BRANCH  69  70
ATOM     70  C   UNL A   1      33.501  26.482  22.717  1.00  0.00     0.261 C 
BRANCH  70  71
ATOM     71  O   UNL A   1      32.410  25.580  22.941  1.00  0.00    -0.463 OA
BRANCH  71  72
ATOM     72  C   UNL A   1      31.198  26.192  23.059  1.00  0.00     0.314 C 
ATOM     73  O   UNL A   1      30.899  27.262  22.541  1.00  0.00    -0.252 OA
BRANCH  72  74
ATOM     74  C   UNL A   1      30.191  25.302  23.766  1.00  0.00     0.154 C 
ATOM     75  C   UNL A   1      29.646  25.982  25.019  1.00  0.00     0.027 C 
ATOM     76  C   UNL A   1      30.717  23.910  24.115  1.00  0.00     0.277 C 
ATOM     77  C   UNL A   1      30.742  26.060  26.072  1.00  0.00     0.062 C 
ATOM     78  N   UNL A   1      31.731  23.924  25.172  1.00  0.00    -0.330 N 
ATOM     79  C   UNL A   1      31.317  24.674  26.367  1.00  0.00     0.262 C 
ATOM     80  H   UNL A   1      32.519  24.448  24.790  1.00  0.00     0.348 HD
BRANCH  78  81
ATOM     81  C   UNL A   1      32.262  22.576  25.478  1.00  0.00     0.300 C 
BRANCH  81  82
ATOM     82  C   UNL A   1      33.776  22.452  25.411  1.00  0.00     0.025 A 
ATOM     83  C   UNL A   1      34.563  23.617  25.520  1.00  0.00     0.014 A 
ATOM     84  C   UNL A   1      34.422  21.238  25.104  1.00  0.00     0.052 A 
ATOM     85  C   UNL A   1      35.924  23.590  25.219  1.00  0.00     0.040 A 
ATOM     86  C   UNL A   1      35.783  21.214  24.804  1.00  0.00     0.060 A 
ATOM     87  Cl  UNL A   1      33.580  19.729  25.043  1.00  0.00    -0.084 Cl
ATOM     88  C   UNL A   1      36.514  22.393  24.841  1.00  0.00     0.124 A 
ATOM     89  F   UNL A   1      37.810  22.375  24.504  1.00  0.00    -0.207 F 
ENDBRANCH  81  82
ENDBRANCH  78  81
ENDBRANCH  72  74
ENDBRANCH  71  72
ENDBRANCH  70  71
ENDBRANCH  69  70
ENDBRANCH  68  69
ENDBRANCH   1  68
TORSDOF 19
ENDMDL
MODEL 3
REMARK VINA RESULT:      -9.6      0.735      8.266
REMARK SMILES O=C(OCCOCCOC(=O)[C@@H]1CCC[N@@H+](Cc2ccc(F)cc2Cl)C1)c1ccc(-c2c3nc(c(-c4ccc(S(=O)(=O)[O-])cc4)c4ccc([nH]4)c(-c4ccc(S(=O)(=O)[O-])cc4)c4nc(c(-c5ccc(S(=O)(=O)[O-])cc5)c5ccc2[nH]5)C=C4)C=C3)cc1
REMARK SMILES IDX 5 1 4 2 3 3 2 4 1 5 27 6 28 7 86 8 29 9 85 10 30 11 31 12
REMARK SMILES IDX 32 13 79 14 33 15 84 16 78 17 80 18 34 19 83 20 77 21 76 22
REMARK SMILES IDX 35 24 65 25 46 26 64 27 47 28 50 29 63 30 81 31 48 32 49 33
REMARK SMILES IDX 62 35 82 36 51 37 36 38 37 39 45 40 38 41 44 42 39 43 40 44
REMARK SMILES IDX 41 45 42 46 43 47 66 48 67 49 75 50 68 51 74 52 69 53 70 54
REMARK SMILES IDX 71 55 72 56 73 57 52 58 53 59 61 60 54 61 60 62 55 63 56 64
REMARK SMILES IDX 57 65 58 66 59 67 6 68 7 69 8 70 9 71 10 72 11 73 12 74
REMARK SMILES IDX 13 75 26 76 14 77 16 78 15 79 17 81 18 82 19 83 24 84 20 85
REMARK SMILES IDX 23 86 25 87 21 88 22 89
REMARK H PARENT 80 23 50 34 16 80
REMARK Flexibility Score: inf
ROOT
ATOM      1  C   UNL A   1      34.977  23.490  25.810  1.00  0.00     0.202 C 
ENDROOT
BRANCH   1   2
ATOM      2  C   UNL A   1      36.327  24.013  25.317  1.00  0.00     0.261 C 
BRANCH   2   3
ATOM      3  O   UNL A   1      37.319  22.979  25.365  1.00  0.00    -0.460 OA
BRANCH   3   4
ATOM      4  C   UNL A   1      38.489  22.983  26.047  1.00  0.00     0.338 C 
ATOM      5  O   UNL A   1      39.111  21.923  26.128  1.00  0.00    -0.246 OA
BRANCH   4   6
ATOM      6  C   UNL A   1      39.094  24.197  26.682  1.00  0.00     0.060 A 
ATOM      7  C   UNL A   1      39.887  25.150  26.038  1.00  0.00     0.016 A 
ATOM      8  C   UNL A   1      38.759  24.431  28.028  1.00  0.00     0.016 A 
ATOM      9  C   UNL A   1      40.364  26.270  26.699  1.00  0.00     0.010 A 
ATOM     10  C   UNL A   1      39.215  25.570  28.699  1.00  0.00     0.010 A 
ATOM     11  C   UNL A   1      40.032  26.485  28.030  1.00  0.00    -0.014 A 
BRANCH  11  12
ATOM     12  C   UNL A   1      40.660  27.629  28.706  1.00  0.00     0.031 A 
ATOM     13  C   UNL A   1      39.826  28.849  28.943  1.00  0.00     0.074 A 
ATOM     14  C   UNL A   1      41.890  27.487  29.232  1.00  0.00     0.049 A 
ATOM     15  N   UNL A   1      40.152  29.968  29.526  1.00  0.00    -0.248 NA
ATOM     16  C   UNL A   1      38.426  28.791  28.482  1.00  0.00     0.031 C 
ATOM     17  C   UNL A   1      42.703  26.268  29.160  1.00  0.00     0.029 A 
ATOM     18  N   UNL A   1      42.655  28.353  29.964  1.00  0.00    -0.354 N 
ATOM     19  C   UNL A   1      39.008  30.756  29.485  1.00  0.00     0.074 A 
ATOM     20  C   UNL A   1      37.979  29.991  28.820  1.00  0.00     0.031 C 
ATOM     21  C   UNL A   1      43.844  26.460  29.843  1.00  0.00     0.029 A 
ATOM     22  C   UNL A   1      43.870  27.830  30.342  1.00  0.00     0.049 A 
ATOM     23  H   UNL A   1      42.364  29.263  30.200  1.00  0.00     0.167 HD
ATOM     24  C   UNL A   1      38.847  32.012  29.958  1.00  0.00     0.031 A 
ATOM     25  C   UNL A   1      44.895  28.415  30.988  1.00  0.00     0.031 A 
ATOM     26  C   UNL A   1      39.904  32.748  30.593  1.00  0.00     0.049 A 
ATOM     27  C   UNL A   1      44.726  29.854  31.396  1.00  0.00     0.074 A 
ATOM     28  C   UNL A   1      39.903  34.056  31.037  1.00  0.00     0.029 A 
ATOM     29  N   UNL A   1      41.160  32.226  30.873  1.00  0.00    -0.354 N 
ATOM     30  N   UNL A   1      43.666  30.623  31.283  1.00  0.00    -0.248 NA
ATOM     31  C   UNL A   1      45.889  30.512  32.003  1.00  0.00     0.031 C 
ATOM     32  C   UNL A   1      41.177  34.339  31.541  1.00  0.00     0.029 A 
ATOM     33  C   UNL A   1      41.952  33.190  31.468  1.00  0.00     0.049 A 
ATOM     34  H   UNL A   1      41.445  31.304  30.677  1.00  0.00     0.167 HD
ATOM     35  C   UNL A   1      44.030  31.853  31.814  1.00  0.00     0.074 A 
ATOM     36  C   UNL A   1      45.400  31.715  32.275  1.00  0.00     0.031 C 
ATOM     37  C   UNL A   1      43.311  33.000  31.907  1.00  0.00     0.031 A 
BRANCH  24  38
ATOM     38  C   UNL A   1      37.516  32.670  29.723  1.00  0.00    -0.014 A 
ATOM     39  C   UNL A   1      37.115  33.080  28.438  1.00  0.00     0.010 A 
ATOM     40  C   UNL A   1      36.657  32.896  30.813  1.00  0.00     0.010 A 
ATOM     41  C   UNL A   1      35.893  33.735  28.255  1.00  0.00     0.020 A 
ATOM     42  C   UNL A   1      35.425  33.531  30.631  1.00  0.00     0.020 A 
ATOM     43  C   UNL A   1      35.058  33.960  29.355  1.00  0.00     0.054 A 
BRANCH  43  44
ATOM     44  S   UNL A   1      33.473  34.803  29.089  1.00  0.00     0.124 S 
ATOM     45  O   UNL A   1      32.840  33.946  28.089  1.00  0.00    -0.237 OA
ATOM     46  O   UNL A   1      32.866  34.771  30.417  1.00  0.00    -0.237 OA
ATOM     47  O   UNL A   1      33.860  36.129  28.616  1.00  0.00    -0.744 OA
ENDBRANCH  43  44
ENDBRANCH  24  38
BRANCH  25  48
ATOM     48  C   UNL A   1      46.175  27.683  31.209  1.00  0.00    -0.014 A 
ATOM     49  C   UNL A   1      46.394  26.924  32.372  1.00  0.00     0.010 A 
ATOM     50  C   UNL A   1      47.206  27.767  30.253  1.00  0.00     0.010 A 
ATOM     51  C   UNL A   1      47.625  26.293  32.588  1.00  0.00     0.020 A 
ATOM     52  C   UNL A   1      48.425  27.112  30.448  1.00  0.00     0.020 A 
ATOM     53  C   UNL A   1      48.635  26.395  31.627  1.00  0.00     0.054 A 
BRANCH  53  54
ATOM     54  S   UNL A   1      50.223  25.567  31.921  1.00  0.00     0.124 S 
ATOM     55  O   UNL A   1      50.053  25.060  33.278  1.00  0.00    -0.237 OA
ATOM     56  O   UNL A   1      50.255  24.556  30.866  1.00  0.00    -0.237 OA
ATOM     57  O   UNL A   1      51.202  26.641  31.773  1.00  0.00    -0.744 OA
ENDBRANCH  53  54
ENDBRANCH  25  48
BRANCH  37  58
ATOM     58  C   UNL A   1      43.992  34.172  32.553  1.00  0.00    -0.014 A 
ATOM     59  C   UNL A   1      44.682  35.123  31.784  1.00  0.00     0.010 A 
ATOM     60  C   UNL A   1      43.889  34.347  33.945  1.00  0.00     0.010 A 
ATOM     61  C   UNL A   1      45.291  36.217  32.401  1.00  0.00     0.020 A 
ATOM     62  C   UNL A   1      44.472  35.454  34.561  1.00  0.00     0.020 A 
ATOM     63  C   UNL A   1      45.181  36.374  33.787  1.00  0.00     0.054 A 
BRANCH  63  64
ATOM     64  S   UNL A   1      45.942  37.824  34.562  1.00  0.00     0.124 S 
ATOM     65  O   UNL A   1      46.767  38.350  33.477  1.00  0.00    -0.237 OA
ATOM     66  O   UNL A   1      44.784  38.639  34.924  1.00  0.00    -0.237 OA
ATOM     67  O   UNL A   1      46.679  37.266  35.693  1.00  0.00    -0.744 OA
ENDBRANCH  63  64
ENDBRANCH  37  58
ENDBRANCH  11  12
ENDBRANCH   4   6
ENDBRANCH   3   4
ENDBRANCH   2   3
ENDBRANCH   1   2
BRANCH   1  68
ATOM     68  O   UNL A   1      34.710  22.141  25.425  1.00  0.00    -0.374 OA
BRANCH  68  69
ATOM     69  C   UNL A   1      33.333  21.743  25.460  1.00  0.00     0.202 C 
BRANCH  69  70
ATOM     70  C   UNL A   1      32.605  22.491  26.576  1.00  0.00     0.261 C 
BRANCH  70  71
ATOM     71  O   UNL A   1      31.371  22.981  26.037  1.00  0.00    -0.463 OA
BRANCH  71  72
ATOM     72  C   UNL A   1      31.222  24.332  26.130  1.00  0.00     0.314 C 
ATOM     73  O   UNL A   1      31.740  25.038  26.989  1.00  0.00    -0.252 OA
BRANCH  72  74
ATOM     74  C   UNL A   1      30.479  24.895  24.931  1.00  0.00     0.154 C 
ATOM     75  C   UNL A   1      31.030  24.322  23.629  1.00  0.00     0.027 C 
ATOM     76  C   UNL A   1      30.460  26.422  24.862  1.00  0.00     0.277 C 
ATOM     77  C   UNL A   1      32.425  24.875  23.381  1.00  0.00     0.062 C 
ATOM     78  N   UNL A   1      31.771  27.003  24.561  1.00  0.00    -0.330 N 
ATOM     79  C   UNL A   1      32.418  26.404  23.385  1.00  0.00     0.262 C 
ATOM     80  H   UNL A   1      32.370  26.752  25.348  1.00  0.00     0.348 HD
BRANCH  78  81
ATOM     81  C   UNL A   1      31.752  28.483  24.532  1.00  0.00     0.300 C 
BRANCH  81  82
ATOM     82  C   UNL A   1      32.708  29.156  25.505  1.00  0.00     0.025 A 
ATOM     83  C   UNL A   1      33.894  28.488  25.871  1.00  0.00     0.014 A 
ATOM     84  C   UNL A   1      32.390  30.359  26.166  1.00  0.00     0.052 A 
ATOM     85  C   UNL A   1      34.671  28.943  26.936  1.00  0.00     0.040 A 
ATOM     86  C   UNL A   1      33.170  30.812  27.229  1.00  0.00     0.060 A 
ATOM     87  Cl  UNL A   1      31.018  31.319  25.736  1.00  0.00    -0.084 Cl
ATOM     88  C   UNL A   1      34.287  30.087  27.618  1.00  0.00     0.124 A 
ATOM     89  F   UNL A   1      35.005  30.499  28.672  1.00  0.00    -0.207 F 
ENDBRANCH  81  82
ENDBRANCH  78  81
ENDBRANCH  72  74
ENDBRANCH  71  72
ENDBRANCH  70  71
ENDBRANCH  69  70
ENDBRANCH  68  69
ENDBRANCH   1  68
TORSDOF 19
ENDMDL
