MODEL 1
REMARK VINA RESULT:     -10.4      0.000      0.000
REMARK SMILES C[C@@H](C(=O)OCCOCCOC(=O)c1ccc(-c2c3nc(c(-c4ccc(S(=O)(=O)[O-])cc4)c4ccc([nH]4)c(-c4ccc(S(=O)(=O)[O-])cc4)c4nc(c(-c5ccc(S(=O)(=O)[O-])cc5)c5ccc2[nH]5)C=C4)C=C3)cc1)c1ccc(-c2ccn(C(F)F)c(=O)c2)cc1
REMARK SMILES IDX 8 1 7 2 6 3 5 4 3 5 4 6 2 7 1 8 74 9 75 10 89 11 76 12 88 13
REMARK SMILES IDX 77 14 78 15 79 16 87 17 80 18 85 19 81 20 86 21 82 22 83 23
REMARK SMILES IDX 84 24 9 25 10 26 11 27 12 28 13 29 14 30 15 31 73 32 16 33
REMARK SMILES IDX 72 34 17 35 18 36 19 37 66 38 20 39 71 40 65 41 67 42 21 43
REMARK SMILES IDX 70 44 64 45 63 46 22 48 52 49 33 50 51 51 34 52 37 53 50 54
REMARK SMILES IDX 68 55 35 56 36 57 49 59 69 60 38 61 23 62 24 63 32 64 25 65
REMARK SMILES IDX 31 66 26 67 27 68 28 69 29 70 30 71 53 72 54 73 62 74 55 75
REMARK SMILES IDX 61 76 56 77 57 78 58 79 59 80 60 81 39 82 40 83 48 84 41 85
REMARK SMILES IDX 47 86 42 87 43 88 44 89 45 90 46 91
REMARK H PARENT 67 47 37 58
REMARK Flexibility Score: inf
ROOT
ATOM      1  O   UNL A   1      34.945  23.326  26.048  1.00  0.00    -0.374 OA
ENDROOT
BRANCH   1   2
ATOM      2  C   UNL A   1      34.941  24.689  25.624  1.00  0.00     0.202 C 
BRANCH   2   3
ATOM      3  C   UNL A   1      34.453  24.956  24.197  1.00  0.00     0.261 C 
BRANCH   3   4
ATOM      4  O   UNL A   1      33.522  26.049  24.170  1.00  0.00    -0.463 OA
BRANCH   4   5
ATOM      5  C   UNL A   1      32.303  25.795  24.718  1.00  0.00     0.313 C 
ATOM      6  O   UNL A   1      31.945  26.203  25.818  1.00  0.00    -0.252 OA
BRANCH   5   7
ATOM      7  C   UNL A   1      31.381  24.999  23.777  1.00  0.00     0.126 C 
ATOM      8  C   UNL A   1      29.906  25.400  23.911  1.00  0.00     0.025 C 
BRANCH   7   9
ATOM      9  C   UNL A   1      31.661  23.492  23.843  1.00  0.00    -0.034 A 
ATOM     10  C   UNL A   1      32.092  22.724  22.748  1.00  0.00     0.005 A 
ATOM     11  C   UNL A   1      31.521  22.838  25.078  1.00  0.00     0.005 A 
ATOM     12  C   UNL A   1      32.375  21.354  22.888  1.00  0.00     0.009 A 
ATOM     13  C   UNL A   1      31.787  21.474  25.217  1.00  0.00     0.009 A 
ATOM     14  C   UNL A   1      32.229  20.722  24.126  1.00  0.00    -0.018 A 
BRANCH  14  15
ATOM     15  C   UNL A   1      32.566  19.302  24.343  1.00  0.00    -0.011 A 
ATOM     16  C   UNL A   1      32.527  18.678  25.652  1.00  0.00     0.027 A 
ATOM     17  C   UNL A   1      33.050  18.604  23.300  1.00  0.00     0.080 A 
ATOM     18  C   UNL A   1      33.030  17.451  25.835  1.00  0.00     0.095 A 
ATOM     19  C   UNL A   1      33.584  17.226  23.483  1.00  0.00     0.255 A 
ATOM     20  N   UNL A   1      33.569  16.737  24.780  1.00  0.00    -0.258 N 
ATOM     21  O   UNL A   1      34.022  16.631  22.503  1.00  0.00    -0.269 OA
BRANCH  20  22
ATOM     22  C   UNL A   1      34.176  15.451  25.001  1.00  0.00     0.451 C 
ATOM     23  F   UNL A   1      35.333  15.560  25.698  1.00  0.00    -0.185 F 
ATOM     24  F   UNL A   1      33.343  14.635  25.695  1.00  0.00    -0.185 F 
ENDBRANCH  20  22
ENDBRANCH  14  15
ENDBRANCH   7   9
ENDBRANCH   5   7
ENDBRANCH   4   5
ENDBRANCH   3   4
ENDBRANCH   2   3
ENDBRANCH   1   2
BRANCH   1  25
ATOM     25  C   UNL A   1      35.530  22.362  25.170  1.00  0.00     0.202 C 
BRANCH  25  26
ATOM     26  C   UNL A   1      36.841  21.707  25.627  1.00  0.00     0.261 C 
BRANCH  26  27
ATOM     27  O   UNL A   1      38.003  22.497  25.308  1.00  0.00    -0.460 OA
BRANCH  27  28
ATOM     28  C   UNL A   1      38.972  22.484  26.257  1.00  0.00     0.338 C 
ATOM     29  O   UNL A   1      39.653  21.526  26.599  1.00  0.00    -0.246 OA
BRANCH  28  30
ATOM     30  C   UNL A   1      39.256  23.852  26.728  1.00  0.00     0.060 A 
ATOM     31  C   UNL A   1      39.859  24.735  25.822  1.00  0.00     0.016 A 
ATOM     32  C   UNL A   1      39.030  24.240  28.050  1.00  0.00     0.016 A 
ATOM     33  C   UNL A   1      40.284  25.992  26.247  1.00  0.00     0.010 A 
ATOM     34  C   UNL A   1      39.468  25.501  28.477  1.00  0.00     0.010 A 
ATOM     35  C   UNL A   1      40.129  26.368  27.588  1.00  0.00    -0.014 A 
BRANCH  35  36
ATOM     36  C   UNL A   1      40.792  27.601  28.079  1.00  0.00     0.031 A 
ATOM     37  C   UNL A   1      42.291  27.713  27.986  1.00  0.00     0.074 A 
ATOM     38  C   UNL A   1      40.070  28.628  28.561  1.00  0.00     0.049 A 
ATOM     39  N   UNL A   1      43.072  28.695  28.353  1.00  0.00    -0.248 NA
ATOM     40  C   UNL A   1      43.002  26.564  27.398  1.00  0.00     0.031 C 
ATOM     41  C   UNL A   1      38.611  28.663  28.661  1.00  0.00     0.029 A 
ATOM     42  N   UNL A   1      40.472  29.844  29.055  1.00  0.00    -0.354 N 
ATOM     43  C   UNL A   1      44.365  28.286  28.044  1.00  0.00     0.074 A 
ATOM     44  C   UNL A   1      44.265  26.954  27.487  1.00  0.00     0.031 C 
ATOM     45  C   UNL A   1      38.240  29.840  29.195  1.00  0.00     0.029 A 
ATOM     46  C   UNL A   1      39.433  30.628  29.497  1.00  0.00     0.049 A 
ATOM     47  H   UNL A   1      41.413  30.127  29.090  1.00  0.00     0.167 HD
ATOM     48  C   UNL A   1      45.529  28.959  28.202  1.00  0.00     0.031 A 
ATOM     49  C   UNL A   1      39.444  31.837  30.094  1.00  0.00     0.031 A 
ATOM     50  C   UNL A   1      45.632  30.276  28.773  1.00  0.00     0.049 A 
ATOM     51  C   UNL A   1      40.756  32.537  30.327  1.00  0.00     0.074 A 
ATOM     52  C   UNL A   1      46.768  31.041  28.972  1.00  0.00     0.029 A 
ATOM     53  N   UNL A   1      44.562  31.020  29.242  1.00  0.00    -0.354 N 
ATOM     54  N   UNL A   1      41.968  32.144  30.013  1.00  0.00    -0.248 NA
ATOM     55  C   UNL A   1      40.702  33.850  30.988  1.00  0.00     0.031 C 
ATOM     56  C   UNL A   1      46.389  32.228  29.608  1.00  0.00     0.029 A 
ATOM     57  C   UNL A   1      45.011  32.226  29.753  1.00  0.00     0.049 A 
ATOM     58  H   UNL A   1      43.620  30.734  29.217  1.00  0.00     0.167 HD
ATOM     59  C   UNL A   1      42.816  33.170  30.417  1.00  0.00     0.074 A 
ATOM     60  C   UNL A   1      41.980  34.206  30.985  1.00  0.00     0.031 C 
ATOM     61  C   UNL A   1      44.167  33.247  30.321  1.00  0.00     0.031 A 
BRANCH  48  62
ATOM     62  C   UNL A   1      46.793  28.261  27.779  1.00  0.00    -0.014 A 
ATOM     63  C   UNL A   1      47.354  28.478  26.507  1.00  0.00     0.010 A 
ATOM     64  C   UNL A   1      47.445  27.394  28.676  1.00  0.00     0.010 A 
ATOM     65  C   UNL A   1      48.520  27.809  26.125  1.00  0.00     0.020 A 
ATOM     66  C   UNL A   1      48.625  26.742  28.305  1.00  0.00     0.020 A 
ATOM     67  C   UNL A   1      49.144  26.940  27.024  1.00  0.00     0.054 A 
BRANCH  67  68
ATOM     68  S   UNL A   1      50.661  26.090  26.506  1.00  0.00     0.124 S 
ATOM     69  O   UNL A   1      50.463  25.973  25.064  1.00  0.00    -0.237 OA
ATOM     70  O   UNL A   1      51.708  27.020  26.922  1.00  0.00    -0.237 OA
ATOM     71  O   UNL A   1      50.622  24.830  27.245  1.00  0.00    -0.744 OA
ENDBRANCH  67  68
ENDBRANCH  48  62
BRANCH  49  72
ATOM     72  C   UNL A   1      38.163  32.453  30.536  1.00  0.00    -0.014 A 
ATOM     73  C   UNL A   1      37.736  32.351  31.870  1.00  0.00     0.010 A 
ATOM     74  C   UNL A   1      37.366  33.157  29.613  1.00  0.00     0.010 A 
ATOM     75  C   UNL A   1      36.529  32.933  32.273  1.00  0.00     0.020 A 
ATOM     76  C   UNL A   1      36.173  33.761  30.017  1.00  0.00     0.020 A 
ATOM     77  C   UNL A   1      35.756  33.637  31.344  1.00  0.00     0.054 A 
BRANCH  77  78
ATOM     78  S   UNL A   1      34.226  34.438  31.901  1.00  0.00     0.124 S 
ATOM     79  O   UNL A   1      33.655  33.422  32.778  1.00  0.00    -0.237 OA
ATOM     80  O   UNL A   1      34.723  35.641  32.564  1.00  0.00    -0.237 OA
ATOM     81  O   UNL A   1      33.497  34.678  30.658  1.00  0.00    -0.744 OA
ENDBRANCH  77  78
ENDBRANCH  49  72
BRANCH  61  82
ATOM     82  C   UNL A   1      44.828  34.506  30.817  1.00  0.00    -0.014 A 
ATOM     83  C   UNL A   1      45.276  34.621  32.144  1.00  0.00     0.010 A 
ATOM     84  C   UNL A   1      45.055  35.569  29.922  1.00  0.00     0.010 A 
ATOM     85  C   UNL A   1      45.914  35.788  32.576  1.00  0.00     0.020 A 
ATOM     86  C   UNL A   1      45.715  36.726  30.344  1.00  0.00     0.020 A 
ATOM     87  C   UNL A   1      46.128  36.833  31.673  1.00  0.00     0.054 A 
BRANCH  87  88
ATOM     88  S   UNL A   1      46.997  38.320  32.245  1.00  0.00     0.124 S 
ATOM     89  O   UNL A   1      47.754  38.706  31.058  1.00  0.00    -0.237 OA
ATOM     90  O   UNL A   1      45.900  39.214  32.608  1.00  0.00    -0.237 OA
ATOM     91  O   UNL A   1      47.799  37.841  33.369  1.00  0.00    -0.744 OA
ENDBRANCH  87  88
ENDBRANCH  61  82
ENDBRANCH  35  36
ENDBRANCH  28  30
ENDBRANCH  27  28
ENDBRANCH  26  27
ENDBRANCH  25  26
ENDBRANCH   1  25
TORSDOF 20
ENDMDL
MODEL 2
REMARK VINA RESULT:     -10.2      5.363      7.746
REMARK SMILES C[C@@H](C(=O)OCCOCCOC(=O)c1ccc(-c2c3nc(c(-c4ccc(S(=O)(=O)[O-])cc4)c4ccc([nH]4)c(-c4ccc(S(=O)(=O)[O-])cc4)c4nc(c(-c5ccc(S(=O)(=O)[O-])cc5)c5ccc2[nH]5)C=C4)C=C3)cc1)c1ccc(-c2ccn(C(F)F)c(=O)c2)cc1
REMARK SMILES IDX 8 1 7 2 6 3 5 4 3 5 4 6 2 7 1 8 74 9 75 10 89 11 76 12 88 13
REMARK SMILES IDX 77 14 78 15 79 16 87 17 80 18 85 19 81 20 86 21 82 22 83 23
REMARK SMILES IDX 84 24 9 25 10 26 11 27 12 28 13 29 14 30 15 31 73 32 16 33
REMARK SMILES IDX 72 34 17 35 18 36 19 37 66 38 20 39 71 40 65 41 67 42 21 43
REMARK SMILES IDX 70 44 64 45 63 46 22 48 52 49 33 50 51 51 34 52 37 53 50 54
REMARK SMILES IDX 68 55 35 56 36 57 49 59 69 60 38 61 23 62 24 63 32 64 25 65
REMARK SMILES IDX 31 66 26 67 27 68 28 69 29 70 30 71 53 72 54 73 62 74 55 75
REMARK SMILES IDX 61 76 56 77 57 78 58 79 59 80 60 81 39 82 40 83 48 84 41 85
REMARK SMILES IDX 47 86 42 87 43 88 44 89 45 90 46 91
REMARK H PARENT 67 47 37 58
REMARK Flexibility Score: inf
ROOT
ATOM      1  O   UNL A   1      45.842  22.826  24.847  1.00  0.00    -0.374 OA
ENDROOT
BRANCH   1   2
ATOM      2  C   UNL A   1      45.442  21.646  24.150  1.00  0.00     0.202 C 
BRANCH   2   3
ATOM      3  C   UNL A   1      44.898  20.500  25.007  1.00  0.00     0.261 C 
BRANCH   3   4
ATOM      4  O   UNL A   1      43.512  20.259  24.720  1.00  0.00    -0.463 OA
BRANCH   4   5
ATOM      5  C   UNL A   1      42.929  19.262  25.439  1.00  0.00     0.313 C 
ATOM      6  O   UNL A   1      43.006  18.072  25.150  1.00  0.00    -0.252 OA
BRANCH   5   7
ATOM      7  C   UNL A   1      42.223  19.774  26.705  1.00  0.00     0.126 C 
ATOM      8  C   UNL A   1      42.292  18.778  27.870  1.00  0.00     0.025 C 
BRANCH   7   9
ATOM      9  C   UNL A   1      40.824  20.325  26.395  1.00  0.00    -0.034 A 
ATOM     10  C   UNL A   1      40.409  21.632  26.700  1.00  0.00     0.005 A 
ATOM     11  C   UNL A   1      39.908  19.493  25.729  1.00  0.00     0.005 A 
ATOM     12  C   UNL A   1      39.126  22.088  26.347  1.00  0.00     0.009 A 
ATOM     13  C   UNL A   1      38.629  19.938  25.390  1.00  0.00     0.009 A 
ATOM     14  C   UNL A   1      38.230  21.243  25.684  1.00  0.00    -0.018 A 
BRANCH  14  15
ATOM     15  C   UNL A   1      36.895  21.687  25.239  1.00  0.00    -0.011 A 
ATOM     16  C   UNL A   1      35.666  21.139  25.781  1.00  0.00     0.027 A 
ATOM     17  C   UNL A   1      36.829  22.539  24.202  1.00  0.00     0.080 A 
ATOM     18  C   UNL A   1      34.488  21.421  25.213  1.00  0.00     0.095 A 
ATOM     19  C   UNL A   1      35.522  22.887  23.578  1.00  0.00     0.255 A 
ATOM     20  N   UNL A   1      34.408  22.264  24.119  1.00  0.00    -0.258 N 
ATOM     21  O   UNL A   1      35.512  23.664  22.628  1.00  0.00    -0.269 OA
BRANCH  20  22
ATOM     22  C   UNL A   1      33.147  22.500  23.468  1.00  0.00     0.451 C 
ATOM     23  F   UNL A   1      33.221  22.262  22.136  1.00  0.00    -0.185 F 
ATOM     24  F   UNL A   1      32.178  21.702  23.983  1.00  0.00    -0.185 F 
ENDBRANCH  20  22
ENDBRANCH  14  15
ENDBRANCH   7   9
ENDBRANCH   5   7
ENDBRANCH   4   5
ENDBRANCH   3   4
ENDBRANCH   2   3
ENDBRANCH   1   2
BRANCH   1  25
ATOM     25  C   UNL A   1      44.903  23.408  25.753  1.00  0.00     0.202 C 
BRANCH  25  26
ATOM     26  C   UNL A   1      43.624  24.000  25.147  1.00  0.00     0.261 C 
BRANCH  26  27
ATOM     27  O   UNL A   1      43.354  25.339  25.603  1.00  0.00    -0.460 OA
BRANCH  27  28
ATOM     28  C   UNL A   1      42.079  25.551  26.012  1.00  0.00     0.338 C 
ATOM     29  O   UNL A   1      41.059  25.105  25.503  1.00  0.00    -0.246 OA
BRANCH  28  30
ATOM     30  C   UNL A   1      42.059  26.263  27.304  1.00  0.00     0.060 A 
ATOM     31  C   UNL A   1      41.005  25.978  28.182  1.00  0.00     0.016 A 
ATOM     32  C   UNL A   1      42.990  27.256  27.615  1.00  0.00     0.016 A 
ATOM     33  C   UNL A   1      40.849  26.718  29.351  1.00  0.00     0.010 A 
ATOM     34  C   UNL A   1      42.823  28.007  28.787  1.00  0.00     0.010 A 
ATOM     35  C   UNL A   1      41.732  27.765  29.641  1.00  0.00    -0.014 A 
BRANCH  35  36
ATOM     36  C   UNL A   1      41.421  28.693  30.757  1.00  0.00     0.031 A 
ATOM     37  C   UNL A   1      42.250  28.631  32.013  1.00  0.00     0.074 A 
ATOM     38  C   UNL A   1      40.442  29.608  30.642  1.00  0.00     0.049 A 
ATOM     39  N   UNL A   1      42.153  29.343  33.105  1.00  0.00    -0.248 NA
ATOM     40  C   UNL A   1      43.335  27.635  32.037  1.00  0.00     0.031 C 
ATOM     41  C   UNL A   1      39.598  29.800  29.463  1.00  0.00     0.029 A 
ATOM     42  N   UNL A   1      39.997  30.552  31.534  1.00  0.00    -0.354 N 
ATOM     43  C   UNL A   1      43.159  28.884  33.947  1.00  0.00     0.074 A 
ATOM     44  C   UNL A   1      43.835  27.811  33.252  1.00  0.00     0.031 C 
ATOM     45  C   UNL A   1      38.729  30.796  29.708  1.00  0.00     0.029 A 
ATOM     46  C   UNL A   1      38.937  31.292  31.067  1.00  0.00     0.049 A 
ATOM     47  H   UNL A   1      40.397  30.686  32.422  1.00  0.00     0.167 HD
ATOM     48  C   UNL A   1      43.495  29.320  35.185  1.00  0.00     0.031 A 
ATOM     49  C   UNL A   1      38.205  32.248  31.674  1.00  0.00     0.031 A 
ATOM     50  C   UNL A   1      42.812  30.373  35.886  1.00  0.00     0.049 A 
ATOM     51  C   UNL A   1      38.550  32.666  33.078  1.00  0.00     0.074 A 
ATOM     52  C   UNL A   1      43.080  30.887  37.143  1.00  0.00     0.029 A 
ATOM     53  N   UNL A   1      41.720  31.072  35.395  1.00  0.00    -0.354 N 
ATOM     54  N   UNL A   1      39.516  32.234  33.854  1.00  0.00    -0.248 NA
ATOM     55  C   UNL A   1      37.711  33.710  33.687  1.00  0.00     0.031 C 
ATOM     56  C   UNL A   1      42.119  31.862  37.432  1.00  0.00     0.029 A 
ATOM     57  C   UNL A   1      41.287  31.995  36.332  1.00  0.00     0.049 A 
ATOM     58  H   UNL A   1      41.311  30.932  34.510  1.00  0.00     0.167 HD
ATOM     59  C   UNL A   1      39.414  32.968  35.032  1.00  0.00     0.074 A 
ATOM     60  C   UNL A   1      38.302  33.880  34.862  1.00  0.00     0.031 C 
ATOM     61  C   UNL A   1      40.176  32.894  36.151  1.00  0.00     0.031 A 
BRANCH  48  62
ATOM     62  C   UNL A   1      44.639  28.625  35.874  1.00  0.00    -0.014 A 
ATOM     63  C   UNL A   1      44.440  27.429  36.586  1.00  0.00     0.010 A 
ATOM     64  C   UNL A   1      45.937  29.162  35.785  1.00  0.00     0.010 A 
ATOM     65  C   UNL A   1      45.510  26.805  37.234  1.00  0.00     0.020 A 
ATOM     66  C   UNL A   1      47.014  28.528  36.410  1.00  0.00     0.020 A 
ATOM     67  C   UNL A   1      46.790  27.362  37.147  1.00  0.00     0.054 A 
BRANCH  67  68
ATOM     68  S   UNL A   1      48.164  26.529  37.989  1.00  0.00     0.124 S 
ATOM     69  O   UNL A   1      49.102  26.312  36.891  1.00  0.00    -0.237 OA
ATOM     70  O   UNL A   1      48.579  27.518  38.982  1.00  0.00    -0.237 OA
ATOM     71  O   UNL A   1      47.554  25.320  38.537  1.00  0.00    -0.744 OA
ENDBRANCH  67  68
ENDBRANCH  48  62
BRANCH  49  72
ATOM     72  C   UNL A   1      37.053  32.861  30.958  1.00  0.00    -0.014 A 
ATOM     73  C   UNL A   1      37.258  33.820  29.952  1.00  0.00     0.010 A 
ATOM     74  C   UNL A   1      35.738  32.477  31.280  1.00  0.00     0.010 A 
ATOM     75  C   UNL A   1      36.168  34.392  29.286  1.00  0.00     0.020 A 
ATOM     76  C   UNL A   1      34.648  33.026  30.600  1.00  0.00     0.020 A 
ATOM     77  C   UNL A   1      34.870  33.989  29.614  1.00  0.00     0.054 A 
BRANCH  77  78
ATOM     78  S   UNL A   1      33.473  34.694  28.695  1.00  0.00     0.124 S 
ATOM     79  O   UNL A   1      33.121  33.602  27.794  1.00  0.00    -0.237 OA
ATOM     80  O   UNL A   1      32.509  34.978  29.754  1.00  0.00    -0.237 OA
ATOM     81  O   UNL A   1      34.049  35.875  28.056  1.00  0.00    -0.744 OA
ENDBRANCH  77  78
ENDBRANCH  49  72
BRANCH  61  82
ATOM     82  C   UNL A   1      39.854  33.844  37.275  1.00  0.00    -0.014 A 
ATOM     83  C   UNL A   1      39.075  33.440  38.372  1.00  0.00     0.010 A 
ATOM     84  C   UNL A   1      40.391  35.146  37.257  1.00  0.00     0.010 A 
ATOM     85  C   UNL A   1      38.813  34.328  39.419  1.00  0.00     0.020 A 
ATOM     86  C   UNL A   1      40.152  36.028  38.314  1.00  0.00     0.020 A 
ATOM     87  C   UNL A   1      39.353  35.618  39.382  1.00  0.00     0.054 A 
BRANCH  87  88
ATOM     88  S   UNL A   1      39.035  36.740  40.773  1.00  0.00     0.124 S 
ATOM     89  O   UNL A   1      38.217  35.909  41.652  1.00  0.00    -0.237 OA
ATOM     90  O   UNL A   1      40.380  37.035  41.261  1.00  0.00    -0.237 OA
ATOM     91  O   UNL A   1      38.341  37.868  40.156  1.00  0.00    -0.744 OA
ENDBRANCH  87  88
ENDBRANCH  61  82
ENDBRANCH  35  36
ENDBRANCH  28  30
ENDBRANCH  27  28
ENDBRANCH  26  27
ENDBRANCH  25  26
ENDBRANCH   1  25
TORSDOF 20
ENDMDL
MODEL 3
REMARK VINA RESULT:     -10.0      4.827      7.078
REMARK SMILES C[C@@H](C(=O)OCCOCCOC(=O)c1ccc(-c2c3nc(c(-c4ccc(S(=O)(=O)[O-])cc4)c4ccc([nH]4)c(-c4ccc(S(=O)(=O)[O-])cc4)c4nc(c(-c5ccc(S(=O)(=O)[O-])cc5)c5ccc2[nH]5)C=C4)C=C3)cc1)c1ccc(-c2ccn(C(F)F)c(=O)c2)cc1
REMARK SMILES IDX 8 1 7 2 6 3 5 4 3 5 4 6 2 7 1 8 74 9 75 10 89 11 76 12 88 13
REMARK SMILES IDX 77 14 78 15 79 16 87 17 80 18 85 19 81 20 86 21 82 22 83 23
REMARK SMILES IDX 84 24 9 25 10 26 11 27 12 28 13 29 14 30 15 31 73 32 16 33
REMARK SMILES IDX 72 34 17 35 18 36 19 37 66 38 20 39 71 40 65 41 67 42 21 43
REMARK SMILES IDX 70 44 64 45 63 46 22 48 52 49 33 50 51 51 34 52 37 53 50 54
REMARK SMILES IDX 68 55 35 56 36 57 49 59 69 60 38 61 23 62 24 63 32 64 25 65
REMARK SMILES IDX 31 66 26 67 27 68 28 69 29 70 30 71 53 72 54 73 62 74 55 75
REMARK SMILES IDX 61 76 56 77 57 78 58 79 59 80 60 81 39 82 40 83 48 84 41 85
REMARK SMILES IDX 47 86 42 87 43 88 44 89 45 90 46 91
REMARK H PARENT 67 47 37 58
REMARK Flexibility Score: inf
ROOT
ATOM      1  O   UNL A   1      34.175  29.151  27.047  1.00  0.00    -0.374 OA
ENDROOT
BRANCH   1   2
ATOM      2  C   UNL A   1      33.678  29.140  25.709  1.00  0.00     0.202 C 
BRANCH   2   3
ATOM      3  C   UNL A   1      33.463  27.763  25.074  1.00  0.00     0.261 C 
BRANCH   3   4
ATOM      4  O   UNL A   1      32.305  27.766  24.224  1.00  0.00    -0.463 OA
BRANCH   4   5
ATOM      5  C   UNL A   1      31.870  26.541  23.823  1.00  0.00     0.313 C 
ATOM      6  O   UNL A   1      30.717  26.143  23.961  1.00  0.00    -0.252 OA
BRANCH   5   7
ATOM      7  C   UNL A   1      32.959  25.728  23.102  1.00  0.00     0.126 C 
ATOM      8  C   UNL A   1      33.128  26.134  21.631  1.00  0.00     0.025 C 
BRANCH   7   9
ATOM      9  C   UNL A   1      32.808  24.222  23.354  1.00  0.00    -0.034 A 
ATOM     10  C   UNL A   1      32.187  23.334  22.459  1.00  0.00     0.005 A 
ATOM     11  C   UNL A   1      33.356  23.681  24.529  1.00  0.00     0.005 A 
ATOM     12  C   UNL A   1      32.123  21.956  22.731  1.00  0.00     0.009 A 
ATOM     13  C   UNL A   1      33.281  22.315  24.808  1.00  0.00     0.009 A 
ATOM     14  C   UNL A   1      32.675  21.438  23.906  1.00  0.00    -0.018 A 
BRANCH  14  15
ATOM     15  C   UNL A   1      32.687  19.995  24.214  1.00  0.00    -0.011 A 
ATOM     16  C   UNL A   1      32.656  19.482  25.571  1.00  0.00     0.027 A 
ATOM     17  C   UNL A   1      32.862  19.136  23.195  1.00  0.00     0.080 A 
ATOM     18  C   UNL A   1      32.870  18.183  25.811  1.00  0.00     0.095 A 
ATOM     19  C   UNL A   1      33.069  17.682  23.445  1.00  0.00     0.255 A 
ATOM     20  N   UNL A   1      33.093  17.294  24.775  1.00  0.00    -0.258 N 
ATOM     21  O   UNL A   1      33.233  16.938  22.483  1.00  0.00    -0.269 OA
BRANCH  20  22
ATOM     22  C   UNL A   1      33.397  15.914  25.048  1.00  0.00     0.451 C 
ATOM     23  F   UNL A   1      34.371  15.794  25.983  1.00  0.00    -0.185 F 
ATOM     24  F   UNL A   1      32.300  15.256  25.501  1.00  0.00    -0.185 F 
ENDBRANCH  20  22
ENDBRANCH  14  15
ENDBRANCH   7   9
ENDBRANCH   5   7
ENDBRANCH   4   5
ENDBRANCH   3   4
ENDBRANCH   2   3
ENDBRANCH   1   2
BRANCH   1  25
ATOM     25  C   UNL A   1      34.481  30.420  27.628  1.00  0.00     0.202 C 
BRANCH  25  26
ATOM     26  C   UNL A   1      33.375  31.484  27.600  1.00  0.00     0.261 C 
BRANCH  26  27
ATOM     27  O   UNL A   1      33.876  32.807  27.331  1.00  0.00    -0.460 OA
BRANCH  27  28
ATOM     28  C   UNL A   1      33.720  33.688  28.351  1.00  0.00     0.338 C 
ATOM     29  O   UNL A   1      32.754  34.412  28.556  1.00  0.00    -0.246 OA
BRANCH  28  30
ATOM     30  C   UNL A   1      34.812  33.546  29.332  1.00  0.00     0.060 A 
ATOM     31  C   UNL A   1      36.059  34.087  28.993  1.00  0.00     0.016 A 
ATOM     32  C   UNL A   1      34.653  32.821  30.514  1.00  0.00     0.016 A 
ATOM     33  C   UNL A   1      37.165  33.862  29.810  1.00  0.00     0.010 A 
ATOM     34  C   UNL A   1      35.770  32.587  31.328  1.00  0.00     0.010 A 
ATOM     35  C   UNL A   1      37.037  33.075  30.961  1.00  0.00    -0.014 A 
BRANCH  35  36
ATOM     36  C   UNL A   1      38.257  32.648  31.690  1.00  0.00     0.031 A 
ATOM     37  C   UNL A   1      39.155  31.611  31.069  1.00  0.00     0.074 A 
ATOM     38  C   UNL A   1      38.588  33.205  32.869  1.00  0.00     0.049 A 
ATOM     39  N   UNL A   1      40.265  31.095  31.528  1.00  0.00    -0.248 NA
ATOM     40  C   UNL A   1      38.747  31.090  29.752  1.00  0.00     0.031 C 
ATOM     41  C   UNL A   1      37.827  34.250  33.554  1.00  0.00     0.029 A 
ATOM     42  N   UNL A   1      39.657  32.966  33.697  1.00  0.00    -0.354 N 
ATOM     43  C   UNL A   1      40.689  30.189  30.562  1.00  0.00     0.074 A 
ATOM     44  C   UNL A   1      39.701  30.204  29.506  1.00  0.00     0.031 C 
ATOM     45  C   UNL A   1      38.451  34.556  34.705  1.00  0.00     0.029 A 
ATOM     46  C   UNL A   1      39.635  33.713  34.850  1.00  0.00     0.049 A 
ATOM     47  H   UNL A   1      40.369  32.322  33.485  1.00  0.00     0.167 HD
ATOM     48  C   UNL A   1      41.804  29.419  30.551  1.00  0.00     0.031 A 
ATOM     49  C   UNL A   1      40.467  33.704  35.912  1.00  0.00     0.031 A 
ATOM     50  C   UNL A   1      42.777  29.389  31.609  1.00  0.00     0.049 A 
ATOM     51  C   UNL A   1      41.660  32.787  35.912  1.00  0.00     0.074 A 
ATOM     52  C   UNL A   1      43.941  28.643  31.688  1.00  0.00     0.029 A 
ATOM     53  N   UNL A   1      42.700  30.131  32.777  1.00  0.00    -0.354 N 
ATOM     54  N   UNL A   1      42.056  31.949  34.982  1.00  0.00    -0.248 NA
ATOM     55  C   UNL A   1      42.526  32.820  37.100  1.00  0.00     0.031 C 
ATOM     56  C   UNL A   1      44.541  28.897  32.926  1.00  0.00     0.029 A 
ATOM     57  C   UNL A   1      43.781  29.845  33.593  1.00  0.00     0.049 A 
ATOM     58  H   UNL A   1      41.982  30.769  32.995  1.00  0.00     0.167 HD
ATOM     59  C   UNL A   1      43.227  31.374  35.465  1.00  0.00     0.074 A 
ATOM     60  C   UNL A   1      43.483  31.968  36.760  1.00  0.00     0.031 C 
ATOM     61  C   UNL A   1      44.021  30.440  34.884  1.00  0.00     0.031 A 
BRANCH  48  62
ATOM     62  C   UNL A   1      42.007  28.517  29.364  1.00  0.00    -0.014 A 
ATOM     63  C   UNL A   1      42.676  28.970  28.213  1.00  0.00     0.010 A 
ATOM     64  C   UNL A   1      41.546  27.188  29.410  1.00  0.00     0.010 A 
ATOM     65  C   UNL A   1      42.843  28.124  27.113  1.00  0.00     0.020 A 
ATOM     66  C   UNL A   1      41.733  26.332  28.321  1.00  0.00     0.020 A 
ATOM     67  C   UNL A   1      42.364  26.812  27.171  1.00  0.00     0.054 A 
BRANCH  67  68
ATOM     68  S   UNL A   1      42.600  25.731  25.733  1.00  0.00     0.124 S 
ATOM     69  O   UNL A   1      41.359  25.942  24.992  1.00  0.00    -0.237 OA
ATOM     70  O   UNL A   1      43.803  26.281  25.112  1.00  0.00    -0.237 OA
ATOM     71  O   UNL A   1      42.758  24.402  26.320  1.00  0.00    -0.744 OA
ENDBRANCH  67  68
ENDBRANCH  48  62
BRANCH  49  72
ATOM     72  C   UNL A   1      40.183  34.584  37.078  1.00  0.00    -0.014 A 
ATOM     73  C   UNL A   1      40.676  35.899  37.127  1.00  0.00     0.010 A 
ATOM     74  C   UNL A   1      39.404  34.105  38.149  1.00  0.00     0.010 A 
ATOM     75  C   UNL A   1      40.405  36.716  38.230  1.00  0.00     0.020 A 
ATOM     76  C   UNL A   1      39.110  34.926  39.240  1.00  0.00     0.020 A 
ATOM     77  C   UNL A   1      39.620  36.225  39.278  1.00  0.00     0.054 A 
BRANCH  77  78
ATOM     78  S   UNL A   1      39.226  37.322  40.669  1.00  0.00     0.124 S 
ATOM     79  O   UNL A   1      40.541  37.845  41.023  1.00  0.00    -0.237 OA
ATOM     80  O   UNL A   1      38.304  38.280  40.065  1.00  0.00    -0.237 OA
ATOM     81  O   UNL A   1      38.623  36.423  41.650  1.00  0.00    -0.744 OA
ENDBRANCH  77  78
ENDBRANCH  49  72
BRANCH  61  82
ATOM     82  C   UNL A   1      45.260  30.019  35.630  1.00  0.00    -0.014 A 
ATOM     83  C   UNL A   1      45.245  28.923  36.509  1.00  0.00     0.010 A 
ATOM     84  C   UNL A   1      46.472  30.698  35.402  1.00  0.00     0.010 A 
ATOM     85  C   UNL A   1      46.413  28.529  37.168  1.00  0.00     0.020 A 
ATOM     86  C   UNL A   1      47.646  30.292  36.040  1.00  0.00     0.020 A 
ATOM     87  C   UNL A   1      47.606  29.219  36.931  1.00  0.00     0.054 A 
BRANCH  87  88
ATOM     88  S   UNL A   1      49.119  28.663  37.766  1.00  0.00     0.124 S 
ATOM     89  O   UNL A   1      50.038  29.764  37.492  1.00  0.00    -0.237 OA
ATOM     90  O   UNL A   1      48.690  28.535  39.156  1.00  0.00    -0.237 OA
ATOM     91  O   UNL A   1      49.438  27.402  37.100  1.00  0.00    -0.744 OA
ENDBRANCH  87  88
ENDBRANCH  61  82
ENDBRANCH  35  36
ENDBRANCH  28  30
ENDBRANCH  27  28
ENDBRANCH  26  27
ENDBRANCH  25  26
ENDBRANCH   1  25
TORSDOF 20
ENDMDL
