MODEL 1
REMARK VINA RESULT:     -11.2      0.000      0.000
REMARK SMILES Cc1nc(NC(=O)[C@@H]2CCC[C@@H](C(=O)OCCOCCOC(=O)c3ccc(-c4c5nc(c(-c6ccc(S(=O)(=O)[O-])cc6)c6ccc([nH]6)c(-c6ccc(S(=O)(=O)[O-])cc6)c6nc(c(-c7ccc(S(=O)(=O)[O-])cc7)c7ccc4[nH]7)C=C6)C=C5)cc3)C2)ccc1Br
REMARK SMILES IDX 19 1 18 2 17 3 16 4 15 5 13 6 14 7 12 8 8 9 9 10 84 11 10 12
REMARK SMILES IDX 11 13 6 14 5 15 7 17 4 18 1 19 2 20 3 21 87 22 86 23 88 24
REMARK SMILES IDX 85 25 20 26 21 27 22 28 23 29 24 30 25 31 83 32 26 33 82 34
REMARK SMILES IDX 27 35 28 36 29 37 76 38 30 39 81 40 75 41 77 42 31 43 80 44
REMARK SMILES IDX 74 45 73 46 32 48 62 49 43 50 61 51 44 52 47 53 60 54 78 55
REMARK SMILES IDX 45 56 46 57 59 59 79 60 48 61 33 62 34 63 42 64 35 65 41 66
REMARK SMILES IDX 36 67 37 68 38 69 39 70 40 71 63 72 64 73 72 74 65 75 71 76
REMARK SMILES IDX 66 77 67 78 68 79 69 80 70 81 49 82 50 83 58 84 51 85 57 86
REMARK SMILES IDX 52 87 53 88 54 89 55 90 56 91
REMARK H PARENT 5 16 77 47 47 58
REMARK Flexibility Score: inf
ROOT
ATOM      1  C   UNL A   1      39.565  21.469  26.183  1.00  0.00     0.202 C 
ENDROOT
BRANCH   1   2
ATOM      2  O   UNL A   1      38.313  22.083  25.880  1.00  0.00    -0.374 OA
BRANCH   2   3
ATOM      3  C   UNL A   1      37.374  21.339  25.109  1.00  0.00     0.202 C 
BRANCH   3   4
ATOM      4  C   UNL A   1      36.005  21.983  24.882  1.00  0.00     0.261 C 
BRANCH   4   5
ATOM      5  O   UNL A   1      34.987  21.367  25.683  1.00  0.00    -0.463 OA
BRANCH   5   6
ATOM      6  C   UNL A   1      34.353  20.302  25.127  1.00  0.00     0.309 C 
ATOM      7  O   UNL A   1      34.906  19.369  24.558  1.00  0.00    -0.252 OA
BRANCH   6   8
ATOM      8  C   UNL A   1      32.836  20.413  25.231  1.00  0.00     0.100 C 
ATOM      9  C   UNL A   1      32.400  22.967  25.725  1.00  0.00     0.080 C 
ATOM     10  C   UNL A   1      32.191  23.080  24.211  1.00  0.00     0.013 C 
ATOM     11  C   UNL A   1      32.281  21.484  26.184  1.00  0.00     0.028 C 
ATOM     12  C   UNL A   1      32.649  21.951  23.303  1.00  0.00     0.002 C 
ATOM     13  C   UNL A   1      32.265  20.591  23.833  1.00  0.00     0.015 C 
BRANCH   9  14
ATOM     14  C   UNL A   1      31.480  23.819  26.660  1.00  0.00     0.228 C 
ATOM     15  N   UNL A   1      31.339  25.171  26.680  1.00  0.00    -0.310 N 
ATOM     16  H   UNL A   1      30.684  25.459  27.357  1.00  0.00     0.171 HD
ATOM     17  O   UNL A   1      30.781  23.219  27.495  1.00  0.00    -0.274 OA
BRANCH  15  18
ATOM     18  C   UNL A   1      31.879  26.251  25.994  1.00  0.00     0.132 A 
ATOM     19  C   UNL A   1      30.754  28.261  23.134  1.00  0.00     0.068 C 
ATOM     20  C   UNL A   1      31.680  27.571  24.091  1.00  0.00     0.054 A 
ATOM     21  N   UNL A   1      31.105  26.733  25.001  1.00  0.00    -0.235 NA
ATOM     22  C   UNL A   1      33.048  27.819  24.085  1.00  0.00     0.039 A 
ATOM     23  C   UNL A   1      33.767  27.467  25.216  1.00  0.00     0.021 A 
ATOM     24  Br  UNL A   1      33.955  28.606  22.626  1.00  0.00    -0.049 Br
ATOM     25  C   UNL A   1      33.124  26.776  26.239  1.00  0.00     0.048 A 
ENDBRANCH  15  18
ENDBRANCH   9  14
ENDBRANCH   6   8
ENDBRANCH   5   6
ENDBRANCH   4   5
ENDBRANCH   3   4
ENDBRANCH   2   3
ENDBRANCH   1   2
BRANCH   1  26
ATOM     26  C   UNL A   1      40.561  22.274  27.025  1.00  0.00     0.261 C 
BRANCH  26  27
ATOM     27  O   UNL A   1      40.149  23.639  27.218  1.00  0.00    -0.460 OA
BRANCH  27  28
ATOM     28  C   UNL A   1      41.164  24.539  27.190  1.00  0.00     0.338 C 
ATOM     29  O   UNL A   1      42.182  24.482  26.528  1.00  0.00    -0.246 OA
BRANCH  28  30
ATOM     30  C   UNL A   1      40.804  25.738  27.967  1.00  0.00     0.060 A 
ATOM     31  C   UNL A   1      41.765  26.752  28.072  1.00  0.00     0.016 A 
ATOM     32  C   UNL A   1      39.620  25.796  28.704  1.00  0.00     0.016 A 
ATOM     33  C   UNL A   1      41.573  27.802  28.966  1.00  0.00     0.010 A 
ATOM     34  C   UNL A   1      39.438  26.840  29.616  1.00  0.00     0.010 A 
ATOM     35  C   UNL A   1      40.435  27.819  29.783  1.00  0.00    -0.014 A 
BRANCH  35  36
ATOM     36  C   UNL A   1      40.391  28.749  30.936  1.00  0.00     0.031 A 
ATOM     37  C   UNL A   1      39.374  29.859  30.929  1.00  0.00     0.074 A 
ATOM     38  C   UNL A   1      41.201  28.577  31.993  1.00  0.00     0.049 A 
ATOM     39  N   UNL A   1      39.158  30.783  31.829  1.00  0.00    -0.248 NA
ATOM     40  C   UNL A   1      38.476  29.933  29.763  1.00  0.00     0.031 C 
ATOM     41  C   UNL A   1      42.176  27.498  32.147  1.00  0.00     0.029 A 
ATOM     42  N   UNL A   1      41.323  29.310  33.147  1.00  0.00    -0.354 N 
ATOM     43  C   UNL A   1      38.107  31.549  31.337  1.00  0.00     0.074 A 
ATOM     44  C   UNL A   1      37.737  30.993  30.055  1.00  0.00     0.031 C 
ATOM     45  C   UNL A   1      42.797  27.639  33.331  1.00  0.00     0.029 A 
ATOM     46  C   UNL A   1      42.286  28.834  34.003  1.00  0.00     0.049 A 
ATOM     47  H   UNL A   1      40.773  30.103  33.342  1.00  0.00     0.167 HD
ATOM     48  C   UNL A   1      37.502  32.617  31.906  1.00  0.00     0.031 A 
ATOM     49  C   UNL A   1      42.715  29.313  35.188  1.00  0.00     0.031 A 
ATOM     50  C   UNL A   1      37.874  33.174  33.177  1.00  0.00     0.049 A 
ATOM     51  C   UNL A   1      42.089  30.557  35.758  1.00  0.00     0.074 A 
ATOM     52  C   UNL A   1      37.310  34.251  33.837  1.00  0.00     0.029 A 
ATOM     53  N   UNL A   1      38.904  32.705  33.976  1.00  0.00    -0.354 N 
ATOM     54  N   UNL A   1      41.100  31.271  35.279  1.00  0.00    -0.248 NA
ATOM     55  C   UNL A   1      42.637  31.060  37.026  1.00  0.00     0.031 C 
ATOM     56  C   UNL A   1      38.033  34.466  35.014  1.00  0.00     0.029 A 
ATOM     57  C   UNL A   1      39.011  33.489  35.111  1.00  0.00     0.049 A 
ATOM     58  H   UNL A   1      39.475  31.930  33.767  1.00  0.00     0.167 HD
ATOM     59  C   UNL A   1      40.892  32.296  36.196  1.00  0.00     0.074 A 
ATOM     60  C   UNL A   1      41.857  32.109  37.260  1.00  0.00     0.031 C 
ATOM     61  C   UNL A   1      39.979  33.296  36.160  1.00  0.00     0.031 A 
BRANCH  48  62
ATOM     62  C   UNL A   1      36.386  33.281  31.150  1.00  0.00    -0.014 A 
ATOM     63  C   UNL A   1      35.099  33.384  31.702  1.00  0.00     0.010 A 
ATOM     64  C   UNL A   1      36.655  33.888  29.910  1.00  0.00     0.010 A 
ATOM     65  C   UNL A   1      34.096  34.082  31.026  1.00  0.00     0.020 A 
ATOM     66  C   UNL A   1      35.660  34.603  29.239  1.00  0.00     0.020 A 
ATOM     67  C   UNL A   1      34.385  34.695  29.802  1.00  0.00     0.054 A 
BRANCH  67  68
ATOM     68  S   UNL A   1      33.074  35.636  28.973  1.00  0.00     0.124 S 
ATOM     69  O   UNL A   1      32.313  36.160  30.105  1.00  0.00    -0.237 OA
ATOM     70  O   UNL A   1      33.832  36.625  28.213  1.00  0.00    -0.237 OA
ATOM     71  O   UNL A   1      32.377  34.632  28.172  1.00  0.00    -0.744 OA
ENDBRANCH  67  68
ENDBRANCH  48  62
BRANCH  49  72
ATOM     72  C   UNL A   1      43.804  28.605  35.909  1.00  0.00    -0.014 A 
ATOM     73  C   UNL A   1      45.145  28.976  35.713  1.00  0.00     0.010 A 
ATOM     74  C   UNL A   1      43.500  27.585  36.829  1.00  0.00     0.010 A 
ATOM     75  C   UNL A   1      46.163  28.347  36.435  1.00  0.00     0.020 A 
ATOM     76  C   UNL A   1      44.513  26.968  37.566  1.00  0.00     0.020 A 
ATOM     77  C   UNL A   1      45.839  27.357  37.368  1.00  0.00     0.054 A 
BRANCH  77  78
ATOM     78  S   UNL A   1      47.175  26.613  38.343  1.00  0.00     0.124 S 
ATOM     79  O   UNL A   1      46.963  25.186  38.121  1.00  0.00    -0.237 OA
ATOM     80  O   UNL A   1      48.364  27.182  37.715  1.00  0.00    -0.237 OA
ATOM     81  O   UNL A   1      46.910  27.080  39.702  1.00  0.00    -0.744 OA
ENDBRANCH  77  78
ENDBRANCH  49  72
BRANCH  61  82
ATOM     82  C   UNL A   1      39.948  34.270  37.305  1.00  0.00    -0.014 A 
ATOM     83  C   UNL A   1      40.719  35.443  37.276  1.00  0.00     0.010 A 
ATOM     84  C   UNL A   1      39.042  34.065  38.363  1.00  0.00     0.010 A 
ATOM     85  C   UNL A   1      40.585  36.398  38.287  1.00  0.00     0.020 A 
ATOM     86  C   UNL A   1      38.890  35.027  39.365  1.00  0.00     0.020 A 
ATOM     87  C   UNL A   1      39.664  36.189  39.319  1.00  0.00     0.054 A 
BRANCH  87  88
ATOM     88  S   UNL A   1      39.467  37.477  40.580  1.00  0.00     0.124 S 
ATOM     89  O   UNL A   1      39.185  36.693  41.780  1.00  0.00    -0.237 OA
ATOM     90  O   UNL A   1      40.767  38.142  40.556  1.00  0.00    -0.237 OA
ATOM     91  O   UNL A   1      38.350  38.281  40.089  1.00  0.00    -0.744 OA
ENDBRANCH  87  88
ENDBRANCH  61  82
ENDBRANCH  35  36
ENDBRANCH  28  30
ENDBRANCH  27  28
ENDBRANCH  26  27
ENDBRANCH   1  26
TORSDOF 19
ENDMDL
MODEL 2
REMARK VINA RESULT:     -11.1      3.832      8.982
REMARK SMILES Cc1nc(NC(=O)[C@@H]2CCC[C@@H](C(=O)OCCOCCOC(=O)c3ccc(-c4c5nc(c(-c6ccc(S(=O)(=O)[O-])cc6)c6ccc([nH]6)c(-c6ccc(S(=O)(=O)[O-])cc6)c6nc(c(-c7ccc(S(=O)(=O)[O-])cc7)c7ccc4[nH]7)C=C6)C=C5)cc3)C2)ccc1Br
REMARK SMILES IDX 19 1 18 2 17 3 16 4 15 5 13 6 14 7 12 8 8 9 9 10 84 11 10 12
REMARK SMILES IDX 11 13 6 14 5 15 7 17 4 18 1 19 2 20 3 21 87 22 86 23 88 24
REMARK SMILES IDX 85 25 20 26 21 27 22 28 23 29 24 30 25 31 83 32 26 33 82 34
REMARK SMILES IDX 27 35 28 36 29 37 76 38 30 39 81 40 75 41 77 42 31 43 80 44
REMARK SMILES IDX 74 45 73 46 32 48 62 49 43 50 61 51 44 52 47 53 60 54 78 55
REMARK SMILES IDX 45 56 46 57 59 59 79 60 48 61 33 62 34 63 42 64 35 65 41 66
REMARK SMILES IDX 36 67 37 68 38 69 39 70 40 71 63 72 64 73 72 74 65 75 71 76
REMARK SMILES IDX 66 77 67 78 68 79 69 80 70 81 49 82 50 83 58 84 51 85 57 86
REMARK SMILES IDX 52 87 53 88 54 89 55 90 56 91
REMARK H PARENT 5 16 77 47 47 58
REMARK Flexibility Score: inf
ROOT
ATOM      1  C   UNL A   1      36.643  21.454  25.242  1.00  0.00     0.202 C 
ENDROOT
BRANCH   1   2
ATOM      2  O   UNL A   1      35.397  21.192  25.887  1.00  0.00    -0.374 OA
BRANCH   2   3
ATOM      3  C   UNL A   1      34.414  20.455  25.165  1.00  0.00     0.202 C 
BRANCH   3   4
ATOM      4  C   UNL A   1      32.973  20.550  25.673  1.00  0.00     0.261 C 
BRANCH   4   5
ATOM      5  O   UNL A   1      32.073  20.976  24.642  1.00  0.00    -0.463 OA
BRANCH   5   6
ATOM      6  C   UNL A   1      31.779  22.302  24.615  1.00  0.00     0.309 C 
ATOM      7  O   UNL A   1      31.616  23.009  25.601  1.00  0.00    -0.252 OA
BRANCH   6   8
ATOM      8  C   UNL A   1      31.610  22.828  23.195  1.00  0.00     0.100 C 
ATOM      9  C   UNL A   1      32.166  25.400  23.379  1.00  0.00     0.080 C 
ATOM     10  C   UNL A   1      33.573  24.985  22.936  1.00  0.00     0.013 C 
ATOM     11  C   UNL A   1      31.134  24.283  23.043  1.00  0.00     0.028 C 
ATOM     12  C   UNL A   1      33.975  23.520  22.989  1.00  0.00     0.002 C 
ATOM     13  C   UNL A   1      32.909  22.607  22.436  1.00  0.00     0.015 C 
BRANCH   9  14
ATOM     14  C   UNL A   1      31.590  26.746  22.829  1.00  0.00     0.228 C 
ATOM     15  N   UNL A   1      31.560  27.954  23.450  1.00  0.00    -0.310 N 
ATOM     16  H   UNL A   1      31.154  28.647  22.881  1.00  0.00     0.171 HD
ATOM     17  O   UNL A   1      31.092  26.745  21.689  1.00  0.00    -0.274 OA
BRANCH  15  18
ATOM     18  C   UNL A   1      31.955  28.464  24.681  1.00  0.00     0.132 A 
ATOM     19  C   UNL A   1      31.302  31.615  26.450  1.00  0.00     0.068 C 
ATOM     20  C   UNL A   1      32.019  30.377  26.001  1.00  0.00     0.054 A 
ATOM     21  N   UNL A   1      31.447  29.677  24.978  1.00  0.00    -0.235 NA
ATOM     22  C   UNL A   1      33.175  29.936  26.634  1.00  0.00     0.039 A 
ATOM     23  C   UNL A   1      33.549  28.616  26.436  1.00  0.00     0.021 A 
ATOM     24  Br  UNL A   1      34.240  31.039  27.738  1.00  0.00    -0.049 Br
ATOM     25  C   UNL A   1      32.837  27.839  25.527  1.00  0.00     0.048 A 
ENDBRANCH  15  18
ENDBRANCH   9  14
ENDBRANCH   6   8
ENDBRANCH   5   6
ENDBRANCH   4   5
ENDBRANCH   3   4
ENDBRANCH   2   3
ENDBRANCH   1   2
BRANCH   1  26
ATOM     26  C   UNL A   1      37.447  22.666  25.724  1.00  0.00     0.261 C 
BRANCH  26  27
ATOM     27  O   UNL A   1      38.865  22.501  25.540  1.00  0.00    -0.460 OA
BRANCH  27  28
ATOM     28  C   UNL A   1      39.597  22.660  26.671  1.00  0.00     0.338 C 
ATOM     29  O   UNL A   1      40.316  21.837  27.206  1.00  0.00    -0.246 OA
BRANCH  28  30
ATOM     30  C   UNL A   1      39.554  24.064  27.114  1.00  0.00     0.060 A 
ATOM     31  C   UNL A   1      40.201  25.015  26.314  1.00  0.00     0.016 A 
ATOM     32  C   UNL A   1      39.031  24.415  28.360  1.00  0.00     0.016 A 
ATOM     33  C   UNL A   1      40.385  26.311  26.786  1.00  0.00     0.010 A 
ATOM     34  C   UNL A   1      39.235  25.712  28.840  1.00  0.00     0.010 A 
ATOM     35  C   UNL A   1      39.953  26.649  28.075  1.00  0.00    -0.014 A 
BRANCH  35  36
ATOM     36  C   UNL A   1      40.425  27.914  28.684  1.00  0.00     0.031 A 
ATOM     37  C   UNL A   1      41.873  28.028  29.083  1.00  0.00     0.074 A 
ATOM     38  C   UNL A   1      39.597  28.962  28.831  1.00  0.00     0.049 A 
ATOM     39  N   UNL A   1      42.499  29.037  29.629  1.00  0.00    -0.248 NA
ATOM     40  C   UNL A   1      42.729  26.857  28.822  1.00  0.00     0.031 C 
ATOM     41  C   UNL A   1      38.195  28.997  28.417  1.00  0.00     0.029 A 
ATOM     42  N   UNL A   1      39.825  30.207  29.362  1.00  0.00    -0.354 N 
ATOM     43  C   UNL A   1      43.818  28.623  29.782  1.00  0.00     0.074 A 
ATOM     44  C   UNL A   1      43.900  27.268  29.286  1.00  0.00     0.031 C 
ATOM     45  C   UNL A   1      37.686  30.206  28.710  1.00  0.00     0.029 A 
ATOM     46  C   UNL A   1      38.717  31.018  29.358  1.00  0.00     0.049 A 
ATOM     47  H   UNL A   1      40.700  30.491  29.713  1.00  0.00     0.167 HD
ATOM     48  C   UNL A   1      44.866  29.312  30.288  1.00  0.00     0.031 A 
ATOM     49  C   UNL A   1      38.548  32.269  29.833  1.00  0.00     0.031 A 
ATOM     50  C   UNL A   1      44.783  30.657  30.787  1.00  0.00     0.049 A 
ATOM     51  C   UNL A   1      39.707  32.982  30.475  1.00  0.00     0.074 A 
ATOM     52  C   UNL A   1      45.798  31.440  31.309  1.00  0.00     0.029 A 
ATOM     53  N   UNL A   1      43.625  31.415  30.832  1.00  0.00    -0.354 N 
ATOM     54  N   UNL A   1      40.945  32.576  30.616  1.00  0.00    -0.248 NA
ATOM     55  C   UNL A   1      39.446  34.322  31.023  1.00  0.00     0.031 C 
ATOM     56  C   UNL A   1      45.242  32.655  31.719  1.00  0.00     0.029 A 
ATOM     57  C   UNL A   1      43.892  32.647  31.401  1.00  0.00     0.049 A 
ATOM     58  H   UNL A   1      42.742  31.120  30.509  1.00  0.00     0.167 HD
ATOM     59  C   UNL A   1      41.617  33.615  31.249  1.00  0.00     0.074 A 
ATOM     60  C   UNL A   1      40.649  34.672  31.463  1.00  0.00     0.031 C 
ATOM     61  C   UNL A   1      42.920  33.688  31.613  1.00  0.00     0.031 A 
BRANCH  48  62
ATOM     62  C   UNL A   1      46.199  28.621  30.355  1.00  0.00    -0.014 A 
ATOM     63  C   UNL A   1      47.125  28.731  29.305  1.00  0.00     0.010 A 
ATOM     64  C   UNL A   1      46.561  27.928  31.525  1.00  0.00     0.010 A 
ATOM     65  C   UNL A   1      48.393  28.157  29.422  1.00  0.00     0.020 A 
ATOM     66  C   UNL A   1      47.834  27.368  31.652  1.00  0.00     0.020 A 
ATOM     67  C   UNL A   1      48.742  27.486  30.598  1.00  0.00     0.054 A 
BRANCH  67  68
ATOM     68  S   UNL A   1      50.414  26.795  30.737  1.00  0.00     0.124 S 
ATOM     69  O   UNL A   1      50.326  25.610  29.885  1.00  0.00    -0.237 OA
ATOM     70  O   UNL A   1      51.245  27.879  30.222  1.00  0.00    -0.237 OA
ATOM     71  O   UNL A   1      50.561  26.520  32.164  1.00  0.00    -0.744 OA
ENDBRANCH  67  68
ENDBRANCH  48  62
BRANCH  49  72
ATOM     72  C   UNL A   1      37.217  32.918  29.720  1.00  0.00    -0.014 A 
ATOM     73  C   UNL A   1      36.293  32.837  30.774  1.00  0.00     0.010 A 
ATOM     74  C   UNL A   1      36.886  33.659  28.570  1.00  0.00     0.010 A 
ATOM     75  C   UNL A   1      35.064  33.497  30.688  1.00  0.00     0.020 A 
ATOM     76  C   UNL A   1      35.666  34.336  28.488  1.00  0.00     0.020 A 
ATOM     77  C   UNL A   1      34.765  34.255  29.551  1.00  0.00     0.054 A 
BRANCH  77  78
ATOM     78  S   UNL A   1      33.195  35.161  29.500  1.00  0.00     0.124 S 
ATOM     79  O   UNL A   1      32.687  34.977  30.856  1.00  0.00    -0.237 OA
ATOM     80  O   UNL A   1      33.635  36.513  29.167  1.00  0.00    -0.237 OA
ATOM     81  O   UNL A   1      32.438  34.481  28.451  1.00  0.00    -0.744 OA
ENDBRANCH  77  78
ENDBRANCH  49  72
BRANCH  61  82
ATOM     82  C   UNL A   1      43.405  34.952  32.267  1.00  0.00    -0.014 A 
ATOM     83  C   UNL A   1      43.755  36.073  31.498  1.00  0.00     0.010 A 
ATOM     84  C   UNL A   1      43.389  35.055  33.671  1.00  0.00     0.010 A 
ATOM     85  C   UNL A   1      44.083  37.280  32.123  1.00  0.00     0.020 A 
ATOM     86  C   UNL A   1      43.697  36.265  34.298  1.00  0.00     0.020 A 
ATOM     87  C   UNL A   1      44.041  37.371  33.518  1.00  0.00     0.054 A 
BRANCH  87  88
ATOM     88  S   UNL A   1      44.408  38.969  34.294  1.00  0.00     0.124 S 
ATOM     89  O   UNL A   1      43.904  38.774  35.651  1.00  0.00    -0.237 OA
ATOM     90  O   UNL A   1      45.861  39.051  34.170  1.00  0.00    -0.237 OA
ATOM     91  O   UNL A   1      43.661  39.930  33.487  1.00  0.00    -0.744 OA
ENDBRANCH  87  88
ENDBRANCH  61  82
ENDBRANCH  35  36
ENDBRANCH  28  30
ENDBRANCH  27  28
ENDBRANCH  26  27
ENDBRANCH   1  26
TORSDOF 19
ENDMDL
MODEL 3
REMARK VINA RESULT:     -10.9      2.737      8.653
REMARK SMILES Cc1nc(NC(=O)[C@@H]2CCC[C@@H](C(=O)OCCOCCOC(=O)c3ccc(-c4c5nc(c(-c6ccc(S(=O)(=O)[O-])cc6)c6ccc([nH]6)c(-c6ccc(S(=O)(=O)[O-])cc6)c6nc(c(-c7ccc(S(=O)(=O)[O-])cc7)c7ccc4[nH]7)C=C6)C=C5)cc3)C2)ccc1Br
REMARK SMILES IDX 19 1 18 2 17 3 16 4 15 5 13 6 14 7 12 8 8 9 9 10 84 11 10 12
REMARK SMILES IDX 11 13 6 14 5 15 7 17 4 18 1 19 2 20 3 21 87 22 86 23 88 24
REMARK SMILES IDX 85 25 20 26 21 27 22 28 23 29 24 30 25 31 83 32 26 33 82 34
REMARK SMILES IDX 27 35 28 36 29 37 76 38 30 39 81 40 75 41 77 42 31 43 80 44
REMARK SMILES IDX 74 45 73 46 32 48 62 49 43 50 61 51 44 52 47 53 60 54 78 55
REMARK SMILES IDX 45 56 46 57 59 59 79 60 48 61 33 62 34 63 42 64 35 65 41 66
REMARK SMILES IDX 36 67 37 68 38 69 39 70 40 71 63 72 64 73 72 74 65 75 71 76
REMARK SMILES IDX 66 77 67 78 68 79 69 80 70 81 49 82 50 83 58 84 51 85 57 86
REMARK SMILES IDX 52 87 53 88 54 89 55 90 56 91
REMARK H PARENT 5 16 77 47 47 58
REMARK Flexibility Score: inf
ROOT
ATOM      1  C   UNL A   1      37.009  21.903  25.333  1.00  0.00     0.202 C 
ENDROOT
BRANCH   1   2
ATOM      2  O   UNL A   1      36.678  23.227  24.915  1.00  0.00    -0.374 OA
BRANCH   2   3
ATOM      3  C   UNL A   1      35.790  23.984  25.733  1.00  0.00     0.202 C 
BRANCH   3   4
ATOM      4  C   UNL A   1      34.656  23.215  26.413  1.00  0.00     0.261 C 
BRANCH   4   5
ATOM      5  O   UNL A   1      33.369  23.740  26.058  1.00  0.00    -0.463 OA
BRANCH   5   6
ATOM      6  C   UNL A   1      32.447  22.833  25.645  1.00  0.00     0.309 C 
ATOM      7  O   UNL A   1      32.263  21.732  26.149  1.00  0.00    -0.252 OA
BRANCH   6   8
ATOM      8  C   UNL A   1      31.678  23.308  24.418  1.00  0.00     0.100 C 
ATOM      9  C   UNL A   1      33.388  24.849  23.130  1.00  0.00     0.080 C 
ATOM     10  C   UNL A   1      33.691  23.589  22.312  1.00  0.00     0.013 C 
ATOM     11  C   UNL A   1      32.028  24.703  23.874  1.00  0.00     0.028 C 
ATOM     12  C   UNL A   1      33.230  22.233  22.820  1.00  0.00     0.002 C 
ATOM     13  C   UNL A   1      31.808  22.259  23.326  1.00  0.00     0.015 C 
BRANCH   9  14
ATOM     14  C   UNL A   1      33.366  26.223  22.383  1.00  0.00     0.228 C 
ATOM     15  N   UNL A   1      33.309  27.466  22.929  1.00  0.00    -0.310 N 
ATOM     16  H   UNL A   1      33.320  28.168  22.239  1.00  0.00     0.171 HD
ATOM     17  O   UNL A   1      33.403  26.211  21.140  1.00  0.00    -0.274 OA
BRANCH  15  18
ATOM     18  C   UNL A   1      33.239  28.002  24.208  1.00  0.00     0.132 A 
ATOM     19  C   UNL A   1      31.393  30.811  25.687  1.00  0.00     0.068 C 
ATOM     20  C   UNL A   1      32.487  29.810  25.461  1.00  0.00     0.054 A 
ATOM     21  N   UNL A   1      32.386  29.038  24.341  1.00  0.00    -0.235 NA
ATOM     22  C   UNL A   1      33.518  29.641  26.378  1.00  0.00     0.039 A 
ATOM     23  C   UNL A   1      34.248  28.465  26.310  1.00  0.00     0.021 A 
ATOM     24  Br  UNL A   1      33.958  30.923  27.695  1.00  0.00    -0.049 Br
ATOM     25  C   UNL A   1      34.006  27.577  25.265  1.00  0.00     0.048 A 
ENDBRANCH  15  18
ENDBRANCH   9  14
ENDBRANCH   6   8
ENDBRANCH   5   6
ENDBRANCH   4   5
ENDBRANCH   3   4
ENDBRANCH   2   3
ENDBRANCH   1   2
BRANCH   1  26
ATOM     26  C   UNL A   1      38.495  21.544  25.429  1.00  0.00     0.261 C 
BRANCH  26  27
ATOM     27  O   UNL A   1      39.123  22.086  26.605  1.00  0.00    -0.460 OA
BRANCH  27  28
ATOM     28  C   UNL A   1      40.239  22.816  26.356  1.00  0.00     0.338 C 
ATOM     29  O   UNL A   1      41.183  22.505  25.655  1.00  0.00    -0.246 OA
BRANCH  28  30
ATOM     30  C   UNL A   1      40.102  24.168  26.925  1.00  0.00     0.060 A 
ATOM     31  C   UNL A   1      41.017  25.142  26.506  1.00  0.00     0.016 A 
ATOM     32  C   UNL A   1      39.202  24.431  27.960  1.00  0.00     0.016 A 
ATOM     33  C   UNL A   1      41.080  26.367  27.165  1.00  0.00     0.010 A 
ATOM     34  C   UNL A   1      39.281  25.654  28.634  1.00  0.00     0.010 A 
ATOM     35  C   UNL A   1      40.251  26.605  28.269  1.00  0.00    -0.014 A 
BRANCH  35  36
ATOM     36  C   UNL A   1      40.538  27.762  29.147  1.00  0.00     0.031 A 
ATOM     37  C   UNL A   1      41.838  27.788  29.908  1.00  0.00     0.074 A 
ATOM     38  C   UNL A   1      39.685  28.798  29.227  1.00  0.00     0.049 A 
ATOM     39  N   UNL A   1      42.293  28.698  30.730  1.00  0.00    -0.248 NA
ATOM     40  C   UNL A   1      42.747  26.646  29.708  1.00  0.00     0.031 C 
ATOM     41  C   UNL A   1      38.431  28.920  28.484  1.00  0.00     0.029 A 
ATOM     42  N   UNL A   1      39.755  29.951  29.967  1.00  0.00    -0.354 N 
ATOM     43  C   UNL A   1      43.536  28.237  31.148  1.00  0.00     0.074 A 
ATOM     44  C   UNL A   1      43.759  26.963  30.503  1.00  0.00     0.031 C 
ATOM     45  C   UNL A   1      37.848  30.088  28.807  1.00  0.00     0.029 A 
ATOM     46  C   UNL A   1      38.672  30.779  29.799  1.00  0.00     0.049 A 
ATOM     47  H   UNL A   1      40.510  30.165  30.562  1.00  0.00     0.167 HD
ATOM     48  C   UNL A   1      44.414  28.827  31.991  1.00  0.00     0.031 A 
ATOM     49  C   UNL A   1      38.372  31.955  30.387  1.00  0.00     0.031 A 
ATOM     50  C   UNL A   1      44.190  30.091  32.638  1.00  0.00     0.049 A 
ATOM     51  C   UNL A   1      39.322  32.547  31.393  1.00  0.00     0.074 A 
ATOM     52  C   UNL A   1      45.030  30.771  33.501  1.00  0.00     0.029 A 
ATOM     53  N   UNL A   1      43.047  30.860  32.497  1.00  0.00    -0.354 N 
ATOM     54  N   UNL A   1      40.491  32.098  31.781  1.00  0.00    -0.248 NA
ATOM     55  C   UNL A   1      38.914  33.803  32.039  1.00  0.00     0.031 C 
ATOM     56  C   UNL A   1      44.372  31.929  33.924  1.00  0.00     0.029 A 
ATOM     57  C   UNL A   1      43.146  31.995  33.281  1.00  0.00     0.049 A 
ATOM     58  H   UNL A   1      42.278  30.633  31.924  1.00  0.00     0.167 HD
ATOM     59  C   UNL A   1      40.968  33.024  32.701  1.00  0.00     0.074 A 
ATOM     60  C   UNL A   1      39.963  34.062  32.811  1.00  0.00     0.031 C 
ATOM     61  C   UNL A   1      42.137  33.017  33.386  1.00  0.00     0.031 A 
BRANCH  48  62
ATOM     62  C   UNL A   1      45.697  28.104  32.293  1.00  0.00    -0.014 A 
ATOM     63  C   UNL A   1      46.847  28.315  31.515  1.00  0.00     0.010 A 
ATOM     64  C   UNL A   1      45.773  27.272  33.425  1.00  0.00     0.010 A 
ATOM     65  C   UNL A   1      48.054  27.704  31.862  1.00  0.00     0.020 A 
ATOM     66  C   UNL A   1      46.983  26.674  33.786  1.00  0.00     0.020 A 
ATOM     67  C   UNL A   1      48.116  26.894  33.001  1.00  0.00     0.054 A 
BRANCH  67  68
ATOM     68  S   UNL A   1      49.710  26.156  33.452  1.00  0.00     0.124 S 
ATOM     69  O   UNL A   1      50.276  27.170  34.339  1.00  0.00    -0.237 OA
ATOM     70  O   UNL A   1      49.307  24.911  34.099  1.00  0.00    -0.237 OA
ATOM     71  O   UNL A   1      50.398  26.000  32.173  1.00  0.00    -0.744 OA
ENDBRANCH  67  68
ENDBRANCH  48  62
BRANCH  49  72
ATOM     72  C   UNL A   1      37.103  32.643  30.036  1.00  0.00    -0.014 A 
ATOM     73  C   UNL A   1      35.962  32.485  30.839  1.00  0.00     0.010 A 
ATOM     74  C   UNL A   1      37.045  33.496  28.918  1.00  0.00     0.010 A 
ATOM     75  C   UNL A   1      34.786  33.178  30.539  1.00  0.00     0.020 A 
ATOM     76  C   UNL A   1      35.878  34.205  28.626  1.00  0.00     0.020 A 
ATOM     77  C   UNL A   1      34.756  34.046  29.442  1.00  0.00     0.054 A 
BRANCH  77  78
ATOM     78  S   UNL A   1      33.241  34.989  29.122  1.00  0.00     0.124 S 
ATOM     79  O   UNL A   1      32.611  35.019  30.438  1.00  0.00    -0.237 OA
ATOM     80  O   UNL A   1      33.772  36.263  28.644  1.00  0.00    -0.237 OA
ATOM     81  O   UNL A   1      32.546  34.192  28.114  1.00  0.00    -0.744 OA
ENDBRANCH  77  78
ENDBRANCH  49  72
BRANCH  61  82
ATOM     82  C   UNL A   1      42.424  34.168  34.311  1.00  0.00    -0.014 A 
ATOM     83  C   UNL A   1      42.166  34.069  35.687  1.00  0.00     0.010 A 
ATOM     84  C   UNL A   1      43.075  35.311  33.811  1.00  0.00     0.010 A 
ATOM     85  C   UNL A   1      42.553  35.097  36.552  1.00  0.00     0.020 A 
ATOM     86  C   UNL A   1      43.482  36.331  34.674  1.00  0.00     0.020 A 
ATOM     87  C   UNL A   1      43.219  36.216  36.041  1.00  0.00     0.054 A 
BRANCH  87  88
ATOM     88  S   UNL A   1      43.767  37.501  37.198  1.00  0.00     0.124 S 
ATOM     89  O   UNL A   1      44.854  36.832  37.909  1.00  0.00    -0.237 OA
ATOM     90  O   UNL A   1      44.174  38.579  36.300  1.00  0.00    -0.237 OA
ATOM     91  O   UNL A   1      42.579  37.778  38.002  1.00  0.00    -0.744 OA
ENDBRANCH  87  88
ENDBRANCH  61  82
ENDBRANCH  35  36
ENDBRANCH  28  30
ENDBRANCH  27  28
ENDBRANCH  26  27
ENDBRANCH   1  26
TORSDOF 19
ENDMDL
