MODEL 1
REMARK VINA RESULT:     -11.1      0.000      0.000
REMARK SMILES Cc1ccc(/C=C(\NC(=O)c2cccc(C)c2)C(=O)OCCOCCOC(=O)c2ccc(-c3c4nc(c(-c5ccc(S(=O)(=O)[O-])cc5)c5ccc([nH]5)c(-c5ccc(S(=O)(=O)[O-])cc5)c5nc(c(-c6ccc(S(=O)(=O)[O-])cc6)c6ccc3[nH]6)C=C5)C=C4)cc2)cc1
REMARK SMILES IDX 24 1 23 2 22 3 21 4 20 5 18 6 19 7 7 8 6 9 5 10 1 11 2 12
REMARK SMILES IDX 3 13 90 14 4 15 89 16 8 17 9 18 10 20 11 21 12 22 17 23
REMARK SMILES IDX 13 24 15 25 14 26 16 27 25 28 26 29 27 30 28 31 29 32 30 33
REMARK SMILES IDX 88 34 31 35 87 36 32 37 33 38 34 39 81 40 35 41 86 42 80 43
REMARK SMILES IDX 82 44 36 45 85 46 79 47 78 48 37 50 67 51 48 52 66 53 49 54
REMARK SMILES IDX 52 55 65 56 83 57 50 58 51 59 64 61 84 62 53 63 38 64 39 65
REMARK SMILES IDX 47 66 40 67 46 68 41 69 42 70 43 71 44 72 45 73 68 74 69 75
REMARK SMILES IDX 77 76 70 77 76 78 71 79 72 80 73 81 74 82 75 83 54 84 55 85
REMARK SMILES IDX 63 86 56 87 62 88 57 89 58 90 59 91 60 92 61 93
REMARK H PARENT 8 19 82 49 52 60
REMARK Flexibility Score: inf
ROOT
ATOM      1  C   UNL A   1      37.774  32.381  35.417  1.00  0.00     0.202 C 
ENDROOT
BRANCH   1   2
ATOM      2  O   UNL A   1      36.807  32.909  34.567  1.00  0.00    -0.374 OA
BRANCH   2   3
ATOM      3  C   UNL A   1      35.904  33.853  35.101  1.00  0.00     0.202 C 
BRANCH   3   4
ATOM      4  C   UNL A   1      35.549  34.587  33.877  1.00  0.00     0.261 C 
BRANCH   4   5
ATOM      5  O   UNL A   1      35.370  33.584  32.880  1.00  0.00    -0.459 OA
BRANCH   5   6
ATOM      6  C   UNL A   1      34.632  33.821  31.775  1.00  0.00     0.354 C 
ATOM      7  O   UNL A   1      33.596  34.417  31.576  1.00  0.00    -0.244 OA
BRANCH   6   8
ATOM      8  C   UNL A   1      35.503  33.342  30.704  1.00  0.00     0.128 C 
ATOM      9  C   UNL A   1      36.361  32.412  31.174  1.00  0.00     0.042 C 
BRANCH   9  10
ATOM     10  C   UNL A   1      37.210  31.348  30.626  1.00  0.00    -0.023 A 
ATOM     11  C   UNL A   1      39.187  28.053  28.656  1.00  0.00     0.044 C 
ATOM     12  C   UNL A   1      38.472  29.177  29.341  1.00  0.00    -0.051 A 
ATOM     13  C   UNL A   1      38.749  30.499  28.970  1.00  0.00     0.004 A 
ATOM     14  C   UNL A   1      37.544  28.936  30.352  1.00  0.00     0.004 A 
ATOM     15  C   UNL A   1      38.121  31.574  29.604  1.00  0.00     0.008 A 
ATOM     16  C   UNL A   1      36.922  30.014  30.990  1.00  0.00     0.008 A 
ENDBRANCH   9  10
BRANCH   8  17
ATOM     17  N   UNL A   1      35.196  33.815  29.445  1.00  0.00    -0.316 N 
ATOM     18  C   UNL A   1      34.725  33.134  28.276  1.00  0.00     0.255 C 
ATOM     19  H   UNL A   1      35.321  34.784  29.330  1.00  0.00     0.170 HD
ATOM     20  O   UNL A   1      35.035  33.769  27.251  1.00  0.00    -0.269 OA
BRANCH  18  21
ATOM     21  C   UNL A   1      33.857  31.728  28.052  1.00  0.00     0.040 A 
ATOM     22  C   UNL A   1      35.017  30.456  28.027  1.00  0.00     0.014 A 
ATOM     23  C   UNL A   1      32.485  31.358  26.963  1.00  0.00     0.017 A 
ATOM     24  C   UNL A   1      34.922  28.936  26.710  1.00  0.00     0.001 A 
ATOM     25  C   UNL A   1      32.329  30.054  25.720  1.00  0.00    -0.050 A 
ATOM     26  C   UNL A   1      33.557  28.841  25.565  1.00  0.00     0.003 A 
ATOM     27  C   UNL A   1      31.039  29.982  24.962  1.00  0.00     0.044 C 
ENDBRANCH  18  21
ENDBRANCH   8  17
ENDBRANCH   6   8
ENDBRANCH   5   6
ENDBRANCH   4   5
ENDBRANCH   3   4
ENDBRANCH   2   3
ENDBRANCH   1   2
BRANCH   1  28
ATOM     28  C   UNL A   1      38.262  33.554  36.234  1.00  0.00     0.261 C 
BRANCH  28  29
ATOM     29  O   UNL A   1      39.642  33.908  35.867  1.00  0.00    -0.460 OA
BRANCH  29  30
ATOM     30  C   UNL A   1      39.887  34.921  34.962  1.00  0.00     0.338 C 
ATOM     31  O   UNL A   1      39.585  36.087  35.170  1.00  0.00    -0.246 OA
BRANCH  30  32
ATOM     32  C   UNL A   1      40.600  34.454  33.707  1.00  0.00     0.060 A 
ATOM     33  C   UNL A   1      41.961  34.688  33.474  1.00  0.00     0.016 A 
ATOM     34  C   UNL A   1      39.843  33.990  32.638  1.00  0.00     0.016 A 
ATOM     35  C   UNL A   1      42.467  34.632  32.142  1.00  0.00     0.010 A 
ATOM     36  C   UNL A   1      40.312  34.135  31.323  1.00  0.00     0.010 A 
ATOM     37  C   UNL A   1      41.609  34.567  31.012  1.00  0.00    -0.014 A 
BRANCH  37  38
ATOM     38  C   UNL A   1      42.022  34.566  29.487  1.00  0.00     0.031 A 
ATOM     39  C   UNL A   1      42.987  33.430  29.363  1.00  0.00     0.074 A 
ATOM     40  C   UNL A   1      41.832  35.469  28.403  1.00  0.00     0.049 A 
ATOM     41  N   UNL A   1      44.124  33.460  28.751  1.00  0.00    -0.248 NA
ATOM     42  C   UNL A   1      42.859  32.196  30.192  1.00  0.00     0.031 C 
ATOM     43  C   UNL A   1      42.264  35.458  26.995  1.00  0.00     0.029 A 
ATOM     44  N   UNL A   1      41.369  36.840  28.366  1.00  0.00    -0.354 N 
ATOM     45  C   UNL A   1      44.454  32.122  28.660  1.00  0.00     0.074 A 
ATOM     46  C   UNL A   1      43.947  31.520  29.845  1.00  0.00     0.031 C 
ATOM     47  C   UNL A   1      42.448  36.732  26.520  1.00  0.00     0.029 A 
ATOM     48  C   UNL A   1      42.306  37.694  27.636  1.00  0.00     0.049 A 
ATOM     49  H   UNL A   1      40.533  37.157  28.779  1.00  0.00     0.167 HD
ATOM     50  C   UNL A   1      44.570  31.600  27.408  1.00  0.00     0.031 A 
ATOM     51  C   UNL A   1      43.197  38.747  28.095  1.00  0.00     0.031 A 
ATOM     52  C   UNL A   1      44.799  32.668  26.434  1.00  0.00     0.049 A 
ATOM     53  C   UNL A   1      44.569  38.414  27.389  1.00  0.00     0.074 A 
ATOM     54  C   UNL A   1      44.073  33.162  25.367  1.00  0.00     0.029 A 
ATOM     55  N   UNL A   1      45.762  33.632  26.721  1.00  0.00    -0.354 N 
ATOM     56  N   UNL A   1      44.820  37.210  26.929  1.00  0.00    -0.248 NA
ATOM     57  C   UNL A   1      45.741  39.271  27.211  1.00  0.00     0.031 C 
ATOM     58  C   UNL A   1      44.582  34.461  25.053  1.00  0.00     0.029 A 
ATOM     59  C   UNL A   1      45.609  34.758  25.934  1.00  0.00     0.049 A 
ATOM     60  H   UNL A   1      46.465  33.525  27.402  1.00  0.00     0.167 HD
ATOM     61  C   UNL A   1      46.095  37.076  26.479  1.00  0.00     0.074 A 
ATOM     62  C   UNL A   1      46.629  38.421  26.641  1.00  0.00     0.031 C 
ATOM     63  C   UNL A   1      46.575  35.853  26.084  1.00  0.00     0.031 A 
BRANCH  50  64
ATOM     64  C   UNL A   1      44.112  30.190  27.056  1.00  0.00    -0.014 A 
ATOM     65  C   UNL A   1      45.074  29.282  26.585  1.00  0.00     0.010 A 
ATOM     66  C   UNL A   1      42.777  29.710  27.071  1.00  0.00     0.010 A 
ATOM     67  C   UNL A   1      44.737  27.984  26.170  1.00  0.00     0.020 A 
ATOM     68  C   UNL A   1      42.426  28.408  26.679  1.00  0.00     0.020 A 
ATOM     69  C   UNL A   1      43.416  27.549  26.234  1.00  0.00     0.054 A 
BRANCH  69  70
ATOM     70  S   UNL A   1      43.025  25.846  25.766  1.00  0.00     0.124 S 
ATOM     71  O   UNL A   1      41.790  26.009  25.003  1.00  0.00    -0.237 OA
ATOM     72  O   UNL A   1      44.201  25.460  24.993  1.00  0.00    -0.237 OA
ATOM     73  O   UNL A   1      42.874  25.158  27.048  1.00  0.00    -0.744 OA
ENDBRANCH  69  70
ENDBRANCH  50  64
BRANCH  51  74
ATOM     74  C   UNL A   1      43.236  39.591  29.739  1.00  0.00    -0.014 A 
ATOM     75  C   UNL A   1      44.752  39.346  30.752  1.00  0.00     0.010 A 
ATOM     76  C   UNL A   1      42.045  41.084  30.439  1.00  0.00     0.010 A 
ATOM     77  C   UNL A   1      45.030  40.469  32.174  1.00  0.00     0.020 A 
ATOM     78  C   UNL A   1      42.390  42.052  31.836  1.00  0.00     0.020 A 
ATOM     79  C   UNL A   1      43.875  41.786  32.636  1.00  0.00     0.054 A 
BRANCH  79  80
ATOM     80  S   UNL A   1      44.467  43.543  33.092  1.00  0.00     0.124 S 
ATOM     81  O   UNL A   1      44.300  44.280  31.849  1.00  0.00    -0.237 OA
ATOM     82  O   UNL A   1      43.577  43.891  34.195  1.00  0.00    -0.237 OA
ATOM     83  O   UNL A   1      45.860  43.334  33.503  1.00  0.00    -0.744 OA
ENDBRANCH  79  80
ENDBRANCH  51  74
BRANCH  63  84
ATOM     84  C   UNL A   1      48.012  35.497  25.769  1.00  0.00    -0.014 A 
ATOM     85  C   UNL A   1      48.944  36.367  25.199  1.00  0.00     0.010 A 
ATOM     86  C   UNL A   1      48.489  34.211  26.149  1.00  0.00     0.010 A 
ATOM     87  C   UNL A   1      50.241  35.929  24.899  1.00  0.00     0.020 A 
ATOM     88  C   UNL A   1      49.795  33.789  25.924  1.00  0.00     0.020 A 
ATOM     89  C   UNL A   1      50.647  34.636  25.238  1.00  0.00     0.054 A 
BRANCH  89  90
ATOM     90  S   UNL A   1      52.272  34.048  24.727  1.00  0.00     0.124 S 
ATOM     91  O   UNL A   1      51.922  33.094  23.677  1.00  0.00    -0.237 OA
ATOM     92  O   UNL A   1      52.926  35.274  24.271  1.00  0.00    -0.237 OA
ATOM     93  O   UNL A   1      52.833  33.463  25.941  1.00  0.00    -0.744 OA
ENDBRANCH  89  90
ENDBRANCH  63  84
ENDBRANCH  37  38
ENDBRANCH  30  32
ENDBRANCH  29  30
ENDBRANCH  28  29
ENDBRANCH   1  28
TORSDOF 20
ENDMDL
MODEL 2
REMARK VINA RESULT:     -11.0      5.654      8.820
REMARK SMILES Cc1ccc(/C=C(\NC(=O)c2cccc(C)c2)C(=O)OCCOCCOC(=O)c2ccc(-c3c4nc(c(-c5ccc(S(=O)(=O)[O-])cc5)c5ccc([nH]5)c(-c5ccc(S(=O)(=O)[O-])cc5)c5nc(c(-c6ccc(S(=O)(=O)[O-])cc6)c6ccc3[nH]6)C=C5)C=C4)cc2)cc1
REMARK SMILES IDX 24 1 23 2 22 3 21 4 20 5 18 6 19 7 7 8 6 9 5 10 1 11 2 12
REMARK SMILES IDX 3 13 90 14 4 15 89 16 8 17 9 18 10 20 11 21 12 22 17 23
REMARK SMILES IDX 13 24 15 25 14 26 16 27 25 28 26 29 27 30 28 31 29 32 30 33
REMARK SMILES IDX 88 34 31 35 87 36 32 37 33 38 34 39 81 40 35 41 86 42 80 43
REMARK SMILES IDX 82 44 36 45 85 46 79 47 78 48 37 50 67 51 48 52 66 53 49 54
REMARK SMILES IDX 52 55 65 56 83 57 50 58 51 59 64 61 84 62 53 63 38 64 39 65
REMARK SMILES IDX 47 66 40 67 46 68 41 69 42 70 43 71 44 72 45 73 68 74 69 75
REMARK SMILES IDX 77 76 70 77 76 78 71 79 72 80 73 81 74 82 75 83 54 84 55 85
REMARK SMILES IDX 63 86 56 87 62 88 57 89 58 90 59 91 60 92 61 93
REMARK H PARENT 8 19 82 49 52 60
REMARK Flexibility Score: inf
ROOT
ATOM      1  C   UNL A   1      35.835  29.705  27.264  1.00  0.00     0.202 C 
ENDROOT
BRANCH   1   2
ATOM      2  O   UNL A   1      34.493  29.472  26.979  1.00  0.00    -0.374 OA
BRANCH   2   3
ATOM      3  C   UNL A   1      33.580  30.526  27.199  1.00  0.00     0.202 C 
BRANCH   3   4
ATOM      4  C   UNL A   1      32.573  30.208  26.176  1.00  0.00     0.261 C 
BRANCH   4   5
ATOM      5  O   UNL A   1      32.960  28.939  25.654  1.00  0.00    -0.459 OA
BRANCH   5   6
ATOM      6  C   UNL A   1      32.318  27.809  26.016  1.00  0.00     0.354 C 
ATOM      7  O   UNL A   1      31.391  27.579  26.763  1.00  0.00    -0.244 OA
BRANCH   6   8
ATOM      8  C   UNL A   1      32.874  26.820  25.097  1.00  0.00     0.128 C 
ATOM      9  C   UNL A   1      33.687  25.968  25.756  1.00  0.00     0.042 C 
BRANCH   9  10
ATOM     10  C   UNL A   1      34.259  24.634  25.542  1.00  0.00    -0.023 A 
ATOM     11  C   UNL A   1      36.524  20.995  25.014  1.00  0.00     0.044 C 
ATOM     12  C   UNL A   1      35.764  22.274  25.180  1.00  0.00    -0.051 A 
ATOM     13  C   UNL A   1      35.049  22.504  26.363  1.00  0.00     0.004 A 
ATOM     14  C   UNL A   1      35.739  23.239  24.175  1.00  0.00     0.004 A 
ATOM     15  C   UNL A   1      34.308  23.674  26.544  1.00  0.00     0.008 A 
ATOM     16  C   UNL A   1      34.991  24.406  24.355  1.00  0.00     0.008 A 
ENDBRANCH   9  10
BRANCH   8  17
ATOM     17  N   UNL A   1      32.368  26.864  23.814  1.00  0.00    -0.316 N 
ATOM     18  C   UNL A   1      31.930  25.816  22.941  1.00  0.00     0.255 C 
ATOM     19  H   UNL A   1      32.296  27.769  23.434  1.00  0.00     0.170 HD
ATOM     20  O   UNL A   1      32.018  26.178  21.753  1.00  0.00    -0.269 OA
BRANCH  18  21
ATOM     21  C   UNL A   1      31.328  24.285  23.216  1.00  0.00     0.040 A 
ATOM     22  C   UNL A   1      30.499  24.369  24.722  1.00  0.00     0.014 A 
ATOM     23  C   UNL A   1      32.073  22.674  22.988  1.00  0.00     0.017 A 
ATOM     24  C   UNL A   1      30.642  22.918  26.112  1.00  0.00     0.001 A 
ATOM     25  C   UNL A   1      32.292  21.334  24.182  1.00  0.00    -0.050 A 
ATOM     26  C   UNL A   1      31.597  21.451  25.766  1.00  0.00     0.003 A 
ATOM     27  C   UNL A   1      32.947  20.080  23.692  1.00  0.00     0.044 C 
ENDBRANCH  18  21
ENDBRANCH   8  17
ENDBRANCH   6   8
ENDBRANCH   5   6
ENDBRANCH   4   5
ENDBRANCH   3   4
ENDBRANCH   2   3
ENDBRANCH   1   2
BRANCH   1  28
ATOM     28  C   UNL A   1      35.877  30.003  28.744  1.00  0.00     0.261 C 
BRANCH  28  29
ATOM     29  O   UNL A   1      37.255  30.272  29.185  1.00  0.00    -0.460 OA
BRANCH  29  30
ATOM     30  C   UNL A   1      38.133  29.232  29.409  1.00  0.00     0.338 C 
ATOM     31  O   UNL A   1      37.882  28.300  30.159  1.00  0.00    -0.246 OA
BRANCH  30  32
ATOM     32  C   UNL A   1      39.415  29.336  28.606  1.00  0.00     0.060 A 
ATOM     33  C   UNL A   1      39.519  28.904  27.278  1.00  0.00     0.016 A 
ATOM     34  C   UNL A   1      40.598  29.645  29.268  1.00  0.00     0.016 A 
ATOM     35  C   UNL A   1      40.804  28.617  26.730  1.00  0.00     0.010 A 
ATOM     36  C   UNL A   1      41.826  29.171  28.782  1.00  0.00     0.010 A 
ATOM     37  C   UNL A   1      41.968  28.538  27.539  1.00  0.00    -0.014 A 
BRANCH  37  38
ATOM     38  C   UNL A   1      43.435  28.166  27.084  1.00  0.00     0.031 A 
ATOM     39  C   UNL A   1      43.659  26.793  27.636  1.00  0.00     0.074 A 
ATOM     40  C   UNL A   1      44.515  28.894  26.510  1.00  0.00     0.049 A 
ATOM     41  N   UNL A   1      44.710  26.389  28.269  1.00  0.00    -0.248 NA
ATOM     42  C   UNL A   1      42.549  25.804  27.757  1.00  0.00     0.031 C 
ATOM     43  C   UNL A   1      45.889  28.526  26.130  1.00  0.00     0.029 A 
ATOM     44  N   UNL A   1      44.727  30.315  26.333  1.00  0.00    -0.354 N 
ATOM     45  C   UNL A   1      44.552  25.017  28.273  1.00  0.00     0.074 A 
ATOM     46  C   UNL A   1      43.150  24.793  28.370  1.00  0.00     0.031 C 
ATOM     47  C   UNL A   1      46.742  29.595  26.248  1.00  0.00     0.029 A 
ATOM     48  C   UNL A   1      46.022  30.726  26.876  1.00  0.00     0.049 A 
ATOM     49  H   UNL A   1      44.085  30.926  25.904  1.00  0.00     0.167 HD
ATOM     50  C   UNL A   1      45.500  24.285  27.627  1.00  0.00     0.031 A 
ATOM     51  C   UNL A   1      46.360  31.533  28.037  1.00  0.00     0.031 A 
ATOM     52  C   UNL A   1      46.731  25.065  27.486  1.00  0.00     0.049 A 
ATOM     53  C   UNL A   1      47.493  30.702  28.757  1.00  0.00     0.074 A 
ATOM     54  C   UNL A   1      47.427  25.567  26.403  1.00  0.00     0.029 A 
ATOM     55  N   UNL A   1      47.220  25.739  28.601  1.00  0.00    -0.354 N 
ATOM     56  N   UNL A   1      47.645  29.420  28.523  1.00  0.00    -0.248 NA
ATOM     57  C   UNL A   1      48.437  31.138  29.785  1.00  0.00     0.031 C 
ATOM     58  C   UNL A   1      48.304  26.591  26.881  1.00  0.00     0.029 A 
ATOM     59  C   UNL A   1      48.133  26.715  28.250  1.00  0.00     0.049 A 
ATOM     60  H   UNL A   1      46.948  25.545  29.527  1.00  0.00     0.167 HD
ATOM     61  C   UNL A   1      48.577  28.847  29.330  1.00  0.00     0.074 A 
ATOM     62  C   UNL A   1      49.080  29.985  30.086  1.00  0.00     0.031 C 
ATOM     63  C   UNL A   1      48.776  27.490  29.318  1.00  0.00     0.031 A 
BRANCH  50  64
ATOM     64  C   UNL A   1      45.171  23.033  26.823  1.00  0.00    -0.014 A 
ATOM     65  C   UNL A   1      46.169  22.506  25.985  1.00  0.00     0.010 A 
ATOM     66  C   UNL A   1      43.915  22.376  26.762  1.00  0.00     0.010 A 
ATOM     67  C   UNL A   1      45.939  21.399  25.155  1.00  0.00     0.020 A 
ATOM     68  C   UNL A   1      43.675  21.255  25.952  1.00  0.00     0.020 A 
ATOM     69  C   UNL A   1      44.697  20.769  25.155  1.00  0.00     0.054 A 
BRANCH  69  70
ATOM     70  S   UNL A   1      44.456  19.296  24.132  1.00  0.00     0.124 S 
ATOM     71  O   UNL A   1      45.610  18.476  24.489  1.00  0.00    -0.237 OA
ATOM     72  O   UNL A   1      43.162  18.806  24.598  1.00  0.00    -0.237 OA
ATOM     73  O   UNL A   1      44.464  19.816  22.765  1.00  0.00    -0.744 OA
ENDBRANCH  69  70
ENDBRANCH  50  64
BRANCH  51  74
ATOM     74  C   UNL A   1      45.249  32.588  29.072  1.00  0.00    -0.014 A 
ATOM     75  C   UNL A   1      44.205  33.808  28.174  1.00  0.00     0.010 A 
ATOM     76  C   UNL A   1      44.692  32.338  31.011  1.00  0.00     0.010 A 
ATOM     77  C   UNL A   1      42.806  34.575  29.077  1.00  0.00     0.020 A 
ATOM     78  C   UNL A   1      43.372  33.164  31.776  1.00  0.00     0.020 A 
ATOM     79  C   UNL A   1      42.422  34.203  30.808  1.00  0.00     0.054 A 
BRANCH  79  80
ATOM     80  S   UNL A   1      40.639  33.878  31.406  1.00  0.00     0.124 S 
ATOM     81  O   UNL A   1      39.842  34.751  30.558  1.00  0.00    -0.237 OA
ATOM     82  O   UNL A   1      40.500  32.440  31.195  1.00  0.00    -0.237 OA
ATOM     83  O   UNL A   1      40.681  34.262  32.821  1.00  0.00    -0.744 OA
ENDBRANCH  79  80
ENDBRANCH  51  74
BRANCH  63  84
ATOM     84  C   UNL A   1      49.606  26.683  30.294  1.00  0.00    -0.014 A 
ATOM     85  C   UNL A   1      49.093  25.763  31.210  1.00  0.00     0.010 A 
ATOM     86  C   UNL A   1      51.024  26.798  30.231  1.00  0.00     0.010 A 
ATOM     87  C   UNL A   1      49.940  25.099  32.108  1.00  0.00     0.020 A 
ATOM     88  C   UNL A   1      51.880  26.089  31.066  1.00  0.00     0.020 A 
ATOM     89  C   UNL A   1      51.323  25.289  32.047  1.00  0.00     0.054 A 
BRANCH  89  90
ATOM     90  S   UNL A   1      52.383  24.530  33.292  1.00  0.00     0.124 S 
ATOM     91  O   UNL A   1      53.239  25.651  33.671  1.00  0.00    -0.237 OA
ATOM     92  O   UNL A   1      51.424  24.099  34.308  1.00  0.00    -0.237 OA
ATOM     93  O   UNL A   1      53.051  23.448  32.573  1.00  0.00    -0.744 OA
ENDBRANCH  89  90
ENDBRANCH  63  84
ENDBRANCH  37  38
ENDBRANCH  30  32
ENDBRANCH  29  30
ENDBRANCH  28  29
ENDBRANCH   1  28
TORSDOF 20
ENDMDL
MODEL 3
REMARK VINA RESULT:     -10.7      5.781     11.497
REMARK SMILES Cc1ccc(/C=C(\NC(=O)c2cccc(C)c2)C(=O)OCCOCCOC(=O)c2ccc(-c3c4nc(c(-c5ccc(S(=O)(=O)[O-])cc5)c5ccc([nH]5)c(-c5ccc(S(=O)(=O)[O-])cc5)c5nc(c(-c6ccc(S(=O)(=O)[O-])cc6)c6ccc3[nH]6)C=C5)C=C4)cc2)cc1
REMARK SMILES IDX 24 1 23 2 22 3 21 4 20 5 18 6 19 7 7 8 6 9 5 10 1 11 2 12
REMARK SMILES IDX 3 13 90 14 4 15 89 16 8 17 9 18 10 20 11 21 12 22 17 23
REMARK SMILES IDX 13 24 15 25 14 26 16 27 25 28 26 29 27 30 28 31 29 32 30 33
REMARK SMILES IDX 88 34 31 35 87 36 32 37 33 38 34 39 81 40 35 41 86 42 80 43
REMARK SMILES IDX 82 44 36 45 85 46 79 47 78 48 37 50 67 51 48 52 66 53 49 54
REMARK SMILES IDX 52 55 65 56 83 57 50 58 51 59 64 61 84 62 53 63 38 64 39 65
REMARK SMILES IDX 47 66 40 67 46 68 41 69 42 70 43 71 44 72 45 73 68 74 69 75
REMARK SMILES IDX 77 76 70 77 76 78 71 79 72 80 73 81 74 82 75 83 54 84 55 85
REMARK SMILES IDX 63 86 56 87 62 88 57 89 58 90 59 91 60 92 61 93
REMARK H PARENT 8 19 82 49 52 60
REMARK Flexibility Score: inf
ROOT
ATOM      1  C   UNL A   1      41.722  20.429  26.470  1.00  0.00     0.202 C 
ENDROOT
BRANCH   1   2
ATOM      2  O   UNL A   1      40.900  21.484  26.085  1.00  0.00    -0.374 OA
BRANCH   2   3
ATOM      3  C   UNL A   1      39.640  21.599  26.710  1.00  0.00     0.202 C 
BRANCH   3   4
ATOM      4  C   UNL A   1      38.852  22.144  25.594  1.00  0.00     0.261 C 
BRANCH   4   5
ATOM      5  O   UNL A   1      37.576  21.517  25.699  1.00  0.00    -0.459 OA
BRANCH   5   6
ATOM      6  C   UNL A   1      36.596  21.773  24.807  1.00  0.00     0.354 C 
ATOM      7  O   UNL A   1      36.578  22.302  23.716  1.00  0.00    -0.244 OA
BRANCH   6   8
ATOM      8  C   UNL A   1      35.460  21.044  25.366  1.00  0.00     0.128 C 
ATOM      9  C   UNL A   1      35.121  20.013  24.563  1.00  0.00     0.042 C 
BRANCH   9  10
ATOM     10  C   UNL A   1      34.362  18.762  24.670  1.00  0.00    -0.023 A 
ATOM     11  C   UNL A   1      32.460  14.984  25.541  1.00  0.00     0.044 C 
ATOM     12  C   UNL A   1      33.150  16.281  25.251  1.00  0.00    -0.051 A 
ATOM     13  C   UNL A   1      32.468  17.487  25.458  1.00  0.00     0.004 A 
ATOM     14  C   UNL A   1      34.456  16.315  24.765  1.00  0.00     0.004 A 
ATOM     15  C   UNL A   1      33.070  18.715  25.174  1.00  0.00     0.008 A 
ATOM     16  C   UNL A   1      35.053  17.545  24.475  1.00  0.00     0.008 A 
ENDBRANCH   9  10
BRANCH   8  17
ATOM     17  N   UNL A   1      35.063  21.452  26.622  1.00  0.00    -0.316 N 
ATOM     18  C   UNL A   1      34.484  22.684  27.070  1.00  0.00     0.255 C 
ATOM     19  H   UNL A   1      35.199  20.783  27.331  1.00  0.00     0.170 HD
ATOM     20  O   UNL A   1      34.724  22.859  28.279  1.00  0.00    -0.269 OA
BRANCH  18  21
ATOM     21  C   UNL A   1      33.572  23.854  26.309  1.00  0.00     0.040 A 
ATOM     22  C   UNL A   1      31.989  23.193  26.160  1.00  0.00     0.014 A 
ATOM     23  C   UNL A   1      33.950  24.916  24.920  1.00  0.00     0.017 A 
ATOM     24  C   UNL A   1      30.890  23.396  24.485  1.00  0.00     0.001 A 
ATOM     25  C   UNL A   1      33.056  25.127  23.362  1.00  0.00    -0.050 A 
ATOM     26  C   UNL A   1      31.526  24.351  23.119  1.00  0.00     0.003 A 
ATOM     27  C   UNL A   1      33.614  26.112  22.381  1.00  0.00     0.044 C 
ENDBRANCH  18  21
ENDBRANCH   8  17
ENDBRANCH   6   8
ENDBRANCH   5   6
ENDBRANCH   4   5
ENDBRANCH   3   4
ENDBRANCH   2   3
ENDBRANCH   1   2
BRANCH   1  28
ATOM     28  C   UNL A   1      43.019  20.650  25.727  1.00  0.00     0.261 C 
BRANCH  28  29
ATOM     29  O   UNL A   1      42.966  21.894  24.943  1.00  0.00    -0.460 OA
BRANCH  29  30
ATOM     30  C   UNL A   1      44.094  22.675  24.793  1.00  0.00     0.338 C 
ATOM     31  O   UNL A   1      45.076  22.310  24.164  1.00  0.00    -0.246 OA
BRANCH  30  32
ATOM     32  C   UNL A   1      43.979  24.039  25.447  1.00  0.00     0.060 A 
ATOM     33  C   UNL A   1      44.539  25.197  24.894  1.00  0.00     0.016 A 
ATOM     34  C   UNL A   1      43.517  24.119  26.755  1.00  0.00     0.016 A 
ATOM     35  C   UNL A   1      44.786  26.327  25.728  1.00  0.00     0.010 A 
ATOM     36  C   UNL A   1      43.947  25.157  27.596  1.00  0.00     0.010 A 
ATOM     37  C   UNL A   1      44.694  26.253  27.143  1.00  0.00    -0.014 A 
BRANCH  37  38
ATOM     38  C   UNL A   1      45.002  27.396  28.190  1.00  0.00     0.031 A 
ATOM     39  C   UNL A   1      43.833  28.324  28.082  1.00  0.00     0.074 A 
ATOM     40  C   UNL A   1      46.144  27.766  28.956  1.00  0.00     0.049 A 
ATOM     41  N   UNL A   1      43.889  29.612  27.999  1.00  0.00    -0.248 NA
ATOM     42  C   UNL A   1      42.462  27.827  27.770  1.00  0.00     0.031 C 
ATOM     43  C   UNL A   1      46.412  28.864  29.899  1.00  0.00     0.029 A 
ATOM     44  N   UNL A   1      47.526  27.342  28.882  1.00  0.00    -0.354 N 
ATOM     45  C   UNL A   1      42.581  29.987  28.239  1.00  0.00     0.074 A 
ATOM     46  C   UNL A   1      41.778  28.960  27.669  1.00  0.00     0.031 C 
ATOM     47  C   UNL A   1      47.736  29.225  29.880  1.00  0.00     0.029 A 
ATOM     48  C   UNL A   1      48.426  28.492  28.794  1.00  0.00     0.049 A 
ATOM     49  H   UNL A   1      47.823  26.403  28.889  1.00  0.00     0.167 HD
ATOM     50  C   UNL A   1      42.350  30.752  29.340  1.00  0.00     0.031 A 
ATOM     51  C   UNL A   1      49.251  28.980  27.701  1.00  0.00     0.031 A 
ATOM     52  C   UNL A   1      43.585  31.416  29.761  1.00  0.00     0.049 A 
ATOM     53  C   UNL A   1      48.952  30.530  27.667  1.00  0.00     0.074 A 
ATOM     54  C   UNL A   1      44.381  31.331  30.888  1.00  0.00     0.029 A 
ATOM     55  N   UNL A   1      44.355  32.058  28.796  1.00  0.00    -0.354 N 
ATOM     56  N   UNL A   1      47.867  31.023  28.217  1.00  0.00    -0.248 NA
ATOM     57  C   UNL A   1      49.704  31.595  27.004  1.00  0.00     0.031 C 
ATOM     58  C   UNL A   1      45.660  31.885  30.566  1.00  0.00     0.029 A 
ATOM     59  C   UNL A   1      45.642  32.297  29.243  1.00  0.00     0.049 A 
ATOM     60  H   UNL A   1      44.025  32.309  27.903  1.00  0.00     0.167 HD
ATOM     61  C   UNL A   1      47.712  32.351  27.971  1.00  0.00     0.074 A 
ATOM     62  C   UNL A   1      48.923  32.678  27.232  1.00  0.00     0.031 C 
ATOM     63  C   UNL A   1      46.570  33.007  28.356  1.00  0.00     0.031 A 
BRANCH  50  64
ATOM     64  C   UNL A   1      41.112  30.591  30.214  1.00  0.00    -0.014 A 
ATOM     65  C   UNL A   1      41.027  29.452  31.032  1.00  0.00     0.010 A 
ATOM     66  C   UNL A   1      39.975  31.439  30.229  1.00  0.00     0.010 A 
ATOM     67  C   UNL A   1      39.897  29.180  31.819  1.00  0.00     0.020 A 
ATOM     68  C   UNL A   1      38.846  31.192  31.026  1.00  0.00     0.020 A 
ATOM     69  C   UNL A   1      38.819  30.061  31.823  1.00  0.00     0.054 A 
BRANCH  69  70
ATOM     70  S   UNL A   1      37.410  29.724  32.907  1.00  0.00     0.124 S 
ATOM     71  O   UNL A   1      37.686  30.584  34.054  1.00  0.00    -0.237 OA
ATOM     72  O   UNL A   1      36.278  30.122  32.075  1.00  0.00    -0.237 OA
ATOM     73  O   UNL A   1      37.509  28.289  33.171  1.00  0.00    -0.744 OA
ENDBRANCH  69  70
ENDBRANCH  50  64
BRANCH  51  74
ATOM     74  C   UNL A   1      49.688  28.133  26.118  1.00  0.00    -0.014 A 
ATOM     75  C   UNL A   1      48.330  27.223  25.272  1.00  0.00     0.010 A 
ATOM     76  C   UNL A   1      51.328  28.384  24.943  1.00  0.00     0.010 A 
ATOM     77  C   UNL A   1      48.582  26.726  23.526  1.00  0.00     0.020 A 
ATOM     78  C   UNL A   1      51.471  27.821  23.308  1.00  0.00     0.020 A 
ATOM     79  C   UNL A   1      50.106  27.071  22.608  1.00  0.00     0.054 A 
BRANCH  79  80
ATOM     80  S   UNL A   1      50.086  27.740  20.821  1.00  0.00     0.124 S 
ATOM     81  O   UNL A   1      49.790  29.152  21.000  1.00  0.00    -0.237 OA
ATOM     82  O   UNL A   1      51.424  27.397  20.349  1.00  0.00    -0.237 OA
ATOM     83  O   UNL A   1      49.020  26.962  20.180  1.00  0.00    -0.744 OA
ENDBRANCH  79  80
ENDBRANCH  51  74
BRANCH  63  84
ATOM     84  C   UNL A   1      46.154  34.411  27.972  1.00  0.00    -0.014 A 
ATOM     85  C   UNL A   1      46.139  34.912  26.668  1.00  0.00     0.010 A 
ATOM     86  C   UNL A   1      45.659  35.273  28.991  1.00  0.00     0.010 A 
ATOM     87  C   UNL A   1      45.784  36.244  26.418  1.00  0.00     0.020 A 
ATOM     88  C   UNL A   1      45.233  36.573  28.745  1.00  0.00     0.020 A 
ATOM     89  C   UNL A   1      45.360  37.071  27.462  1.00  0.00     0.054 A 
BRANCH  89  90
ATOM     90  S   UNL A   1      45.034  38.815  27.142  1.00  0.00     0.124 S 
ATOM     91  O   UNL A   1      45.361  39.416  28.432  1.00  0.00    -0.237 OA
ATOM     92  O   UNL A   1      45.960  39.118  26.053  1.00  0.00    -0.237 OA
ATOM     93  O   UNL A   1      43.620  38.847  26.778  1.00  0.00    -0.744 OA
ENDBRANCH  89  90
ENDBRANCH  63  84
ENDBRANCH  37  38
ENDBRANCH  30  32
ENDBRANCH  29  30
ENDBRANCH  28  29
ENDBRANCH   1  28
TORSDOF 20
ENDMDL
