MODEL 1
REMARK VINA RESULT:     -11.2      0.000      0.000
REMARK SMILES Cc1cc(S(F)(F)(F)(F)F)cc2c1O[C@H](C(F)(F)F)C(C(=O)OCCOCCOC(=O)c1ccc(-c3c4nc(c(-c5ccc(S(=O)(=O)[O-])cc5)c5ccc([nH]5)c(-c5ccc(S(=O)(=O)[O-])cc5)c5nc(c(-c6ccc(S(=O)(=O)[O-])cc6)c6ccc3[nH]6)C=C5)C=C4)cc1)=C2
REMARK SMILES IDX 27 1 26 2 25 3 24 4 23 5 21 6 22 7 20 8 1 9 2 10 3 11 13 12
REMARK SMILES IDX 4 13 12 14 14 15 11 16 92 17 15 18 5 19 6 20 7 21 8 22 9 23
REMARK SMILES IDX 10 24 16 25 17 26 18 27 19 28 28 29 29 30 30 31 31 32 32 33
REMARK SMILES IDX 33 34 91 35 34 36 90 37 35 38 36 39 37 40 84 41 38 42 89 43
REMARK SMILES IDX 83 44 85 45 39 46 88 47 82 48 81 49 40 51 70 52 51 53 69 54
REMARK SMILES IDX 52 55 55 56 68 57 86 58 53 59 54 60 67 62 87 63 56 64 41 65
REMARK SMILES IDX 42 66 50 67 43 68 49 69 44 70 45 71 46 72 47 73 48 74 71 75
REMARK SMILES IDX 72 76 80 77 73 78 79 79 74 80 75 81 76 82 77 83 78 84 57 85
REMARK SMILES IDX 58 86 66 87 59 88 65 89 60 90 61 91 62 92 63 93 64 94
REMARK H PARENT 85 50 55 61
REMARK Flexibility Score: inf
ROOT
ATOM      1  C   UNL A   1      36.424  21.301  24.728  1.00  0.00     0.202 C 
ENDROOT
BRANCH   1   2
ATOM      2  O   UNL A   1      35.301  20.525  25.120  1.00  0.00    -0.374 OA
BRANCH   2   3
ATOM      3  C   UNL A   1      34.109  21.172  24.699  1.00  0.00     0.202 C 
BRANCH   3   4
ATOM      4  C   UNL A   1      33.102  21.171  25.839  1.00  0.00     0.261 C 
BRANCH   4   5
ATOM      5  O   UNL A   1      31.865  21.693  25.377  1.00  0.00    -0.460 OA
BRANCH   5   6
ATOM      6  C   UNL A   1      31.407  22.953  25.845  1.00  0.00     0.338 C 
ATOM      7  O   UNL A   1      30.486  23.010  26.719  1.00  0.00    -0.246 OA
BRANCH   6   8
ATOM      8  C   UNL A   1      32.017  24.234  25.300  1.00  0.00     0.087 C 
ATOM      9  C   UNL A   1      33.805  28.035  22.272  1.00  0.00     0.048 C 
ATOM     10  C   UNL A   1      33.698  27.744  23.761  1.00  0.00    -0.007 A 
ATOM     11  C   UNL A   1      34.023  28.758  24.635  1.00  0.00     0.031 A 
ATOM     12  C   UNL A   1      33.137  26.568  24.255  1.00  0.00     0.130 A 
ATOM     13  C   UNL A   1      33.801  28.617  25.999  1.00  0.00     0.108 A 
ATOM     14  C   UNL A   1      32.908  26.431  25.643  1.00  0.00     0.019 A 
ATOM     15  O   UNL A   1      32.770  25.451  23.375  1.00  0.00    -0.475 OA
ATOM     16  C   UNL A   1      33.247  27.475  26.505  1.00  0.00     0.036 A 
ATOM     17  C   UNL A   1      32.319  25.185  26.134  1.00  0.00     0.027 C 
ATOM     18  C   UNL A   1      32.232  24.342  23.926  1.00  0.00     0.316 C 
BRANCH  13  19
ATOM     19  S   UNL A   1      34.253  29.964  27.120  1.00  0.00     0.310 S 
ATOM     20  F   UNL A   1      34.564  28.958  28.306  1.00  0.00    -0.094 F 
ATOM     21  F   UNL A   1      32.763  30.002  27.635  1.00  0.00    -0.094 F 
ATOM     22  F   UNL A   1      34.644  31.122  28.082  1.00  0.00    -0.094 F 
ATOM     23  F   UNL A   1      35.766  29.817  26.694  1.00  0.00    -0.094 F 
ATOM     24  F   UNL A   1      33.893  28.714  26.222  1.00  0.00    -0.094 F 
ENDBRANCH  13  19
BRANCH  18  25
ATOM     25  C   UNL A   1      30.813  24.366  23.379  1.00  0.00     0.430 C 
ATOM     26  F   UNL A   1      30.436  23.128  23.072  1.00  0.00    -0.167 F 
ATOM     27  F   UNL A   1      29.993  24.864  24.299  1.00  0.00    -0.167 F 
ATOM     28  F   UNL A   1      30.771  25.126  22.288  1.00  0.00    -0.167 F 
ENDBRANCH  18  25
ENDBRANCH   6   8
ENDBRANCH   5   6
ENDBRANCH   4   5
ENDBRANCH   3   4
ENDBRANCH   2   3
ENDBRANCH   1   2
BRANCH   1  29
ATOM     29  C   UNL A   1      36.574  22.486  25.669  1.00  0.00     0.261 C 
BRANCH  29  30
ATOM     30  O   UNL A   1      37.769  23.188  25.358  1.00  0.00    -0.460 OA
BRANCH  30  31
ATOM     31  C   UNL A   1      38.901  23.074  26.206  1.00  0.00     0.338 C 
ATOM     32  O   UNL A   1      39.461  21.945  26.370  1.00  0.00    -0.246 OA
BRANCH  31  33
ATOM     33  C   UNL A   1      39.445  24.302  26.918  1.00  0.00     0.060 A 
ATOM     34  C   UNL A   1      40.393  25.124  26.318  1.00  0.00     0.016 A 
ATOM     35  C   UNL A   1      39.002  24.628  28.114  1.00  0.00     0.016 A 
ATOM     36  C   UNL A   1      40.440  26.463  26.764  1.00  0.00     0.010 A 
ATOM     37  C   UNL A   1      39.481  25.768  28.768  1.00  0.00     0.010 A 
ATOM     38  C   UNL A   1      40.183  26.673  28.118  1.00  0.00    -0.014 A 
BRANCH  38  39
ATOM     39  C   UNL A   1      40.700  27.914  28.826  1.00  0.00     0.031 A 
ATOM     40  C   UNL A   1      39.807  28.980  28.957  1.00  0.00     0.074 A 
ATOM     41  C   UNL A   1      41.979  27.909  29.353  1.00  0.00     0.049 A 
ATOM     42  N   UNL A   1      39.998  30.126  29.611  1.00  0.00    -0.248 NA
ATOM     43  C   UNL A   1      38.459  29.003  28.369  1.00  0.00     0.031 C 
ATOM     44  C   UNL A   1      42.882  26.834  29.234  1.00  0.00     0.029 A 
ATOM     45  N   UNL A   1      42.604  28.906  30.067  1.00  0.00    -0.354 N 
ATOM     46  C   UNL A   1      38.909  30.893  29.528  1.00  0.00     0.074 A 
ATOM     47  C   UNL A   1      37.906  30.183  28.722  1.00  0.00     0.031 C 
ATOM     48  C   UNL A   1      44.039  27.183  29.857  1.00  0.00     0.029 A 
ATOM     49  C   UNL A   1      43.877  28.481  30.377  1.00  0.00     0.049 A 
ATOM     50  H   UNL A   1      42.210  29.773  30.314  1.00  0.00     0.167 HD
ATOM     51  C   UNL A   1      38.713  32.153  30.093  1.00  0.00     0.031 A 
ATOM     52  C   UNL A   1      44.858  29.173  31.071  1.00  0.00     0.031 A 
ATOM     53  C   UNL A   1      39.678  32.827  30.825  1.00  0.00     0.049 A 
ATOM     54  C   UNL A   1      44.682  30.458  31.587  1.00  0.00     0.074 A 
ATOM     55  C   UNL A   1      39.494  34.095  31.407  1.00  0.00     0.029 A 
ATOM     56  N   UNL A   1      40.959  32.412  31.112  1.00  0.00    -0.354 N 
ATOM     57  N   UNL A   1      43.579  31.208  31.537  1.00  0.00    -0.248 NA
ATOM     58  C   UNL A   1      45.723  31.214  32.294  1.00  0.00     0.031 C 
ATOM     59  C   UNL A   1      40.650  34.444  32.031  1.00  0.00     0.029 A 
ATOM     60  C   UNL A   1      41.577  33.401  31.846  1.00  0.00     0.049 A 
ATOM     61  H   UNL A   1      41.365  31.557  30.841  1.00  0.00     0.167 HD
ATOM     62  C   UNL A   1      43.785  32.371  32.156  1.00  0.00     0.074 A 
ATOM     63  C   UNL A   1      45.170  32.395  32.647  1.00  0.00     0.031 C 
ATOM     64  C   UNL A   1      42.874  33.413  32.336  1.00  0.00     0.031 A 
BRANCH  51  65
ATOM     65  C   UNL A   1      37.363  32.826  29.896  1.00  0.00    -0.014 A 
ATOM     66  C   UNL A   1      36.352  32.683  30.841  1.00  0.00     0.010 A 
ATOM     67  C   UNL A   1      37.123  33.557  28.830  1.00  0.00     0.010 A 
ATOM     68  C   UNL A   1      35.363  33.692  30.864  1.00  0.00     0.020 A 
ATOM     69  C   UNL A   1      35.878  34.167  28.644  1.00  0.00     0.020 A 
ATOM     70  C   UNL A   1      35.011  34.240  29.632  1.00  0.00     0.054 A 
BRANCH  70  71
ATOM     71  S   UNL A   1      33.402  35.034  29.396  1.00  0.00     0.124 S 
ATOM     72  O   UNL A   1      32.635  35.035  30.721  1.00  0.00    -0.237 OA
ATOM     73  O   UNL A   1      33.607  36.476  28.924  1.00  0.00    -0.237 OA
ATOM     74  O   UNL A   1      32.508  34.172  28.221  1.00  0.00    -0.744 OA
ENDBRANCH  70  71
ENDBRANCH  51  65
BRANCH  52  75
ATOM     75  C   UNL A   1      46.201  28.494  31.281  1.00  0.00    -0.014 A 
ATOM     76  C   UNL A   1      46.405  27.636  32.356  1.00  0.00     0.010 A 
ATOM     77  C   UNL A   1      47.201  28.703  30.450  1.00  0.00     0.010 A 
ATOM     78  C   UNL A   1      47.439  26.684  32.217  1.00  0.00     0.020 A 
ATOM     79  C   UNL A   1      48.439  28.084  30.650  1.00  0.00     0.020 A 
ATOM     80  C   UNL A   1      48.568  27.096  31.509  1.00  0.00     0.054 A 
BRANCH  80  81
ATOM     81  S   UNL A   1      50.169  26.291  31.766  1.00  0.00     0.124 S 
ATOM     82  O   UNL A   1      50.446  26.176  33.266  1.00  0.00    -0.237 OA
ATOM     83  O   UNL A   1      50.143  24.894  31.143  1.00  0.00    -0.237 OA
ATOM     84  O   UNL A   1      51.398  27.222  31.028  1.00  0.00    -0.744 OA
ENDBRANCH  80  81
ENDBRANCH  52  75
BRANCH  64  85
ATOM     85  C   UNL A   1      43.330  34.635  33.117  1.00  0.00    -0.014 A 
ATOM     86  C   UNL A   1      43.816  35.760  32.459  1.00  0.00     0.010 A 
ATOM     87  C   UNL A   1      43.271  34.656  34.430  1.00  0.00     0.010 A 
ATOM     88  C   UNL A   1      43.733  36.985  33.159  1.00  0.00     0.020 A 
ATOM     89  C   UNL A   1      43.695  35.780  35.149  1.00  0.00     0.020 A 
ATOM     90  C   UNL A   1      43.923  36.922  34.538  1.00  0.00     0.054 A 
BRANCH  90  91
ATOM     91  S   UNL A   1      44.466  38.378  35.466  1.00  0.00     0.124 S 
ATOM     92  O   UNL A   1      45.995  38.455  35.444  1.00  0.00    -0.237 OA
ATOM     93  O   UNL A   1      43.883  39.640  34.825  1.00  0.00    -0.237 OA
ATOM     94  O   UNL A   1      43.925  38.258  37.083  1.00  0.00    -0.744 OA
ENDBRANCH  90  91
ENDBRANCH  64  85
ENDBRANCH  38  39
ENDBRANCH  31  33
ENDBRANCH  30  31
ENDBRANCH  29  30
ENDBRANCH   1  29
TORSDOF 19
ENDMDL
MODEL 2
REMARK VINA RESULT:     -11.1      3.302      9.497
REMARK SMILES Cc1cc(S(F)(F)(F)(F)F)cc2c1O[C@H](C(F)(F)F)C(C(=O)OCCOCCOC(=O)c1ccc(-c3c4nc(c(-c5ccc(S(=O)(=O)[O-])cc5)c5ccc([nH]5)c(-c5ccc(S(=O)(=O)[O-])cc5)c5nc(c(-c6ccc(S(=O)(=O)[O-])cc6)c6ccc3[nH]6)C=C5)C=C4)cc1)=C2
REMARK SMILES IDX 27 1 26 2 25 3 24 4 23 5 21 6 22 7 20 8 1 9 2 10 3 11 13 12
REMARK SMILES IDX 4 13 12 14 14 15 11 16 92 17 15 18 5 19 6 20 7 21 8 22 9 23
REMARK SMILES IDX 10 24 16 25 17 26 18 27 19 28 28 29 29 30 30 31 31 32 32 33
REMARK SMILES IDX 33 34 91 35 34 36 90 37 35 38 36 39 37 40 84 41 38 42 89 43
REMARK SMILES IDX 83 44 85 45 39 46 88 47 82 48 81 49 40 51 70 52 51 53 69 54
REMARK SMILES IDX 52 55 55 56 68 57 86 58 53 59 54 60 67 62 87 63 56 64 41 65
REMARK SMILES IDX 42 66 50 67 43 68 49 69 44 70 45 71 46 72 47 73 48 74 71 75
REMARK SMILES IDX 72 76 80 77 73 78 79 79 74 80 75 81 76 82 77 83 78 84 57 85
REMARK SMILES IDX 58 86 66 87 59 88 65 89 60 90 61 91 62 92 63 93 64 94
REMARK H PARENT 85 50 55 61
REMARK Flexibility Score: inf
ROOT
ATOM      1  C   UNL A   1      31.791  28.544  25.979  1.00  0.00     0.202 C 
ENDROOT
BRANCH   1   2
ATOM      2  O   UNL A   1      31.471  29.036  24.686  1.00  0.00    -0.374 OA
BRANCH   2   3
ATOM      3  C   UNL A   1      32.129  28.250  23.704  1.00  0.00     0.202 C 
BRANCH   3   4
ATOM      4  C   UNL A   1      31.201  27.139  23.240  1.00  0.00     0.261 C 
BRANCH   4   5
ATOM      5  O   UNL A   1      31.959  25.964  22.987  1.00  0.00    -0.460 OA
BRANCH   5   6
ATOM      6  C   UNL A   1      31.556  24.725  23.550  1.00  0.00     0.338 C 
ATOM      7  O   UNL A   1      30.325  24.495  23.767  1.00  0.00    -0.246 OA
BRANCH   6   8
ATOM      8  C   UNL A   1      32.597  23.672  23.895  1.00  0.00     0.087 C 
ATOM      9  C   UNL A   1      36.856  21.157  25.428  1.00  0.00     0.048 C 
ATOM     10  C   UNL A   1      35.494  20.807  24.850  1.00  0.00    -0.007 A 
ATOM     11  C   UNL A   1      35.147  19.475  24.795  1.00  0.00     0.031 A 
ATOM     12  C   UNL A   1      34.542  21.775  24.536  1.00  0.00     0.130 A 
ATOM     13  C   UNL A   1      33.864  19.091  24.427  1.00  0.00     0.108 A 
ATOM     14  C   UNL A   1      33.237  21.381  24.167  1.00  0.00     0.019 A 
ATOM     15  O   UNL A   1      34.850  23.211  24.575  1.00  0.00    -0.475 OA
ATOM     16  C   UNL A   1      32.913  20.024  24.120  1.00  0.00     0.036 A 
ATOM     17  C   UNL A   1      32.258  22.418  23.841  1.00  0.00     0.027 C 
ATOM     18  C   UNL A   1      33.878  24.092  24.256  1.00  0.00     0.316 C 
BRANCH  13  19
ATOM     19  S   UNL A   1      33.446  17.331  24.352  1.00  0.00     0.310 S 
ATOM     20  F   UNL A   1      34.812  16.913  25.039  1.00  0.00    -0.094 F 
ATOM     21  F   UNL A   1      34.194  17.238  22.967  1.00  0.00    -0.094 F 
ATOM     22  F   UNL A   1      33.085  15.820  24.289  1.00  0.00    -0.094 F 
ATOM     23  F   UNL A   1      32.825  17.412  25.800  1.00  0.00    -0.094 F 
ATOM     24  F   UNL A   1      33.903  18.839  24.479  1.00  0.00    -0.094 F 
ENDBRANCH  13  19
BRANCH  18  25
ATOM     25  C   UNL A   1      33.627  24.789  25.584  1.00  0.00     0.430 C 
ATOM     26  F   UNL A   1      33.863  26.091  25.452  1.00  0.00    -0.167 F 
ATOM     27  F   UNL A   1      32.362  24.602  25.950  1.00  0.00    -0.167 F 
ATOM     28  F   UNL A   1      34.437  24.283  26.511  1.00  0.00    -0.167 F 
ENDBRANCH  18  25
ENDBRANCH   6   8
ENDBRANCH   5   6
ENDBRANCH   4   5
ENDBRANCH   3   4
ENDBRANCH   2   3
ENDBRANCH   1   2
BRANCH   1  29
ATOM     29  C   UNL A   1      32.310  29.683  26.841  1.00  0.00     0.261 C 
BRANCH  29  30
ATOM     30  O   UNL A   1      33.598  29.350  27.339  1.00  0.00    -0.460 OA
BRANCH  30  31
ATOM     31  C   UNL A   1      34.417  30.355  27.919  1.00  0.00     0.338 C 
ATOM     32  O   UNL A   1      33.943  31.514  28.135  1.00  0.00    -0.246 OA
BRANCH  31  33
ATOM     33  C   UNL A   1      35.859  30.044  28.282  1.00  0.00     0.060 A 
ATOM     34  C   UNL A   1      36.228  29.756  29.591  1.00  0.00     0.016 A 
ATOM     35  C   UNL A   1      36.787  30.014  27.350  1.00  0.00     0.016 A 
ATOM     36  C   UNL A   1      37.397  28.980  29.761  1.00  0.00     0.010 A 
ATOM     37  C   UNL A   1      38.115  29.708  27.671  1.00  0.00     0.010 A 
ATOM     38  C   UNL A   1      38.424  29.200  28.845  1.00  0.00    -0.014 A 
BRANCH  38  39
ATOM     39  C   UNL A   1      39.864  28.863  29.194  1.00  0.00     0.031 A 
ATOM     40  C   UNL A   1      40.316  27.592  28.834  1.00  0.00     0.074 A 
ATOM     41  C   UNL A   1      40.662  29.830  29.780  1.00  0.00     0.049 A 
ATOM     42  N   UNL A   1      41.552  27.104  28.952  1.00  0.00    -0.248 NA
ATOM     43  C   UNL A   1      39.463  26.551  28.242  1.00  0.00     0.031 C 
ATOM     44  C   UNL A   1      40.215  31.117  30.138  1.00  0.00     0.029 A 
ATOM     45  N   UNL A   1      41.993  29.736  30.121  1.00  0.00    -0.354 N 
ATOM     46  C   UNL A   1      41.602  25.855  28.483  1.00  0.00     0.074 A 
ATOM     47  C   UNL A   1      40.257  25.480  28.026  1.00  0.00     0.031 C 
ATOM     48  C   UNL A   1      41.259  31.786  30.696  1.00  0.00     0.029 A 
ATOM     49  C   UNL A   1      42.375  30.928  30.696  1.00  0.00     0.049 A 
ATOM     50  H   UNL A   1      42.571  28.952  29.978  1.00  0.00     0.167 HD
ATOM     51  C   UNL A   1      42.716  25.018  28.417  1.00  0.00     0.031 A 
ATOM     52  C   UNL A   1      43.621  31.266  31.200  1.00  0.00     0.031 A 
ATOM     53  C   UNL A   1      43.973  25.372  28.881  1.00  0.00     0.049 A 
ATOM     54  C   UNL A   1      44.722  30.406  31.187  1.00  0.00     0.074 A 
ATOM     55  C   UNL A   1      45.108  24.541  28.816  1.00  0.00     0.029 A 
ATOM     56  N   UNL A   1      44.348  26.554  29.478  1.00  0.00    -0.354 N 
ATOM     57  N   UNL A   1      44.781  29.172  30.682  1.00  0.00    -0.248 NA
ATOM     58  C   UNL A   1      46.037  30.740  31.747  1.00  0.00     0.031 C 
ATOM     59  C   UNL A   1      46.152  25.210  29.373  1.00  0.00     0.029 A 
ATOM     60  C   UNL A   1      45.686  26.468  29.799  1.00  0.00     0.049 A 
ATOM     61  H   UNL A   1      43.763  27.327  29.649  1.00  0.00     0.167 HD
ATOM     62  C   UNL A   1      46.007  28.670  30.837  1.00  0.00     0.074 A 
ATOM     63  C   UNL A   1      46.832  29.669  31.532  1.00  0.00     0.031 C 
ATOM     64  C   UNL A   1      46.474  27.420  30.426  1.00  0.00     0.031 A 
BRANCH  51  65
ATOM     65  C   UNL A   1      42.540  23.639  27.801  1.00  0.00    -0.014 A 
ATOM     66  C   UNL A   1      42.863  23.408  26.467  1.00  0.00     0.010 A 
ATOM     67  C   UNL A   1      42.081  22.634  28.515  1.00  0.00     0.010 A 
ATOM     68  C   UNL A   1      43.159  22.073  26.112  1.00  0.00     0.020 A 
ATOM     69  C   UNL A   1      41.910  21.368  27.945  1.00  0.00     0.020 A 
ATOM     70  C   UNL A   1      42.435  21.083  26.772  1.00  0.00     0.054 A 
BRANCH  70  71
ATOM     71  S   UNL A   1      42.220  19.443  26.034  1.00  0.00     0.124 S 
ATOM     72  O   UNL A   1      43.032  19.357  24.740  1.00  0.00    -0.237 OA
ATOM     73  O   UNL A   1      42.709  18.374  27.016  1.00  0.00    -0.237 OA
ATOM     74  O   UNL A   1      40.566  19.186  25.689  1.00  0.00    -0.744 OA
ENDBRANCH  70  71
ENDBRANCH  51  65
BRANCH  52  75
ATOM     75  C   UNL A   1      43.801  32.650  31.801  1.00  0.00    -0.014 A 
ATOM     76  C   UNL A   1      43.595  32.869  33.159  1.00  0.00     0.010 A 
ATOM     77  C   UNL A   1      44.156  33.671  31.050  1.00  0.00     0.010 A 
ATOM     78  C   UNL A   1      44.244  33.989  33.723  1.00  0.00     0.020 A 
ATOM     79  C   UNL A   1      44.311  34.946  31.604  1.00  0.00     0.020 A 
ATOM     80  C   UNL A   1      44.358  35.114  32.908  1.00  0.00     0.054 A 
BRANCH  80  81
ATOM     81  S   UNL A   1      44.565  36.763  33.625  1.00  0.00     0.124 S 
ATOM     82  O   UNL A   1      43.396  37.654  33.199  1.00  0.00    -0.237 OA
ATOM     83  O   UNL A   1      44.594  36.655  35.151  1.00  0.00    -0.237 OA
ATOM     84  O   UNL A   1      46.032  37.444  33.073  1.00  0.00    -0.744 OA
ENDBRANCH  80  81
ENDBRANCH  52  75
BRANCH  64  85
ATOM     85  C   UNL A   1      47.934  27.083  30.680  1.00  0.00    -0.014 A 
ATOM     86  C   UNL A   1      48.930  27.535  29.821  1.00  0.00     0.010 A 
ATOM     87  C   UNL A   1      48.287  26.361  31.721  1.00  0.00     0.010 A 
ATOM     88  C   UNL A   1      50.232  27.635  30.361  1.00  0.00     0.020 A 
ATOM     89  C   UNL A   1      49.631  26.048  31.953  1.00  0.00     0.020 A 
ATOM     90  C   UNL A   1      50.589  26.664  31.296  1.00  0.00     0.054 A 
BRANCH  90  91
ATOM     91  S   UNL A   1      52.327  26.264  31.598  1.00  0.00     0.124 S 
ATOM     92  O   UNL A   1      52.976  27.388  32.411  1.00  0.00    -0.237 OA
ATOM     93  O   UNL A   1      52.421  24.951  32.380  1.00  0.00    -0.237 OA
ATOM     94  O   UNL A   1      53.143  26.098  30.104  1.00  0.00    -0.744 OA
ENDBRANCH  90  91
ENDBRANCH  64  85
ENDBRANCH  38  39
ENDBRANCH  31  33
ENDBRANCH  30  31
ENDBRANCH  29  30
ENDBRANCH   1  29
TORSDOF 19
ENDMDL
MODEL 3
REMARK VINA RESULT:     -10.7      3.413      7.943
REMARK SMILES Cc1cc(S(F)(F)(F)(F)F)cc2c1O[C@H](C(F)(F)F)C(C(=O)OCCOCCOC(=O)c1ccc(-c3c4nc(c(-c5ccc(S(=O)(=O)[O-])cc5)c5ccc([nH]5)c(-c5ccc(S(=O)(=O)[O-])cc5)c5nc(c(-c6ccc(S(=O)(=O)[O-])cc6)c6ccc3[nH]6)C=C5)C=C4)cc1)=C2
REMARK SMILES IDX 27 1 26 2 25 3 24 4 23 5 21 6 22 7 20 8 1 9 2 10 3 11 13 12
REMARK SMILES IDX 4 13 12 14 14 15 11 16 92 17 15 18 5 19 6 20 7 21 8 22 9 23
REMARK SMILES IDX 10 24 16 25 17 26 18 27 19 28 28 29 29 30 30 31 31 32 32 33
REMARK SMILES IDX 33 34 91 35 34 36 90 37 35 38 36 39 37 40 84 41 38 42 89 43
REMARK SMILES IDX 83 44 85 45 39 46 88 47 82 48 81 49 40 51 70 52 51 53 69 54
REMARK SMILES IDX 52 55 55 56 68 57 86 58 53 59 54 60 67 62 87 63 56 64 41 65
REMARK SMILES IDX 42 66 50 67 43 68 49 69 44 70 45 71 46 72 47 73 48 74 71 75
REMARK SMILES IDX 72 76 80 77 73 78 79 79 74 80 75 81 76 82 77 83 78 84 57 85
REMARK SMILES IDX 58 86 66 87 59 88 65 89 60 90 61 91 62 92 63 93 64 94
REMARK H PARENT 85 50 55 61
REMARK Flexibility Score: inf
ROOT
ATOM      1  C   UNL A   1      32.081  29.383  25.358  1.00  0.00     0.202 C 
ENDROOT
BRANCH   1   2
ATOM      2  O   UNL A   1      31.724  28.831  24.099  1.00  0.00    -0.374 OA
BRANCH   2   3
ATOM      3  C   UNL A   1      30.840  27.737  24.295  1.00  0.00     0.202 C 
BRANCH   3   4
ATOM      4  C   UNL A   1      30.587  27.044  22.966  1.00  0.00     0.261 C 
BRANCH   4   5
ATOM      5  O   UNL A   1      30.935  25.671  23.075  1.00  0.00    -0.460 OA
BRANCH   5   6
ATOM      6  C   UNL A   1      32.064  25.168  22.377  1.00  0.00     0.338 C 
ATOM      7  O   UNL A   1      32.370  25.638  21.237  1.00  0.00    -0.246 OA
BRANCH   6   8
ATOM      8  C   UNL A   1      32.909  24.065  22.995  1.00  0.00     0.087 C 
ATOM      9  C   UNL A   1      36.649  21.310  25.283  1.00  0.00     0.048 C 
ATOM     10  C   UNL A   1      35.270  21.056  24.695  1.00  0.00    -0.007 A 
ATOM     11  C   UNL A   1      34.715  19.809  24.882  1.00  0.00     0.031 A 
ATOM     12  C   UNL A   1      34.499  22.071  24.131  1.00  0.00     0.130 A 
ATOM     13  C   UNL A   1      33.401  19.555  24.511  1.00  0.00     0.108 A 
ATOM     14  C   UNL A   1      33.161  21.810  23.759  1.00  0.00     0.019 A 
ATOM     15  O   UNL A   1      35.033  23.421  23.904  1.00  0.00    -0.475 OA
ATOM     16  C   UNL A   1      32.624  20.537  23.961  1.00  0.00     0.036 A 
ATOM     17  C   UNL A   1      32.375  22.892  23.168  1.00  0.00     0.027 C 
ATOM     18  C   UNL A   1      34.227  24.353  23.352  1.00  0.00     0.316 C 
BRANCH  13  19
ATOM     19  S   UNL A   1      32.708  17.901  24.758  1.00  0.00     0.310 S 
ATOM     20  F   UNL A   1      34.131  17.285  25.086  1.00  0.00    -0.094 F 
ATOM     21  F   UNL A   1      32.995  17.582  23.242  1.00  0.00    -0.094 F 
ATOM     22  F   UNL A   1      32.111  16.482  24.973  1.00  0.00    -0.094 F 
ATOM     23  F   UNL A   1      32.557  18.191  26.303  1.00  0.00    -0.094 F 
ATOM     24  F   UNL A   1      33.413  19.305  24.579  1.00  0.00    -0.094 F 
ENDBRANCH  13  19
BRANCH  18  25
ATOM     25  C   UNL A   1      34.044  25.339  24.494  1.00  0.00     0.430 C 
ATOM     26  F   UNL A   1      35.074  25.244  25.331  1.00  0.00    -0.167 F 
ATOM     27  F   UNL A   1      33.981  26.574  24.007  1.00  0.00    -0.167 F 
ATOM     28  F   UNL A   1      32.917  25.060  25.145  1.00  0.00    -0.167 F 
ENDBRANCH  18  25
ENDBRANCH   6   8
ENDBRANCH   5   6
ENDBRANCH   4   5
ENDBRANCH   3   4
ENDBRANCH   2   3
ENDBRANCH   1   2
BRANCH   1  29
ATOM     29  C   UNL A   1      33.578  29.231  25.571  1.00  0.00     0.261 C 
BRANCH  29  30
ATOM     30  O   UNL A   1      33.856  29.196  26.964  1.00  0.00    -0.460 OA
BRANCH  30  31
ATOM     31  C   UNL A   1      34.523  30.286  27.582  1.00  0.00     0.338 C 
ATOM     32  O   UNL A   1      33.975  31.433  27.612  1.00  0.00    -0.246 OA
BRANCH  31  33
ATOM     33  C   UNL A   1      35.893  30.082  28.209  1.00  0.00     0.060 A 
ATOM     34  C   UNL A   1      36.030  29.759  29.555  1.00  0.00     0.016 A 
ATOM     35  C   UNL A   1      36.981  30.180  27.476  1.00  0.00     0.016 A 
ATOM     36  C   UNL A   1      37.211  29.079  29.923  1.00  0.00     0.010 A 
ATOM     37  C   UNL A   1      38.245  29.973  28.040  1.00  0.00     0.010 A 
ATOM     38  C   UNL A   1      38.369  29.434  29.234  1.00  0.00    -0.014 A 
BRANCH  38  39
ATOM     39  C   UNL A   1      39.742  29.204  29.846  1.00  0.00     0.031 A 
ATOM     40  C   UNL A   1      40.108  30.043  30.900  1.00  0.00     0.074 A 
ATOM     41  C   UNL A   1      40.522  28.159  29.383  1.00  0.00     0.049 A 
ATOM     42  N   UNL A   1      41.210  29.977  31.648  1.00  0.00    -0.248 NA
ATOM     43  C   UNL A   1      39.297  31.175  31.372  1.00  0.00     0.031 C 
ATOM     44  C   UNL A   1      40.156  27.303  28.325  1.00  0.00     0.029 A 
ATOM     45  N   UNL A   1      41.758  27.760  29.839  1.00  0.00    -0.354 N 
ATOM     46  C   UNL A   1      41.199  30.940  32.572  1.00  0.00     0.074 A 
ATOM     47  C   UNL A   1      39.971  31.728  32.404  1.00  0.00     0.031 C 
ATOM     48  C   UNL A   1      41.163  26.409  28.138  1.00  0.00     0.029 A 
ATOM     49  C   UNL A   1      42.173  26.690  29.076  1.00  0.00     0.049 A 
ATOM     50  H   UNL A   1      42.260  28.170  30.580  1.00  0.00     0.167 HD
ATOM     51  C   UNL A   1      42.164  31.188  33.550  1.00  0.00     0.031 A 
ATOM     52  C   UNL A   1      43.364  25.988  29.177  1.00  0.00     0.031 A 
ATOM     53  C   UNL A   1      43.335  30.457  33.679  1.00  0.00     0.049 A 
ATOM     54  C   UNL A   1      44.356  26.274  30.118  1.00  0.00     0.074 A 
ATOM     55  C   UNL A   1      44.314  30.692  34.662  1.00  0.00     0.029 A 
ATOM     56  N   UNL A   1      43.760  29.405  32.901  1.00  0.00    -0.354 N 
ATOM     57  N   UNL A   1      44.326  27.211  31.067  1.00  0.00    -0.248 NA
ATOM     58  C   UNL A   1      45.634  25.558  30.213  1.00  0.00     0.031 C 
ATOM     59  C   UNL A   1      45.320  29.797  34.476  1.00  0.00     0.029 A 
ATOM     60  C   UNL A   1      44.988  28.991  33.371  1.00  0.00     0.049 A 
ATOM     61  H   UNL A   1      43.273  29.013  32.140  1.00  0.00     0.167 HD
ATOM     62  C   UNL A   1      45.449  27.171  31.788  1.00  0.00     0.074 A 
ATOM     63  C   UNL A   1      46.310  26.112  31.244  1.00  0.00     0.031 C 
ATOM     64  C   UNL A   1      45.789  27.972  32.879  1.00  0.00     0.031 A 
BRANCH  51  65
ATOM     65  C   UNL A   1      41.916  32.325  34.528  1.00  0.00    -0.014 A 
ATOM     66  C   UNL A   1      42.402  33.604  34.272  1.00  0.00     0.010 A 
ATOM     67  C   UNL A   1      41.237  32.125  35.637  1.00  0.00     0.010 A 
ATOM     68  C   UNL A   1      41.736  34.672  34.915  1.00  0.00     0.020 A 
ATOM     69  C   UNL A   1      41.019  33.170  36.542  1.00  0.00     0.020 A 
ATOM     70  C   UNL A   1      41.257  34.418  36.199  1.00  0.00     0.054 A 
BRANCH  70  71
ATOM     71  S   UNL A   1      40.969  35.772  37.365  1.00  0.00     0.124 S 
ATOM     72  O   UNL A   1      42.244  36.607  37.501  1.00  0.00    -0.237 OA
ATOM     73  O   UNL A   1      39.831  36.657  36.850  1.00  0.00    -0.237 OA
ATOM     74  O   UNL A   1      40.543  35.128  38.891  1.00  0.00    -0.744 OA
ENDBRANCH  70  71
ENDBRANCH  51  65
BRANCH  52  75
ATOM     75  C   UNL A   1      43.604  24.841  28.209  1.00  0.00    -0.014 A 
ATOM     76  C   UNL A   1      43.318  23.530  28.573  1.00  0.00     0.010 A 
ATOM     77  C   UNL A   1      44.087  25.064  27.005  1.00  0.00     0.010 A 
ATOM     78  C   UNL A   1      43.079  22.620  27.520  1.00  0.00     0.020 A 
ATOM     79  C   UNL A   1      44.315  24.007  26.119  1.00  0.00     0.020 A 
ATOM     80  C   UNL A   1      43.827  22.809  26.358  1.00  0.00     0.054 A 
BRANCH  80  81
ATOM     81  S   UNL A   1      44.117  21.440  25.209  1.00  0.00     0.124 S 
ATOM     82  O   UNL A   1      45.461  20.782  25.531  1.00  0.00    -0.237 OA
ATOM     83  O   UNL A   1      42.997  20.409  25.351  1.00  0.00    -0.237 OA
ATOM     84  O   UNL A   1      44.144  22.038  23.608  1.00  0.00    -0.744 OA
ENDBRANCH  80  81
ENDBRANCH  52  75
BRANCH  64  85
ATOM     85  C   UNL A   1      47.117  27.712  33.571  1.00  0.00    -0.014 A 
ATOM     86  C   UNL A   1      47.201  26.834  34.646  1.00  0.00     0.010 A 
ATOM     87  C   UNL A   1      48.216  28.309  33.164  1.00  0.00     0.010 A 
ATOM     88  C   UNL A   1      48.468  26.260  34.895  1.00  0.00     0.020 A 
ATOM     89  C   UNL A   1      49.439  28.072  33.803  1.00  0.00     0.020 A 
ATOM     90  C   UNL A   1      49.573  27.074  34.649  1.00  0.00     0.054 A 
BRANCH  90  91
ATOM     91  S   UNL A   1      51.154  26.763  35.473  1.00  0.00     0.124 S 
ATOM     92  O   UNL A   1      52.215  26.415  34.425  1.00  0.00    -0.237 OA
ATOM     93  O   UNL A   1      51.587  28.016  36.238  1.00  0.00    -0.237 OA
ATOM     94  O   UNL A   1      50.982  25.458  36.565  1.00  0.00    -0.744 OA
ENDBRANCH  90  91
ENDBRANCH  64  85
ENDBRANCH  38  39
ENDBRANCH  31  33
ENDBRANCH  30  31
ENDBRANCH  29  30
ENDBRANCH   1  29
TORSDOF 19
ENDMDL
