MODEL 1
REMARK VINA RESULT:      -8.8      0.000      0.000
REMARK SMILES COc1cc([C@H]2CC(c3ccc(S(C)(=O)=O)cc3)=NN2c2ccc(C(=O)OCCOCCOC(=O)c3ccc(-c4c5nc(c(-c6ccc(S(=O)(=O)[O-])cc6)c6ccc([nH]6)c(-c6ccc(S(=O)(=O)[O-])cc6)c6nc(c(-c7ccc(S(=O)(=O)[O-])cc7)c7ccc4[nH]7)C=C6)C=C5)cc3)cc2)cc(OC)c1OC
REMARK SMILES IDX 30 1 29 2 28 3 27 4 25 5 26 6 24 7 21 8 22 9 97 10 23 11
REMARK SMILES IDX 96 12 20 13 6 14 7 15 8 16 19 17 5 18 3 19 4 20 102 21 99 22
REMARK SMILES IDX 98 23 2 24 1 25 103 26 104 27 100 28 101 29 9 30 10 31 18 32
REMARK SMILES IDX 11 33 17 34 12 35 13 36 14 37 15 38 16 39 31 40 32 41 33 42
REMARK SMILES IDX 34 43 35 44 36 45 37 46 95 47 38 48 94 49 39 50 40 51 41 52
REMARK SMILES IDX 88 53 42 54 93 55 87 56 89 57 43 58 92 59 86 60 85 61 44 63
REMARK SMILES IDX 74 64 55 65 73 66 56 67 59 68 72 69 90 70 57 71 58 72 71 74
REMARK SMILES IDX 91 75 60 76 45 77 46 78 54 79 47 80 53 81 48 82 49 83 50 84
REMARK SMILES IDX 51 85 52 86 75 87 76 88 84 89 77 90 83 91 78 92 79 93 80 94
REMARK SMILES IDX 81 95 82 96 61 97 62 98 70 99 63 100 69 101 64 102 65 103
REMARK SMILES IDX 66 104 67 105 68 106
REMARK H PARENT 89 62 59 73
REMARK Flexibility Score: inf
ROOT
ATOM      1  O   UNL A   1      47.196  37.490  31.446  1.00  0.00    -0.374 OA
ENDROOT
BRANCH   1   2
ATOM      2  C   UNL A   1      47.034  38.023  30.130  1.00  0.00     0.202 C 
BRANCH   2   3
ATOM      3  C   UNL A   1      46.886  36.990  29.008  1.00  0.00     0.261 C 
BRANCH   3   4
ATOM      4  O   UNL A   1      46.823  37.631  27.724  1.00  0.00    -0.460 OA
BRANCH   4   5
ATOM      5  C   UNL A   1      45.611  37.593  27.121  1.00  0.00     0.338 C 
ATOM      6  O   UNL A   1      44.800  36.682  27.159  1.00  0.00    -0.246 OA
BRANCH   5   7
ATOM      7  C   UNL A   1      45.309  38.912  26.520  1.00  0.00     0.060 A 
ATOM      8  C   UNL A   1      44.540  41.325  25.307  1.00  0.00     0.060 A 
ATOM      9  C   UNL A   1      43.691  40.686  26.219  1.00  0.00     0.029 A 
ATOM     10  C   UNL A   1      45.820  40.789  25.090  1.00  0.00     0.029 A 
ATOM     11  C   UNL A   1      44.058  39.473  26.799  1.00  0.00     0.018 A 
ATOM     12  C   UNL A   1      46.212  39.593  25.700  1.00  0.00     0.018 A 
BRANCH   8  13
ATOM     13  N   UNL A   1      44.066  42.374  24.514  1.00  0.00    -0.257 N 
ATOM     14  C   UNL A   1      44.127  43.764  25.012  1.00  0.00     0.144 C 
ATOM     15  C   UNL A   1      44.037  44.586  23.718  1.00  0.00     0.091 C 
ATOM     16  C   UNL A   1      44.019  43.484  22.693  1.00  0.00     0.071 C 
ATOM     17  N   UNL A   1      44.075  42.274  23.156  1.00  0.00    -0.176 NA
BRANCH  14  18
ATOM     18  C   UNL A   1      45.374  44.028  25.857  1.00  0.00    -0.015 A 
ATOM     19  C   UNL A   1      47.679  44.836  25.988  1.00  0.00     0.164 A 
ATOM     20  C   UNL A   1      46.579  44.386  25.237  1.00  0.00     0.056 A 
ATOM     21  C   UNL A   1      47.609  44.955  27.387  1.00  0.00     0.203 A 
ATOM     22  C   UNL A   1      46.409  44.565  28.019  1.00  0.00     0.164 A 
ATOM     23  C   UNL A   1      45.320  44.102  27.255  1.00  0.00     0.056 A 
BRANCH  19  24
ATOM     24  O   UNL A   1      48.768  45.274  25.275  1.00  0.00    -0.493 OA
ATOM     25  C   UNL A   1      48.432  45.564  23.919  1.00  0.00     0.278 C 
ENDBRANCH  19  24
BRANCH  21  26
ATOM     26  O   UNL A   1      48.606  45.407  28.207  1.00  0.00    -0.490 OA
ATOM     27  C   UNL A   1      48.897  46.789  28.320  1.00  0.00     0.278 C 
ENDBRANCH  21  26
BRANCH  22  28
ATOM     28  O   UNL A   1      46.110  44.571  29.361  1.00  0.00    -0.493 OA
ATOM     29  C   UNL A   1      44.868  44.028  29.784  1.00  0.00     0.278 C 
ENDBRANCH  22  28
ENDBRANCH  14  18
BRANCH  16  30
ATOM     30  C   UNL A   1      43.866  43.780  21.258  1.00  0.00    -0.002 A 
ATOM     31  C   UNL A   1      42.847  43.129  20.553  1.00  0.00     0.011 A 
ATOM     32  C   UNL A   1      44.686  44.713  20.617  1.00  0.00     0.011 A 
ATOM     33  C   UNL A   1      42.619  43.434  19.208  1.00  0.00     0.021 A 
ATOM     34  C   UNL A   1      44.479  45.000  19.262  1.00  0.00     0.021 A 
ATOM     35  C   UNL A   1      43.442  44.365  18.568  1.00  0.00     0.067 A 
BRANCH  35  36
ATOM     36  S   UNL A   1      43.123  44.783  16.868  1.00  0.00     0.175 S 
ATOM     37  C   UNL A   1      41.363  44.980  16.775  1.00  0.00     0.163 C 
ATOM     38  O   UNL A   1      43.740  46.074  16.632  1.00  0.00    -0.224 OA
ATOM     39  O   UNL A   1      43.474  43.631  16.058  1.00  0.00    -0.224 OA
ENDBRANCH  35  36
ENDBRANCH  16  30
ENDBRANCH   8  13
ENDBRANCH   5   7
ENDBRANCH   4   5
ENDBRANCH   3   4
ENDBRANCH   2   3
ENDBRANCH   1   2
BRANCH   1  40
ATOM     40  C   UNL A   1      46.401  38.080  32.476  1.00  0.00     0.202 C 
BRANCH  40  41
ATOM     41  C   UNL A   1      45.086  38.724  32.023  1.00  0.00     0.261 C 
BRANCH  41  42
ATOM     42  O   UNL A   1      44.103  37.734  31.672  1.00  0.00    -0.460 OA
BRANCH  42  43
ATOM     43  C   UNL A   1      43.681  36.961  32.702  1.00  0.00     0.338 C 
ATOM     44  O   UNL A   1      43.167  37.336  33.742  1.00  0.00    -0.246 OA
BRANCH  43  45
ATOM     45  C   UNL A   1      43.766  35.535  32.325  1.00  0.00     0.060 A 
ATOM     46  C   UNL A   1      44.180  35.239  31.020  1.00  0.00     0.016 A 
ATOM     47  C   UNL A   1      43.396  34.511  33.200  1.00  0.00     0.016 A 
ATOM     48  C   UNL A   1      44.175  33.921  30.567  1.00  0.00     0.010 A 
ATOM     49  C   UNL A   1      43.386  33.188  32.741  1.00  0.00     0.010 A 
ATOM     50  C   UNL A   1      43.742  32.892  31.413  1.00  0.00    -0.014 A 
BRANCH  50  51
ATOM     51  C   UNL A   1      43.531  31.531  30.861  1.00  0.00     0.031 A 
ATOM     52  C   UNL A   1      44.681  30.558  30.856  1.00  0.00     0.074 A 
ATOM     53  C   UNL A   1      42.323  31.153  30.405  1.00  0.00     0.049 A 
ATOM     54  N   UNL A   1      44.721  29.328  30.413  1.00  0.00    -0.248 NA
ATOM     55  C   UNL A   1      45.950  31.034  31.431  1.00  0.00     0.031 C 
ATOM     56  C   UNL A   1      41.122  31.985  30.402  1.00  0.00     0.029 A 
ATOM     57  N   UNL A   1      41.912  29.964  29.857  1.00  0.00    -0.354 N 
ATOM     58  C   UNL A   1      46.016  28.884  30.651  1.00  0.00     0.074 A 
ATOM     59  C   UNL A   1      46.739  29.985  31.249  1.00  0.00     0.031 C 
ATOM     60  C   UNL A   1      40.104  31.279  29.878  1.00  0.00     0.029 A 
ATOM     61  C   UNL A   1      40.590  29.959  29.479  1.00  0.00     0.049 A 
ATOM     62  H   UNL A   1      42.506  29.188  29.745  1.00  0.00     0.167 HD
ATOM     63  C   UNL A   1      46.555  27.666  30.400  1.00  0.00     0.031 A 
ATOM     64  C   UNL A   1      39.859  29.006  28.868  1.00  0.00     0.031 A 
ATOM     65  C   UNL A   1      45.841  26.577  29.791  1.00  0.00     0.049 A 
ATOM     66  C   UNL A   1      40.503  27.688  28.525  1.00  0.00     0.074 A 
ATOM     67  C   UNL A   1      46.301  25.304  29.496  1.00  0.00     0.029 A 
ATOM     68  N   UNL A   1      44.519  26.630  29.378  1.00  0.00    -0.354 N 
ATOM     69  N   UNL A   1      41.728  27.282  28.762  1.00  0.00    -0.248 NA
ATOM     70  C   UNL A   1      39.663  26.698  27.837  1.00  0.00     0.031 C 
ATOM     71  C   UNL A   1      45.270  24.604  28.860  1.00  0.00     0.029 A 
ATOM     72  C   UNL A   1      44.151  25.421  28.810  1.00  0.00     0.049 A 
ATOM     73  H   UNL A   1      43.927  27.411  29.473  1.00  0.00     0.167 HD
ATOM     74  C   UNL A   1      41.795  25.979  28.278  1.00  0.00     0.074 A 
ATOM     75  C   UNL A   1      40.487  25.662  27.744  1.00  0.00     0.031 C 
ATOM     76  C   UNL A   1      42.846  25.120  28.280  1.00  0.00     0.031 A 
BRANCH  63  77
ATOM     77  C   UNL A   1      48.002  27.460  30.761  1.00  0.00    -0.014 A 
ATOM     78  C   UNL A   1      49.032  27.890  29.905  1.00  0.00     0.010 A 
ATOM     79  C   UNL A   1      48.337  26.863  31.989  1.00  0.00     0.010 A 
ATOM     80  C   UNL A   1      50.371  27.695  30.257  1.00  0.00     0.020 A 
ATOM     81  C   UNL A   1      49.674  26.690  32.356  1.00  0.00     0.020 A 
ATOM     82  C   UNL A   1      50.683  27.092  31.480  1.00  0.00     0.054 A 
BRANCH  82  83
ATOM     83  S   UNL A   1      52.429  26.873  31.922  1.00  0.00     0.124 S 
ATOM     84  O   UNL A   1      52.363  26.809  33.380  1.00  0.00    -0.237 OA
ATOM     85  O   UNL A   1      52.775  25.622  31.254  1.00  0.00    -0.237 OA
ATOM     86  O   UNL A   1      53.076  28.065  31.381  1.00  0.00    -0.744 OA
ENDBRANCH  82  83
ENDBRANCH  63  77
BRANCH  64  87
ATOM     87  C   UNL A   1      38.434  29.266  28.529  1.00  0.00    -0.014 A 
ATOM     88  C   UNL A   1      38.072  29.691  27.239  1.00  0.00     0.010 A 
ATOM     89  C   UNL A   1      37.430  29.085  29.497  1.00  0.00     0.010 A 
ATOM     90  C   UNL A   1      36.733  29.944  26.927  1.00  0.00     0.020 A 
ATOM     91  C   UNL A   1      36.087  29.312  29.181  1.00  0.00     0.020 A 
ATOM     92  C   UNL A   1      35.748  29.749  27.901  1.00  0.00     0.054 A 
BRANCH  92  93
ATOM     93  S   UNL A   1      34.010  30.025  27.458  1.00  0.00     0.124 S 
ATOM     94  O   UNL A   1      33.748  31.329  28.060  1.00  0.00    -0.237 OA
ATOM     95  O   UNL A   1      34.047  29.997  25.998  1.00  0.00    -0.237 OA
ATOM     96  O   UNL A   1      33.317  28.898  28.076  1.00  0.00    -0.744 OA
ENDBRANCH  92  93
ENDBRANCH  64  87
BRANCH  76  97
ATOM     97  C   UNL A   1      42.617  23.741  27.720  1.00  0.00    -0.014 A 
ATOM     98  C   UNL A   1      42.997  23.414  26.406  1.00  0.00     0.010 A 
ATOM     99  C   UNL A   1      42.066  22.741  28.543  1.00  0.00     0.010 A 
ATOM    100  C   UNL A   1      42.800  22.120  25.917  1.00  0.00     0.020 A 
ATOM    101  C   UNL A   1      41.892  21.440  28.065  1.00  0.00     0.020 A 
ATOM    102  C   UNL A   1      42.247  21.141  26.749  1.00  0.00     0.054 A 
BRANCH 102 103
ATOM    103  S   UNL A   1      42.040  19.458  26.104  1.00  0.00     0.124 S 
ATOM    104  O   UNL A   1      42.570  18.647  27.197  1.00  0.00    -0.237 OA
ATOM    105  O   UNL A   1      40.597  19.368  25.898  1.00  0.00    -0.237 OA
ATOM    106  O   UNL A   1      42.838  19.454  24.881  1.00  0.00    -0.744 OA
ENDBRANCH 102 103
ENDBRANCH  76  97
ENDBRANCH  50  51
ENDBRANCH  43  45
ENDBRANCH  42  43
ENDBRANCH  41  42
ENDBRANCH  40  41
ENDBRANCH   1  40
TORSDOF 24
ENDMDL
MODEL 2
REMARK VINA RESULT:      -8.3      3.092      4.343
REMARK SMILES COc1cc([C@H]2CC(c3ccc(S(C)(=O)=O)cc3)=NN2c2ccc(C(=O)OCCOCCOC(=O)c3ccc(-c4c5nc(c(-c6ccc(S(=O)(=O)[O-])cc6)c6ccc([nH]6)c(-c6ccc(S(=O)(=O)[O-])cc6)c6nc(c(-c7ccc(S(=O)(=O)[O-])cc7)c7ccc4[nH]7)C=C6)C=C5)cc3)cc2)cc(OC)c1OC
REMARK SMILES IDX 30 1 29 2 28 3 27 4 25 5 26 6 24 7 21 8 22 9 97 10 23 11
REMARK SMILES IDX 96 12 20 13 6 14 7 15 8 16 19 17 5 18 3 19 4 20 102 21 99 22
REMARK SMILES IDX 98 23 2 24 1 25 103 26 104 27 100 28 101 29 9 30 10 31 18 32
REMARK SMILES IDX 11 33 17 34 12 35 13 36 14 37 15 38 16 39 31 40 32 41 33 42
REMARK SMILES IDX 34 43 35 44 36 45 37 46 95 47 38 48 94 49 39 50 40 51 41 52
REMARK SMILES IDX 88 53 42 54 93 55 87 56 89 57 43 58 92 59 86 60 85 61 44 63
REMARK SMILES IDX 74 64 55 65 73 66 56 67 59 68 72 69 90 70 57 71 58 72 71 74
REMARK SMILES IDX 91 75 60 76 45 77 46 78 54 79 47 80 53 81 48 82 49 83 50 84
REMARK SMILES IDX 51 85 52 86 75 87 76 88 84 89 77 90 83 91 78 92 79 93 80 94
REMARK SMILES IDX 81 95 82 96 61 97 62 98 70 99 63 100 69 101 64 102 65 103
REMARK SMILES IDX 66 104 67 105 68 106
REMARK H PARENT 89 62 59 73
REMARK Flexibility Score: inf
ROOT
ATOM      1  O   UNL A   1      46.789  37.214  31.072  1.00  0.00    -0.374 OA
ENDROOT
BRANCH   1   2
ATOM      2  C   UNL A   1      45.629  38.024  30.872  1.00  0.00     0.202 C 
BRANCH   2   3
ATOM      3  C   UNL A   1      44.332  37.266  30.570  1.00  0.00     0.261 C 
BRANCH   3   4
ATOM      4  O   UNL A   1      43.581  37.926  29.538  1.00  0.00    -0.460 OA
BRANCH   4   5
ATOM      5  C   UNL A   1      43.832  37.494  28.279  1.00  0.00     0.338 C 
ATOM      6  O   UNL A   1      43.861  36.338  27.890  1.00  0.00    -0.246 OA
BRANCH   5   7
ATOM      7  C   UNL A   1      43.907  38.652  27.359  1.00  0.00     0.060 A 
ATOM      8  C   UNL A   1      44.233  40.916  25.729  1.00  0.00     0.060 A 
ATOM      9  C   UNL A   1      45.294  40.024  25.926  1.00  0.00     0.029 A 
ATOM     10  C   UNL A   1      42.979  40.602  26.278  1.00  0.00     0.029 A 
ATOM     11  C   UNL A   1      45.143  38.916  26.758  1.00  0.00     0.018 A 
ATOM     12  C   UNL A   1      42.809  39.469  27.082  1.00  0.00     0.018 A 
BRANCH   8  13
ATOM     13  N   UNL A   1      44.457  42.163  25.139  1.00  0.00    -0.257 N 
ATOM     14  C   UNL A   1      44.582  43.370  25.984  1.00  0.00     0.144 C 
ATOM     15  C   UNL A   1      45.323  44.348  25.060  1.00  0.00     0.091 C 
ATOM     16  C   UNL A   1      45.556  43.469  23.860  1.00  0.00     0.071 C 
ATOM     17  N   UNL A   1      45.103  42.258  23.944  1.00  0.00    -0.176 NA
BRANCH  14  18
ATOM     18  C   UNL A   1      45.281  43.084  27.312  1.00  0.00    -0.015 A 
ATOM     19  C   UNL A   1      45.112  42.537  29.691  1.00  0.00     0.164 A 
ATOM     20  C   UNL A   1      44.535  43.002  28.496  1.00  0.00     0.056 A 
ATOM     21  C   UNL A   1      46.456  42.126  29.742  1.00  0.00     0.203 A 
ATOM     22  C   UNL A   1      47.220  42.237  28.561  1.00  0.00     0.164 A 
ATOM     23  C   UNL A   1      46.633  42.718  27.375  1.00  0.00     0.056 A 
BRANCH  19  24
ATOM     24  O   UNL A   1      44.264  42.383  30.759  1.00  0.00    -0.493 OA
ATOM     25  C   UNL A   1      43.484  41.194  30.650  1.00  0.00     0.278 C 
ENDBRANCH  19  24
BRANCH  21  26
ATOM     26  O   UNL A   1      47.105  41.634  30.840  1.00  0.00    -0.490 OA
ATOM     27  C   UNL A   1      47.166  42.370  32.049  1.00  0.00     0.278 C 
ENDBRANCH  21  26
BRANCH  22  28
ATOM     28  O   UNL A   1      48.545  41.921  28.369  1.00  0.00    -0.493 OA
ATOM     29  C   UNL A   1      49.434  42.945  27.945  1.00  0.00     0.278 C 
ENDBRANCH  22  28
ENDBRANCH  14  18
BRANCH  16  30
ATOM     30  C   UNL A   1      46.194  43.997  22.641  1.00  0.00    -0.002 A 
ATOM     31  C   UNL A   1      45.464  44.888  21.845  1.00  0.00     0.011 A 
ATOM     32  C   UNL A   1      47.505  43.656  22.301  1.00  0.00     0.011 A 
ATOM     33  C   UNL A   1      46.054  45.470  20.721  1.00  0.00     0.021 A 
ATOM     34  C   UNL A   1      48.091  44.215  21.159  1.00  0.00     0.021 A 
ATOM     35  C   UNL A   1      47.365  45.125  20.380  1.00  0.00     0.067 A 
BRANCH  35  36
ATOM     36  S   UNL A   1      48.130  45.900  18.972  1.00  0.00     0.175 S 
ATOM     37  C   UNL A   1      49.311  44.713  18.389  1.00  0.00     0.163 C 
ATOM     38  O   UNL A   1      47.097  46.050  17.965  1.00  0.00    -0.224 OA
ATOM     39  O   UNL A   1      48.873  47.050  19.453  1.00  0.00    -0.224 OA
ENDBRANCH  35  36
ENDBRANCH  16  30
ENDBRANCH   8  13
ENDBRANCH   5   7
ENDBRANCH   4   5
ENDBRANCH   3   4
ENDBRANCH   2   3
ENDBRANCH   1   2
BRANCH   1  40
ATOM     40  C   UNL A   1      48.049  37.888  31.060  1.00  0.00     0.202 C 
BRANCH  40  41
ATOM     41  C   UNL A   1      48.425  38.584  29.748  1.00  0.00     0.261 C 
BRANCH  41  42
ATOM     42  O   UNL A   1      48.153  37.751  28.607  1.00  0.00    -0.460 OA
BRANCH  42  43
ATOM     43  C   UNL A   1      48.942  36.655  28.501  1.00  0.00     0.338 C 
ATOM     44  O   UNL A   1      50.158  36.612  28.581  1.00  0.00    -0.246 OA
BRANCH  43  45
ATOM     45  C   UNL A   1      48.105  35.439  28.444  1.00  0.00     0.060 A 
ATOM     46  C   UNL A   1      48.283  34.488  29.457  1.00  0.00     0.016 A 
ATOM     47  C   UNL A   1      47.209  35.201  27.399  1.00  0.00     0.016 A 
ATOM     48  C   UNL A   1      47.605  33.272  29.401  1.00  0.00     0.010 A 
ATOM     49  C   UNL A   1      46.535  33.976  27.341  1.00  0.00     0.010 A 
ATOM     50  C   UNL A   1      46.756  32.994  28.323  1.00  0.00    -0.014 A 
BRANCH  50  51
ATOM     51  C   UNL A   1      46.213  31.623  28.154  1.00  0.00     0.031 A 
ATOM     52  C   UNL A   1      47.098  30.553  27.572  1.00  0.00     0.074 A 
ATOM     53  C   UNL A   1      44.961  31.326  28.547  1.00  0.00     0.049 A 
ATOM     54  N   UNL A   1      46.824  29.297  27.327  1.00  0.00    -0.248 NA
ATOM     55  C   UNL A   1      48.472  30.950  27.226  1.00  0.00     0.031 C 
ATOM     56  C   UNL A   1      44.025  32.260  29.168  1.00  0.00     0.029 A 
ATOM     57  N   UNL A   1      44.265  30.145  28.482  1.00  0.00    -0.354 N 
ATOM     58  C   UNL A   1      47.989  28.755  26.795  1.00  0.00     0.074 A 
ATOM     59  C   UNL A   1      48.961  29.824  26.725  1.00  0.00     0.031 C 
ATOM     60  C   UNL A   1      42.874  31.616  29.430  1.00  0.00     0.029 A 
ATOM     61  C   UNL A   1      42.981  30.233  28.965  1.00  0.00     0.049 A 
ATOM     62  H   UNL A   1      44.648  29.312  28.123  1.00  0.00     0.167 HD
ATOM     63  C   UNL A   1      48.230  27.480  26.406  1.00  0.00     0.031 A 
ATOM     64  C   UNL A   1      42.000  29.311  29.014  1.00  0.00     0.031 A 
ATOM     65  C   UNL A   1      47.259  26.421  26.461  1.00  0.00     0.049 A 
ATOM     66  C   UNL A   1      42.267  27.920  28.499  1.00  0.00     0.074 A 
ATOM     67  C   UNL A   1      47.409  25.095  26.090  1.00  0.00     0.029 A 
ATOM     68  N   UNL A   1      45.955  26.565  26.910  1.00  0.00    -0.354 N 
ATOM     69  N   UNL A   1      43.375  27.423  28.005  1.00  0.00    -0.248 NA
ATOM     70  C   UNL A   1      41.150  26.966  28.556  1.00  0.00     0.031 C 
ATOM     71  C   UNL A   1      46.181  24.450  26.269  1.00  0.00     0.029 A 
ATOM     72  C   UNL A   1      45.282  25.359  26.805  1.00  0.00     0.049 A 
ATOM     73  H   UNL A   1      45.565  27.401  27.253  1.00  0.00     0.167 HD
ATOM     74  C   UNL A   1      43.097  26.090  27.720  1.00  0.00     0.074 A 
ATOM     75  C   UNL A   1      41.721  25.857  28.104  1.00  0.00     0.031 C 
ATOM     76  C   UNL A   1      43.911  25.142  27.190  1.00  0.00     0.031 A 
BRANCH  63  77
ATOM     77  C   UNL A   1      49.597  27.169  25.857  1.00  0.00    -0.014 A 
ATOM     78  C   UNL A   1      50.605  26.633  26.679  1.00  0.00     0.010 A 
ATOM     79  C   UNL A   1      49.866  27.382  24.493  1.00  0.00     0.010 A 
ATOM     80  C   UNL A   1      51.868  26.345  26.152  1.00  0.00     0.020 A 
ATOM     81  C   UNL A   1      51.119  27.072  23.957  1.00  0.00     0.020 A 
ATOM     82  C   UNL A   1      52.117  26.571  24.794  1.00  0.00     0.054 A 
BRANCH  82  83
ATOM     83  S   UNL A   1      53.757  26.167  24.131  1.00  0.00     0.124 S 
ATOM     84  O   UNL A   1      53.953  24.805  24.623  1.00  0.00    -0.237 OA
ATOM     85  O   UNL A   1      53.561  26.291  22.690  1.00  0.00    -0.237 OA
ATOM     86  O   UNL A   1      54.630  27.175  24.728  1.00  0.00    -0.744 OA
ENDBRANCH  82  83
ENDBRANCH  63  77
BRANCH  64  87
ATOM     87  C   UNL A   1      40.665  29.675  29.561  1.00  0.00    -0.014 A 
ATOM     88  C   UNL A   1      40.381  29.506  30.928  1.00  0.00     0.010 A 
ATOM     89  C   UNL A   1      39.670  30.197  28.715  1.00  0.00     0.010 A 
ATOM     90  C   UNL A   1      39.122  29.841  31.435  1.00  0.00     0.020 A 
ATOM     91  C   UNL A   1      38.419  30.557  29.224  1.00  0.00     0.020 A 
ATOM     92  C   UNL A   1      38.150  30.368  30.580  1.00  0.00     0.054 A 
BRANCH  92  93
ATOM     93  S   UNL A   1      36.543  30.851  31.271  1.00  0.00     0.124 S 
ATOM     94  O   UNL A   1      35.692  30.856  30.085  1.00  0.00    -0.237 OA
ATOM     95  O   UNL A   1      36.280  29.786  32.236  1.00  0.00    -0.237 OA
ATOM     96  O   UNL A   1      36.805  32.162  31.860  1.00  0.00    -0.744 OA
ENDBRANCH  92  93
ENDBRANCH  64  87
BRANCH  76  97
ATOM     97  C   UNL A   1      43.348  23.754  27.027  1.00  0.00    -0.014 A 
ATOM     98  C   UNL A   1      43.212  22.888  28.126  1.00  0.00     0.010 A 
ATOM     99  C   UNL A   1      42.894  23.334  25.763  1.00  0.00     0.010 A 
ATOM    100  C   UNL A   1      42.662  21.615  27.957  1.00  0.00     0.020 A 
ATOM    101  C   UNL A   1      42.320  22.072  25.595  1.00  0.00     0.020 A 
ATOM    102  C   UNL A   1      42.221  21.214  26.692  1.00  0.00     0.054 A 
BRANCH 102 103
ATOM    103  S   UNL A   1      41.472  19.572  26.505  1.00  0.00     0.124 S 
ATOM    104  O   UNL A   1      42.306  18.975  25.466  1.00  0.00    -0.237 OA
ATOM    105  O   UNL A   1      41.623  18.996  27.839  1.00  0.00    -0.237 OA
ATOM    106  O   UNL A   1      40.096  19.861  26.111  1.00  0.00    -0.744 OA
ENDBRANCH 102 103
ENDBRANCH  76  97
ENDBRANCH  50  51
ENDBRANCH  43  45
ENDBRANCH  42  43
ENDBRANCH  41  42
ENDBRANCH  40  41
ENDBRANCH   1  40
TORSDOF 24
ENDMDL
MODEL 3
REMARK VINA RESULT:      -7.9      2.863      8.148
REMARK SMILES COc1cc([C@H]2CC(c3ccc(S(C)(=O)=O)cc3)=NN2c2ccc(C(=O)OCCOCCOC(=O)c3ccc(-c4c5nc(c(-c6ccc(S(=O)(=O)[O-])cc6)c6ccc([nH]6)c(-c6ccc(S(=O)(=O)[O-])cc6)c6nc(c(-c7ccc(S(=O)(=O)[O-])cc7)c7ccc4[nH]7)C=C6)C=C5)cc3)cc2)cc(OC)c1OC
REMARK SMILES IDX 30 1 29 2 28 3 27 4 25 5 26 6 24 7 21 8 22 9 97 10 23 11
REMARK SMILES IDX 96 12 20 13 6 14 7 15 8 16 19 17 5 18 3 19 4 20 102 21 99 22
REMARK SMILES IDX 98 23 2 24 1 25 103 26 104 27 100 28 101 29 9 30 10 31 18 32
REMARK SMILES IDX 11 33 17 34 12 35 13 36 14 37 15 38 16 39 31 40 32 41 33 42
REMARK SMILES IDX 34 43 35 44 36 45 37 46 95 47 38 48 94 49 39 50 40 51 41 52
REMARK SMILES IDX 88 53 42 54 93 55 87 56 89 57 43 58 92 59 86 60 85 61 44 63
REMARK SMILES IDX 74 64 55 65 73 66 56 67 59 68 72 69 90 70 57 71 58 72 71 74
REMARK SMILES IDX 91 75 60 76 45 77 46 78 54 79 47 80 53 81 48 82 49 83 50 84
REMARK SMILES IDX 51 85 52 86 75 87 76 88 84 89 77 90 83 91 78 92 79 93 80 94
REMARK SMILES IDX 81 95 82 96 61 97 62 98 70 99 63 100 69 101 64 102 65 103
REMARK SMILES IDX 66 104 67 105 68 106
REMARK H PARENT 89 62 59 73
REMARK Flexibility Score: inf
ROOT
ATOM      1  O   UNL A   1      47.945  40.416  30.178  1.00  0.00    -0.374 OA
ENDROOT
BRANCH   1   2
ATOM      2  C   UNL A   1      48.689  41.552  29.732  1.00  0.00     0.202 C 
BRANCH   2   3
ATOM      3  C   UNL A   1      48.502  42.833  30.551  1.00  0.00     0.261 C 
BRANCH   3   4
ATOM      4  O   UNL A   1      47.996  43.898  29.730  1.00  0.00    -0.460 OA
BRANCH   4   5
ATOM      5  C   UNL A   1      46.818  43.639  29.113  1.00  0.00     0.338 C 
ATOM      6  O   UNL A   1      45.773  43.296  29.641  1.00  0.00    -0.246 OA
BRANCH   5   7
ATOM      7  C   UNL A   1      46.914  43.997  27.680  1.00  0.00     0.060 A 
ATOM      8  C   UNL A   1      46.879  44.612  24.940  1.00  0.00     0.060 A 
ATOM      9  C   UNL A   1      45.921  45.159  25.803  1.00  0.00     0.029 A 
ATOM     10  C   UNL A   1      47.912  43.836  25.488  1.00  0.00     0.029 A 
ATOM     11  C   UNL A   1      45.919  44.831  27.158  1.00  0.00     0.018 A 
ATOM     12  C   UNL A   1      47.941  43.535  26.853  1.00  0.00     0.018 A 
BRANCH   8  13
ATOM     13  N   UNL A   1      46.717  44.705  23.555  1.00  0.00    -0.257 N 
ATOM     14  C   UNL A   1      46.009  43.636  22.819  1.00  0.00     0.144 C 
ATOM     15  C   UNL A   1      45.594  44.343  21.521  1.00  0.00     0.091 C 
ATOM     16  C   UNL A   1      46.087  45.738  21.799  1.00  0.00     0.071 C 
ATOM     17  N   UNL A   1      46.668  45.920  22.943  1.00  0.00    -0.176 NA
BRANCH  14  18
ATOM     18  C   UNL A   1      44.856  43.038  23.624  1.00  0.00    -0.015 A 
ATOM     19  C   UNL A   1      42.462  42.571  23.818  1.00  0.00     0.164 A 
ATOM     20  C   UNL A   1      43.530  43.271  23.231  1.00  0.00     0.056 A 
ATOM     21  C   UNL A   1      42.682  41.603  24.815  1.00  0.00     0.203 A 
ATOM     22  C   UNL A   1      44.012  41.390  25.238  1.00  0.00     0.164 A 
ATOM     23  C   UNL A   1      45.070  42.109  24.650  1.00  0.00     0.056 A 
BRANCH  19  24
ATOM     24  O   UNL A   1      41.219  42.786  23.277  1.00  0.00    -0.493 OA
ATOM     25  C   UNL A   1      41.266  42.867  21.854  1.00  0.00     0.278 C 
ENDBRANCH  19  24
BRANCH  21  26
ATOM     26  O   UNL A   1      41.722  40.849  25.430  1.00  0.00    -0.490 OA
ATOM     27  C   UNL A   1      41.743  40.630  26.830  1.00  0.00     0.278 C 
ENDBRANCH  21  26
BRANCH  22  28
ATOM     28  O   UNL A   1      44.471  40.521  26.201  1.00  0.00    -0.493 OA
ATOM     29  C   UNL A   1      45.778  39.982  26.061  1.00  0.00     0.278 C 
ENDBRANCH  22  28
ENDBRANCH  14  18
BRANCH  16  30
ATOM     30  C   UNL A   1      45.976  46.802  20.784  1.00  0.00    -0.002 A 
ATOM     31  C   UNL A   1      45.036  46.643  19.759  1.00  0.00     0.011 A 
ATOM     32  C   UNL A   1      46.755  47.960  20.858  1.00  0.00     0.011 A 
ATOM     33  C   UNL A   1      44.846  47.658  18.818  1.00  0.00     0.021 A 
ATOM     34  C   UNL A   1      46.587  48.968  19.900  1.00  0.00     0.021 A 
ATOM     35  C   UNL A   1      45.628  48.814  18.891  1.00  0.00     0.067 A 
BRANCH  35  36
ATOM     36  S   UNL A   1      45.354  50.124  17.718  1.00  0.00     0.175 S 
ATOM     37  C   UNL A   1      46.855  51.067  17.734  1.00  0.00     0.163 C 
ATOM     38  O   UNL A   1      45.220  49.498  16.416  1.00  0.00    -0.224 OA
ATOM     39  O   UNL A   1      44.302  50.974  18.246  1.00  0.00    -0.224 OA
ENDBRANCH  35  36
ENDBRANCH  16  30
ENDBRANCH   8  13
ENDBRANCH   5   7
ENDBRANCH   4   5
ENDBRANCH   3   4
ENDBRANCH   2   3
ENDBRANCH   1   2
BRANCH   1  40
ATOM     40  C   UNL A   1      47.586  39.456  29.183  1.00  0.00     0.202 C 
BRANCH  40  41
ATOM     41  C   UNL A   1      48.471  38.208  29.105  1.00  0.00     0.261 C 
BRANCH  41  42
ATOM     42  O   UNL A   1      48.397  37.427  30.310  1.00  0.00    -0.460 OA
BRANCH  42  43
ATOM     43  C   UNL A   1      47.156  36.980  30.623  1.00  0.00     0.338 C 
ATOM     44  O   UNL A   1      46.215  37.642  31.026  1.00  0.00    -0.246 OA
BRANCH  43  45
ATOM     45  C   UNL A   1      47.025  35.559  30.240  1.00  0.00     0.060 A 
ATOM     46  C   UNL A   1      46.555  35.283  28.950  1.00  0.00     0.016 A 
ATOM     47  C   UNL A   1      47.296  34.520  31.133  1.00  0.00     0.016 A 
ATOM     48  C   UNL A   1      46.303  33.967  28.565  1.00  0.00     0.010 A 
ATOM     49  C   UNL A   1      47.036  33.200  30.746  1.00  0.00     0.010 A 
ATOM     50  C   UNL A   1      46.507  32.921  29.473  1.00  0.00    -0.014 A 
BRANCH  50  51
ATOM     51  C   UNL A   1      46.033  31.556  29.136  1.00  0.00     0.031 A 
ATOM     52  C   UNL A   1      44.569  31.235  29.280  1.00  0.00     0.074 A 
ATOM     53  C   UNL A   1      46.887  30.626  28.673  1.00  0.00     0.049 A 
ATOM     54  N   UNL A   1      43.943  30.109  29.054  1.00  0.00    -0.248 NA
ATOM     55  C   UNL A   1      43.695  32.329  29.735  1.00  0.00     0.031 C 
ATOM     56  C   UNL A   1      48.316  30.829  28.443  1.00  0.00     0.029 A 
ATOM     57  N   UNL A   1      46.669  29.320  28.310  1.00  0.00    -0.354 N 
ATOM     58  C   UNL A   1      42.606  30.356  29.341  1.00  0.00     0.074 A 
ATOM     59  C   UNL A   1      42.514  31.729  29.787  1.00  0.00     0.031 C 
ATOM     60  C   UNL A   1      48.848  29.686  27.974  1.00  0.00     0.029 A 
ATOM     61  C   UNL A   1      47.806  28.664  27.903  1.00  0.00     0.049 A 
ATOM     62  H   UNL A   1      45.782  28.894  28.337  1.00  0.00     0.167 HD
ATOM     63  C   UNL A   1      41.547  29.517  29.237  1.00  0.00     0.031 A 
ATOM     64  C   UNL A   1      47.988  27.381  27.531  1.00  0.00     0.031 A 
ATOM     65  C   UNL A   1      41.639  28.148  28.810  1.00  0.00     0.049 A 
ATOM     66  C   UNL A   1      46.808  26.445  27.501  1.00  0.00     0.074 A 
ATOM     67  C   UNL A   1      40.622  27.218  28.671  1.00  0.00     0.029 A 
ATOM     68  N   UNL A   1      42.817  27.507  28.455  1.00  0.00    -0.354 N 
ATOM     69  N   UNL A   1      45.549  26.696  27.770  1.00  0.00    -0.248 NA
ATOM     70  C   UNL A   1      47.075  25.054  27.111  1.00  0.00     0.031 C 
ATOM     71  C   UNL A   1      41.192  26.002  28.280  1.00  0.00     0.029 A 
ATOM     72  C   UNL A   1      42.556  26.189  28.120  1.00  0.00     0.049 A 
ATOM     73  H   UNL A   1      43.707  27.927  28.443  1.00  0.00     0.167 HD
ATOM     74  C   UNL A   1      44.870  25.502  27.553  1.00  0.00     0.074 A 
ATOM     75  C   UNL A   1      45.855  24.532  27.122  1.00  0.00     0.031 C 
ATOM     76  C   UNL A   1      43.548  25.234  27.695  1.00  0.00     0.031 A 
BRANCH  63  77
ATOM     77  C   UNL A   1      40.195  30.056  29.623  1.00  0.00    -0.014 A 
ATOM     78  C   UNL A   1      39.304  30.548  28.652  1.00  0.00     0.010 A 
ATOM     79  C   UNL A   1      39.795  30.036  30.972  1.00  0.00     0.010 A 
ATOM     80  C   UNL A   1      38.051  31.040  29.027  1.00  0.00     0.020 A 
ATOM     81  C   UNL A   1      38.533  30.503  31.347  1.00  0.00     0.020 A 
ATOM     82  C   UNL A   1      37.675  31.018  30.374  1.00  0.00     0.054 A 
BRANCH  82  83
ATOM     83  S   UNL A   1      36.033  31.641  30.830  1.00  0.00     0.124 S 
ATOM     84  O   UNL A   1      36.258  33.084  30.862  1.00  0.00    -0.237 OA
ATOM     85  O   UNL A   1      35.192  31.162  29.737  1.00  0.00    -0.237 OA
ATOM     86  O   UNL A   1      35.776  31.024  32.128  1.00  0.00    -0.744 OA
ENDBRANCH  82  83
ENDBRANCH  63  77
BRANCH  64  87
ATOM     87  C   UNL A   1      49.349  26.901  27.165  1.00  0.00    -0.014 A 
ATOM     88  C   UNL A   1      49.781  26.925  25.828  1.00  0.00     0.010 A 
ATOM     89  C   UNL A   1      50.221  26.418  28.158  1.00  0.00     0.010 A 
ATOM     90  C   UNL A   1      51.056  26.464  25.489  1.00  0.00     0.020 A 
ATOM     91  C   UNL A   1      51.506  25.980  27.825  1.00  0.00     0.020 A 
ATOM     92  C   UNL A   1      51.912  25.997  26.491  1.00  0.00     0.054 A 
BRANCH  92  93
ATOM     93  S   UNL A   1      53.585  25.459  26.036  1.00  0.00     0.124 S 
ATOM     94  O   UNL A   1      53.963  26.455  25.038  1.00  0.00    -0.237 OA
ATOM     95  O   UNL A   1      54.298  25.533  27.308  1.00  0.00    -0.237 OA
ATOM     96  O   UNL A   1      53.379  24.106  25.525  1.00  0.00    -0.744 OA
ENDBRANCH  92  93
ENDBRANCH  64  87
BRANCH  76  97
ATOM     97  C   UNL A   1      43.079  23.845  27.346  1.00  0.00    -0.014 A 
ATOM     98  C   UNL A   1      43.170  23.352  26.032  1.00  0.00     0.010 A 
ATOM     99  C   UNL A   1      42.593  23.002  28.362  1.00  0.00     0.010 A 
ATOM    100  C   UNL A   1      42.755  22.051  25.737  1.00  0.00     0.020 A 
ATOM    101  C   UNL A   1      42.201  21.692  28.075  1.00  0.00     0.020 A 
ATOM    102  C   UNL A   1      42.271  21.229  26.759  1.00  0.00     0.054 A 
BRANCH 102 103
ATOM    103  S   UNL A   1      41.777  19.530  26.359  1.00  0.00     0.124 S 
ATOM    104  O   UNL A   1      42.288  18.787  27.508  1.00  0.00    -0.237 OA
ATOM    105  O   UNL A   1      40.322  19.631  26.273  1.00  0.00    -0.237 OA
ATOM    106  O   UNL A   1      42.451  19.262  25.092  1.00  0.00    -0.744 OA
ENDBRANCH 102 103
ENDBRANCH  76  97
ENDBRANCH  50  51
ENDBRANCH  43  45
ENDBRANCH  42  43
ENDBRANCH  41  42
ENDBRANCH  40  41
ENDBRANCH   1  40
TORSDOF 24
ENDMDL
