MODEL 1
REMARK VINA RESULT:     -10.4      0.000      0.000
REMARK SMILES Cc1nc([C@@H]2C[N@@H+]3CCC[C@@H]3CO2)sc1CC(=O)OCCOCCOC(=O)c1ccc(-c2c3nc(c(-c4ccc(S(=O)(=O)[O-])cc4)c4ccc([nH]4)c(-c4ccc(S(=O)(=O)[O-])cc4)c4nc(c(-c5ccc(S(=O)(=O)[O-])cc5)c5ccc2[nH]5)C=C4)C=C3)cc1
REMARK SMILES IDX 23 1 22 2 21 3 20 4 19 5 17 6 18 7 16 8 15 9 1 10 2 11 3 12
REMARK SMILES IDX 4 13 14 14 5 15 6 16 13 17 7 18 12 19 8 20 11 21 9 23 10 24
REMARK SMILES IDX 24 25 25 26 26 27 27 28 28 29 29 30 87 31 30 32 86 33 31 34
REMARK SMILES IDX 32 35 33 36 80 37 34 38 85 39 79 40 81 41 35 42 84 43 78 44
REMARK SMILES IDX 77 45 36 47 66 48 47 49 65 50 48 51 51 52 64 53 82 54 49 55
REMARK SMILES IDX 50 56 63 58 83 59 52 60 37 61 38 62 46 63 39 64 45 65 40 66
REMARK SMILES IDX 41 67 42 68 43 69 44 70 67 71 68 72 76 73 69 74 75 75 70 76
REMARK SMILES IDX 71 77 72 78 73 79 74 80 53 81 54 82 62 83 55 84 61 85 56 86
REMARK SMILES IDX 57 87 58 88 59 89 60 90
REMARK H PARENT 7 22 81 46 51 57
REMARK Flexibility Score: inf
ROOT
ATOM      1  C   UNL A   1      38.853  21.443  26.046  1.00  0.00     0.202 C 
ENDROOT
BRANCH   1   2
ATOM      2  O   UNL A   1      37.993  21.986  25.043  1.00  0.00    -0.374 OA
BRANCH   2   3
ATOM      3  C   UNL A   1      36.615  22.124  25.386  1.00  0.00     0.202 C 
BRANCH   3   4
ATOM      4  C   UNL A   1      35.751  20.863  25.262  1.00  0.00     0.261 C 
BRANCH   4   5
ATOM      5  O   UNL A   1      34.506  21.106  24.579  1.00  0.00    -0.463 OA
BRANCH   5   6
ATOM      6  C   UNL A   1      33.379  20.911  25.310  1.00  0.00     0.311 C 
ATOM      7  O   UNL A   1      32.488  20.119  25.013  1.00  0.00    -0.252 OA
BRANCH   6   8
ATOM      8  C   UNL A   1      33.296  21.711  26.591  1.00  0.00     0.171 C 
BRANCH   8   9
ATOM      9  C   UNL A   1      32.846  23.133  26.459  1.00  0.00     0.039 A 
ATOM     10  C   UNL A   1      30.309  22.968  26.916  1.00  0.00     0.068 C 
ATOM     11  C   UNL A   1      31.581  23.674  26.613  1.00  0.00     0.052 A 
ATOM     12  N   UNL A   1      31.527  25.049  26.489  1.00  0.00    -0.243 NA
ATOM     13  C   UNL A   1      32.702  25.546  26.163  1.00  0.00     0.128 A 
ATOM     14  S   UNL A   1      33.979  24.401  26.192  1.00  0.00    -0.120 S 
BRANCH  13  15
ATOM     15  C   UNL A   1      32.973  27.009  25.858  1.00  0.00     0.232 C 
ATOM     16  C   UNL A   1      31.643  27.785  25.636  1.00  0.00     0.302 C 
ATOM     17  O   UNL A   1      33.904  27.083  24.761  1.00  0.00    -0.359 OA
ATOM     18  N   UNL A   1      31.505  28.585  24.411  1.00  0.00    -0.328 N 
ATOM     19  C   UNL A   1      33.256  26.937  23.494  1.00  0.00     0.226 C 
ATOM     20  C   UNL A   1      30.104  28.793  24.017  1.00  0.00     0.262 C 
ATOM     21  C   UNL A   1      32.247  28.061  23.249  1.00  0.00     0.210 C 
ATOM     22  H   UNL A   1      31.924  29.478  24.674  1.00  0.00     0.348 HD
ATOM     23  C   UNL A   1      30.090  28.689  22.500  1.00  0.00     0.068 C 
ATOM     24  C   UNL A   1      31.184  27.680  22.225  1.00  0.00     0.073 C 
ENDBRANCH  13  15
ENDBRANCH   8   9
ENDBRANCH   6   8
ENDBRANCH   5   6
ENDBRANCH   4   5
ENDBRANCH   3   4
ENDBRANCH   2   3
ENDBRANCH   1   2
BRANCH   1  25
ATOM     25  C   UNL A   1      40.146  22.218  26.331  1.00  0.00     0.261 C 
BRANCH  25  26
ATOM     26  O   UNL A   1      39.889  23.596  26.665  1.00  0.00    -0.460 OA
BRANCH  26  27
ATOM     27  C   UNL A   1      40.999  24.352  26.836  1.00  0.00     0.338 C 
ATOM     28  O   UNL A   1      42.070  24.227  26.256  1.00  0.00    -0.246 OA
BRANCH  27  29
ATOM     29  C   UNL A   1      40.707  25.515  27.694  1.00  0.00     0.060 A 
ATOM     30  C   UNL A   1      41.669  26.534  27.747  1.00  0.00     0.016 A 
ATOM     31  C   UNL A   1      39.568  25.574  28.502  1.00  0.00     0.016 A 
ATOM     32  C   UNL A   1      41.519  27.592  28.641  1.00  0.00     0.010 A 
ATOM     33  C   UNL A   1      39.429  26.633  29.409  1.00  0.00     0.010 A 
ATOM     34  C   UNL A   1      40.416  27.632  29.504  1.00  0.00    -0.014 A 
BRANCH  34  35
ATOM     35  C   UNL A   1      40.358  28.658  30.575  1.00  0.00     0.031 A 
ATOM     36  C   UNL A   1      41.281  28.545  31.760  1.00  0.00     0.074 A 
ATOM     37  C   UNL A   1      39.512  29.700  30.481  1.00  0.00     0.049 A 
ATOM     38  N   UNL A   1      41.375  29.319  32.810  1.00  0.00    -0.248 NA
ATOM     39  C   UNL A   1      42.222  27.413  31.758  1.00  0.00     0.031 C 
ATOM     40  C   UNL A   1      38.602  29.950  29.363  1.00  0.00     0.029 A 
ATOM     41  N   UNL A   1      39.277  30.740  31.346  1.00  0.00    -0.354 N 
ATOM     42  C   UNL A   1      42.379  28.768  33.598  1.00  0.00     0.074 A 
ATOM     43  C   UNL A   1      42.850  27.583  32.912  1.00  0.00     0.031 C 
ATOM     44  C   UNL A   1      37.896  31.064  29.618  1.00  0.00     0.029 A 
ATOM     45  C   UNL A   1      38.279  31.588  30.928  1.00  0.00     0.049 A 
ATOM     46  H   UNL A   1      39.776  30.866  32.185  1.00  0.00     0.167 HD
ATOM     47  C   UNL A   1      42.865  29.209  34.784  1.00  0.00     0.031 A 
ATOM     48  C   UNL A   1      37.718  32.649  31.543  1.00  0.00     0.031 A 
ATOM     49  C   UNL A   1      42.387  30.378  35.473  1.00  0.00     0.049 A 
ATOM     50  C   UNL A   1      38.216  33.069  32.900  1.00  0.00     0.074 A 
ATOM     51  C   UNL A   1      42.835  30.915  36.666  1.00  0.00     0.029 A 
ATOM     52  N   UNL A   1      41.343  31.181  35.039  1.00  0.00    -0.354 N 
ATOM     53  N   UNL A   1      39.189  32.557  33.616  1.00  0.00    -0.248 NA
ATOM     54  C   UNL A   1      37.539  34.211  33.534  1.00  0.00     0.031 C 
ATOM     55  C   UNL A   1      42.024  32.011  36.984  1.00  0.00     0.029 A 
ATOM     56  C   UNL A   1      41.108  32.188  35.961  1.00  0.00     0.049 A 
ATOM     57  H   UNL A   1      40.844  31.055  34.200  1.00  0.00     0.167 HD
ATOM     58  C   UNL A   1      39.252  33.323  34.776  1.00  0.00     0.074 A 
ATOM     59  C   UNL A   1      38.230  34.344  34.660  1.00  0.00     0.031 C 
ATOM     60  C   UNL A   1      40.082  33.194  35.839  1.00  0.00     0.031 A 
BRANCH  47  61
ATOM     61  C   UNL A   1      43.951  28.396  35.436  1.00  0.00    -0.014 A 
ATOM     62  C   UNL A   1      43.655  27.458  36.441  1.00  0.00     0.010 A 
ATOM     63  C   UNL A   1      45.282  28.540  35.002  1.00  0.00     0.010 A 
ATOM     64  C   UNL A   1      44.676  26.701  37.023  1.00  0.00     0.020 A 
ATOM     65  C   UNL A   1      46.302  27.769  35.567  1.00  0.00     0.020 A 
ATOM     66  C   UNL A   1      45.994  26.864  36.585  1.00  0.00     0.054 A 
BRANCH  66  67
ATOM     67  S   UNL A   1      47.297  25.853  37.340  1.00  0.00     0.124 S 
ATOM     68  O   UNL A   1      47.092  26.112  38.763  1.00  0.00    -0.237 OA
ATOM     69  O   UNL A   1      46.957  24.505  36.894  1.00  0.00    -0.237 OA
ATOM     70  O   UNL A   1      48.530  26.400  36.779  1.00  0.00    -0.744 OA
ENDBRANCH  66  67
ENDBRANCH  47  61
BRANCH  48  71
ATOM     71  C   UNL A   1      36.586  33.365  30.894  1.00  0.00    -0.014 A 
ATOM     72  C   UNL A   1      36.770  34.061  29.687  1.00  0.00     0.010 A 
ATOM     73  C   UNL A   1      35.310  33.346  31.487  1.00  0.00     0.010 A 
ATOM     74  C   UNL A   1      35.699  34.735  29.090  1.00  0.00     0.020 A 
ATOM     75  C   UNL A   1      34.233  33.996  30.881  1.00  0.00     0.020 A 
ATOM     76  C   UNL A   1      34.437  34.695  29.690  1.00  0.00     0.054 A 
BRANCH  76  77
ATOM     77  S   UNL A   1      33.046  35.523  28.868  1.00  0.00     0.124 S 
ATOM     78  O   UNL A   1      32.452  34.430  28.104  1.00  0.00    -0.237 OA
ATOM     79  O   UNL A   1      32.256  36.011  29.996  1.00  0.00    -0.237 OA
ATOM     80  O   UNL A   1      33.693  36.566  28.075  1.00  0.00    -0.744 OA
ENDBRANCH  76  77
ENDBRANCH  48  71
BRANCH  60  81
ATOM     81  C   UNL A   1      39.938  34.184  36.962  1.00  0.00    -0.014 A 
ATOM     82  C   UNL A   1      40.542  35.452  36.892  1.00  0.00     0.010 A 
ATOM     83  C   UNL A   1      39.127  33.871  38.069  1.00  0.00     0.010 A 
ATOM     84  C   UNL A   1      40.353  36.382  37.919  1.00  0.00     0.020 A 
ATOM     85  C   UNL A   1      38.918  34.806  39.086  1.00  0.00     0.020 A 
ATOM     86  C   UNL A   1      39.541  36.053  39.009  1.00  0.00     0.054 A 
BRANCH  86  87
ATOM     87  S   UNL A   1      39.263  37.298  40.299  1.00  0.00     0.124 S 
ATOM     88  O   UNL A   1      38.495  38.313  39.583  1.00  0.00    -0.237 OA
ATOM     89  O   UNL A   1      38.524  36.552  41.315  1.00  0.00    -0.237 OA
ATOM     90  O   UNL A   1      40.612  37.699  40.690  1.00  0.00    -0.744 OA
ENDBRANCH  86  87
ENDBRANCH  60  81
ENDBRANCH  34  35
ENDBRANCH  27  29
ENDBRANCH  26  27
ENDBRANCH  25  26
ENDBRANCH   1  25
TORSDOF 19
ENDMDL
MODEL 2
REMARK VINA RESULT:     -10.1      7.094     11.858
REMARK SMILES Cc1nc([C@@H]2C[N@@H+]3CCC[C@@H]3CO2)sc1CC(=O)OCCOCCOC(=O)c1ccc(-c2c3nc(c(-c4ccc(S(=O)(=O)[O-])cc4)c4ccc([nH]4)c(-c4ccc(S(=O)(=O)[O-])cc4)c4nc(c(-c5ccc(S(=O)(=O)[O-])cc5)c5ccc2[nH]5)C=C4)C=C3)cc1
REMARK SMILES IDX 23 1 22 2 21 3 20 4 19 5 17 6 18 7 16 8 15 9 1 10 2 11 3 12
REMARK SMILES IDX 4 13 14 14 5 15 6 16 13 17 7 18 12 19 8 20 11 21 9 23 10 24
REMARK SMILES IDX 24 25 25 26 26 27 27 28 28 29 29 30 87 31 30 32 86 33 31 34
REMARK SMILES IDX 32 35 33 36 80 37 34 38 85 39 79 40 81 41 35 42 84 43 78 44
REMARK SMILES IDX 77 45 36 47 66 48 47 49 65 50 48 51 51 52 64 53 82 54 49 55
REMARK SMILES IDX 50 56 63 58 83 59 52 60 37 61 38 62 46 63 39 64 45 65 40 66
REMARK SMILES IDX 41 67 42 68 43 69 44 70 67 71 68 72 76 73 69 74 75 75 70 76
REMARK SMILES IDX 71 77 72 78 73 79 74 80 53 81 54 82 62 83 55 84 61 85 56 86
REMARK SMILES IDX 57 87 58 88 59 89 60 90
REMARK H PARENT 7 22 81 46 51 57
REMARK Flexibility Score: inf
ROOT
ATOM      1  C   UNL A   1      34.419  31.102  27.677  1.00  0.00     0.202 C 
ENDROOT
BRANCH   1   2
ATOM      2  O   UNL A   1      33.935  29.835  27.228  1.00  0.00    -0.374 OA
BRANCH   2   3
ATOM      3  C   UNL A   1      32.540  29.748  26.940  1.00  0.00     0.202 C 
BRANCH   3   4
ATOM      4  C   UNL A   1      32.118  30.068  25.501  1.00  0.00     0.261 C 
BRANCH   4   5
ATOM      5  O   UNL A   1      31.448  28.965  24.860  1.00  0.00    -0.463 OA
BRANCH   5   6
ATOM      6  C   UNL A   1      30.667  29.282  23.796  1.00  0.00     0.311 C 
ATOM      7  O   UNL A   1      29.849  30.199  23.784  1.00  0.00    -0.252 OA
BRANCH   6   8
ATOM      8  C   UNL A   1      30.903  28.451  22.554  1.00  0.00     0.171 C 
BRANCH   8   9
ATOM      9  C   UNL A   1      31.205  27.001  22.772  1.00  0.00     0.039 A 
ATOM     10  C   UNL A   1      29.156  26.193  24.120  1.00  0.00     0.068 C 
ATOM     11  C   UNL A   1      30.458  26.034  23.422  1.00  0.00     0.052 A 
ATOM     12  N   UNL A   1      31.002  24.765  23.380  1.00  0.00    -0.243 NA
ATOM     13  C   UNL A   1      32.179  24.768  22.789  1.00  0.00     0.128 A 
ATOM     14  S   UNL A   1      32.595  26.269  22.069  1.00  0.00    -0.120 S 
BRANCH  13  15
ATOM     15  C   UNL A   1      33.089  23.561  22.657  1.00  0.00     0.232 C 
ATOM     16  C   UNL A   1      32.702  22.459  23.685  1.00  0.00     0.302 C 
ATOM     17  O   UNL A   1      34.457  24.007  22.739  1.00  0.00    -0.359 OA
ATOM     18  N   UNL A   1      33.760  21.915  24.547  1.00  0.00    -0.328 N 
ATOM     19  C   UNL A   1      34.885  24.185  24.092  1.00  0.00     0.226 C 
ATOM     20  C   UNL A   1      33.243  21.351  25.803  1.00  0.00     0.262 C 
ATOM     21  C   UNL A   1      34.839  22.868  24.871  1.00  0.00     0.210 C 
ATOM     22  H   UNL A   1      34.160  21.171  23.975  1.00  0.00     0.348 HD
ATOM     23  C   UNL A   1      34.252  21.741  26.870  1.00  0.00     0.068 C 
ATOM     24  C   UNL A   1      34.756  23.082  26.377  1.00  0.00     0.073 C 
ENDBRANCH  13  15
ENDBRANCH   8   9
ENDBRANCH   6   8
ENDBRANCH   5   6
ENDBRANCH   4   5
ENDBRANCH   3   4
ENDBRANCH   2   3
ENDBRANCH   1   2
BRANCH   1  25
ATOM     25  C   UNL A   1      35.910  31.179  28.028  1.00  0.00     0.261 C 
BRANCH  25  26
ATOM     26  O   UNL A   1      36.578  29.917  27.833  1.00  0.00    -0.460 OA
BRANCH  26  27
ATOM     27  C   UNL A   1      37.326  29.505  28.883  1.00  0.00     0.338 C 
ATOM     28  O   UNL A   1      36.935  29.281  30.022  1.00  0.00    -0.246 OA
BRANCH  27  29
ATOM     29  C   UNL A   1      38.689  29.155  28.444  1.00  0.00     0.060 A 
ATOM     30  C   UNL A   1      39.621  28.823  29.438  1.00  0.00     0.016 A 
ATOM     31  C   UNL A   1      39.081  29.237  27.105  1.00  0.00     0.016 A 
ATOM     32  C   UNL A   1      40.958  28.616  29.103  1.00  0.00     0.010 A 
ATOM     33  C   UNL A   1      40.429  29.042  26.775  1.00  0.00     0.010 A 
ATOM     34  C   UNL A   1      41.379  28.759  27.775  1.00  0.00    -0.014 A 
BRANCH  34  35
ATOM     35  C   UNL A   1      42.829  28.719  27.456  1.00  0.00     0.031 A 
ATOM     36  C   UNL A   1      43.437  27.445  26.934  1.00  0.00     0.074 A 
ATOM     37  C   UNL A   1      43.593  29.817  27.602  1.00  0.00     0.049 A 
ATOM     38  N   UNL A   1      44.681  27.193  26.617  1.00  0.00    -0.248 NA
ATOM     39  C   UNL A   1      42.523  26.307  26.741  1.00  0.00     0.031 C 
ATOM     40  C   UNL A   1      43.115  31.124  28.052  1.00  0.00     0.029 A 
ATOM     41  N   UNL A   1      44.937  30.003  27.390  1.00  0.00    -0.354 N 
ATOM     42  C   UNL A   1      44.703  25.869  26.193  1.00  0.00     0.074 A 
ATOM     43  C   UNL A   1      43.351  25.366  26.311  1.00  0.00     0.031 C 
ATOM     44  C   UNL A   1      44.155  31.974  28.098  1.00  0.00     0.029 A 
ATOM     45  C   UNL A   1      45.374  31.266  27.713  1.00  0.00     0.049 A 
ATOM     46  H   UNL A   1      45.530  29.300  27.042  1.00  0.00     0.167 HD
ATOM     47  C   UNL A   1      45.754  25.139  25.745  1.00  0.00     0.031 A 
ATOM     48  C   UNL A   1      46.618  31.785  27.724  1.00  0.00     0.031 A 
ATOM     49  C   UNL A   1      47.101  25.634  25.642  1.00  0.00     0.049 A 
ATOM     50  C   UNL A   1      47.784  30.928  27.305  1.00  0.00     0.074 A 
ATOM     51  C   UNL A   1      48.225  24.975  25.177  1.00  0.00     0.029 A 
ATOM     52  N   UNL A   1      47.510  26.903  26.023  1.00  0.00    -0.354 N 
ATOM     53  N   UNL A   1      47.782  29.688  26.874  1.00  0.00    -0.248 NA
ATOM     54  C   UNL A   1      49.119  31.540  27.372  1.00  0.00     0.031 C 
ATOM     55  C   UNL A   1      49.325  25.826  25.330  1.00  0.00     0.029 A 
ATOM     56  C   UNL A   1      48.876  27.033  25.839  1.00  0.00     0.049 A 
ATOM     57  H   UNL A   1      46.917  27.606  26.373  1.00  0.00     0.167 HD
ATOM     58  C   UNL A   1      49.111  29.377  26.606  1.00  0.00     0.074 A 
ATOM     59  C   UNL A   1      49.888  30.563  26.906  1.00  0.00     0.031 C 
ATOM     60  C   UNL A   1      49.640  28.216  26.149  1.00  0.00     0.031 A 
BRANCH  47  61
ATOM     61  C   UNL A   1      45.495  23.705  25.368  1.00  0.00    -0.014 A 
ATOM     62  C   UNL A   1      45.427  22.696  26.345  1.00  0.00     0.010 A 
ATOM     63  C   UNL A   1      45.268  23.371  24.021  1.00  0.00     0.010 A 
ATOM     64  C   UNL A   1      45.169  21.372  25.977  1.00  0.00     0.020 A 
ATOM     65  C   UNL A   1      44.988  22.053  23.651  1.00  0.00     0.020 A 
ATOM     66  C   UNL A   1      44.954  21.058  24.630  1.00  0.00     0.054 A 
BRANCH  66  67
ATOM     67  S   UNL A   1      44.598  19.337  24.181  1.00  0.00     0.124 S 
ATOM     68  O   UNL A   1      43.331  19.103  24.870  1.00  0.00    -0.237 OA
ATOM     69  O   UNL A   1      44.518  19.395  22.724  1.00  0.00    -0.237 OA
ATOM     70  O   UNL A   1      45.740  18.597  24.711  1.00  0.00    -0.744 OA
ENDBRANCH  66  67
ENDBRANCH  47  61
BRANCH  48  71
ATOM     71  C   UNL A   1      46.833  33.181  28.190  1.00  0.00    -0.014 A 
ATOM     72  C   UNL A   1      46.979  33.470  29.558  1.00  0.00     0.010 A 
ATOM     73  C   UNL A   1      46.897  34.232  27.257  1.00  0.00     0.010 A 
ATOM     74  C   UNL A   1      47.175  34.789  29.984  1.00  0.00     0.020 A 
ATOM     75  C   UNL A   1      47.118  35.546  27.677  1.00  0.00     0.020 A 
ATOM     76  C   UNL A   1      47.246  35.817  29.039  1.00  0.00     0.054 A 
BRANCH  76  77
ATOM     77  S   UNL A   1      47.563  37.512  29.607  1.00  0.00     0.124 S 
ATOM     78  O   UNL A   1      46.232  38.108  29.539  1.00  0.00    -0.237 OA
ATOM     79  O   UNL A   1      48.096  37.302  30.951  1.00  0.00    -0.237 OA
ATOM     80  O   UNL A   1      48.530  38.020  28.636  1.00  0.00    -0.744 OA
ENDBRANCH  76  77
ENDBRANCH  48  71
BRANCH  60  81
ATOM     81  C   UNL A   1      51.128  28.164  25.931  1.00  0.00    -0.014 A 
ATOM     82  C   UNL A   1      51.681  28.389  24.658  1.00  0.00     0.010 A 
ATOM     83  C   UNL A   1      51.988  27.961  27.025  1.00  0.00     0.010 A 
ATOM     84  C   UNL A   1      53.067  28.392  24.480  1.00  0.00     0.020 A 
ATOM     85  C   UNL A   1      53.375  27.987  26.856  1.00  0.00     0.020 A 
ATOM     86  C   UNL A   1      53.906  28.192  25.582  1.00  0.00     0.054 A 
BRANCH  86  87
ATOM     87  S   UNL A   1      55.702  28.260  25.337  1.00  0.00     0.124 S 
ATOM     88  O   UNL A   1      55.814  29.061  24.120  1.00  0.00    -0.237 OA
ATOM     89  O   UNL A   1      56.171  28.908  26.560  1.00  0.00    -0.237 OA
ATOM     90  O   UNL A   1      56.087  26.858  25.197  1.00  0.00    -0.744 OA
ENDBRANCH  86  87
ENDBRANCH  60  81
ENDBRANCH  34  35
ENDBRANCH  27  29
ENDBRANCH  26  27
ENDBRANCH  25  26
ENDBRANCH   1  25
TORSDOF 19
ENDMDL
MODEL 3
REMARK VINA RESULT:     -10.1      6.189     10.600
REMARK SMILES Cc1nc([C@@H]2C[N@@H+]3CCC[C@@H]3CO2)sc1CC(=O)OCCOCCOC(=O)c1ccc(-c2c3nc(c(-c4ccc(S(=O)(=O)[O-])cc4)c4ccc([nH]4)c(-c4ccc(S(=O)(=O)[O-])cc4)c4nc(c(-c5ccc(S(=O)(=O)[O-])cc5)c5ccc2[nH]5)C=C4)C=C3)cc1
REMARK SMILES IDX 23 1 22 2 21 3 20 4 19 5 17 6 18 7 16 8 15 9 1 10 2 11 3 12
REMARK SMILES IDX 4 13 14 14 5 15 6 16 13 17 7 18 12 19 8 20 11 21 9 23 10 24
REMARK SMILES IDX 24 25 25 26 26 27 27 28 28 29 29 30 87 31 30 32 86 33 31 34
REMARK SMILES IDX 32 35 33 36 80 37 34 38 85 39 79 40 81 41 35 42 84 43 78 44
REMARK SMILES IDX 77 45 36 47 66 48 47 49 65 50 48 51 51 52 64 53 82 54 49 55
REMARK SMILES IDX 50 56 63 58 83 59 52 60 37 61 38 62 46 63 39 64 45 65 40 66
REMARK SMILES IDX 41 67 42 68 43 69 44 70 67 71 68 72 76 73 69 74 75 75 70 76
REMARK SMILES IDX 71 77 72 78 73 79 74 80 53 81 54 82 62 83 55 84 61 85 56 86
REMARK SMILES IDX 57 87 58 88 59 89 60 90
REMARK H PARENT 7 22 81 46 51 57
REMARK Flexibility Score: inf
ROOT
ATOM      1  C   UNL A   1      39.217  21.189  26.022  1.00  0.00     0.202 C 
ENDROOT
BRANCH   1   2
ATOM      2  O   UNL A   1      38.196  21.402  25.046  1.00  0.00    -0.374 OA
BRANCH   2   3
ATOM      3  C   UNL A   1      37.188  20.395  24.944  1.00  0.00     0.202 C 
BRANCH   3   4
ATOM      4  C   UNL A   1      35.742  20.851  25.173  1.00  0.00     0.261 C 
BRANCH   4   5
ATOM      5  O   UNL A   1      34.777  19.934  24.624  1.00  0.00    -0.463 OA
BRANCH   5   6
ATOM      6  C   UNL A   1      33.480  20.171  24.949  1.00  0.00     0.311 C 
ATOM      7  O   UNL A   1      32.984  19.930  26.047  1.00  0.00    -0.252 OA
BRANCH   6   8
ATOM      8  C   UNL A   1      32.654  20.827  23.864  1.00  0.00     0.171 C 
BRANCH   8   9
ATOM      9  C   UNL A   1      32.640  22.324  23.854  1.00  0.00     0.039 A 
ATOM     10  C   UNL A   1      30.989  22.888  25.759  1.00  0.00     0.068 C 
ATOM     11  C   UNL A   1      31.948  23.204  24.669  1.00  0.00     0.052 A 
ATOM     12  N   UNL A   1      32.219  24.538  24.433  1.00  0.00    -0.243 NA
ATOM     13  C   UNL A   1      33.033  24.687  23.408  1.00  0.00     0.128 A 
ATOM     14  S   UNL A   1      33.676  23.215  22.806  1.00  0.00    -0.120 S 
BRANCH  13  15
ATOM     15  C   UNL A   1      33.460  26.021  22.823  1.00  0.00     0.232 C 
ATOM     16  C   UNL A   1      33.675  27.076  23.946  1.00  0.00     0.302 C 
ATOM     17  O   UNL A   1      32.507  26.404  21.812  1.00  0.00    -0.359 OA
ATOM     18  N   UNL A   1      32.989  28.369  23.821  1.00  0.00    -0.328 N 
ATOM     19  C   UNL A   1      31.345  27.019  22.373  1.00  0.00     0.226 C 
ATOM     20  C   UNL A   1      32.783  29.037  25.115  1.00  0.00     0.262 C 
ATOM     21  C   UNL A   1      31.698  28.314  23.111  1.00  0.00     0.210 C 
ATOM     22  H   UNL A   1      33.637  28.916  23.252  1.00  0.00     0.348 HD
ATOM     23  C   UNL A   1      31.404  29.670  25.029  1.00  0.00     0.068 C 
ATOM     24  C   UNL A   1      30.647  28.703  24.144  1.00  0.00     0.073 C 
ENDBRANCH  13  15
ENDBRANCH   8   9
ENDBRANCH   6   8
ENDBRANCH   5   6
ENDBRANCH   4   5
ENDBRANCH   3   4
ENDBRANCH   2   3
ENDBRANCH   1   2
BRANCH   1  25
ATOM     25  C   UNL A   1      39.780  19.766  26.123  1.00  0.00     0.261 C 
BRANCH  25  26
ATOM     26  O   UNL A   1      41.017  19.620  25.400  1.00  0.00    -0.460 OA
BRANCH  26  27
ATOM     27  C   UNL A   1      42.132  19.702  26.164  1.00  0.00     0.338 C 
ATOM     28  O   UNL A   1      42.915  18.795  26.421  1.00  0.00    -0.246 OA
BRANCH  27  29
ATOM     29  C   UNL A   1      42.420  21.104  26.514  1.00  0.00     0.060 A 
ATOM     30  C   UNL A   1      42.631  22.001  25.457  1.00  0.00     0.016 A 
ATOM     31  C   UNL A   1      42.573  21.522  27.839  1.00  0.00     0.016 A 
ATOM     32  C   UNL A   1      43.041  23.307  25.718  1.00  0.00     0.010 A 
ATOM     33  C   UNL A   1      43.000  22.833  28.095  1.00  0.00     0.010 A 
ATOM     34  C   UNL A   1      43.264  23.723  27.038  1.00  0.00    -0.014 A 
BRANCH  34  35
ATOM     35  C   UNL A   1      43.875  25.050  27.296  1.00  0.00     0.031 A 
ATOM     36  C   UNL A   1      43.008  26.183  27.779  1.00  0.00     0.074 A 
ATOM     37  C   UNL A   1      45.196  25.241  27.131  1.00  0.00     0.049 A 
ATOM     38  N   UNL A   1      43.337  27.421  28.042  1.00  0.00    -0.248 NA
ATOM     39  C   UNL A   1      41.584  25.878  27.997  1.00  0.00     0.031 C 
ATOM     40  C   UNL A   1      46.151  24.214  26.715  1.00  0.00     0.029 A 
ATOM     41  N   UNL A   1      45.962  26.370  27.289  1.00  0.00    -0.354 N 
ATOM     42  C   UNL A   1      42.165  28.047  28.451  1.00  0.00     0.074 A 
ATOM     43  C   UNL A   1      41.112  27.055  28.383  1.00  0.00     0.031 C 
ATOM     44  C   UNL A   1      47.375  24.765  26.635  1.00  0.00     0.029 A 
ATOM     45  C   UNL A   1      47.285  26.187  26.962  1.00  0.00     0.049 A 
ATOM     46  H   UNL A   1      45.598  27.227  27.605  1.00  0.00     0.167 HD
ATOM     47  C   UNL A   1      41.981  29.330  28.847  1.00  0.00     0.031 A 
ATOM     48  C   UNL A   1      48.302  27.069  26.906  1.00  0.00     0.031 A 
ATOM     49  C   UNL A   1      43.024  30.320  28.900  1.00  0.00     0.049 A 
ATOM     50  C   UNL A   1      48.056  28.510  27.267  1.00  0.00     0.074 A 
ATOM     51  C   UNL A   1      42.938  31.638  29.312  1.00  0.00     0.029 A 
ATOM     52  N   UNL A   1      44.339  30.106  28.516  1.00  0.00    -0.354 N 
ATOM     53  N   UNL A   1      46.949  29.077  27.684  1.00  0.00    -0.248 NA
ATOM     54  C   UNL A   1      49.197  29.431  27.152  1.00  0.00     0.031 C 
ATOM     55  C   UNL A   1      44.188  32.238  29.122  1.00  0.00     0.029 A 
ATOM     56  C   UNL A   1      45.065  31.279  28.645  1.00  0.00     0.049 A 
ATOM     57  H   UNL A   1      44.704  29.249  28.199  1.00  0.00     0.167 HD
ATOM     58  C   UNL A   1      47.263  30.416  27.895  1.00  0.00     0.074 A 
ATOM     59  C   UNL A   1      48.668  30.572  27.575  1.00  0.00     0.031 C 
ATOM     60  C   UNL A   1      46.461  31.424  28.317  1.00  0.00     0.031 A 
BRANCH  47  61
ATOM     61  C   UNL A   1      40.585  29.751  29.219  1.00  0.00    -0.014 A 
ATOM     62  C   UNL A   1      39.611  29.994  28.234  1.00  0.00     0.010 A 
ATOM     63  C   UNL A   1      40.230  29.858  30.576  1.00  0.00     0.010 A 
ATOM     64  C   UNL A   1      38.314  30.367  28.601  1.00  0.00     0.020 A 
ATOM     65  C   UNL A   1      38.930  30.210  30.947  1.00  0.00     0.020 A 
ATOM     66  C   UNL A   1      37.983  30.477  29.955  1.00  0.00     0.054 A 
BRANCH  66  67
ATOM     67  S   UNL A   1      36.288  30.941  30.404  1.00  0.00     0.124 S 
ATOM     68  O   UNL A   1      35.952  29.926  31.400  1.00  0.00    -0.237 OA
ATOM     69  O   UNL A   1      36.451  32.296  30.922  1.00  0.00    -0.237 OA
ATOM     70  O   UNL A   1      35.556  30.842  29.144  1.00  0.00    -0.744 OA
ENDBRANCH  66  67
ENDBRANCH  47  61
BRANCH  48  71
ATOM     71  C   UNL A   1      49.645  26.621  26.446  1.00  0.00    -0.014 A 
ATOM     72  C   UNL A   1      50.589  26.120  27.358  1.00  0.00     0.010 A 
ATOM     73  C   UNL A   1      49.980  26.691  25.081  1.00  0.00     0.010 A 
ATOM     74  C   UNL A   1      51.850  25.707  26.913  1.00  0.00     0.020 A 
ATOM     75  C   UNL A   1      51.228  26.256  24.630  1.00  0.00     0.020 A 
ATOM     76  C   UNL A   1      52.159  25.775  25.551  1.00  0.00     0.054 A 
BRANCH  76  77
ATOM     77  S   UNL A   1      53.777  25.176  24.986  1.00  0.00     0.124 S 
ATOM     78  O   UNL A   1      53.987  25.967  23.778  1.00  0.00    -0.237 OA
ATOM     79  O   UNL A   1      54.647  25.498  26.115  1.00  0.00    -0.237 OA
ATOM     80  O   UNL A   1      53.554  23.748  24.772  1.00  0.00    -0.744 OA
ENDBRANCH  76  77
ENDBRANCH  48  71
BRANCH  60  81
ATOM     81  C   UNL A   1      47.078  32.788  28.473  1.00  0.00    -0.014 A 
ATOM     82  C   UNL A   1      47.010  33.737  27.438  1.00  0.00     0.010 A 
ATOM     83  C   UNL A   1      47.668  33.150  29.698  1.00  0.00     0.010 A 
ATOM     84  C   UNL A   1      47.539  35.018  27.618  1.00  0.00     0.020 A 
ATOM     85  C   UNL A   1      48.177  34.438  29.890  1.00  0.00     0.020 A 
ATOM     86  C   UNL A   1      48.119  35.361  28.844  1.00  0.00     0.054 A 
BRANCH  86  87
ATOM     87  S   UNL A   1      48.744  37.048  29.074  1.00  0.00     0.124 S 
ATOM     88  O   UNL A   1      48.361  37.330  30.455  1.00  0.00    -0.237 OA
ATOM     89  O   UNL A   1      50.178  36.896  28.838  1.00  0.00    -0.237 OA
ATOM     90  O   UNL A   1      48.032  37.823  28.060  1.00  0.00    -0.744 OA
ENDBRANCH  86  87
ENDBRANCH  60  81
ENDBRANCH  34  35
ENDBRANCH  27  29
ENDBRANCH  26  27
ENDBRANCH  25  26
ENDBRANCH   1  25
TORSDOF 19
ENDMDL
