MODEL 1
REMARK VINA RESULT:     -11.3      0.000      0.000
REMARK SMILES C[C@@](NC(=O)[C@H]1COc2ccccc21)(C(=O)OCCOCCOC(=O)c1ccc(-c2c3nc(c(-c4ccc(S(=O)(=O)[O-])cc4)c4ccc([nH]4)c(-c4ccc(S(=O)(=O)[O-])cc4)c4nc(c(-c5ccc(S(=O)(=O)[O-])cc5)c5ccc2[nH]5)C=C4)C=C3)cc1)C(F)(F)F
REMARK SMILES IDX 21 1 20 2 19 3 18 4 17 5 15 6 16 7 2 8 1 9 3 10 4 11 5 13
REMARK SMILES IDX 6 14 7 15 14 16 8 17 9 18 13 19 10 20 12 21 11 22 86 23
REMARK SMILES IDX 87 24 88 25 89 26 22 27 23 28 24 29 25 30 26 31 27 32 85 33
REMARK SMILES IDX 28 34 84 35 29 36 30 37 31 38 78 39 32 40 83 41 77 42 79 43
REMARK SMILES IDX 33 44 82 45 76 46 75 47 34 49 64 50 45 51 63 52 46 53 49 54
REMARK SMILES IDX 62 55 80 56 47 57 48 58 61 60 81 61 50 62 35 63 36 64 44 65
REMARK SMILES IDX 37 66 43 67 38 68 39 69 40 70 41 71 42 72 65 73 66 74 74 75
REMARK SMILES IDX 67 76 73 77 68 78 69 79 70 80 71 81 72 82 51 83 52 84 60 85
REMARK SMILES IDX 53 86 59 87 54 88 55 89 56 90 57 91 58 92
REMARK H PARENT 3 12 79 48 49 59
REMARK Flexibility Score: inf
ROOT
ATOM      1  C   UNL A   1      42.550  22.175  25.941  1.00  0.00     0.202 C 
ENDROOT
BRANCH   1   2
ATOM      2  O   UNL A   1      41.288  21.538  25.671  1.00  0.00    -0.374 OA
BRANCH   2   3
ATOM      3  C   UNL A   1      40.206  21.692  26.590  1.00  0.00     0.202 C 
BRANCH   3   4
ATOM      4  C   UNL A   1      38.751  22.493  26.177  1.00  0.00     0.261 C 
BRANCH   4   5
ATOM      5  O   UNL A   1      36.863  21.791  25.958  1.00  0.00    -0.461 OA
BRANCH   5   6
ATOM      6  C   UNL A   1      35.851  21.042  25.213  1.00  0.00     0.341 C 
ATOM      7  O   UNL A   1      35.900  19.847  24.902  1.00  0.00    -0.249 OA
BRANCH   6   8
ATOM      8  C   UNL A   1      34.773  21.900  24.664  1.00  0.00     0.231 C 
ATOM      9  C   UNL A   1      33.758  21.036  23.905  1.00  0.00     0.058 C 
BRANCH   8  10
ATOM     10  N   UNL A   1      34.178  22.675  25.800  1.00  0.00    -0.332 N 
ATOM     11  C   UNL A   1      32.932  22.471  26.368  1.00  0.00     0.232 C 
ATOM     12  H   UNL A   1      34.727  23.400  26.179  1.00  0.00     0.164 HD
ATOM     13  O   UNL A   1      32.941  22.232  27.584  1.00  0.00    -0.274 OA
BRANCH  11  14
ATOM     14  C   UNL A   1      31.567  22.857  25.691  1.00  0.00     0.150 C 
ATOM     15  C   UNL A   1      30.754  23.480  26.869  1.00  0.00     0.248 C 
ATOM     16  C   UNL A   1      31.473  24.049  24.760  1.00  0.00     0.010 A 
ATOM     17  O   UNL A   1      31.267  24.816  27.210  1.00  0.00    -0.492 OA
ATOM     18  C   UNL A   1      31.667  25.310  25.991  1.00  0.00     0.123 A 
ATOM     19  C   UNL A   1      32.109  24.302  23.096  1.00  0.00     0.008 A 
ATOM     20  C   UNL A   1      32.642  26.751  25.720  1.00  0.00     0.047 A 
ATOM     21  C   UNL A   1      33.185  25.772  22.800  1.00  0.00     0.001 A 
ATOM     22  C   UNL A   1      33.410  27.004  24.117  1.00  0.00     0.004 A 
ENDBRANCH  11  14
ENDBRANCH   8  10
BRANCH   8  23
ATOM     23  C   UNL A   1      35.515  22.750  23.593  1.00  0.00     0.422 C 
ATOM     24  F   UNL A   1      34.779  22.925  22.463  1.00  0.00    -0.168 F 
ATOM     25  F   UNL A   1      35.751  24.004  24.064  1.00  0.00    -0.168 F 
ATOM     26  F   UNL A   1      36.718  22.248  23.242  1.00  0.00    -0.168 F 
ENDBRANCH   8  23
ENDBRANCH   6   8
ENDBRANCH   5   6
ENDBRANCH   4   5
ENDBRANCH   3   4
ENDBRANCH   2   3
ENDBRANCH   1   2
BRANCH   1  27
ATOM     27  C   UNL A   1      42.863  23.652  25.555  1.00  0.00     0.261 C 
BRANCH  27  28
ATOM     28  O   UNL A   1      41.840  24.617  25.837  1.00  0.00    -0.460 OA
BRANCH  28  29
ATOM     29  C   UNL A   1      42.223  25.908  25.771  1.00  0.00     0.338 C 
ATOM     30  O   UNL A   1      42.325  26.577  24.758  1.00  0.00    -0.246 OA
BRANCH  29  31
ATOM     31  C   UNL A   1      42.254  26.465  27.145  1.00  0.00     0.060 A 
ATOM     32  C   UNL A   1      41.361  25.903  28.063  1.00  0.00     0.016 A 
ATOM     33  C   UNL A   1      43.101  27.510  27.534  1.00  0.00     0.016 A 
ATOM     34  C   UNL A   1      41.234  26.449  29.336  1.00  0.00     0.010 A 
ATOM     35  C   UNL A   1      42.967  28.065  28.815  1.00  0.00     0.010 A 
ATOM     36  C   UNL A   1      41.980  27.579  29.692  1.00  0.00    -0.014 A 
BRANCH  36  37
ATOM     37  C   UNL A   1      41.469  28.392  30.826  1.00  0.00     0.031 A 
ATOM     38  C   UNL A   1      42.272  28.385  32.105  1.00  0.00     0.074 A 
ATOM     39  C   UNL A   1      40.429  29.234  30.692  1.00  0.00     0.049 A 
ATOM     40  N   UNL A   1      42.166  29.155  33.156  1.00  0.00    -0.248 NA
ATOM     41  C   UNL A   1      43.352  27.388  32.198  1.00  0.00     0.031 C 
ATOM     42  C   UNL A   1      39.600  29.379  29.497  1.00  0.00     0.029 A 
ATOM     43  N   UNL A   1      39.917  30.157  31.572  1.00  0.00    -0.354 N 
ATOM     44  C   UNL A   1      43.171  28.745  34.025  1.00  0.00     0.074 A 
ATOM     45  C   UNL A   1      43.846  27.630  33.401  1.00  0.00     0.031 C 
ATOM     46  C   UNL A   1      38.694  30.352  29.713  1.00  0.00     0.029 A 
ATOM     47  C   UNL A   1      38.876  30.891  31.061  1.00  0.00     0.049 A 
ATOM     48  H   UNL A   1      40.265  30.279  32.485  1.00  0.00     0.167 HD
ATOM     49  C   UNL A   1      43.520  29.255  35.229  1.00  0.00     0.031 A 
ATOM     50  C   UNL A   1      38.162  31.894  31.611  1.00  0.00     0.031 A 
ATOM     51  C   UNL A   1      42.848  30.350  35.868  1.00  0.00     0.049 A 
ATOM     52  C   UNL A   1      38.518  32.395  32.989  1.00  0.00     0.074 A 
ATOM     53  C   UNL A   1      43.129  30.938  37.087  1.00  0.00     0.029 A 
ATOM     54  N   UNL A   1      41.750  31.012  35.345  1.00  0.00    -0.354 N 
ATOM     55  N   UNL A   1      39.501  32.025  33.776  1.00  0.00    -0.248 NA
ATOM     56  C   UNL A   1      37.675  33.466  33.544  1.00  0.00     0.031 C 
ATOM     57  C   UNL A   1      42.167  31.925  37.326  1.00  0.00     0.029 A 
ATOM     58  C   UNL A   1      41.323  31.987  36.228  1.00  0.00     0.049 A 
ATOM     59  H   UNL A   1      41.334  30.818  34.474  1.00  0.00     0.167 HD
ATOM     60  C   UNL A   1      39.418  32.847  34.899  1.00  0.00     0.074 A 
ATOM     61  C   UNL A   1      38.294  33.733  34.687  1.00  0.00     0.031 C 
ATOM     62  C   UNL A   1      40.207  32.870  36.002  1.00  0.00     0.031 A 
BRANCH  49  63
ATOM     63  C   UNL A   1      44.666  28.593  35.944  1.00  0.00    -0.014 A 
ATOM     64  C   UNL A   1      44.453  27.516  36.824  1.00  0.00     0.010 A 
ATOM     65  C   UNL A   1      45.975  29.063  35.736  1.00  0.00     0.010 A 
ATOM     66  C   UNL A   1      45.523  26.954  37.523  1.00  0.00     0.020 A 
ATOM     67  C   UNL A   1      47.051  28.486  36.414  1.00  0.00     0.020 A 
ATOM     68  C   UNL A   1      46.816  27.449  37.319  1.00  0.00     0.054 A 
BRANCH  68  69
ATOM     69  S   UNL A   1      48.189  26.707  38.242  1.00  0.00     0.124 S 
ATOM     70  O   UNL A   1      47.587  25.469  38.731  1.00  0.00    -0.237 OA
ATOM     71  O   UNL A   1      49.216  26.546  37.217  1.00  0.00    -0.237 OA
ATOM     72  O   UNL A   1      48.491  27.701  39.270  1.00  0.00    -0.744 OA
ENDBRANCH  68  69
ENDBRANCH  49  63
BRANCH  50  73
ATOM     73  C   UNL A   1      37.034  32.513  30.860  1.00  0.00    -0.014 A 
ATOM     74  C   UNL A   1      35.709  32.091  31.072  1.00  0.00     0.010 A 
ATOM     75  C   UNL A   1      37.289  33.507  29.898  1.00  0.00     0.010 A 
ATOM     76  C   UNL A   1      34.664  32.632  30.315  1.00  0.00     0.020 A 
ATOM     77  C   UNL A   1      36.244  34.066  29.156  1.00  0.00     0.020 A 
ATOM     78  C   UNL A   1      34.939  33.614  29.360  1.00  0.00     0.054 A 
BRANCH  78  79
ATOM     79  S   UNL A   1      33.566  34.320  28.407  1.00  0.00     0.124 S 
ATOM     80  O   UNL A   1      33.149  33.187  27.588  1.00  0.00    -0.237 OA
ATOM     81  O   UNL A   1      32.630  34.725  29.454  1.00  0.00    -0.237 OA
ATOM     82  O   UNL A   1      34.188  35.425  27.679  1.00  0.00    -0.744 OA
ENDBRANCH  78  79
ENDBRANCH  50  73
BRANCH  62  83
ATOM     83  C   UNL A   1      39.921  33.915  37.048  1.00  0.00    -0.014 A 
ATOM     84  C   UNL A   1      39.174  33.617  38.200  1.00  0.00     0.010 A 
ATOM     85  C   UNL A   1      40.462  35.207  36.899  1.00  0.00     0.010 A 
ATOM     86  C   UNL A   1      38.941  34.600  39.167  1.00  0.00     0.020 A 
ATOM     87  C   UNL A   1      40.255  36.184  37.875  1.00  0.00     0.020 A 
ATOM     88  C   UNL A   1      39.481  35.879  38.996  1.00  0.00     0.054 A 
BRANCH  88  89
ATOM     89  S   UNL A   1      39.197  37.130  40.280  1.00  0.00     0.124 S 
ATOM     90  O   UNL A   1      38.439  36.376  41.274  1.00  0.00    -0.237 OA
ATOM     91  O   UNL A   1      40.554  37.502  40.673  1.00  0.00    -0.237 OA
ATOM     92  O   UNL A   1      38.449  38.175  39.585  1.00  0.00    -0.744 OA
ENDBRANCH  88  89
ENDBRANCH  62  83
ENDBRANCH  36  37
ENDBRANCH  29  31
ENDBRANCH  28  29
ENDBRANCH  27  28
ENDBRANCH   1  27
TORSDOF 20
ENDMDL
MODEL 2
REMARK VINA RESULT:     -11.1      1.808      2.324
REMARK SMILES C[C@@](NC(=O)[C@H]1COc2ccccc21)(C(=O)OCCOCCOC(=O)c1ccc(-c2c3nc(c(-c4ccc(S(=O)(=O)[O-])cc4)c4ccc([nH]4)c(-c4ccc(S(=O)(=O)[O-])cc4)c4nc(c(-c5ccc(S(=O)(=O)[O-])cc5)c5ccc2[nH]5)C=C4)C=C3)cc1)C(F)(F)F
REMARK SMILES IDX 21 1 20 2 19 3 18 4 17 5 15 6 16 7 2 8 1 9 3 10 4 11 5 13
REMARK SMILES IDX 6 14 7 15 14 16 8 17 9 18 13 19 10 20 12 21 11 22 86 23
REMARK SMILES IDX 87 24 88 25 89 26 22 27 23 28 24 29 25 30 26 31 27 32 85 33
REMARK SMILES IDX 28 34 84 35 29 36 30 37 31 38 78 39 32 40 83 41 77 42 79 43
REMARK SMILES IDX 33 44 82 45 76 46 75 47 34 49 64 50 45 51 63 52 46 53 49 54
REMARK SMILES IDX 62 55 80 56 47 57 48 58 61 60 81 61 50 62 35 63 36 64 44 65
REMARK SMILES IDX 37 66 43 67 38 68 39 69 40 70 41 71 42 72 65 73 66 74 74 75
REMARK SMILES IDX 67 76 73 77 68 78 69 79 70 80 71 81 72 82 51 83 52 84 60 85
REMARK SMILES IDX 53 86 59 87 54 88 55 89 56 90 57 91 58 92
REMARK H PARENT 3 12 79 48 49 59
REMARK Flexibility Score: inf
ROOT
ATOM      1  C   UNL A   1      42.049  23.391  27.067  1.00  0.00     0.202 C 
ENDROOT
BRANCH   1   2
ATOM      2  O   UNL A   1      40.750  22.787  27.191  1.00  0.00    -0.374 OA
BRANCH   2   3
ATOM      3  C   UNL A   1      40.518  21.488  26.646  1.00  0.00     0.202 C 
BRANCH   3   4
ATOM      4  C   UNL A   1      39.095  21.091  25.783  1.00  0.00     0.261 C 
BRANCH   4   5
ATOM      5  O   UNL A   1      37.247  21.923  25.808  1.00  0.00    -0.461 OA
BRANCH   5   6
ATOM      6  C   UNL A   1      36.353  23.066  25.626  1.00  0.00     0.341 C 
ATOM      7  O   UNL A   1      36.579  24.238  25.952  1.00  0.00    -0.249 OA
BRANCH   6   8
ATOM      8  C   UNL A   1      34.999  22.683  25.157  1.00  0.00     0.231 C 
ATOM      9  C   UNL A   1      34.864  21.154  25.158  1.00  0.00     0.058 C 
BRANCH   8  10
ATOM     10  N   UNL A   1      33.997  23.379  26.027  1.00  0.00    -0.332 N 
ATOM     11  C   UNL A   1      32.809  22.845  26.497  1.00  0.00     0.232 C 
ATOM     12  H   UNL A   1      34.203  24.306  26.287  1.00  0.00     0.164 HD
ATOM     13  O   UNL A   1      32.687  22.841  27.730  1.00  0.00    -0.274 OA
BRANCH  11  14
ATOM     14  C   UNL A   1      31.531  22.595  25.617  1.00  0.00     0.150 C 
ATOM     15  C   UNL A   1      30.372  22.624  26.663  1.00  0.00     0.248 C 
ATOM     16  C   UNL A   1      30.984  23.684  24.716  1.00  0.00     0.010 A 
ATOM     17  O   UNL A   1      30.113  23.999  27.120  1.00  0.00    -0.492 OA
ATOM     18  C   UNL A   1      30.373  24.748  25.997  1.00  0.00     0.123 A 
ATOM     19  C   UNL A   1      31.622  24.383  23.186  1.00  0.00     0.008 A 
ATOM     20  C   UNL A   1      30.540  26.499  25.928  1.00  0.00     0.047 A 
ATOM     21  C   UNL A   1      31.864  26.211  23.111  1.00  0.00     0.001 A 
ATOM     22  C   UNL A   1      31.284  27.255  24.480  1.00  0.00     0.004 A 
ENDBRANCH  11  14
ENDBRANCH   8  10
BRANCH   8  23
ATOM     23  C   UNL A   1      35.008  23.122  23.666  1.00  0.00     0.422 C 
ATOM     24  F   UNL A   1      34.761  24.451  23.511  1.00  0.00    -0.168 F 
ATOM     25  F   UNL A   1      36.237  22.920  23.119  1.00  0.00    -0.168 F 
ATOM     26  F   UNL A   1      34.136  22.437  22.894  1.00  0.00    -0.168 F 
ENDBRANCH   8  23
ENDBRANCH   6   8
ENDBRANCH   5   6
ENDBRANCH   4   5
ENDBRANCH   3   4
ENDBRANCH   2   3
ENDBRANCH   1   2
BRANCH   1  27
ATOM     27  C   UNL A   1      42.436  24.739  27.749  1.00  0.00     0.261 C 
BRANCH  27  28
ATOM     28  O   UNL A   1      42.557  25.879  26.889  1.00  0.00    -0.460 OA
BRANCH  28  29
ATOM     29  C   UNL A   1      41.395  26.397  26.439  1.00  0.00     0.338 C 
ATOM     30  O   UNL A   1      40.835  26.105  25.397  1.00  0.00    -0.246 OA
BRANCH  29  31
ATOM     31  C   UNL A   1      40.774  27.187  27.528  1.00  0.00     0.060 A 
ATOM     32  C   UNL A   1      41.316  28.455  27.762  1.00  0.00     0.016 A 
ATOM     33  C   UNL A   1      39.717  26.716  28.316  1.00  0.00     0.016 A 
ATOM     34  C   UNL A   1      40.880  29.212  28.845  1.00  0.00     0.010 A 
ATOM     35  C   UNL A   1      39.282  27.476  29.412  1.00  0.00     0.010 A 
ATOM     36  C   UNL A   1      39.916  28.694  29.719  1.00  0.00    -0.014 A 
BRANCH  36  37
ATOM     37  C   UNL A   1      39.850  29.293  31.077  1.00  0.00     0.031 A 
ATOM     38  C   UNL A   1      40.981  28.983  32.029  1.00  0.00     0.074 A 
ATOM     39  C   UNL A   1      38.919  30.204  31.414  1.00  0.00     0.049 A 
ATOM     40  N   UNL A   1      41.271  29.533  33.180  1.00  0.00    -0.248 NA
ATOM     41  C   UNL A   1      41.919  27.926  31.615  1.00  0.00     0.031 C 
ATOM     42  C   UNL A   1      37.804  30.633  30.572  1.00  0.00     0.029 A 
ATOM     43  N   UNL A   1      38.793  30.960  32.554  1.00  0.00    -0.354 N 
ATOM     44  C   UNL A   1      42.430  28.899  33.617  1.00  0.00     0.074 A 
ATOM     45  C   UNL A   1      42.763  27.894  32.633  1.00  0.00     0.031 C 
ATOM     46  C   UNL A   1      37.118  31.594  31.219  1.00  0.00     0.029 A 
ATOM     47  C   UNL A   1      37.741  31.842  32.520  1.00  0.00     0.049 A 
ATOM     48  H   UNL A   1      39.401  30.877  33.324  1.00  0.00     0.167 HD
ATOM     49  C   UNL A   1      43.167  29.137  34.726  1.00  0.00     0.031 A 
ATOM     50  C   UNL A   1      37.336  32.754  33.426  1.00  0.00     0.031 A 
ATOM     51  C   UNL A   1      42.838  30.119  35.719  1.00  0.00     0.049 A 
ATOM     52  C   UNL A   1      38.129  32.947  34.695  1.00  0.00     0.074 A 
ATOM     53  C   UNL A   1      43.524  30.434  36.877  1.00  0.00     0.029 A 
ATOM     54  N   UNL A   1      41.719  30.935  35.678  1.00  0.00    -0.354 N 
ATOM     55  N   UNL A   1      39.248  32.372  35.069  1.00  0.00    -0.248 NA
ATOM     56  C   UNL A   1      37.611  33.934  35.657  1.00  0.00     0.031 C 
ATOM     57  C   UNL A   1      42.792  31.408  37.565  1.00  0.00     0.029 A 
ATOM     58  C   UNL A   1      41.681  31.738  36.804  1.00  0.00     0.049 A 
ATOM     59  H   UNL A   1      41.051  30.944  34.955  1.00  0.00     0.167 HD
ATOM     60  C   UNL A   1      39.587  32.956  36.288  1.00  0.00     0.074 A 
ATOM     61  C   UNL A   1      38.559  33.931  36.585  1.00  0.00     0.031 C 
ATOM     62  C   UNL A   1      40.657  32.712  37.085  1.00  0.00     0.031 A 
BRANCH  49  63
ATOM     63  C   UNL A   1      44.385  28.279  34.932  1.00  0.00    -0.014 A 
ATOM     64  C   UNL A   1      44.295  27.020  35.553  1.00  0.00     0.010 A 
ATOM     65  C   UNL A   1      45.640  28.747  34.504  1.00  0.00     0.010 A 
ATOM     66  C   UNL A   1      45.446  26.266  35.787  1.00  0.00     0.020 A 
ATOM     67  C   UNL A   1      46.791  27.984  34.714  1.00  0.00     0.020 A 
ATOM     68  C   UNL A   1      46.689  26.757  35.374  1.00  0.00     0.054 A 
BRANCH  68  69
ATOM     69  S   UNL A   1      48.171  25.762  35.695  1.00  0.00     0.124 S 
ATOM     70  O   UNL A   1      48.144  25.649  37.152  1.00  0.00    -0.237 OA
ATOM     71  O   UNL A   1      47.896  24.529  34.964  1.00  0.00    -0.237 OA
ATOM     72  O   UNL A   1      49.257  26.575  35.153  1.00  0.00    -0.744 OA
ENDBRANCH  68  69
ENDBRANCH  49  63
BRANCH  50  73
ATOM     73  C   UNL A   1      36.120  33.576  33.173  1.00  0.00    -0.014 A 
ATOM     74  C   UNL A   1      34.839  33.078  33.472  1.00  0.00     0.010 A 
ATOM     75  C   UNL A   1      36.238  34.852  32.594  1.00  0.00     0.010 A 
ATOM     76  C   UNL A   1      33.698  33.829  33.171  1.00  0.00     0.020 A 
ATOM     77  C   UNL A   1      35.102  35.616  32.313  1.00  0.00     0.020 A 
ATOM     78  C   UNL A   1      33.837  35.093  32.590  1.00  0.00     0.054 A 
BRANCH  78  79
ATOM     79  S   UNL A   1      32.346  36.063  32.230  1.00  0.00     0.124 S 
ATOM     80  O   UNL A   1      32.460  37.160  33.185  1.00  0.00    -0.237 OA
ATOM     81  O   UNL A   1      32.532  36.421  30.827  1.00  0.00    -0.237 OA
ATOM     82  O   UNL A   1      31.258  35.120  32.485  1.00  0.00    -0.744 OA
ENDBRANCH  78  79
ENDBRANCH  50  73
BRANCH  62  83
ATOM     83  C   UNL A   1      40.807  33.542  38.333  1.00  0.00    -0.014 A 
ATOM     84  C   UNL A   1      40.275  33.121  39.564  1.00  0.00     0.010 A 
ATOM     85  C   UNL A   1      41.545  34.739  38.281  1.00  0.00     0.010 A 
ATOM     86  C   UNL A   1      40.447  33.900  40.712  1.00  0.00     0.020 A 
ATOM     87  C   UNL A   1      41.743  35.507  39.431  1.00  0.00     0.020 A 
ATOM     88  C   UNL A   1      41.178  35.090  40.637  1.00  0.00     0.054 A 
BRANCH  88  89
ATOM     89  S   UNL A   1      41.420  36.067  42.147  1.00  0.00     0.124 S 
ATOM     90  O   UNL A   1      40.601  35.341  43.113  1.00  0.00    -0.237 OA
ATOM     91  O   UNL A   1      42.863  35.984  42.357  1.00  0.00    -0.237 OA
ATOM     92  O   UNL A   1      40.926  37.394  41.783  1.00  0.00    -0.744 OA
ENDBRANCH  88  89
ENDBRANCH  62  83
ENDBRANCH  36  37
ENDBRANCH  29  31
ENDBRANCH  28  29
ENDBRANCH  27  28
ENDBRANCH   1  27
TORSDOF 20
ENDMDL
MODEL 3
REMARK VINA RESULT:     -11.1      2.252      3.079
REMARK SMILES C[C@@](NC(=O)[C@H]1COc2ccccc21)(C(=O)OCCOCCOC(=O)c1ccc(-c2c3nc(c(-c4ccc(S(=O)(=O)[O-])cc4)c4ccc([nH]4)c(-c4ccc(S(=O)(=O)[O-])cc4)c4nc(c(-c5ccc(S(=O)(=O)[O-])cc5)c5ccc2[nH]5)C=C4)C=C3)cc1)C(F)(F)F
REMARK SMILES IDX 21 1 20 2 19 3 18 4 17 5 15 6 16 7 2 8 1 9 3 10 4 11 5 13
REMARK SMILES IDX 6 14 7 15 14 16 8 17 9 18 13 19 10 20 12 21 11 22 86 23
REMARK SMILES IDX 87 24 88 25 89 26 22 27 23 28 24 29 25 30 26 31 27 32 85 33
REMARK SMILES IDX 28 34 84 35 29 36 30 37 31 38 78 39 32 40 83 41 77 42 79 43
REMARK SMILES IDX 33 44 82 45 76 46 75 47 34 49 64 50 45 51 63 52 46 53 49 54
REMARK SMILES IDX 62 55 80 56 47 57 48 58 61 60 81 61 50 62 35 63 36 64 44 65
REMARK SMILES IDX 37 66 43 67 38 68 39 69 40 70 41 71 42 72 65 73 66 74 74 75
REMARK SMILES IDX 67 76 73 77 68 78 69 79 70 80 71 81 72 82 51 83 52 84 60 85
REMARK SMILES IDX 53 86 59 87 54 88 55 89 56 90 57 91 58 92
REMARK H PARENT 3 12 79 48 49 59
REMARK Flexibility Score: inf
ROOT
ATOM      1  C   UNL A   1      41.699  22.830  26.135  1.00  0.00     0.202 C 
ENDROOT
BRANCH   1   2
ATOM      2  O   UNL A   1      40.566  22.272  26.824  1.00  0.00    -0.374 OA
BRANCH   2   3
ATOM      3  C   UNL A   1      39.506  21.676  26.076  1.00  0.00     0.202 C 
BRANCH   3   4
ATOM      4  C   UNL A   1      37.958  22.392  25.940  1.00  0.00     0.261 C 
BRANCH   4   5
ATOM      5  O   UNL A   1      36.585  22.320  24.451  1.00  0.00    -0.461 OA
BRANCH   5   6
ATOM      6  C   UNL A   1      35.535  22.940  23.643  1.00  0.00     0.341 C 
ATOM      7  O   UNL A   1      35.538  23.083  22.415  1.00  0.00    -0.249 OA
BRANCH   6   8
ATOM      8  C   UNL A   1      34.478  23.590  24.455  1.00  0.00     0.231 C 
ATOM      9  C   UNL A   1      35.112  24.309  25.654  1.00  0.00     0.058 C 
BRANCH   8  10
ATOM     10  N   UNL A   1      33.695  24.495  23.553  1.00  0.00    -0.332 N 
ATOM     11  C   UNL A   1      33.982  25.820  23.271  1.00  0.00     0.232 C 
ATOM     12  H   UNL A   1      32.900  24.108  23.118  1.00  0.00     0.164 HD
ATOM     13  O   UNL A   1      34.144  26.079  22.070  1.00  0.00    -0.274 OA
BRANCH  11  14
ATOM     14  C   UNL A   1      33.768  27.013  24.273  1.00  0.00     0.150 C 
ATOM     15  C   UNL A   1      33.744  28.260  23.333  1.00  0.00     0.248 C 
ATOM     16  C   UNL A   1      32.419  27.251  24.919  1.00  0.00     0.010 A 
ATOM     17  O   UNL A   1      32.484  28.321  22.577  1.00  0.00    -0.492 OA
ATOM     18  C   UNL A   1      31.570  27.806  23.464  1.00  0.00     0.123 A 
ATOM     19  C   UNL A   1      31.536  26.328  26.186  1.00  0.00     0.008 A 
ATOM     20  C   UNL A   1      29.916  27.325  23.096  1.00  0.00     0.047 A 
ATOM     21  C   UNL A   1      29.823  25.758  25.800  1.00  0.00     0.001 A 
ATOM     22  C   UNL A   1      29.019  26.298  24.263  1.00  0.00     0.004 A 
ENDBRANCH  11  14
ENDBRANCH   8  10
BRANCH   8  23
ATOM     23  C   UNL A   1      33.689  22.381  25.034  1.00  0.00     0.422 C 
ATOM     24  F   UNL A   1      34.238  21.901  26.182  1.00  0.00    -0.168 F 
ATOM     25  F   UNL A   1      32.426  22.756  25.371  1.00  0.00    -0.168 F 
ATOM     26  F   UNL A   1      33.558  21.354  24.166  1.00  0.00    -0.168 F 
ENDBRANCH   8  23
ENDBRANCH   6   8
ENDBRANCH   5   6
ENDBRANCH   4   5
ENDBRANCH   3   4
ENDBRANCH   2   3
ENDBRANCH   1   2
BRANCH   1  27
ATOM     27  C   UNL A   1      42.012  24.357  26.098  1.00  0.00     0.261 C 
BRANCH  27  28
ATOM     28  O   UNL A   1      40.889  25.242  26.205  1.00  0.00    -0.460 OA
BRANCH  28  29
ATOM     29  C   UNL A   1      41.172  26.557  26.112  1.00  0.00     0.338 C 
ATOM     30  O   UNL A   1      41.670  27.118  25.153  1.00  0.00    -0.246 OA
BRANCH  29  31
ATOM     31  C   UNL A   1      40.549  27.260  27.259  1.00  0.00     0.060 A 
ATOM     32  C   UNL A   1      40.916  28.597  27.442  1.00  0.00     0.016 A 
ATOM     33  C   UNL A   1      39.656  26.647  28.145  1.00  0.00     0.016 A 
ATOM     34  C   UNL A   1      40.480  29.294  28.564  1.00  0.00     0.010 A 
ATOM     35  C   UNL A   1      39.222  27.347  29.281  1.00  0.00     0.010 A 
ATOM     36  C   UNL A   1      39.694  28.649  29.527  1.00  0.00    -0.014 A 
BRANCH  36  37
ATOM     37  C   UNL A   1      39.672  29.248  30.887  1.00  0.00     0.031 A 
ATOM     38  C   UNL A   1      40.828  28.929  31.806  1.00  0.00     0.074 A 
ATOM     39  C   UNL A   1      38.759  30.166  31.251  1.00  0.00     0.049 A 
ATOM     40  N   UNL A   1      41.156  29.476  32.947  1.00  0.00    -0.248 NA
ATOM     41  C   UNL A   1      41.745  27.865  31.364  1.00  0.00     0.031 C 
ATOM     42  C   UNL A   1      37.623  30.604  30.442  1.00  0.00     0.029 A 
ATOM     43  N   UNL A   1      38.672  30.923  32.395  1.00  0.00    -0.354 N 
ATOM     44  C   UNL A   1      42.322  28.832  33.350  1.00  0.00     0.074 A 
ATOM     45  C   UNL A   1      42.618  27.826  32.357  1.00  0.00     0.031 C 
ATOM     46  C   UNL A   1      36.964  31.570  31.109  1.00  0.00     0.029 A 
ATOM     47  C   UNL A   1      37.626  31.812  32.391  1.00  0.00     0.049 A 
ATOM     48  H   UNL A   1      39.301  30.835  33.146  1.00  0.00     0.167 HD
ATOM     49  C   UNL A   1      43.093  29.064  34.437  1.00  0.00     0.031 A 
ATOM     50  C   UNL A   1      37.256  32.728  33.309  1.00  0.00     0.031 A 
ATOM     51  C   UNL A   1      42.801  30.049  35.440  1.00  0.00     0.049 A 
ATOM     52  C   UNL A   1      38.087  32.914  34.555  1.00  0.00     0.074 A 
ATOM     53  C   UNL A   1      43.523  30.358  36.577  1.00  0.00     0.029 A 
ATOM     54  N   UNL A   1      41.688  30.874  35.431  1.00  0.00    -0.354 N 
ATOM     55  N   UNL A   1      39.211  32.330  34.895  1.00  0.00    -0.248 NA
ATOM     56  C   UNL A   1      37.605  33.904  35.531  1.00  0.00     0.031 C 
ATOM     57  C   UNL A   1      42.819  31.337  37.286  1.00  0.00     0.029 A 
ATOM     58  C   UNL A   1      41.689  31.676  36.558  1.00  0.00     0.049 A 
ATOM     59  H   UNL A   1      41.000  30.888  34.729  1.00  0.00     0.167 HD
ATOM     60  C   UNL A   1      39.590  32.911  36.104  1.00  0.00     0.074 A 
ATOM     61  C   UNL A   1      38.580  33.894  36.431  1.00  0.00     0.031 C 
ATOM     62  C   UNL A   1      40.682  32.658  36.869  1.00  0.00     0.031 A 
BRANCH  49  63
ATOM     63  C   UNL A   1      44.310  28.197  34.607  1.00  0.00    -0.014 A 
ATOM     64  C   UNL A   1      45.512  28.486  33.935  1.00  0.00     0.010 A 
ATOM     65  C   UNL A   1      44.245  27.071  35.447  1.00  0.00     0.010 A 
ATOM     66  C   UNL A   1      46.612  27.636  34.061  1.00  0.00     0.020 A 
ATOM     67  C   UNL A   1      45.352  26.232  35.595  1.00  0.00     0.020 A 
ATOM     68  C   UNL A   1      46.522  26.508  34.884  1.00  0.00     0.054 A 
BRANCH  68  69
ATOM     69  S   UNL A   1      47.961  25.414  35.026  1.00  0.00     0.124 S 
ATOM     70  O   UNL A   1      47.988  25.141  36.461  1.00  0.00    -0.237 OA
ATOM     71  O   UNL A   1      47.591  24.285  34.177  1.00  0.00    -0.237 OA
ATOM     72  O   UNL A   1      49.065  26.229  34.526  1.00  0.00    -0.744 OA
ENDBRANCH  68  69
ENDBRANCH  49  63
BRANCH  50  73
ATOM     73  C   UNL A   1      36.039  33.559  33.092  1.00  0.00    -0.014 A 
ATOM     74  C   UNL A   1      34.764  33.076  33.441  1.00  0.00     0.010 A 
ATOM     75  C   UNL A   1      36.148  34.828  32.497  1.00  0.00     0.010 A 
ATOM     76  C   UNL A   1      33.621  33.836  33.173  1.00  0.00     0.020 A 
ATOM     77  C   UNL A   1      35.010  35.601  32.249  1.00  0.00     0.020 A 
ATOM     78  C   UNL A   1      33.751  35.093  32.576  1.00  0.00     0.054 A 
BRANCH  78  79
ATOM     79  S   UNL A   1      32.258  36.074  32.261  1.00  0.00     0.124 S 
ATOM     80  O   UNL A   1      31.199  35.095  32.484  1.00  0.00    -0.237 OA
ATOM     81  O   UNL A   1      32.361  37.136  33.258  1.00  0.00    -0.237 OA
ATOM     82  O   UNL A   1      32.424  36.513  30.876  1.00  0.00    -0.744 OA
ENDBRANCH  78  79
ENDBRANCH  50  73
BRANCH  62  83
ATOM     83  C   UNL A   1      40.874  33.486  38.112  1.00  0.00    -0.014 A 
ATOM     84  C   UNL A   1      41.588  34.697  38.086  1.00  0.00     0.010 A 
ATOM     85  C   UNL A   1      40.278  33.070  39.318  1.00  0.00     0.010 A 
ATOM     86  C   UNL A   1      41.733  35.458  39.249  1.00  0.00     0.020 A 
ATOM     87  C   UNL A   1      40.397  33.841  40.477  1.00  0.00     0.020 A 
ATOM     88  C   UNL A   1      41.139  35.023  40.439  1.00  0.00     0.054 A 
BRANCH  88  89
ATOM     89  S   UNL A   1      41.309  36.045  41.929  1.00  0.00     0.124 S 
ATOM     90  O   UNL A   1      42.739  35.942  42.205  1.00  0.00    -0.237 OA
ATOM     91  O   UNL A   1      40.848  37.355  41.476  1.00  0.00    -0.237 OA
ATOM     92  O   UNL A   1      40.437  35.388  42.900  1.00  0.00    -0.744 OA
ENDBRANCH  88  89
ENDBRANCH  62  83
ENDBRANCH  36  37
ENDBRANCH  29  31
ENDBRANCH  28  29
ENDBRANCH  27  28
ENDBRANCH   1  27
TORSDOF 20
ENDMDL
