MODEL 1
REMARK VINA RESULT:     -10.7      0.000      0.000
REMARK SMILES C[C@H]1[C@@H](C(=O)OCCOCCOC(=O)c2ccc(-c3c4nc(c(-c5ccc(S(=O)(=O)[O-])cc5)c5ccc([nH]5)c(-c5ccc(S(=O)(=O)[O-])cc5)c5nc(c(-c6ccc(S(=O)(=O)[O-])cc6)c6ccc3[nH]6)C=C5)C=C4)cc2)CCN1C(=O)/C=C/c1cccc(F)c1
REMARK SMILES IDX 9 1 8 2 7 3 6 4 4 5 5 6 3 7 1 8 2 9 77 10 75 11 76 12 78 13
REMARK SMILES IDX 79 14 80 15 81 16 82 17 83 18 88 19 84 20 86 21 85 22 87 23
REMARK SMILES IDX 10 24 11 25 12 26 13 27 14 28 15 29 16 30 74 31 17 32 73 33
REMARK SMILES IDX 18 34 19 35 20 36 67 37 21 38 72 39 66 40 68 41 22 42 71 43
REMARK SMILES IDX 65 44 64 45 23 47 53 48 34 49 52 50 35 51 38 52 51 53 69 54
REMARK SMILES IDX 36 55 37 56 50 58 70 59 39 60 24 61 25 62 33 63 26 64 32 65
REMARK SMILES IDX 27 66 28 67 29 68 30 69 31 70 54 71 55 72 63 73 56 74 62 75
REMARK SMILES IDX 57 76 58 77 59 78 60 79 61 80 40 81 41 82 49 83 42 84 48 85
REMARK SMILES IDX 43 86 44 87 45 88 46 89 47 90
REMARK H PARENT 68 46 38 57
REMARK Flexibility Score: inf
ROOT
ATOM      1  O   UNL A   1      37.701  23.016  25.181  1.00  0.00    -0.374 OA
ENDROOT
BRANCH   1   2
ATOM      2  C   UNL A   1      37.082  22.199  24.181  1.00  0.00     0.202 C 
BRANCH   2   3
ATOM      3  C   UNL A   1      35.568  22.027  24.349  1.00  0.00     0.261 C 
BRANCH   3   4
ATOM      4  O   UNL A   1      35.306  20.913  25.225  1.00  0.00    -0.463 OA
BRANCH   4   5
ATOM      5  C   UNL A   1      34.147  20.248  25.060  1.00  0.00     0.311 C 
ATOM      6  O   UNL A   1      33.986  19.330  24.263  1.00  0.00    -0.252 OA
BRANCH   5   7
ATOM      7  C   UNL A   1      33.039  20.711  25.995  1.00  0.00     0.123 C 
ATOM      8  C   UNL A   1      31.852  22.189  24.133  1.00  0.00     0.032 C 
ATOM      9  C   UNL A   1      31.849  21.602  25.544  1.00  0.00     0.096 C 
ATOM     10  N   UNL A   1      31.748  22.660  26.570  1.00  0.00    -0.336 N 
ATOM     11  C   UNL A   1      33.668  21.434  27.202  1.00  0.00     0.039 C 
ATOM     12  C   UNL A   1      32.971  22.770  27.330  1.00  0.00     0.121 C 
BRANCH  10  13
ATOM     13  C   UNL A   1      30.746  23.581  26.810  1.00  0.00     0.246 C 
ATOM     14  O   UNL A   1      29.763  23.326  27.507  1.00  0.00    -0.270 OA
BRANCH  13  15
ATOM     15  C   UNL A   1      30.899  24.970  26.316  1.00  0.00     0.072 C 
ATOM     16  C   UNL A   1      30.165  25.490  25.322  1.00  0.00     0.014 C 
BRANCH  16  17
ATOM     17  C   UNL A   1      30.360  26.813  24.702  1.00  0.00    -0.023 A 
ATOM     18  C   UNL A   1      29.729  27.056  23.469  1.00  0.00     0.008 A 
ATOM     19  C   UNL A   1      31.158  27.824  25.250  1.00  0.00     0.047 A 
ATOM     20  C   UNL A   1      29.890  28.274  22.801  1.00  0.00     0.004 A 
ATOM     21  C   UNL A   1      31.308  29.036  24.578  1.00  0.00     0.123 A 
ATOM     22  C   UNL A   1      30.683  29.270  23.361  1.00  0.00     0.039 A 
ATOM     23  F   UNL A   1      32.073  29.994  25.119  1.00  0.00    -0.207 F 
ENDBRANCH  16  17
ENDBRANCH  13  15
ENDBRANCH  10  13
ENDBRANCH   5   7
ENDBRANCH   4   5
ENDBRANCH   3   4
ENDBRANCH   2   3
ENDBRANCH   1   2
BRANCH   1  24
ATOM     24  C   UNL A   1      38.524  22.347  26.134  1.00  0.00     0.202 C 
BRANCH  24  25
ATOM     25  C   UNL A   1      38.982  20.937  25.750  1.00  0.00     0.261 C 
BRANCH  25  26
ATOM     26  O   UNL A   1      39.818  20.364  26.766  1.00  0.00    -0.460 OA
BRANCH  26  27
ATOM     27  C   UNL A   1      41.062  20.048  26.341  1.00  0.00     0.338 C 
ATOM     28  O   UNL A   1      41.397  19.026  25.755  1.00  0.00    -0.246 OA
BRANCH  27  29
ATOM     29  C   UNL A   1      41.980  21.189  26.525  1.00  0.00     0.060 A 
ATOM     30  C   UNL A   1      42.274  21.549  27.844  1.00  0.00     0.016 A 
ATOM     31  C   UNL A   1      42.485  21.937  25.456  1.00  0.00     0.016 A 
ATOM     32  C   UNL A   1      42.983  22.715  28.104  1.00  0.00     0.010 A 
ATOM     33  C   UNL A   1      43.209  23.106  25.720  1.00  0.00     0.010 A 
ATOM     34  C   UNL A   1      43.405  23.531  27.046  1.00  0.00    -0.014 A 
BRANCH  34  35
ATOM     35  C   UNL A   1      43.871  24.904  27.362  1.00  0.00     0.031 A 
ATOM     36  C   UNL A   1      45.316  25.256  27.119  1.00  0.00     0.074 A 
ATOM     37  C   UNL A   1      42.997  25.850  27.751  1.00  0.00     0.049 A 
ATOM     38  N   UNL A   1      45.913  26.415  27.219  1.00  0.00    -0.248 NA
ATOM     39  C   UNL A   1      46.204  24.158  26.703  1.00  0.00     0.031 C 
ATOM     40  C   UNL A   1      41.569  25.640  27.981  1.00  0.00     0.029 A 
ATOM     41  N   UNL A   1      43.185  27.186  28.000  1.00  0.00    -0.354 N 
ATOM     42  C   UNL A   1      47.243  26.185  26.882  1.00  0.00     0.074 A 
ATOM     43  C   UNL A   1      47.375  24.771  26.616  1.00  0.00     0.031 C 
ATOM     44  C   UNL A   1      41.005  26.810  28.322  1.00  0.00     0.029 A 
ATOM     45  C   UNL A   1      42.035  27.847  28.358  1.00  0.00     0.049 A 
ATOM     46  H   UNL A   1      44.061  27.630  27.929  1.00  0.00     0.167 HD
ATOM     47  C   UNL A   1      48.262  27.073  26.787  1.00  0.00     0.031 A 
ATOM     48  C   UNL A   1      41.835  29.140  28.679  1.00  0.00     0.031 A 
ATOM     49  C   UNL A   1      48.130  28.480  27.060  1.00  0.00     0.049 A 
ATOM     50  C   UNL A   1      42.994  30.100  28.619  1.00  0.00     0.074 A 
ATOM     51  C   UNL A   1      49.096  29.468  26.981  1.00  0.00     0.029 A 
ATOM     52  N   UNL A   1      46.959  29.100  27.470  1.00  0.00    -0.354 N 
ATOM     53  N   UNL A   1      44.239  29.870  28.270  1.00  0.00    -0.248 NA
ATOM     54  C   UNL A   1      42.716  31.497  28.978  1.00  0.00     0.031 C 
ATOM     55  C   UNL A   1      48.524  30.673  27.400  1.00  0.00     0.029 A 
ATOM     56  C   UNL A   1      47.184  30.451  27.673  1.00  0.00     0.049 A 
ATOM     57  H   UNL A   1      46.095  28.646  27.597  1.00  0.00     0.167 HD
ATOM     58  C   UNL A   1      44.885  31.101  28.340  1.00  0.00     0.074 A 
ATOM     59  C   UNL A   1      43.888  32.071  28.746  1.00  0.00     0.031 C 
ATOM     60  C   UNL A   1      46.183  31.403  28.087  1.00  0.00     0.031 A 
BRANCH  47  61
ATOM     61  C   UNL A   1      49.618  26.540  26.402  1.00  0.00    -0.014 A 
ATOM     62  C   UNL A   1      50.076  26.594  25.073  1.00  0.00     0.010 A 
ATOM     63  C   UNL A   1      50.460  26.003  27.393  1.00  0.00     0.010 A 
ATOM     64  C   UNL A   1      51.334  26.086  24.735  1.00  0.00     0.020 A 
ATOM     65  C   UNL A   1      51.731  25.520  27.065  1.00  0.00     0.020 A 
ATOM     66  C   UNL A   1      52.153  25.550  25.735  1.00  0.00     0.054 A 
BRANCH  66  67
ATOM     67  S   UNL A   1      53.789  24.918  25.273  1.00  0.00     0.124 S 
ATOM     68  O   UNL A   1      54.575  25.216  26.467  1.00  0.00    -0.237 OA
ATOM     69  O   UNL A   1      53.529  23.501  25.030  1.00  0.00    -0.237 OA
ATOM     70  O   UNL A   1      54.140  25.696  24.087  1.00  0.00    -0.744 OA
ENDBRANCH  66  67
ENDBRANCH  47  61
BRANCH  48  71
ATOM     71  C   UNL A   1      40.479  29.602  29.088  1.00  0.00    -0.014 A 
ATOM     72  C   UNL A   1      39.440  29.723  28.150  1.00  0.00     0.010 A 
ATOM     73  C   UNL A   1      40.225  29.926  30.435  1.00  0.00     0.010 A 
ATOM     74  C   UNL A   1      38.176  30.173  28.546  1.00  0.00     0.020 A 
ATOM     75  C   UNL A   1      38.956  30.348  30.839  1.00  0.00     0.020 A 
ATOM     76  C   UNL A   1      37.942  30.479  29.890  1.00  0.00     0.054 A 
BRANCH  76  77
ATOM     77  S   UNL A   1      36.281  31.011  30.392  1.00  0.00     0.124 S 
ATOM     78  O   UNL A   1      35.900  29.967  31.337  1.00  0.00    -0.237 OA
ATOM     79  O   UNL A   1      36.534  32.329  30.969  1.00  0.00    -0.237 OA
ATOM     80  O   UNL A   1      35.533  31.024  29.136  1.00  0.00    -0.744 OA
ENDBRANCH  76  77
ENDBRANCH  48  71
BRANCH  60  81
ATOM     81  C   UNL A   1      46.593  32.848  28.207  1.00  0.00    -0.014 A 
ATOM     82  C   UNL A   1      46.477  33.737  27.123  1.00  0.00     0.010 A 
ATOM     83  C   UNL A   1      47.077  33.330  29.438  1.00  0.00     0.010 A 
ATOM     84  C   UNL A   1      46.888  35.067  27.254  1.00  0.00     0.020 A 
ATOM     85  C   UNL A   1      47.458  34.666  29.582  1.00  0.00     0.020 A 
ATOM     86  C   UNL A   1      47.382  35.521  28.481  1.00  0.00     0.054 A 
BRANCH  86  87
ATOM     87  S   UNL A   1      47.900  37.253  28.627  1.00  0.00     0.124 S 
ATOM     88  O   UNL A   1      49.330  37.120  28.892  1.00  0.00    -0.237 OA
ATOM     89  O   UNL A   1      47.550  37.805  27.320  1.00  0.00    -0.237 OA
ATOM     90  O   UNL A   1      47.105  37.759  29.743  1.00  0.00    -0.744 OA
ENDBRANCH  86  87
ENDBRANCH  60  81
ENDBRANCH  34  35
ENDBRANCH  27  29
ENDBRANCH  26  27
ENDBRANCH  25  26
ENDBRANCH  24  25
ENDBRANCH   1  24
TORSDOF 20
ENDMDL
MODEL 2
REMARK VINA RESULT:     -10.5      6.398      8.578
REMARK SMILES C[C@H]1[C@@H](C(=O)OCCOCCOC(=O)c2ccc(-c3c4nc(c(-c5ccc(S(=O)(=O)[O-])cc5)c5ccc([nH]5)c(-c5ccc(S(=O)(=O)[O-])cc5)c5nc(c(-c6ccc(S(=O)(=O)[O-])cc6)c6ccc3[nH]6)C=C5)C=C4)cc2)CCN1C(=O)/C=C/c1cccc(F)c1
REMARK SMILES IDX 9 1 8 2 7 3 6 4 4 5 5 6 3 7 1 8 2 9 77 10 75 11 76 12 78 13
REMARK SMILES IDX 79 14 80 15 81 16 82 17 83 18 88 19 84 20 86 21 85 22 87 23
REMARK SMILES IDX 10 24 11 25 12 26 13 27 14 28 15 29 16 30 74 31 17 32 73 33
REMARK SMILES IDX 18 34 19 35 20 36 67 37 21 38 72 39 66 40 68 41 22 42 71 43
REMARK SMILES IDX 65 44 64 45 23 47 53 48 34 49 52 50 35 51 38 52 51 53 69 54
REMARK SMILES IDX 36 55 37 56 50 58 70 59 39 60 24 61 25 62 33 63 26 64 32 65
REMARK SMILES IDX 27 66 28 67 29 68 30 69 31 70 54 71 55 72 63 73 56 74 62 75
REMARK SMILES IDX 57 76 58 77 59 78 60 79 61 80 40 81 41 82 49 83 42 84 48 85
REMARK SMILES IDX 43 86 44 87 45 88 46 89 47 90
REMARK H PARENT 68 46 38 57
REMARK Flexibility Score: inf
ROOT
ATOM      1  O   UNL A   1      38.491  22.018  25.659  1.00  0.00    -0.374 OA
ENDROOT
BRANCH   1   2
ATOM      2  C   UNL A   1      37.269  22.181  24.931  1.00  0.00     0.202 C 
BRANCH   2   3
ATOM      3  C   UNL A   1      36.007  21.813  25.719  1.00  0.00     0.261 C 
BRANCH   3   4
ATOM      4  O   UNL A   1      35.241  23.005  25.983  1.00  0.00    -0.463 OA
BRANCH   4   5
ATOM      5  C   UNL A   1      33.905  22.880  26.086  1.00  0.00     0.311 C 
ATOM      6  O   UNL A   1      33.341  21.944  26.643  1.00  0.00    -0.252 OA
BRANCH   5   7
ATOM      7  C   UNL A   1      33.134  24.042  25.478  1.00  0.00     0.123 C 
ATOM      8  C   UNL A   1      33.311  23.087  23.004  1.00  0.00     0.032 C 
ATOM      9  C   UNL A   1      32.756  24.130  23.973  1.00  0.00     0.096 C 
ATOM     10  N   UNL A   1      33.122  25.501  23.563  1.00  0.00    -0.336 N 
ATOM     11  C   UNL A   1      33.869  25.359  25.801  1.00  0.00     0.039 C 
ATOM     12  C   UNL A   1      34.052  26.095  24.493  1.00  0.00     0.121 C 
BRANCH  10  13
ATOM     13  C   UNL A   1      32.805  26.206  22.417  1.00  0.00     0.246 C 
ATOM     14  O   UNL A   1      33.495  26.163  21.399  1.00  0.00    -0.270 OA
BRANCH  13  15
ATOM     15  C   UNL A   1      31.526  26.955  22.352  1.00  0.00     0.072 C 
ATOM     16  C   UNL A   1      31.238  28.001  23.140  1.00  0.00     0.014 C 
BRANCH  16  17
ATOM     17  C   UNL A   1      29.942  28.698  23.214  1.00  0.00    -0.023 A 
ATOM     18  C   UNL A   1      28.775  27.922  23.107  1.00  0.00     0.008 A 
ATOM     19  C   UNL A   1      29.806  30.084  23.352  1.00  0.00     0.047 A 
ATOM     20  C   UNL A   1      27.507  28.511  23.136  1.00  0.00     0.004 A 
ATOM     21  C   UNL A   1      28.538  30.662  23.384  1.00  0.00     0.123 A 
ATOM     22  C   UNL A   1      27.389  29.890  23.277  1.00  0.00     0.039 A 
ATOM     23  F   UNL A   1      28.426  31.990  23.519  1.00  0.00    -0.207 F 
ENDBRANCH  16  17
ENDBRANCH  13  15
ENDBRANCH  10  13
ENDBRANCH   5   7
ENDBRANCH   4   5
ENDBRANCH   3   4
ENDBRANCH   2   3
ENDBRANCH   1   2
BRANCH   1  24
ATOM     24  C   UNL A   1      38.873  23.092  26.516  1.00  0.00     0.202 C 
BRANCH  24  25
ATOM     25  C   UNL A   1      40.370  23.416  26.557  1.00  0.00     0.261 C 
BRANCH  25  26
ATOM     26  O   UNL A   1      40.660  24.422  27.539  1.00  0.00    -0.460 OA
BRANCH  26  27
ATOM     27  C   UNL A   1      40.595  25.686  27.065  1.00  0.00     0.338 C 
ATOM     28  O   UNL A   1      40.726  26.038  25.900  1.00  0.00    -0.246 OA
BRANCH  27  29
ATOM     29  C   UNL A   1      40.173  26.619  28.128  1.00  0.00     0.060 A 
ATOM     30  C   UNL A   1      40.829  27.853  28.175  1.00  0.00     0.016 A 
ATOM     31  C   UNL A   1      39.223  26.284  29.099  1.00  0.00     0.016 A 
ATOM     32  C   UNL A   1      40.619  28.713  29.246  1.00  0.00     0.010 A 
ATOM     33  C   UNL A   1      39.005  27.156  30.173  1.00  0.00     0.010 A 
ATOM     34  C   UNL A   1      39.749  28.344  30.280  1.00  0.00    -0.014 A 
BRANCH  34  35
ATOM     35  C   UNL A   1      39.789  29.124  31.542  1.00  0.00     0.031 A 
ATOM     36  C   UNL A   1      40.935  28.907  32.496  1.00  0.00     0.074 A 
ATOM     37  C   UNL A   1      38.881  30.088  31.780  1.00  0.00     0.049 A 
ATOM     38  N   UNL A   1      41.230  29.551  33.595  1.00  0.00    -0.248 NA
ATOM     39  C   UNL A   1      41.878  27.826  32.163  1.00  0.00     0.031 C 
ATOM     40  C   UNL A   1      37.751  30.418  30.913  1.00  0.00     0.029 A 
ATOM     41  N   UNL A   1      38.783  30.982  32.816  1.00  0.00    -0.354 N 
ATOM     42  C   UNL A   1      42.387  28.952  34.086  1.00  0.00     0.074 A 
ATOM     43  C   UNL A   1      42.716  27.869  33.188  1.00  0.00     0.031 C 
ATOM     44  C   UNL A   1      37.081  31.454  31.445  1.00  0.00     0.029 A 
ATOM     45  C   UNL A   1      37.719  31.844  32.700  1.00  0.00     0.049 A 
ATOM     46  H   UNL A   1      39.415  31.004  33.571  1.00  0.00     0.167 HD
ATOM     47  C   UNL A   1      43.119  29.283  35.176  1.00  0.00     0.031 A 
ATOM     48  C   UNL A   1      37.307  32.835  33.515  1.00  0.00     0.031 A 
ATOM     49  C   UNL A   1      42.784  30.358  36.073  1.00  0.00     0.049 A 
ATOM     50  C   UNL A   1      38.106  33.151  34.752  1.00  0.00     0.074 A 
ATOM     51  C   UNL A   1      43.466  30.784  37.200  1.00  0.00     0.029 A 
ATOM     52  N   UNL A   1      41.669  31.174  35.949  1.00  0.00    -0.354 N 
ATOM     53  N   UNL A   1      39.214  32.593  35.183  1.00  0.00    -0.248 NA
ATOM     54  C   UNL A   1      37.609  34.243  35.600  1.00  0.00     0.031 C 
ATOM     55  C   UNL A   1      42.731  31.819  37.789  1.00  0.00     0.029 A 
ATOM     56  C   UNL A   1      41.629  32.084  36.992  1.00  0.00     0.049 A 
ATOM     57  H   UNL A   1      41.005  31.115  35.225  1.00  0.00     0.167 HD
ATOM     58  C   UNL A   1      39.560  33.287  36.339  1.00  0.00     0.074 A 
ATOM     59  C   UNL A   1      38.557  34.314  36.526  1.00  0.00     0.031 C 
ATOM     60  C   UNL A   1      40.617  33.095  37.168  1.00  0.00     0.031 A 
BRANCH  47  61
ATOM     61  C   UNL A   1      44.338  28.449  35.477  1.00  0.00    -0.014 A 
ATOM     62  C   UNL A   1      44.258  27.300  36.285  1.00  0.00     0.010 A 
ATOM     63  C   UNL A   1      45.577  28.804  34.916  1.00  0.00     0.010 A 
ATOM     64  C   UNL A   1      45.402  26.545  36.559  1.00  0.00     0.020 A 
ATOM     65  C   UNL A   1      46.719  28.036  35.162  1.00  0.00     0.020 A 
ATOM     66  C   UNL A   1      46.627  26.920  35.996  1.00  0.00     0.054 A 
BRANCH  66  67
ATOM     67  S   UNL A   1      48.092  25.910  36.349  1.00  0.00     0.124 S 
ATOM     68  O   UNL A   1      49.168  26.749  35.829  1.00  0.00    -0.237 OA
ATOM     69  O   UNL A   1      48.046  25.777  37.804  1.00  0.00    -0.237 OA
ATOM     70  O   UNL A   1      47.850  24.676  35.606  1.00  0.00    -0.744 OA
ENDBRANCH  66  67
ENDBRANCH  47  61
BRANCH  48  71
ATOM     71  C   UNL A   1      36.073  33.602  33.185  1.00  0.00    -0.014 A 
ATOM     72  C   UNL A   1      34.813  33.180  33.645  1.00  0.00     0.010 A 
ATOM     73  C   UNL A   1      36.159  34.768  32.402  1.00  0.00     0.010 A 
ATOM     74  C   UNL A   1      33.660  33.902  33.315  1.00  0.00     0.020 A 
ATOM     75  C   UNL A   1      35.014  35.507  32.095  1.00  0.00     0.020 A 
ATOM     76  C   UNL A   1      33.770  35.063  32.544  1.00  0.00     0.054 A 
BRANCH  76  77
ATOM     77  S   UNL A   1      32.269  36.014  32.172  1.00  0.00     0.124 S 
ATOM     78  O   UNL A   1      32.453  36.332  30.760  1.00  0.00    -0.237 OA
ATOM     79  O   UNL A   1      31.208  35.056  32.474  1.00  0.00    -0.237 OA
ATOM     80  O   UNL A   1      32.350  37.150  33.087  1.00  0.00    -0.744 OA
ENDBRANCH  76  77
ENDBRANCH  48  71
BRANCH  60  81
ATOM     81  C   UNL A   1      40.761  34.039  38.335  1.00  0.00    -0.014 A 
ATOM     82  C   UNL A   1      40.364  33.669  39.632  1.00  0.00     0.010 A 
ATOM     83  C   UNL A   1      41.329  35.310  38.130  1.00  0.00     0.010 A 
ATOM     84  C   UNL A   1      40.484  34.573  40.693  1.00  0.00     0.020 A 
ATOM     85  C   UNL A   1      41.482  36.204  39.192  1.00  0.00     0.020 A 
ATOM     86  C   UNL A   1      41.037  35.837  40.464  1.00  0.00     0.054 A 
BRANCH  86  87
ATOM     87  S   UNL A   1      41.191  36.988  41.856  1.00  0.00     0.124 S 
ATOM     88  O   UNL A   1      39.816  37.454  42.019  1.00  0.00    -0.237 OA
ATOM     89  O   UNL A   1      41.695  36.131  42.927  1.00  0.00    -0.237 OA
ATOM     90  O   UNL A   1      42.136  37.992  41.373  1.00  0.00    -0.744 OA
ENDBRANCH  86  87
ENDBRANCH  60  81
ENDBRANCH  34  35
ENDBRANCH  27  29
ENDBRANCH  26  27
ENDBRANCH  25  26
ENDBRANCH  24  25
ENDBRANCH   1  24
TORSDOF 20
ENDMDL
MODEL 3
REMARK VINA RESULT:     -10.3      2.667      9.160
REMARK SMILES C[C@H]1[C@@H](C(=O)OCCOCCOC(=O)c2ccc(-c3c4nc(c(-c5ccc(S(=O)(=O)[O-])cc5)c5ccc([nH]5)c(-c5ccc(S(=O)(=O)[O-])cc5)c5nc(c(-c6ccc(S(=O)(=O)[O-])cc6)c6ccc3[nH]6)C=C5)C=C4)cc2)CCN1C(=O)/C=C/c1cccc(F)c1
REMARK SMILES IDX 9 1 8 2 7 3 6 4 4 5 5 6 3 7 1 8 2 9 77 10 75 11 76 12 78 13
REMARK SMILES IDX 79 14 80 15 81 16 82 17 83 18 88 19 84 20 86 21 85 22 87 23
REMARK SMILES IDX 10 24 11 25 12 26 13 27 14 28 15 29 16 30 74 31 17 32 73 33
REMARK SMILES IDX 18 34 19 35 20 36 67 37 21 38 72 39 66 40 68 41 22 42 71 43
REMARK SMILES IDX 65 44 64 45 23 47 53 48 34 49 52 50 35 51 38 52 51 53 69 54
REMARK SMILES IDX 36 55 37 56 50 58 70 59 39 60 24 61 25 62 33 63 26 64 32 65
REMARK SMILES IDX 27 66 28 67 29 68 30 69 31 70 54 71 55 72 63 73 56 74 62 75
REMARK SMILES IDX 57 76 58 77 59 78 60 79 61 80 40 81 41 82 49 83 42 84 48 85
REMARK SMILES IDX 43 86 44 87 45 88 46 89 47 90
REMARK H PARENT 68 46 38 57
REMARK Flexibility Score: inf
ROOT
ATOM      1  O   UNL A   1      34.554  32.591  28.958  1.00  0.00    -0.374 OA
ENDROOT
BRANCH   1   2
ATOM      2  C   UNL A   1      34.710  31.416  28.154  1.00  0.00     0.202 C 
BRANCH   2   3
ATOM      3  C   UNL A   1      33.429  30.953  27.451  1.00  0.00     0.261 C 
BRANCH   3   4
ATOM      4  O   UNL A   1      33.721  29.808  26.626  1.00  0.00    -0.463 OA
BRANCH   4   5
ATOM      5  C   UNL A   1      32.695  29.225  25.979  1.00  0.00     0.311 C 
ATOM      6  O   UNL A   1      31.656  29.801  25.673  1.00  0.00    -0.252 OA
BRANCH   5   7
ATOM      7  C   UNL A   1      32.951  27.770  25.612  1.00  0.00     0.123 C 
ATOM      8  C   UNL A   1      34.315  28.387  23.416  1.00  0.00     0.032 C 
ATOM      9  C   UNL A   1      33.816  27.329  24.399  1.00  0.00     0.096 C 
ATOM     10  N   UNL A   1      33.020  26.288  23.717  1.00  0.00    -0.336 N 
ATOM     11  C   UNL A   1      31.599  27.047  25.446  1.00  0.00     0.039 C 
ATOM     12  C   UNL A   1      31.631  26.354  24.103  1.00  0.00     0.121 C 
BRANCH  10  13
ATOM     13  C   UNL A   1      33.381  25.389  22.730  1.00  0.00     0.246 C 
ATOM     14  O   UNL A   1      33.502  25.714  21.549  1.00  0.00    -0.270 OA
BRANCH  13  15
ATOM     15  C   UNL A   1      33.757  24.005  23.107  1.00  0.00     0.072 C 
ATOM     16  C   UNL A   1      32.884  22.989  23.167  1.00  0.00     0.014 C 
BRANCH  16  17
ATOM     17  C   UNL A   1      33.169  21.630  23.660  1.00  0.00    -0.023 A 
ATOM     18  C   UNL A   1      34.376  21.426  24.352  1.00  0.00     0.008 A 
ATOM     19  C   UNL A   1      32.329  20.530  23.453  1.00  0.00     0.047 A 
ATOM     20  C   UNL A   1      34.735  20.159  24.823  1.00  0.00     0.004 A 
ATOM     21  C   UNL A   1      32.693  19.273  23.930  1.00  0.00     0.123 A 
ATOM     22  C   UNL A   1      33.886  19.077  24.612  1.00  0.00     0.039 A 
ATOM     23  F   UNL A   1      31.875  18.232  23.725  1.00  0.00    -0.207 F 
ENDBRANCH  16  17
ENDBRANCH  13  15
ENDBRANCH  10  13
ENDBRANCH   5   7
ENDBRANCH   4   5
ENDBRANCH   3   4
ENDBRANCH   2   3
ENDBRANCH   1   2
BRANCH   1  24
ATOM     24  C   UNL A   1      34.851  32.459  30.346  1.00  0.00     0.202 C 
BRANCH  24  25
ATOM     25  C   UNL A   1      36.336  32.509  30.721  1.00  0.00     0.261 C 
BRANCH  25  26
ATOM     26  O   UNL A   1      36.646  31.561  31.754  1.00  0.00    -0.460 OA
BRANCH  26  27
ATOM     27  C   UNL A   1      36.989  30.338  31.292  1.00  0.00     0.338 C 
ATOM     28  O   UNL A   1      36.254  29.365  31.182  1.00  0.00    -0.246 OA
BRANCH  27  29
ATOM     29  C   UNL A   1      38.366  30.349  30.762  1.00  0.00     0.060 A 
ATOM     30  C   UNL A   1      38.502  30.310  29.371  1.00  0.00     0.016 A 
ATOM     31  C   UNL A   1      39.496  30.324  31.586  1.00  0.00     0.016 A 
ATOM     32  C   UNL A   1      39.756  30.140  28.799  1.00  0.00     0.010 A 
ATOM     33  C   UNL A   1      40.762  30.161  31.007  1.00  0.00     0.010 A 
ATOM     34  C   UNL A   1      40.887  30.006  29.616  1.00  0.00    -0.014 A 
BRANCH  34  35
ATOM     35  C   UNL A   1      42.143  29.513  28.999  1.00  0.00     0.031 A 
ATOM     36  C   UNL A   1      43.332  30.437  28.932  1.00  0.00     0.074 A 
ATOM     37  C   UNL A   1      42.257  28.231  28.607  1.00  0.00     0.049 A 
ATOM     38  N   UNL A   1      44.554  30.186  28.539  1.00  0.00    -0.248 NA
ATOM     39  C   UNL A   1      43.117  31.826  29.372  1.00  0.00     0.031 C 
ATOM     40  C   UNL A   1      41.190  27.233  28.660  1.00  0.00     0.029 A 
ATOM     41  N   UNL A   1      43.335  27.546  28.108  1.00  0.00    -0.354 N 
ATOM     42  C   UNL A   1      45.250  31.383  28.681  1.00  0.00     0.074 A 
ATOM     43  C   UNL A   1      44.306  32.369  29.157  1.00  0.00     0.031 C 
ATOM     44  C   UNL A   1      41.671  26.057  28.226  1.00  0.00     0.029 A 
ATOM     45  C   UNL A   1      43.072  26.223  27.842  1.00  0.00     0.049 A 
ATOM     46  H   UNL A   1      44.215  27.961  27.955  1.00  0.00     0.167 HD
ATOM     47  C   UNL A   1      46.561  31.636  28.453  1.00  0.00     0.031 A 
ATOM     48  C   UNL A   1      43.869  25.258  27.345  1.00  0.00     0.031 A 
ATOM     49  C   UNL A   1      47.497  30.655  27.972  1.00  0.00     0.049 A 
ATOM     50  C   UNL A   1      45.311  25.576  27.046  1.00  0.00     0.074 A 
ATOM     51  C   UNL A   1      48.850  30.805  27.719  1.00  0.00     0.029 A 
ATOM     52  N   UNL A   1      47.178  29.340  27.666  1.00  0.00    -0.354 N 
ATOM     53  N   UNL A   1      45.959  26.705  27.216  1.00  0.00    -0.248 NA
ATOM     54  C   UNL A   1      46.133  24.483  26.508  1.00  0.00     0.031 C 
ATOM     55  C   UNL A   1      49.335  29.598  27.204  1.00  0.00     0.029 A 
ATOM     56  C   UNL A   1      48.301  28.676  27.202  1.00  0.00     0.049 A 
ATOM     57  H   UNL A   1      46.285  28.939  27.764  1.00  0.00     0.167 HD
ATOM     58  C   UNL A   1      47.272  26.449  26.831  1.00  0.00     0.074 A 
ATOM     59  C   UNL A   1      47.327  25.055  26.440  1.00  0.00     0.031 C 
ATOM     60  C   UNL A   1      48.337  27.289  26.808  1.00  0.00     0.031 A 
BRANCH  47  61
ATOM     61  C   UNL A   1      47.051  33.042  28.689  1.00  0.00    -0.014 A 
ATOM     62  C   UNL A   1      47.012  34.012  27.671  1.00  0.00     0.010 A 
ATOM     63  C   UNL A   1      47.529  33.406  29.960  1.00  0.00     0.010 A 
ATOM     64  C   UNL A   1      47.479  35.308  27.908  1.00  0.00     0.020 A 
ATOM     65  C   UNL A   1      47.971  34.709  30.212  1.00  0.00     0.020 A 
ATOM     66  C   UNL A   1      47.958  35.647  29.178  1.00  0.00     0.054 A 
BRANCH  66  67
ATOM     67  S   UNL A   1      48.537  37.342  29.465  1.00  0.00     0.124 S 
ATOM     68  O   UNL A   1      49.971  37.216  29.219  1.00  0.00    -0.237 OA
ATOM     69  O   UNL A   1      47.793  38.108  28.468  1.00  0.00    -0.237 OA
ATOM     70  O   UNL A   1      48.166  37.606  30.854  1.00  0.00    -0.744 OA
ENDBRANCH  66  67
ENDBRANCH  47  61
BRANCH  48  71
ATOM     71  C   UNL A   1      43.320  23.896  27.097  1.00  0.00    -0.014 A 
ATOM     72  C   UNL A   1      42.738  23.562  25.862  1.00  0.00     0.010 A 
ATOM     73  C   UNL A   1      43.379  22.919  28.110  1.00  0.00     0.010 A 
ATOM     74  C   UNL A   1      42.211  22.284  25.649  1.00  0.00     0.020 A 
ATOM     75  C   UNL A   1      42.882  21.633  27.890  1.00  0.00     0.020 A 
ATOM     76  C   UNL A   1      42.291  21.326  26.664  1.00  0.00     0.054 A 
BRANCH  76  77
ATOM     77  S   UNL A   1      41.650  19.657  26.349  1.00  0.00     0.124 S 
ATOM     78  O   UNL A   1      40.259  19.926  26.001  1.00  0.00    -0.237 OA
ATOM     79  O   UNL A   1      42.501  19.197  25.254  1.00  0.00    -0.237 OA
ATOM     80  O   UNL A   1      41.858  18.967  27.619  1.00  0.00    -0.744 OA
ENDBRANCH  76  77
ENDBRANCH  48  71
BRANCH  60  81
ATOM     81  C   UNL A   1      49.662  26.714  26.378  1.00  0.00    -0.014 A 
ATOM     82  C   UNL A   1      50.047  26.687  25.025  1.00  0.00     0.010 A 
ATOM     83  C   UNL A   1      50.548  26.215  27.351  1.00  0.00     0.010 A 
ATOM     84  C   UNL A   1      51.271  26.124  24.651  1.00  0.00     0.020 A 
ATOM     85  C   UNL A   1      51.786  25.683  26.984  1.00  0.00     0.020 A 
ATOM     86  C   UNL A   1      52.130  25.620  25.632  1.00  0.00     0.054 A 
BRANCH  86  87
ATOM     87  S   UNL A   1      53.716  24.903  25.122  1.00  0.00     0.124 S 
ATOM     88  O   UNL A   1      53.390  23.483  25.026  1.00  0.00    -0.237 OA
ATOM     89  O   UNL A   1      53.978  25.576  23.852  1.00  0.00    -0.237 OA
ATOM     90  O   UNL A   1      54.624  25.262  26.209  1.00  0.00    -0.744 OA
ENDBRANCH  86  87
ENDBRANCH  60  81
ENDBRANCH  34  35
ENDBRANCH  27  29
ENDBRANCH  26  27
ENDBRANCH  25  26
ENDBRANCH  24  25
ENDBRANCH   1  24
TORSDOF 20
ENDMDL
