MODEL 1
REMARK VINA RESULT:     -11.0      0.000      0.000
REMARK SMILES CC(=O)Nc1cccc(-c2cc(F)ccc2C(=O)OCCOCCOC(=O)c2ccc(-c3c4nc(c(-c5ccc(S(=O)(=O)[O-])cc5)c5ccc([nH]5)c(-c5ccc(S(=O)(=O)[O-])cc5)c5nc(c(-c6ccc(S(=O)(=O)[O-])cc6)c6ccc3[nH]6)C=C5)C=C4)cc2)c1
REMARK SMILES IDX 23 1 22 2 21 3 20 4 19 5 17 6 18 7 16 8 10 9 11 10 12 11
REMARK SMILES IDX 15 12 13 13 14 14 9 15 5 16 6 17 88 18 7 19 8 20 4 21 1 22
REMARK SMILES IDX 2 23 3 24 24 26 25 27 26 28 27 29 28 30 29 31 87 32 30 33
REMARK SMILES IDX 86 34 31 35 32 36 33 37 80 38 34 39 85 40 79 41 81 42 35 43
REMARK SMILES IDX 84 44 78 45 77 46 36 48 66 49 47 50 65 51 48 52 51 53 64 54
REMARK SMILES IDX 82 55 49 56 50 57 63 59 83 60 52 61 37 62 38 63 46 64 39 65
REMARK SMILES IDX 45 66 40 67 41 68 42 69 43 70 44 71 67 72 68 73 76 74 69 75
REMARK SMILES IDX 75 76 70 77 71 78 72 79 73 80 74 81 53 82 54 83 62 84 55 85
REMARK SMILES IDX 61 86 56 87 57 88 58 89 59 90 60 91
REMARK H PARENT 4 25 81 47 51 58
REMARK Flexibility Score: inf
ROOT
ATOM      1  C   UNL A   1      34.444  32.595  28.893  1.00  0.00     0.202 C 
ENDROOT
BRANCH   1   2
ATOM      2  O   UNL A   1      33.589  31.687  28.200  1.00  0.00    -0.374 OA
BRANCH   2   3
ATOM      3  C   UNL A   1      34.163  30.918  27.140  1.00  0.00     0.202 C 
BRANCH   3   4
ATOM      4  C   UNL A   1      33.632  29.492  26.995  1.00  0.00     0.261 C 
BRANCH   4   5
ATOM      5  O   UNL A   1      33.199  29.266  25.644  1.00  0.00    -0.460 OA
BRANCH   5   6
ATOM      6  C   UNL A   1      32.133  28.455  25.492  1.00  0.00     0.338 C 
ATOM      7  O   UNL A   1      31.115  28.461  26.171  1.00  0.00    -0.246 OA
BRANCH   6   8
ATOM      8  C   UNL A   1      32.263  27.611  24.274  1.00  0.00     0.068 A 
ATOM      9  C   UNL A   1      31.320  27.538  23.216  1.00  0.00    -0.001 A 
ATOM     10  C   UNL A   1      31.665  26.727  22.110  1.00  0.00     0.048 A 
ATOM     11  C   UNL A   1      32.851  25.996  22.082  1.00  0.00     0.123 A 
ATOM     12  C   UNL A   1      33.454  26.855  24.229  1.00  0.00     0.019 A 
ATOM     13  F   UNL A   1      33.131  25.234  21.017  1.00  0.00    -0.207 F 
ATOM     14  C   UNL A   1      33.742  26.040  23.140  1.00  0.00     0.040 A 
BRANCH   9  15
ATOM     15  C   UNL A   1      30.007  28.227  23.205  1.00  0.00    -0.015 A 
ATOM     16  C   UNL A   1      28.680  30.284  23.277  1.00  0.00     0.041 A 
ATOM     17  C   UNL A   1      27.518  29.522  23.425  1.00  0.00     0.026 A 
ATOM     18  C   UNL A   1      29.903  29.627  23.116  1.00  0.00     0.034 A 
ATOM     19  C   UNL A   1      27.580  28.131  23.429  1.00  0.00     0.003 A 
ATOM     20  C   UNL A   1      28.815  27.491  23.342  1.00  0.00     0.009 A 
BRANCH  16  21
ATOM     21  N   UNL A   1      28.550  31.673  23.438  1.00  0.00    -0.326 N 
ATOM     22  C   UNL A   1      28.128  32.492  21.122  1.00  0.00     0.114 C 
ATOM     23  C   UNL A   1      28.526  32.709  22.553  1.00  0.00     0.221 C 
ATOM     24  O   UNL A   1      28.810  33.837  22.962  1.00  0.00    -0.275 OA
ATOM     25  H   UNL A   1      28.458  31.955  24.377  1.00  0.00     0.169 HD
ENDBRANCH  16  21
ENDBRANCH   9  15
ENDBRANCH   6   8
ENDBRANCH   5   6
ENDBRANCH   4   5
ENDBRANCH   3   4
ENDBRANCH   2   3
ENDBRANCH   1   2
BRANCH   1  26
ATOM     26  C   UNL A   1      34.824  32.231  30.334  1.00  0.00     0.261 C 
BRANCH  26  27
ATOM     27  O   UNL A   1      36.242  32.164  30.560  1.00  0.00    -0.460 OA
BRANCH  27  28
ATOM     28  C   UNL A   1      36.695  30.937  30.917  1.00  0.00     0.338 C 
ATOM     29  O   UNL A   1      36.046  30.028  31.415  1.00  0.00    -0.246 OA
BRANCH  28  30
ATOM     30  C   UNL A   1      38.097  30.758  30.498  1.00  0.00     0.060 A 
ATOM     31  C   UNL A   1      38.353  30.585  29.131  1.00  0.00     0.016 A 
ATOM     32  C   UNL A   1      39.128  30.643  31.431  1.00  0.00     0.016 A 
ATOM     33  C   UNL A   1      39.636  30.253  28.698  1.00  0.00     0.010 A 
ATOM     34  C   UNL A   1      40.414  30.307  30.993  1.00  0.00     0.010 A 
ATOM     35  C   UNL A   1      40.668  30.077  29.628  1.00  0.00    -0.014 A 
BRANCH  35  36
ATOM     36  C   UNL A   1      41.978  29.536  29.186  1.00  0.00     0.031 A 
ATOM     37  C   UNL A   1      43.161  30.462  29.087  1.00  0.00     0.074 A 
ATOM     38  C   UNL A   1      42.116  28.233  28.881  1.00  0.00     0.049 A 
ATOM     39  N   UNL A   1      44.379  30.204  28.687  1.00  0.00    -0.248 NA
ATOM     40  C   UNL A   1      42.944  31.862  29.491  1.00  0.00     0.031 C 
ATOM     41  C   UNL A   1      41.058  27.227  28.977  1.00  0.00     0.029 A 
ATOM     42  N   UNL A   1      43.201  27.533  28.415  1.00  0.00    -0.354 N 
ATOM     43  C   UNL A   1      45.070  31.408  28.775  1.00  0.00     0.074 A 
ATOM     44  C   UNL A   1      44.131  32.401  29.247  1.00  0.00     0.031 C 
ATOM     45  C   UNL A   1      41.536  26.046  28.551  1.00  0.00     0.029 A 
ATOM     46  C   UNL A   1      42.930  26.213  28.141  1.00  0.00     0.049 A 
ATOM     47  H   UNL A   1      44.090  27.937  28.291  1.00  0.00     0.167 HD
ATOM     48  C   UNL A   1      46.370  31.660  28.495  1.00  0.00     0.031 A 
ATOM     49  C   UNL A   1      43.709  25.254  27.605  1.00  0.00     0.031 A 
ATOM     50  C   UNL A   1      47.308  30.668  28.038  1.00  0.00     0.049 A 
ATOM     51  C   UNL A   1      45.142  25.572  27.261  1.00  0.00     0.074 A 
ATOM     52  C   UNL A   1      48.658  30.821  27.778  1.00  0.00     0.029 A 
ATOM     53  N   UNL A   1      46.994  29.346  27.766  1.00  0.00    -0.354 N 
ATOM     54  N   UNL A   1      45.792  26.703  27.405  1.00  0.00    -0.248 NA
ATOM     55  C   UNL A   1      45.951  24.481  26.697  1.00  0.00     0.031 C 
ATOM     56  C   UNL A   1      49.150  29.604  27.295  1.00  0.00     0.029 A 
ATOM     57  C   UNL A   1      48.118  28.680  27.308  1.00  0.00     0.049 A 
ATOM     58  H   UNL A   1      46.105  28.941  27.882  1.00  0.00     0.167 HD
ATOM     59  C   UNL A   1      47.092  26.450  26.977  1.00  0.00     0.074 A 
ATOM     60  C   UNL A   1      47.140  25.058  26.581  1.00  0.00     0.031 C 
ATOM     61  C   UNL A   1      48.152  27.293  26.920  1.00  0.00     0.031 A 
BRANCH  48  62
ATOM     62  C   UNL A   1      46.860  33.075  28.641  1.00  0.00    -0.014 A 
ATOM     63  C   UNL A   1      47.478  33.516  29.824  1.00  0.00     0.010 A 
ATOM     64  C   UNL A   1      46.764  33.955  27.547  1.00  0.00     0.010 A 
ATOM     65  C   UNL A   1      47.972  34.820  29.918  1.00  0.00     0.020 A 
ATOM     66  C   UNL A   1      47.276  35.251  27.629  1.00  0.00     0.020 A 
ATOM     67  C   UNL A   1      47.869  35.680  28.818  1.00  0.00     0.054 A 
BRANCH  67  68
ATOM     68  S   UNL A   1      48.562  37.351  28.950  1.00  0.00     0.124 S 
ATOM     69  O   UNL A   1      49.091  37.351  30.311  1.00  0.00    -0.237 OA
ATOM     70  O   UNL A   1      49.564  37.368  27.886  1.00  0.00    -0.237 OA
ATOM     71  O   UNL A   1      47.410  38.223  28.730  1.00  0.00    -0.744 OA
ENDBRANCH  67  68
ENDBRANCH  48  62
BRANCH  49  72
ATOM     72  C   UNL A   1      43.148  23.905  27.324  1.00  0.00    -0.014 A 
ATOM     73  C   UNL A   1      43.108  22.913  28.320  1.00  0.00     0.010 A 
ATOM     74  C   UNL A   1      42.671  23.599  26.036  1.00  0.00     0.010 A 
ATOM     75  C   UNL A   1      42.633  21.631  28.024  1.00  0.00     0.020 A 
ATOM     76  C   UNL A   1      42.171  22.327  25.743  1.00  0.00     0.020 A 
ATOM     77  C   UNL A   1      42.172  21.345  26.736  1.00  0.00     0.054 A 
BRANCH  77  78
ATOM     78  S   UNL A   1      41.544  19.681  26.373  1.00  0.00     0.124 S 
ATOM     79  O   UNL A   1      41.858  18.966  27.606  1.00  0.00    -0.237 OA
ATOM     80  O   UNL A   1      40.126  19.923  26.124  1.00  0.00    -0.237 OA
ATOM     81  O   UNL A   1      42.315  19.276  25.199  1.00  0.00    -0.744 OA
ENDBRANCH  77  78
ENDBRANCH  49  72
BRANCH  61  82
ATOM     82  C   UNL A   1      49.466  26.732  26.446  1.00  0.00    -0.014 A 
ATOM     83  C   UNL A   1      49.885  26.886  25.112  1.00  0.00     0.010 A 
ATOM     84  C   UNL A   1      50.321  26.095  27.364  1.00  0.00     0.010 A 
ATOM     85  C   UNL A   1      51.122  26.385  24.700  1.00  0.00     0.020 A 
ATOM     86  C   UNL A   1      51.569  25.616  26.961  1.00  0.00     0.020 A 
ATOM     87  C   UNL A   1      51.957  25.752  25.627  1.00  0.00     0.054 A 
BRANCH  87  88
ATOM     88  S   UNL A   1      53.579  25.152  25.079  1.00  0.00     0.124 S 
ATOM     89  O   UNL A   1      53.629  25.630  23.700  1.00  0.00    -0.237 OA
ATOM     90  O   UNL A   1      54.496  25.809  26.006  1.00  0.00    -0.237 OA
ATOM     91  O   UNL A   1      53.482  23.702  25.233  1.00  0.00    -0.744 OA
ENDBRANCH  87  88
ENDBRANCH  61  82
ENDBRANCH  35  36
ENDBRANCH  28  30
ENDBRANCH  27  28
ENDBRANCH  26  27
ENDBRANCH   1  26
TORSDOF 19
ENDMDL
MODEL 2
REMARK VINA RESULT:     -10.8      2.421      8.606
REMARK SMILES CC(=O)Nc1cccc(-c2cc(F)ccc2C(=O)OCCOCCOC(=O)c2ccc(-c3c4nc(c(-c5ccc(S(=O)(=O)[O-])cc5)c5ccc([nH]5)c(-c5ccc(S(=O)(=O)[O-])cc5)c5nc(c(-c6ccc(S(=O)(=O)[O-])cc6)c6ccc3[nH]6)C=C5)C=C4)cc2)c1
REMARK SMILES IDX 23 1 22 2 21 3 20 4 19 5 17 6 18 7 16 8 10 9 11 10 12 11
REMARK SMILES IDX 15 12 13 13 14 14 9 15 5 16 6 17 88 18 7 19 8 20 4 21 1 22
REMARK SMILES IDX 2 23 3 24 24 26 25 27 26 28 27 29 28 30 29 31 87 32 30 33
REMARK SMILES IDX 86 34 31 35 32 36 33 37 80 38 34 39 85 40 79 41 81 42 35 43
REMARK SMILES IDX 84 44 78 45 77 46 36 48 66 49 47 50 65 51 48 52 51 53 64 54
REMARK SMILES IDX 82 55 49 56 50 57 63 59 83 60 52 61 37 62 38 63 46 64 39 65
REMARK SMILES IDX 45 66 40 67 41 68 42 69 43 70 44 71 67 72 68 73 76 74 69 75
REMARK SMILES IDX 75 76 70 77 71 78 72 79 73 80 74 81 53 82 54 83 62 84 55 85
REMARK SMILES IDX 61 86 56 87 57 88 58 89 59 90 60 91
REMARK H PARENT 4 25 81 47 51 58
REMARK Flexibility Score: inf
ROOT
ATOM      1  C   UNL A   1      38.789  21.959  26.107  1.00  0.00     0.202 C 
ENDROOT
BRANCH   1   2
ATOM      2  O   UNL A   1      37.873  22.546  25.183  1.00  0.00    -0.374 OA
BRANCH   2   3
ATOM      3  C   UNL A   1      36.751  23.249  25.723  1.00  0.00     0.202 C 
BRANCH   3   4
ATOM      4  C   UNL A   1      35.849  23.938  24.700  1.00  0.00     0.261 C 
BRANCH   4   5
ATOM      5  O   UNL A   1      34.895  24.775  25.375  1.00  0.00    -0.460 OA
BRANCH   5   6
ATOM      6  C   UNL A   1      33.772  25.065  24.687  1.00  0.00     0.338 C 
ATOM      7  O   UNL A   1      33.713  25.562  23.571  1.00  0.00    -0.246 OA
BRANCH   6   8
ATOM      8  C   UNL A   1      32.561  24.565  25.393  1.00  0.00     0.068 A 
ATOM      9  C   UNL A   1      31.471  25.363  25.827  1.00  0.00    -0.001 A 
ATOM     10  C   UNL A   1      30.380  24.684  26.418  1.00  0.00     0.048 A 
ATOM     11  C   UNL A   1      30.396  23.304  26.609  1.00  0.00     0.123 A 
ATOM     12  C   UNL A   1      32.560  23.170  25.605  1.00  0.00     0.019 A 
ATOM     13  F   UNL A   1      29.344  22.705  27.181  1.00  0.00    -0.207 F 
ATOM     14  C   UNL A   1      31.485  22.542  26.222  1.00  0.00     0.040 A 
BRANCH   9  15
ATOM     15  C   UNL A   1      31.411  26.841  25.725  1.00  0.00    -0.015 A 
ATOM     16  C   UNL A   1      31.038  28.872  24.407  1.00  0.00     0.041 A 
ATOM     17  C   UNL A   1      31.531  29.641  25.465  1.00  0.00     0.026 A 
ATOM     18  C   UNL A   1      30.936  27.488  24.569  1.00  0.00     0.034 A 
ATOM     19  C   UNL A   1      31.928  29.036  26.655  1.00  0.00     0.003 A 
ATOM     20  C   UNL A   1      31.889  27.647  26.774  1.00  0.00     0.009 A 
BRANCH  16  21
ATOM     21  N   UNL A   1      30.806  29.540  23.194  1.00  0.00    -0.326 N 
ATOM     22  C   UNL A   1      28.321  29.633  23.044  1.00  0.00     0.114 C 
ATOM     23  C   UNL A   1      29.689  29.718  22.434  1.00  0.00     0.221 C 
ATOM     24  O   UNL A   1      29.828  29.983  21.239  1.00  0.00    -0.275 OA
ATOM     25  H   UNL A   1      31.611  29.963  22.816  1.00  0.00     0.169 HD
ENDBRANCH  16  21
ENDBRANCH   9  15
ENDBRANCH   6   8
ENDBRANCH   5   6
ENDBRANCH   4   5
ENDBRANCH   3   4
ENDBRANCH   2   3
ENDBRANCH   1   2
BRANCH   1  26
ATOM     26  C   UNL A   1      39.231  20.517  25.827  1.00  0.00     0.261 C 
BRANCH  26  27
ATOM     27  O   UNL A   1      40.154  19.995  26.798  1.00  0.00    -0.460 OA
BRANCH  27  28
ATOM     28  C   UNL A   1      41.416  19.821  26.334  1.00  0.00     0.338 C 
ATOM     29  O   UNL A   1      41.852  18.850  25.731  1.00  0.00    -0.246 OA
BRANCH  28  30
ATOM     30  C   UNL A   1      42.214  21.045  26.526  1.00  0.00     0.060 A 
ATOM     31  C   UNL A   1      42.361  21.531  27.832  1.00  0.00     0.016 A 
ATOM     32  C   UNL A   1      42.711  21.770  25.442  1.00  0.00     0.016 A 
ATOM     33  C   UNL A   1      42.967  22.766  28.054  1.00  0.00     0.010 A 
ATOM     34  C   UNL A   1      43.316  23.011  25.667  1.00  0.00     0.010 A 
ATOM     35  C   UNL A   1      43.418  23.532  26.971  1.00  0.00    -0.014 A 
BRANCH  35  36
ATOM     36  C   UNL A   1      43.884  24.925  27.191  1.00  0.00     0.031 A 
ATOM     37  C   UNL A   1      45.325  25.269  26.926  1.00  0.00     0.074 A 
ATOM     38  C   UNL A   1      43.032  25.874  27.619  1.00  0.00     0.049 A 
ATOM     39  N   UNL A   1      45.944  26.409  27.090  1.00  0.00    -0.248 NA
ATOM     40  C   UNL A   1      46.181  24.189  26.408  1.00  0.00     0.031 C 
ATOM     41  C   UNL A   1      41.605  25.676  27.871  1.00  0.00     0.029 A 
ATOM     42  N   UNL A   1      43.246  27.194  27.929  1.00  0.00    -0.354 N 
ATOM     43  C   UNL A   1      47.262  26.183  26.713  1.00  0.00     0.074 A 
ATOM     44  C   UNL A   1      47.360  24.791  26.329  1.00  0.00     0.031 C 
ATOM     45  C   UNL A   1      41.077  26.824  28.329  1.00  0.00     0.029 A 
ATOM     46  C   UNL A   1      42.130  27.835  28.414  1.00  0.00     0.049 A 
ATOM     47  H   UNL A   1      44.116  27.640  27.814  1.00  0.00     0.167 HD
ATOM     48  C   UNL A   1      48.296  27.057  26.682  1.00  0.00     0.031 A 
ATOM     49  C   UNL A   1      41.979  29.086  28.890  1.00  0.00     0.031 A 
ATOM     50  C   UNL A   1      48.196  28.444  27.050  1.00  0.00     0.049 A 
ATOM     51  C   UNL A   1      43.156  30.027  28.884  1.00  0.00     0.074 A 
ATOM     52  C   UNL A   1      49.178  29.417  27.001  1.00  0.00     0.029 A 
ATOM     53  N   UNL A   1      47.053  29.053  27.542  1.00  0.00    -0.354 N 
ATOM     54  N   UNL A   1      44.383  29.809  28.469  1.00  0.00    -0.248 NA
ATOM     55  C   UNL A   1      42.927  31.386  29.396  1.00  0.00     0.031 C 
ATOM     56  C   UNL A   1      48.645  30.603  27.517  1.00  0.00     0.029 A 
ATOM     57  C   UNL A   1      47.314  30.381  27.834  1.00  0.00     0.049 A 
ATOM     58  H   UNL A   1      46.184  28.608  27.666  1.00  0.00     0.167 HD
ATOM     59  C   UNL A   1      45.060  31.012  28.643  1.00  0.00     0.074 A 
ATOM     60  C   UNL A   1      44.107  31.956  29.189  1.00  0.00     0.031 C 
ATOM     61  C   UNL A   1      46.355  31.310  28.373  1.00  0.00     0.031 A 
BRANCH  48  62
ATOM     62  C   UNL A   1      49.645  26.536  26.264  1.00  0.00    -0.014 A 
ATOM     63  C   UNL A   1      50.122  26.712  24.953  1.00  0.00     0.010 A 
ATOM     64  C   UNL A   1      50.476  25.927  27.221  1.00  0.00     0.010 A 
ATOM     65  C   UNL A   1      51.399  26.266  24.601  1.00  0.00     0.020 A 
ATOM     66  C   UNL A   1      51.762  25.500  26.879  1.00  0.00     0.020 A 
ATOM     67  C   UNL A   1      52.212  25.664  25.568  1.00  0.00     0.054 A 
BRANCH  67  68
ATOM     68  S   UNL A   1      53.884  25.140  25.098  1.00  0.00     0.124 S 
ATOM     69  O   UNL A   1      54.666  25.550  26.261  1.00  0.00    -0.237 OA
ATOM     70  O   UNL A   1      53.730  23.698  24.921  1.00  0.00    -0.237 OA
ATOM     71  O   UNL A   1      54.151  25.891  23.873  1.00  0.00    -0.744 OA
ENDBRANCH  67  68
ENDBRANCH  48  62
BRANCH  49  72
ATOM     72  C   UNL A   1      40.669  29.521  29.445  1.00  0.00    -0.014 A 
ATOM     73  C   UNL A   1      39.649  30.007  28.606  1.00  0.00     0.010 A 
ATOM     74  C   UNL A   1      40.447  29.475  30.834  1.00  0.00     0.010 A 
ATOM     75  C   UNL A   1      38.445  30.468  29.150  1.00  0.00     0.020 A 
ATOM     76  C   UNL A   1      39.236  29.910  31.378  1.00  0.00     0.020 A 
ATOM     77  C   UNL A   1      38.249  30.422  30.533  1.00  0.00     0.054 A 
BRANCH  77  78
ATOM     78  S   UNL A   1      36.675  31.009  31.220  1.00  0.00     0.124 S 
ATOM     79  O   UNL A   1      36.341  29.944  32.161  1.00  0.00    -0.237 OA
ATOM     80  O   UNL A   1      37.045  32.289  31.817  1.00  0.00    -0.237 OA
ATOM     81  O   UNL A   1      35.807  31.104  30.048  1.00  0.00    -0.744 OA
ENDBRANCH  77  78
ENDBRANCH  49  72
BRANCH  61  82
ATOM     82  C   UNL A   1      46.814  32.721  28.627  1.00  0.00    -0.014 A 
ATOM     83  C   UNL A   1      47.392  33.089  29.855  1.00  0.00     0.010 A 
ATOM     84  C   UNL A   1      46.722  33.677  27.598  1.00  0.00     0.010 A 
ATOM     85  C   UNL A   1      47.841  34.396  30.060  1.00  0.00     0.020 A 
ATOM     86  C   UNL A   1      47.194  34.977  27.790  1.00  0.00     0.020 A 
ATOM     87  C   UNL A   1      47.739  35.333  29.026  1.00  0.00     0.054 A 
BRANCH  87  88
ATOM     88  S   UNL A   1      48.371  37.011  29.299  1.00  0.00     0.124 S 
ATOM     89  O   UNL A   1      47.140  37.794  29.353  1.00  0.00    -0.237 OA
ATOM     90  O   UNL A   1      49.091  36.883  30.564  1.00  0.00    -0.237 OA
ATOM     91  O   UNL A   1      49.216  37.257  28.132  1.00  0.00    -0.744 OA
ENDBRANCH  87  88
ENDBRANCH  61  82
ENDBRANCH  35  36
ENDBRANCH  28  30
ENDBRANCH  27  28
ENDBRANCH  26  27
ENDBRANCH   1  26
TORSDOF 19
ENDMDL
MODEL 3
REMARK VINA RESULT:     -10.8      4.152      9.769
REMARK SMILES CC(=O)Nc1cccc(-c2cc(F)ccc2C(=O)OCCOCCOC(=O)c2ccc(-c3c4nc(c(-c5ccc(S(=O)(=O)[O-])cc5)c5ccc([nH]5)c(-c5ccc(S(=O)(=O)[O-])cc5)c5nc(c(-c6ccc(S(=O)(=O)[O-])cc6)c6ccc3[nH]6)C=C5)C=C4)cc2)c1
REMARK SMILES IDX 23 1 22 2 21 3 20 4 19 5 17 6 18 7 16 8 10 9 11 10 12 11
REMARK SMILES IDX 15 12 13 13 14 14 9 15 5 16 6 17 88 18 7 19 8 20 4 21 1 22
REMARK SMILES IDX 2 23 3 24 24 26 25 27 26 28 27 29 28 30 29 31 87 32 30 33
REMARK SMILES IDX 86 34 31 35 32 36 33 37 80 38 34 39 85 40 79 41 81 42 35 43
REMARK SMILES IDX 84 44 78 45 77 46 36 48 66 49 47 50 65 51 48 52 51 53 64 54
REMARK SMILES IDX 82 55 49 56 50 57 63 59 83 60 52 61 37 62 38 63 46 64 39 65
REMARK SMILES IDX 45 66 40 67 41 68 42 69 43 70 44 71 67 72 68 73 76 74 69 75
REMARK SMILES IDX 75 76 70 77 71 78 72 79 73 80 74 81 53 82 54 83 62 84 55 85
REMARK SMILES IDX 61 86 56 87 57 88 58 89 59 90 60 91
REMARK H PARENT 4 25 81 47 51 58
REMARK Flexibility Score: inf
ROOT
ATOM      1  C   UNL A   1      35.951  23.771  24.942  1.00  0.00     0.202 C 
ENDROOT
BRANCH   1   2
ATOM      2  O   UNL A   1      34.813  23.358  24.186  1.00  0.00    -0.374 OA
BRANCH   2   3
ATOM      3  C   UNL A   1      34.327  24.253  23.183  1.00  0.00     0.202 C 
BRANCH   3   4
ATOM      4  C   UNL A   1      32.812  24.449  23.151  1.00  0.00     0.261 C 
BRANCH   4   5
ATOM      5  O   UNL A   1      32.488  25.812  23.473  1.00  0.00    -0.460 OA
BRANCH   5   6
ATOM      6  C   UNL A   1      32.067  26.038  24.734  1.00  0.00     0.338 C 
ATOM      7  O   UNL A   1      31.451  25.255  25.444  1.00  0.00    -0.246 OA
BRANCH   6   8
ATOM      8  C   UNL A   1      32.573  27.338  25.248  1.00  0.00     0.068 A 
ATOM      9  C   UNL A   1      31.945  28.598  25.068  1.00  0.00    -0.001 A 
ATOM     10  C   UNL A   1      32.553  29.708  25.699  1.00  0.00     0.048 A 
ATOM     11  C   UNL A   1      33.738  29.581  26.421  1.00  0.00     0.123 A 
ATOM     12  C   UNL A   1      33.778  27.233  25.977  1.00  0.00     0.019 A 
ATOM     13  F   UNL A   1      34.281  30.662  26.994  1.00  0.00    -0.207 F 
ATOM     14  C   UNL A   1      34.365  28.354  26.552  1.00  0.00     0.040 A 
BRANCH   9  15
ATOM     15  C   UNL A   1      30.727  28.827  24.255  1.00  0.00    -0.015 A 
ATOM     16  C   UNL A   1      29.056  30.343  23.301  1.00  0.00     0.041 A 
ATOM     17  C   UNL A   1      28.286  29.242  22.916  1.00  0.00     0.026 A 
ATOM     18  C   UNL A   1      30.290  30.121  23.918  1.00  0.00     0.034 A 
ATOM     19  C   UNL A   1      28.734  27.946  23.159  1.00  0.00     0.003 A 
ATOM     20  C   UNL A   1      29.932  27.742  23.841  1.00  0.00     0.009 A 
BRANCH  16  21
ATOM     21  N   UNL A   1      28.464  31.609  23.160  1.00  0.00    -0.326 N 
ATOM     22  C   UNL A   1      28.238  31.875  20.693  1.00  0.00     0.114 C 
ATOM     23  C   UNL A   1      28.276  32.428  22.087  1.00  0.00     0.221 C 
ATOM     24  O   UNL A   1      28.107  33.632  22.291  1.00  0.00    -0.275 OA
ATOM     25  H   UNL A   1      28.117  31.978  24.004  1.00  0.00     0.169 HD
ENDBRANCH  16  21
ENDBRANCH   9  15
ENDBRANCH   6   8
ENDBRANCH   5   6
ENDBRANCH   4   5
ENDBRANCH   3   4
ENDBRANCH   2   3
ENDBRANCH   1   2
BRANCH   1  26
ATOM     26  C   UNL A   1      36.762  22.671  25.638  1.00  0.00     0.261 C 
BRANCH  26  27
ATOM     27  O   UNL A   1      38.152  22.655  25.273  1.00  0.00    -0.460 OA
BRANCH  27  28
ATOM     28  C   UNL A   1      39.008  22.656  26.324  1.00  0.00     0.338 C 
ATOM     29  O   UNL A   1      39.682  21.719  26.726  1.00  0.00    -0.246 OA
BRANCH  28  30
ATOM     30  C   UNL A   1      39.147  24.014  26.880  1.00  0.00     0.060 A 
ATOM     31  C   UNL A   1      39.910  24.941  26.159  1.00  0.00     0.016 A 
ATOM     32  C   UNL A   1      38.641  24.342  28.139  1.00  0.00     0.016 A 
ATOM     33  C   UNL A   1      40.207  26.185  26.714  1.00  0.00     0.010 A 
ATOM     34  C   UNL A   1      38.943  25.590  28.696  1.00  0.00     0.010 A 
ATOM     35  C   UNL A   1      39.755  26.506  28.000  1.00  0.00    -0.014 A 
BRANCH  35  36
ATOM     36  C   UNL A   1      40.232  27.745  28.665  1.00  0.00     0.031 A 
ATOM     37  C   UNL A   1      41.610  27.771  29.272  1.00  0.00     0.074 A 
ATOM     38  C   UNL A   1      39.450  28.837  28.725  1.00  0.00     0.049 A 
ATOM     39  N   UNL A   1      42.204  28.732  29.930  1.00  0.00    -0.248 NA
ATOM     40  C   UNL A   1      42.426  26.554  29.117  1.00  0.00     0.031 C 
ATOM     41  C   UNL A   1      38.114  28.953  28.139  1.00  0.00     0.029 A 
ATOM     42  N   UNL A   1      39.660  30.058  29.318  1.00  0.00    -0.354 N 
ATOM     43  C   UNL A   1      43.453  28.235  30.282  1.00  0.00     0.074 A 
ATOM     44  C   UNL A   1      43.526  26.880  29.782  1.00  0.00     0.031 C 
ATOM     45  C   UNL A   1      37.610  30.164  28.431  1.00  0.00     0.029 A 
ATOM     46  C   UNL A   1      38.581  30.906  29.233  1.00  0.00     0.049 A 
ATOM     47  H   UNL A   1      40.505  30.302  29.762  1.00  0.00     0.167 HD
ATOM     48  C   UNL A   1      44.452  28.855  30.954  1.00  0.00     0.031 A 
ATOM     49  C   UNL A   1      38.392  32.133  29.757  1.00  0.00     0.031 A 
ATOM     50  C   UNL A   1      44.384  30.208  31.440  1.00  0.00     0.049 A 
ATOM     51  C   UNL A   1      39.504  32.784  30.539  1.00  0.00     0.074 A 
ATOM     52  C   UNL A   1      45.367  30.937  32.086  1.00  0.00     0.029 A 
ATOM     53  N   UNL A   1      43.275  31.031  31.340  1.00  0.00    -0.354 N 
ATOM     54  N   UNL A   1      40.700  32.318  30.812  1.00  0.00    -0.248 NA
ATOM     55  C   UNL A   1      39.246  34.131  31.069  1.00  0.00     0.031 C 
ATOM     56  C   UNL A   1      44.832  32.183  32.429  1.00  0.00     0.029 A 
ATOM     57  C   UNL A   1      43.535  32.249  31.945  1.00  0.00     0.049 A 
ATOM     58  H   UNL A   1      42.426  30.787  30.905  1.00  0.00     0.167 HD
ATOM     59  C   UNL A   1      41.346  33.327  31.520  1.00  0.00     0.074 A 
ATOM     60  C   UNL A   1      40.415  34.431  31.623  1.00  0.00     0.031 C 
ATOM     61  C   UNL A   1      42.600  33.340  32.036  1.00  0.00     0.031 A 
BRANCH  48  62
ATOM     62  C   UNL A   1      45.702  28.068  31.239  1.00  0.00    -0.014 A 
ATOM     63  C   UNL A   1      46.765  28.025  30.319  1.00  0.00     0.010 A 
ATOM     64  C   UNL A   1      45.843  27.421  32.481  1.00  0.00     0.010 A 
ATOM     65  C   UNL A   1      47.938  27.330  30.629  1.00  0.00     0.020 A 
ATOM     66  C   UNL A   1      47.021  26.745  32.802  1.00  0.00     0.020 A 
ATOM     67  C   UNL A   1      48.059  26.695  31.869  1.00  0.00     0.054 A 
BRANCH  67  68
ATOM     68  S   UNL A   1      49.611  25.843  32.265  1.00  0.00     0.124 S 
ATOM     69  O   UNL A   1      49.162  24.826  33.213  1.00  0.00    -0.237 OA
ATOM     70  O   UNL A   1      50.042  25.341  30.962  1.00  0.00    -0.237 OA
ATOM     71  O   UNL A   1      50.450  26.896  32.832  1.00  0.00    -0.744 OA
ENDBRANCH  67  68
ENDBRANCH  48  62
BRANCH  49  72
ATOM     72  C   UNL A   1      37.083  32.821  29.592  1.00  0.00    -0.014 A 
ATOM     73  C   UNL A   1      36.743  33.456  28.384  1.00  0.00     0.010 A 
ATOM     74  C   UNL A   1      36.174  32.865  30.666  1.00  0.00     0.010 A 
ATOM     75  C   UNL A   1      35.534  34.150  28.265  1.00  0.00     0.020 A 
ATOM     76  C   UNL A   1      34.954  33.535  30.542  1.00  0.00     0.020 A 
ATOM     77  C   UNL A   1      34.650  34.190  29.346  1.00  0.00     0.054 A 
BRANCH  77  78
ATOM     78  S   UNL A   1      33.079  35.081  29.170  1.00  0.00     0.124 S 
ATOM     79  O   UNL A   1      32.538  35.009  30.524  1.00  0.00    -0.237 OA
ATOM     80  O   UNL A   1      33.510  36.404  28.729  1.00  0.00    -0.237 OA
ATOM     81  O   UNL A   1      32.358  34.301  28.165  1.00  0.00    -0.744 OA
ENDBRANCH  77  78
ENDBRANCH  49  72
BRANCH  61  82
ATOM     82  C   UNL A   1      43.056  34.597  32.729  1.00  0.00    -0.014 A 
ATOM     83  C   UNL A   1      43.693  35.630  32.020  1.00  0.00     0.010 A 
ATOM     84  C   UNL A   1      42.787  34.770  34.100  1.00  0.00     0.010 A 
ATOM     85  C   UNL A   1      44.080  36.801  32.675  1.00  0.00     0.020 A 
ATOM     86  C   UNL A   1      43.149  35.950  34.753  1.00  0.00     0.020 A 
ATOM     87  C   UNL A   1      43.806  36.954  34.039  1.00  0.00     0.054 A 
BRANCH  87  88
ATOM     88  S   UNL A   1      44.276  38.503  34.859  1.00  0.00     0.124 S 
ATOM     89  O   UNL A   1      43.408  39.471  34.197  1.00  0.00    -0.237 OA
ATOM     90  O   UNL A   1      43.965  38.233  36.260  1.00  0.00    -0.237 OA
ATOM     91  O   UNL A   1      45.700  38.634  34.560  1.00  0.00    -0.744 OA
ENDBRANCH  87  88
ENDBRANCH  61  82
ENDBRANCH  35  36
ENDBRANCH  28  30
ENDBRANCH  27  28
ENDBRANCH  26  27
ENDBRANCH   1  26
TORSDOF 19
ENDMDL
