MODEL 1
REMARK VINA RESULT:      -9.2      0.000      0.000
REMARK SMILES COc1cc(Br)ccc1[C@H]([NH3+])C(=O)OCCOCCOC(=O)c1ccc(-c2c3nc(c(-c4ccc(S(=O)(=O)[O-])cc4)c4ccc([nH]4)c(-c4ccc(S(=O)(=O)[O-])cc4)c4nc(c(-c5ccc(S(=O)(=O)[O-])cc5)c5ccc2[nH]5)C=C4)C=C3)cc1
REMARK SMILES IDX 18 1 17 2 16 3 15 4 14 5 12 6 13 7 10 8 9 9 3 10 4 11 5 12
REMARK SMILES IDX 8 13 6 14 7 15 2 16 1 17 11 18 19 22 20 23 21 24 22 25 23 26
REMARK SMILES IDX 24 27 82 28 25 29 81 30 26 31 27 32 28 33 75 34 29 35 80 36
REMARK SMILES IDX 74 37 76 38 30 39 79 40 73 41 72 42 31 44 61 45 42 46 60 47
REMARK SMILES IDX 43 48 46 49 59 50 77 51 44 52 45 53 58 55 78 56 47 57 32 58
REMARK SMILES IDX 33 59 41 60 34 61 40 62 35 63 36 64 37 65 38 66 39 67 62 68
REMARK SMILES IDX 63 69 71 70 64 71 70 72 65 73 66 74 67 75 68 76 69 77 48 78
REMARK SMILES IDX 49 79 57 80 50 81 56 82 51 83 52 84 53 85 54 86 55 87
REMARK H PARENT 11 19 11 20 11 21 76 43 46 54
REMARK Flexibility Score: inf
ROOT
ATOM      1  C   UNL A   1      33.882  30.468  26.966  1.00  0.00     0.202 C 
ENDROOT
BRANCH   1   2
ATOM      2  O   UNL A   1      33.502  29.115  26.718  1.00  0.00    -0.374 OA
BRANCH   2   3
ATOM      3  C   UNL A   1      32.664  28.483  27.685  1.00  0.00     0.202 C 
BRANCH   3   4
ATOM      4  C   UNL A   1      31.469  27.688  27.150  1.00  0.00     0.261 C 
BRANCH   4   5
ATOM      5  O   UNL A   1      31.869  26.741  26.147  1.00  0.00    -0.459 OA
BRANCH   5   6
ATOM      6  C   UNL A   1      30.902  25.863  25.751  1.00  0.00     0.369 C 
ATOM      7  O   UNL A   1      30.195  25.207  26.513  1.00  0.00    -0.245 OA
BRANCH   6   8
ATOM      8  C   UNL A   1      30.804  25.732  24.217  1.00  0.00     0.326 C 
BRANCH   8   9
ATOM      9  C   UNL A   1      30.291  27.028  23.614  1.00  0.00     0.063 A 
ATOM     10  C   UNL A   1      31.083  27.997  22.973  1.00  0.00     0.129 A 
ATOM     11  C   UNL A   1      30.482  29.088  22.330  1.00  0.00     0.062 A 
ATOM     12  C   UNL A   1      29.096  29.237  22.356  1.00  0.00     0.021 A 
ATOM     13  C   UNL A   1      28.891  27.216  23.635  1.00  0.00     0.015 A 
ATOM     14  Br  UNL A   1      28.291  30.699  21.470  1.00  0.00    -0.051 Br
ATOM     15  C   UNL A   1      28.297  28.311  23.013  1.00  0.00     0.016 A 
BRANCH  10  16
ATOM     16  O   UNL A   1      32.440  27.809  22.910  1.00  0.00    -0.496 OA
ATOM     17  C   UNL A   1      33.187  29.024  23.021  1.00  0.00     0.278 C 
ENDBRANCH  10  16
ENDBRANCH   8   9
BRANCH   8  18
ATOM     18  N   UNL A   1      30.105  24.496  23.793  1.00  0.00    -0.342 N 
ATOM     19  H   UNL A   1      29.188  24.736  23.416  1.00  0.00     0.345 HD
ATOM     20  H   UNL A   1      29.991  23.877  24.596  1.00  0.00     0.345 HD
ATOM     21  H   UNL A   1      30.655  24.023  23.076  1.00  0.00     0.345 HD
ENDBRANCH   8  18
ENDBRANCH   6   8
ENDBRANCH   5   6
ENDBRANCH   4   5
ENDBRANCH   3   4
ENDBRANCH   2   3
ENDBRANCH   1   2
BRANCH   1  22
ATOM     22  C   UNL A   1      34.868  30.726  28.112  1.00  0.00     0.261 C 
BRANCH  22  23
ATOM     23  O   UNL A   1      36.186  30.211  27.851  1.00  0.00    -0.460 OA
BRANCH  23  24
ATOM     24  C   UNL A   1      36.892  29.885  28.959  1.00  0.00     0.338 C 
ATOM     25  O   UNL A   1      36.492  29.884  30.116  1.00  0.00    -0.246 OA
BRANCH  24  26
ATOM     26  C   UNL A   1      38.211  29.345  28.583  1.00  0.00     0.060 A 
ATOM     27  C   UNL A   1      39.022  28.841  29.609  1.00  0.00     0.016 A 
ATOM     28  C   UNL A   1      38.684  29.407  27.270  1.00  0.00     0.016 A 
ATOM     29  C   UNL A   1      40.333  28.453  29.338  1.00  0.00     0.010 A 
ATOM     30  C   UNL A   1      40.003  29.027  27.002  1.00  0.00     0.010 A 
ATOM     31  C   UNL A   1      40.845  28.588  28.041  1.00  0.00    -0.014 A 
BRANCH  31  32
ATOM     32  C   UNL A   1      42.301  28.443  27.806  1.00  0.00     0.031 A 
ATOM     33  C   UNL A   1      43.198  29.619  28.089  1.00  0.00     0.074 A 
ATOM     34  C   UNL A   1      42.822  27.284  27.367  1.00  0.00     0.049 A 
ATOM     35  N   UNL A   1      44.484  29.746  27.892  1.00  0.00    -0.248 NA
ATOM     36  C   UNL A   1      42.556  30.810  28.671  1.00  0.00     0.031 C 
ATOM     37  C   UNL A   1      42.066  26.058  27.113  1.00  0.00     0.029 A 
ATOM     38  N   UNL A   1      44.116  26.954  27.050  1.00  0.00    -0.354 N 
ATOM     39  C   UNL A   1      44.804  31.033  28.312  1.00  0.00     0.074 A 
ATOM     40  C   UNL A   1      43.574  31.654  28.754  1.00  0.00     0.031 C 
ATOM     41  C   UNL A   1      42.910  25.111  26.666  1.00  0.00     0.029 A 
ATOM     42  C   UNL A   1      44.255  25.675  26.567  1.00  0.00     0.049 A 
ATOM     43  H   UNL A   1      44.872  27.575  27.158  1.00  0.00     0.167 HD
ATOM     44  C   UNL A   1      46.013  31.643  28.329  1.00  0.00     0.031 A 
ATOM     45  C   UNL A   1      45.340  25.041  26.078  1.00  0.00     0.031 A 
ATOM     46  C   UNL A   1      47.232  31.026  27.880  1.00  0.00     0.049 A 
ATOM     47  C   UNL A   1      46.661  25.765  26.035  1.00  0.00     0.074 A 
ATOM     48  C   UNL A   1      48.509  31.559  27.857  1.00  0.00     0.029 A 
ATOM     49  N   UNL A   1      47.324  29.739  27.371  1.00  0.00    -0.354 N 
ATOM     50  N   UNL A   1      46.948  26.981  26.435  1.00  0.00    -0.248 NA
ATOM     51  C   UNL A   1      47.805  25.029  25.478  1.00  0.00     0.031 C 
ATOM     52  C   UNL A   1      49.365  30.611  27.287  1.00  0.00     0.029 A 
ATOM     53  C   UNL A   1      48.634  29.467  27.012  1.00  0.00     0.049 A 
ATOM     54  H   UNL A   1      46.571  29.112  27.278  1.00  0.00     0.167 HD
ATOM     55  C   UNL A   1      48.312  27.142  26.212  1.00  0.00     0.074 A 
ATOM     56  C   UNL A   1      48.793  25.898  25.645  1.00  0.00     0.031 C 
ATOM     57  C   UNL A   1      49.097  28.220  26.459  1.00  0.00     0.031 A 
BRANCH  44  58
ATOM     58  C   UNL A   1      46.068  33.065  28.817  1.00  0.00    -0.014 A 
ATOM     59  C   UNL A   1      45.892  34.148  27.935  1.00  0.00     0.010 A 
ATOM     60  C   UNL A   1      46.265  33.322  30.185  1.00  0.00     0.010 A 
ATOM     61  C   UNL A   1      45.949  35.462  28.409  1.00  0.00     0.020 A 
ATOM     62  C   UNL A   1      46.296  34.634  30.667  1.00  0.00     0.020 A 
ATOM     63  C   UNL A   1      46.155  35.696  29.772  1.00  0.00     0.054 A 
BRANCH  63  64
ATOM     64  S   UNL A   1      46.202  37.410  30.365  1.00  0.00     0.124 S 
ATOM     65  O   UNL A   1      44.809  37.635  30.745  1.00  0.00    -0.237 OA
ATOM     66  O   UNL A   1      47.151  37.340  31.474  1.00  0.00    -0.237 OA
ATOM     67  O   UNL A   1      46.660  38.167  29.203  1.00  0.00    -0.744 OA
ENDBRANCH  63  64
ENDBRANCH  44  58
BRANCH  45  68
ATOM     68  C   UNL A   1      45.218  23.650  25.562  1.00  0.00    -0.014 A 
ATOM     69  C   UNL A   1      45.661  22.558  26.328  1.00  0.00     0.010 A 
ATOM     70  C   UNL A   1      44.658  23.412  24.293  1.00  0.00     0.010 A 
ATOM     71  C   UNL A   1      45.563  21.256  25.828  1.00  0.00     0.020 A 
ATOM     72  C   UNL A   1      44.534  22.110  23.800  1.00  0.00     0.020 A 
ATOM     73  C   UNL A   1      44.999  21.041  24.567  1.00  0.00     0.054 A 
BRANCH  73  74
ATOM     74  S   UNL A   1      44.838  19.338  23.957  1.00  0.00     0.124 S 
ATOM     75  O   UNL A   1      44.444  19.552  22.568  1.00  0.00    -0.237 OA
ATOM     76  O   UNL A   1      46.182  18.802  24.158  1.00  0.00    -0.237 OA
ATOM     77  O   UNL A   1      43.809  18.763  24.819  1.00  0.00    -0.744 OA
ENDBRANCH  73  74
ENDBRANCH  45  68
BRANCH  57  78
ATOM     78  C   UNL A   1      50.570  28.094  26.171  1.00  0.00    -0.014 A 
ATOM     79  C   UNL A   1      51.089  28.340  24.888  1.00  0.00     0.010 A 
ATOM     80  C   UNL A   1      51.454  27.794  27.224  1.00  0.00     0.010 A 
ATOM     81  C   UNL A   1      52.467  28.265  24.659  1.00  0.00     0.020 A 
ATOM     82  C   UNL A   1      52.832  27.744  27.005  1.00  0.00     0.020 A 
ATOM     83  C   UNL A   1      53.329  27.969  25.720  1.00  0.00     0.054 A 
BRANCH  83  84
ATOM     84  S   UNL A   1      55.117  27.933  25.410  1.00  0.00     0.124 S 
ATOM     85  O   UNL A   1      55.192  27.197  24.151  1.00  0.00    -0.237 OA
ATOM     86  O   UNL A   1      55.458  29.351  25.331  1.00  0.00    -0.237 OA
ATOM     87  O   UNL A   1      55.655  27.232  26.574  1.00  0.00    -0.744 OA
ENDBRANCH  83  84
ENDBRANCH  57  78
ENDBRANCH  31  32
ENDBRANCH  24  26
ENDBRANCH  23  24
ENDBRANCH  22  23
ENDBRANCH   1  22
TORSDOF 20
ENDMDL
MODEL 2
REMARK VINA RESULT:      -9.2      3.510      4.664
REMARK SMILES COc1cc(Br)ccc1[C@H]([NH3+])C(=O)OCCOCCOC(=O)c1ccc(-c2c3nc(c(-c4ccc(S(=O)(=O)[O-])cc4)c4ccc([nH]4)c(-c4ccc(S(=O)(=O)[O-])cc4)c4nc(c(-c5ccc(S(=O)(=O)[O-])cc5)c5ccc2[nH]5)C=C4)C=C3)cc1
REMARK SMILES IDX 18 1 17 2 16 3 15 4 14 5 12 6 13 7 10 8 9 9 3 10 4 11 5 12
REMARK SMILES IDX 8 13 6 14 7 15 2 16 1 17 11 18 19 22 20 23 21 24 22 25 23 26
REMARK SMILES IDX 24 27 82 28 25 29 81 30 26 31 27 32 28 33 75 34 29 35 80 36
REMARK SMILES IDX 74 37 76 38 30 39 79 40 73 41 72 42 31 44 61 45 42 46 60 47
REMARK SMILES IDX 43 48 46 49 59 50 77 51 44 52 45 53 58 55 78 56 47 57 32 58
REMARK SMILES IDX 33 59 41 60 34 61 40 62 35 63 36 64 37 65 38 66 39 67 62 68
REMARK SMILES IDX 63 69 71 70 64 71 70 72 65 73 66 74 67 75 68 76 69 77 48 78
REMARK SMILES IDX 49 79 57 80 50 81 56 82 51 83 52 84 53 85 54 86 55 87
REMARK H PARENT 11 19 11 20 11 21 76 43 46 54
REMARK Flexibility Score: inf
ROOT
ATOM      1  C   UNL A   1      31.980  29.365  27.246  1.00  0.00     0.202 C 
ENDROOT
BRANCH   1   2
ATOM      2  O   UNL A   1      32.212  28.398  26.222  1.00  0.00    -0.374 OA
BRANCH   2   3
ATOM      3  C   UNL A   1      31.690  28.682  24.924  1.00  0.00     0.202 C 
BRANCH   3   4
ATOM      4  C   UNL A   1      31.773  27.561  23.885  1.00  0.00     0.261 C 
BRANCH   4   5
ATOM      5  O   UNL A   1      33.133  27.275  23.522  1.00  0.00    -0.459 OA
BRANCH   5   6
ATOM      6  C   UNL A   1      33.430  25.953  23.354  1.00  0.00     0.369 C 
ATOM      7  O   UNL A   1      33.109  25.280  22.377  1.00  0.00    -0.245 OA
BRANCH   6   8
ATOM      8  C   UNL A   1      34.189  25.353  24.555  1.00  0.00     0.326 C 
BRANCH   8   9
ATOM      9  C   UNL A   1      33.789  23.900  24.752  1.00  0.00     0.063 A 
ATOM     10  C   UNL A   1      32.574  23.458  25.304  1.00  0.00     0.129 A 
ATOM     11  C   UNL A   1      32.255  22.094  25.307  1.00  0.00     0.062 A 
ATOM     12  C   UNL A   1      33.158  21.164  24.796  1.00  0.00     0.021 A 
ATOM     13  C   UNL A   1      34.689  22.931  24.256  1.00  0.00     0.015 A 
ATOM     14  Br  UNL A   1      32.713  19.327  24.784  1.00  0.00    -0.051 Br
ATOM     15  C   UNL A   1      34.379  21.575  24.278  1.00  0.00     0.016 A 
BRANCH  10  16
ATOM     16  O   UNL A   1      31.672  24.389  25.754  1.00  0.00    -0.496 OA
ATOM     17  C   UNL A   1      30.533  23.810  26.395  1.00  0.00     0.278 C 
ENDBRANCH  10  16
ENDBRANCH   8   9
BRANCH   8  18
ATOM     18  N   UNL A   1      34.123  26.214  25.759  1.00  0.00    -0.342 N 
ATOM     19  H   UNL A   1      34.562  25.735  26.546  1.00  0.00     0.345 HD
ATOM     20  H   UNL A   1      33.148  26.413  25.983  1.00  0.00     0.345 HD
ATOM     21  H   UNL A   1      34.615  27.089  25.578  1.00  0.00     0.345 HD
ENDBRANCH   8  18
ENDBRANCH   6   8
ENDBRANCH   5   6
ENDBRANCH   4   5
ENDBRANCH   3   4
ENDBRANCH   2   3
ENDBRANCH   1   2
BRANCH   1  22
ATOM     22  C   UNL A   1      32.628  30.745  27.074  1.00  0.00     0.261 C 
BRANCH  22  23
ATOM     23  O   UNL A   1      34.063  30.692  26.999  1.00  0.00    -0.460 OA
BRANCH  23  24
ATOM     24  C   UNL A   1      34.701  31.052  28.137  1.00  0.00     0.338 C 
ATOM     25  O   UNL A   1      34.273  31.780  29.024  1.00  0.00    -0.246 OA
BRANCH  24  26
ATOM     26  C   UNL A   1      35.962  30.302  28.276  1.00  0.00     0.060 A 
ATOM     27  C   UNL A   1      36.262  29.765  29.535  1.00  0.00     0.016 A 
ATOM     28  C   UNL A   1      36.875  30.199  27.224  1.00  0.00     0.016 A 
ATOM     29  C   UNL A   1      37.503  29.175  29.766  1.00  0.00     0.010 A 
ATOM     30  C   UNL A   1      38.124  29.616  27.461  1.00  0.00     0.010 A 
ATOM     31  C   UNL A   1      38.458  29.139  28.743  1.00  0.00    -0.014 A 
BRANCH  31  32
ATOM     32  C   UNL A   1      39.859  28.769  29.056  1.00  0.00     0.031 A 
ATOM     33  C   UNL A   1      40.740  29.789  29.727  1.00  0.00     0.074 A 
ATOM     34  C   UNL A   1      40.336  27.546  28.767  1.00  0.00     0.049 A 
ATOM     35  N   UNL A   1      42.010  29.715  30.030  1.00  0.00    -0.248 NA
ATOM     36  C   UNL A   1      40.103  31.062  30.105  1.00  0.00     0.031 C 
ATOM     37  C   UNL A   1      39.565  26.454  28.173  1.00  0.00     0.029 A 
ATOM     38  N   UNL A   1      41.593  27.020  28.933  1.00  0.00    -0.354 N 
ATOM     39  C   UNL A   1      42.328  30.933  30.621  1.00  0.00     0.074 A 
ATOM     40  C   UNL A   1      41.124  31.736  30.614  1.00  0.00     0.031 C 
ATOM     41  C   UNL A   1      40.371  25.390  28.011  1.00  0.00     0.029 A 
ATOM     42  C   UNL A   1      41.720  25.737  28.455  1.00  0.00     0.049 A 
ATOM     43  H   UNL A   1      42.333  27.514  29.354  1.00  0.00     0.167 HD
ATOM     44  C   UNL A   1      43.514  31.347  31.125  1.00  0.00     0.031 A 
ATOM     45  C   UNL A   1      42.807  24.945  28.363  1.00  0.00     0.031 A 
ATOM     46  C   UNL A   1      44.711  30.549  31.121  1.00  0.00     0.049 A 
ATOM     47  C   UNL A   1      44.135  25.455  28.860  1.00  0.00     0.074 A 
ATOM     48  C   UNL A   1      45.965  30.877  31.609  1.00  0.00     0.029 A 
ATOM     49  N   UNL A   1      44.805  29.267  30.602  1.00  0.00    -0.354 N 
ATOM     50  N   UNL A   1      44.420  26.608  29.417  1.00  0.00    -0.248 NA
ATOM     51  C   UNL A   1      45.287  24.552  28.722  1.00  0.00     0.031 C 
ATOM     52  C   UNL A   1      46.828  29.811  31.338  1.00  0.00     0.029 A 
ATOM     53  C   UNL A   1      46.100  28.796  30.737  1.00  0.00     0.049 A 
ATOM     54  H   UNL A   1      44.061  28.766  30.195  1.00  0.00     0.167 HD
ATOM     55  C   UNL A   1      45.776  26.556  29.726  1.00  0.00     0.074 A 
ATOM     56  C   UNL A   1      46.253  25.256  29.300  1.00  0.00     0.031 C 
ATOM     57  C   UNL A   1      46.555  27.496  30.317  1.00  0.00     0.031 A 
BRANCH  44  58
ATOM     58  C   UNL A   1      43.583  32.740  31.689  1.00  0.00    -0.014 A 
ATOM     59  C   UNL A   1      43.979  33.832  30.894  1.00  0.00     0.010 A 
ATOM     60  C   UNL A   1      43.214  32.965  33.027  1.00  0.00     0.010 A 
ATOM     61  C   UNL A   1      44.038  35.118  31.439  1.00  0.00     0.020 A 
ATOM     62  C   UNL A   1      43.247  34.254  33.568  1.00  0.00     0.020 A 
ATOM     63  C   UNL A   1      43.675  35.319  32.774  1.00  0.00     0.054 A 
BRANCH  63  64
ATOM     64  S   UNL A   1      43.739  37.002  33.451  1.00  0.00     0.124 S 
ATOM     65  O   UNL A   1      45.001  36.981  34.188  1.00  0.00    -0.237 OA
ATOM     66  O   UNL A   1      43.729  37.832  32.248  1.00  0.00    -0.237 OA
ATOM     67  O   UNL A   1      42.538  37.090  34.276  1.00  0.00    -0.744 OA
ENDBRANCH  63  64
ENDBRANCH  44  58
BRANCH  45  68
ATOM     68  C   UNL A   1      42.692  23.594  27.750  1.00  0.00    -0.014 A 
ATOM     69  C   UNL A   1      42.811  23.422  26.360  1.00  0.00     0.010 A 
ATOM     70  C   UNL A   1      42.459  22.467  28.560  1.00  0.00     0.010 A 
ATOM     71  C   UNL A   1      42.682  22.152  25.790  1.00  0.00     0.020 A 
ATOM     72  C   UNL A   1      42.355  21.192  27.997  1.00  0.00     0.020 A 
ATOM     73  C   UNL A   1      42.455  21.045  26.613  1.00  0.00     0.054 A 
BRANCH  73  74
ATOM     74  S   UNL A   1      42.337  19.399  25.856  1.00  0.00     0.124 S 
ATOM     75  O   UNL A   1      43.327  19.486  24.788  1.00  0.00    -0.237 OA
ATOM     76  O   UNL A   1      42.680  18.515  26.968  1.00  0.00    -0.237 OA
ATOM     77  O   UNL A   1      40.946  19.325  25.417  1.00  0.00    -0.744 OA
ENDBRANCH  73  74
ENDBRANCH  45  68
BRANCH  57  78
ATOM     78  C   UNL A   1      47.993  27.143  30.588  1.00  0.00    -0.014 A 
ATOM     79  C   UNL A   1      49.013  27.469  29.677  1.00  0.00     0.010 A 
ATOM     80  C   UNL A   1      48.335  26.540  31.813  1.00  0.00     0.010 A 
ATOM     81  C   UNL A   1      50.346  27.175  29.976  1.00  0.00     0.020 A 
ATOM     82  C   UNL A   1      49.668  26.269  32.127  1.00  0.00     0.020 A 
ATOM     83  C   UNL A   1      50.665  26.578  31.200  1.00  0.00     0.054 A 
BRANCH  83  84
ATOM     84  S   UNL A   1      52.409  26.258  31.589  1.00  0.00     0.124 S 
ATOM     85  O   UNL A   1      52.361  24.888  32.093  1.00  0.00    -0.237 OA
ATOM     86  O   UNL A   1      53.064  26.430  30.295  1.00  0.00    -0.237 OA
ATOM     87  O   UNL A   1      52.733  27.277  32.585  1.00  0.00    -0.744 OA
ENDBRANCH  83  84
ENDBRANCH  57  78
ENDBRANCH  31  32
ENDBRANCH  24  26
ENDBRANCH  23  24
ENDBRANCH  22  23
ENDBRANCH   1  22
TORSDOF 20
ENDMDL
MODEL 3
REMARK VINA RESULT:      -9.2      5.133      6.509
REMARK SMILES COc1cc(Br)ccc1[C@H]([NH3+])C(=O)OCCOCCOC(=O)c1ccc(-c2c3nc(c(-c4ccc(S(=O)(=O)[O-])cc4)c4ccc([nH]4)c(-c4ccc(S(=O)(=O)[O-])cc4)c4nc(c(-c5ccc(S(=O)(=O)[O-])cc5)c5ccc2[nH]5)C=C4)C=C3)cc1
REMARK SMILES IDX 18 1 17 2 16 3 15 4 14 5 12 6 13 7 10 8 9 9 3 10 4 11 5 12
REMARK SMILES IDX 8 13 6 14 7 15 2 16 1 17 11 18 19 22 20 23 21 24 22 25 23 26
REMARK SMILES IDX 24 27 82 28 25 29 81 30 26 31 27 32 28 33 75 34 29 35 80 36
REMARK SMILES IDX 74 37 76 38 30 39 79 40 73 41 72 42 31 44 61 45 42 46 60 47
REMARK SMILES IDX 43 48 46 49 59 50 77 51 44 52 45 53 58 55 78 56 47 57 32 58
REMARK SMILES IDX 33 59 41 60 34 61 40 62 35 63 36 64 37 65 38 66 39 67 62 68
REMARK SMILES IDX 63 69 71 70 64 71 70 72 65 73 66 74 67 75 68 76 69 77 48 78
REMARK SMILES IDX 49 79 57 80 50 81 56 82 51 83 52 84 53 85 54 86 55 87
REMARK H PARENT 11 19 11 20 11 21 76 43 46 54
REMARK Flexibility Score: inf
ROOT
ATOM      1  C   UNL A   1      33.213  27.605  24.579  1.00  0.00     0.202 C 
ENDROOT
BRANCH   1   2
ATOM      2  O   UNL A   1      32.106  27.622  23.677  1.00  0.00    -0.374 OA
BRANCH   2   3
ATOM      3  C   UNL A   1      31.606  26.362  23.231  1.00  0.00     0.202 C 
BRANCH   3   4
ATOM      4  C   UNL A   1      30.328  25.850  23.899  1.00  0.00     0.261 C 
BRANCH   4   5
ATOM      5  O   UNL A   1      30.581  24.693  24.711  1.00  0.00    -0.459 OA
BRANCH   5   6
ATOM      6  C   UNL A   1      30.801  24.942  26.035  1.00  0.00     0.369 C 
ATOM      7  O   UNL A   1      30.482  25.976  26.617  1.00  0.00    -0.245 OA
BRANCH   6   8
ATOM      8  C   UNL A   1      31.547  23.793  26.744  1.00  0.00     0.326 C 
BRANCH   8   9
ATOM      9  C   UNL A   1      32.806  23.433  25.972  1.00  0.00     0.063 A 
ATOM     10  C   UNL A   1      32.951  22.319  25.127  1.00  0.00     0.129 A 
ATOM     11  C   UNL A   1      34.110  22.164  24.355  1.00  0.00     0.062 A 
ATOM     12  C   UNL A   1      35.143  23.096  24.451  1.00  0.00     0.021 A 
ATOM     13  C   UNL A   1      33.876  24.351  26.057  1.00  0.00     0.015 A 
ATOM     14  Br  UNL A   1      36.695  22.892  23.393  1.00  0.00    -0.051 Br
ATOM     15  C   UNL A   1      35.035  24.184  25.305  1.00  0.00     0.016 A 
BRANCH  10  16
ATOM     16  O   UNL A   1      31.905  21.439  25.003  1.00  0.00    -0.496 OA
ATOM     17  C   UNL A   1      32.321  20.075  24.894  1.00  0.00     0.278 C 
ENDBRANCH  10  16
ENDBRANCH   8   9
BRANCH   8  18
ATOM     18  N   UNL A   1      30.654  22.663  27.095  1.00  0.00    -0.342 N 
ATOM     19  H   UNL A   1      30.491  22.088  26.268  1.00  0.00     0.345 HD
ATOM     20  H   UNL A   1      29.765  23.027  27.437  1.00  0.00     0.345 HD
ATOM     21  H   UNL A   1      31.092  22.097  27.821  1.00  0.00     0.345 HD
ENDBRANCH   8  18
ENDBRANCH   6   8
ENDBRANCH   5   6
ENDBRANCH   4   5
ENDBRANCH   3   4
ENDBRANCH   2   3
ENDBRANCH   1   2
BRANCH   1  22
ATOM     22  C   UNL A   1      33.070  28.397  25.886  1.00  0.00     0.261 C 
BRANCH  22  23
ATOM     23  O   UNL A   1      34.314  28.560  26.588  1.00  0.00    -0.460 OA
BRANCH  23  24
ATOM     24  C   UNL A   1      34.491  29.781  27.145  1.00  0.00     0.338 C 
ATOM     25  O   UNL A   1      33.705  30.720  27.131  1.00  0.00    -0.246 OA
BRANCH  24  26
ATOM     26  C   UNL A   1      35.724  29.800  27.953  1.00  0.00     0.060 A 
ATOM     27  C   UNL A   1      36.925  30.101  27.297  1.00  0.00     0.016 A 
ATOM     28  C   UNL A   1      35.721  29.448  29.305  1.00  0.00     0.016 A 
ATOM     29  C   UNL A   1      38.138  29.992  27.974  1.00  0.00     0.010 A 
ATOM     30  C   UNL A   1      36.941  29.328  29.980  1.00  0.00     0.010 A 
ATOM     31  C   UNL A   1      38.156  29.559  29.306  1.00  0.00    -0.014 A 
BRANCH  31  32
ATOM     32  C   UNL A   1      39.440  29.177  29.940  1.00  0.00     0.031 A 
ATOM     33  C   UNL A   1      39.917  29.962  31.133  1.00  0.00     0.074 A 
ATOM     34  C   UNL A   1      40.161  28.141  29.478  1.00  0.00     0.049 A 
ATOM     35  N   UNL A   1      41.036  29.856  31.801  1.00  0.00    -0.248 NA
ATOM     36  C   UNL A   1      39.010  31.008  31.637  1.00  0.00     0.031 C 
ATOM     37  C   UNL A   1      39.777  27.268  28.369  1.00  0.00     0.029 A 
ATOM     38  N   UNL A   1      41.377  27.652  29.885  1.00  0.00    -0.354 N 
ATOM     39  C   UNL A   1      40.975  30.827  32.794  1.00  0.00     0.074 A 
ATOM     40  C   UNL A   1      39.720  31.527  32.628  1.00  0.00     0.031 C 
ATOM     41  C   UNL A   1      40.747  26.357  28.176  1.00  0.00     0.029 A 
ATOM     42  C   UNL A   1      41.834  26.605  29.121  1.00  0.00     0.049 A 
ATOM     43  H   UNL A   1      41.875  28.017  30.653  1.00  0.00     0.167 HD
ATOM     44  C   UNL A   1      41.881  31.110  33.760  1.00  0.00     0.031 A 
ATOM     45  C   UNL A   1      43.007  25.942  29.163  1.00  0.00     0.031 A 
ATOM     46  C   UNL A   1      43.132  30.418  33.916  1.00  0.00     0.049 A 
ATOM     47  C   UNL A   1      44.034  26.324  30.197  1.00  0.00     0.074 A 
ATOM     48  C   UNL A   1      44.120  30.629  34.862  1.00  0.00     0.029 A 
ATOM     49  N   UNL A   1      43.569  29.383  33.103  1.00  0.00    -0.354 N 
ATOM     50  N   UNL A   1      43.963  27.244  31.130  1.00  0.00    -0.248 NA
ATOM     51  C   UNL A   1      45.299  25.575  30.186  1.00  0.00     0.031 C 
ATOM     52  C   UNL A   1      45.177  29.754  34.590  1.00  0.00     0.029 A 
ATOM     53  C   UNL A   1      44.822  28.958  33.512  1.00  0.00     0.049 A 
ATOM     54  H   UNL A   1      43.065  29.007  32.346  1.00  0.00     0.167 HD
ATOM     55  C   UNL A   1      45.157  27.160  31.839  1.00  0.00     0.074 A 
ATOM     56  C   UNL A   1      45.931  26.097  31.230  1.00  0.00     0.031 C 
ATOM     57  C   UNL A   1      45.574  27.891  32.902  1.00  0.00     0.031 A 
BRANCH  44  58
ATOM     58  C   UNL A   1      41.567  32.243  34.699  1.00  0.00    -0.014 A 
ATOM     59  C   UNL A   1      40.862  32.024  35.897  1.00  0.00     0.010 A 
ATOM     60  C   UNL A   1      42.014  33.541  34.395  1.00  0.00     0.010 A 
ATOM     61  C   UNL A   1      40.579  33.091  36.755  1.00  0.00     0.020 A 
ATOM     62  C   UNL A   1      41.755  34.605  35.263  1.00  0.00     0.020 A 
ATOM     63  C   UNL A   1      41.024  34.375  36.430  1.00  0.00     0.054 A 
BRANCH  63  64
ATOM     64  S   UNL A   1      40.663  35.739  37.572  1.00  0.00     0.124 S 
ATOM     65  O   UNL A   1      42.001  36.243  37.871  1.00  0.00    -0.237 OA
ATOM     66  O   UNL A   1      39.826  36.622  36.762  1.00  0.00    -0.237 OA
ATOM     67  O   UNL A   1      39.980  35.087  38.686  1.00  0.00    -0.744 OA
ENDBRANCH  63  64
ENDBRANCH  44  58
BRANCH  45  68
ATOM     68  C   UNL A   1      43.286  24.862  28.177  1.00  0.00    -0.014 A 
ATOM     69  C   UNL A   1      43.976  25.138  26.984  1.00  0.00     0.010 A 
ATOM     70  C   UNL A   1      42.857  23.546  28.430  1.00  0.00     0.010 A 
ATOM     71  C   UNL A   1      44.215  24.123  26.054  1.00  0.00     0.020 A 
ATOM     72  C   UNL A   1      43.118  22.522  27.514  1.00  0.00     0.020 A 
ATOM     73  C   UNL A   1      43.786  22.820  26.325  1.00  0.00     0.054 A 
BRANCH  73  74
ATOM     74  S   UNL A   1      44.149  21.508  25.125  1.00  0.00     0.124 S 
ATOM     75  O   UNL A   1      45.512  21.134  25.491  1.00  0.00    -0.237 OA
ATOM     76  O   UNL A   1      43.119  20.515  25.421  1.00  0.00    -0.237 OA
ATOM     77  O   UNL A   1      44.008  22.177  23.835  1.00  0.00    -0.744 OA
ENDBRANCH  73  74
ENDBRANCH  45  68
BRANCH  57  78
ATOM     78  C   UNL A   1      46.903  27.540  33.516  1.00  0.00    -0.014 A 
ATOM     79  C   UNL A   1      47.010  26.570  34.528  1.00  0.00     0.010 A 
ATOM     80  C   UNL A   1      48.072  28.143  33.016  1.00  0.00     0.010 A 
ATOM     81  C   UNL A   1      48.262  26.227  35.046  1.00  0.00     0.020 A 
ATOM     82  C   UNL A   1      49.327  27.784  33.513  1.00  0.00     0.020 A 
ATOM     83  C   UNL A   1      49.413  26.836  34.533  1.00  0.00     0.054 A 
BRANCH  83  84
ATOM     84  S   UNL A   1      51.031  26.333  35.182  1.00  0.00     0.124 S 
ATOM     85  O   UNL A   1      51.761  27.598  35.193  1.00  0.00    -0.237 OA
ATOM     86  O   UNL A   1      50.696  25.790  36.496  1.00  0.00    -0.237 OA
ATOM     87  O   UNL A   1      51.503  25.349  34.210  1.00  0.00    -0.744 OA
ENDBRANCH  83  84
ENDBRANCH  57  78
ENDBRANCH  31  32
ENDBRANCH  24  26
ENDBRANCH  23  24
ENDBRANCH  22  23
ENDBRANCH   1  22
TORSDOF 20
ENDMDL
