MODEL 1
REMARK VINA RESULT:     -10.5      0.000      0.000
REMARK SMILES COc1ccc(-n2c(=S)[nH]cc(CC(=O)OCCOCCOC(=O)c3ccc(-c4c5nc(c(-c6ccc(S(=O)(=O)[O-])cc6)c6ccc([nH]6)c(-c6ccc(S(=O)(=O)[O-])cc6)c6nc(c(-c7ccc(S(=O)(=O)[O-])cc7)c7ccc4[nH]7)C=C6)C=C5)cc3)c2=O)cc1Cl
REMARK SMILES IDX 19 1 18 2 17 3 16 4 14 5 15 6 13 7 12 8 7 9 8 10 85 11 9 12
REMARK SMILES IDX 10 13 86 14 11 15 6 17 3 18 4 19 88 20 5 21 87 22 89 23 2 24
REMARK SMILES IDX 1 25 20 26 21 27 22 28 23 29 24 30 25 31 26 32 84 33 27 34
REMARK SMILES IDX 83 35 28 36 29 37 30 38 77 39 31 40 82 41 76 42 78 43 32 44
REMARK SMILES IDX 81 45 75 46 74 47 33 49 63 50 44 51 62 52 45 53 48 54 61 55
REMARK SMILES IDX 79 56 46 57 47 58 60 60 80 61 49 62 34 63 35 64 43 65 36 66
REMARK SMILES IDX 42 67 37 68 38 69 39 70 40 71 41 72 64 73 65 74 73 75 66 76
REMARK SMILES IDX 72 77 67 78 68 79 69 80 70 81 71 82 50 83 51 84 59 85 52 86
REMARK SMILES IDX 58 87 53 88 54 89 55 90 56 91 57 92
REMARK H PARENT 10 16 78 48 48 59
REMARK Flexibility Score: inf
ROOT
ATOM      1  O   UNL A   1      34.989  21.787  24.257  1.00  0.00    -0.374 OA
ENDROOT
BRANCH   1   2
ATOM      2  C   UNL A   1      34.692  20.933  25.359  1.00  0.00     0.202 C 
BRANCH   2   3
ATOM      3  C   UNL A   1      33.581  21.372  26.324  1.00  0.00     0.261 C 
BRANCH   3   4
ATOM      4  O   UNL A   1      32.419  21.903  25.654  1.00  0.00    -0.463 OA
BRANCH   4   5
ATOM      5  C   UNL A   1      31.686  22.792  26.375  1.00  0.00     0.310 C 
ATOM      6  O   UNL A   1      31.759  22.930  27.592  1.00  0.00    -0.252 OA
BRANCH   5   7
ATOM      7  C   UNL A   1      30.770  23.680  25.545  1.00  0.00     0.165 C 
BRANCH   7   8
ATOM      8  C   UNL A   1      31.367  24.869  24.845  1.00  0.00     0.045 A 
ATOM      9  N   UNL A   1      32.098  27.220  24.977  1.00  0.00    -0.253 N 
ATOM     10  C   UNL A   1      32.663  27.128  23.694  1.00  0.00     0.184 A 
ATOM     11  C   UNL A   1      31.351  26.179  25.553  1.00  0.00     0.262 A 
ATOM     12  S   UNL A   1      33.507  28.281  22.812  1.00  0.00    -0.040 S 
ATOM     13  N   UNL A   1      32.601  25.885  23.115  1.00  0.00    -0.338 N 
ATOM     14  O   UNL A   1      30.732  26.266  26.613  1.00  0.00    -0.269 OA
ATOM     15  C   UNL A   1      32.043  24.792  23.696  1.00  0.00     0.095 A 
ATOM     16  H   UNL A   1      32.987  25.779  22.215  1.00  0.00     0.168 HD
BRANCH   9  17
ATOM     17  C   UNL A   1      32.424  28.319  25.837  1.00  0.00     0.053 A 
ATOM     18  C   UNL A   1      33.334  30.536  27.303  1.00  0.00     0.137 A 
ATOM     19  C   UNL A   1      34.071  29.351  27.296  1.00  0.00     0.050 A 
ATOM     20  C   UNL A   1      32.130  30.609  26.588  1.00  0.00     0.085 A 
ATOM     21  C   UNL A   1      33.611  28.245  26.584  1.00  0.00     0.031 A 
ATOM     22  C   UNL A   1      31.671  29.498  25.869  1.00  0.00     0.051 A 
ATOM     23  Cl  UNL A   1      31.209  32.063  26.472  1.00  0.00    -0.080 Cl
BRANCH  18  24
ATOM     24  O   UNL A   1      33.933  31.596  27.931  1.00  0.00    -0.495 OA
ATOM     25  C   UNL A   1      35.344  31.637  27.729  1.00  0.00     0.278 C 
ENDBRANCH  18  24
ENDBRANCH   9  17
ENDBRANCH   7   8
ENDBRANCH   5   7
ENDBRANCH   4   5
ENDBRANCH   3   4
ENDBRANCH   2   3
ENDBRANCH   1   2
BRANCH   1  26
ATOM     26  C   UNL A   1      36.353  22.146  24.059  1.00  0.00     0.202 C 
BRANCH  26  27
ATOM     27  C   UNL A   1      37.422  21.298  24.764  1.00  0.00     0.261 C 
BRANCH  27  28
ATOM     28  O   UNL A   1      37.834  21.861  26.023  1.00  0.00    -0.460 OA
BRANCH  28  29
ATOM     29  C   UNL A   1      39.157  21.728  26.295  1.00  0.00     0.338 C 
ATOM     30  O   UNL A   1      39.886  20.810  25.944  1.00  0.00    -0.246 OA
BRANCH  29  31
ATOM     31  C   UNL A   1      39.682  22.967  26.901  1.00  0.00     0.060 A 
ATOM     32  C   UNL A   1      40.720  22.958  27.833  1.00  0.00     0.016 A 
ATOM     33  C   UNL A   1      39.137  24.180  26.456  1.00  0.00     0.016 A 
ATOM     34  C   UNL A   1      41.240  24.176  28.287  1.00  0.00     0.010 A 
ATOM     35  C   UNL A   1      39.656  25.391  26.911  1.00  0.00     0.010 A 
ATOM     36  C   UNL A   1      40.731  25.401  27.810  1.00  0.00    -0.014 A 
BRANCH  36  37
ATOM     37  C   UNL A   1      41.413  26.684  28.121  1.00  0.00     0.031 A 
ATOM     38  C   UNL A   1      42.857  26.913  27.782  1.00  0.00     0.074 A 
ATOM     39  C   UNL A   1      40.718  27.633  28.779  1.00  0.00     0.049 A 
ATOM     40  N   UNL A   1      43.577  27.990  27.963  1.00  0.00    -0.248 NA
ATOM     41  C   UNL A   1      43.591  25.793  27.174  1.00  0.00     0.031 C 
ATOM     42  C   UNL A   1      39.323  27.502  29.202  1.00  0.00     0.029 A 
ATOM     43  N   UNL A   1      41.079  28.888  29.205  1.00  0.00    -0.354 N 
ATOM     44  C   UNL A   1      44.843  27.689  27.478  1.00  0.00     0.074 A 
ATOM     45  C   UNL A   1      44.807  26.309  27.041  1.00  0.00     0.031 C 
ATOM     46  C   UNL A   1      38.936  28.642  29.793  1.00  0.00     0.029 A 
ATOM     47  C   UNL A   1      40.062  29.572  29.831  1.00  0.00     0.049 A 
ATOM     48  H   UNL A   1      41.980  29.263  29.076  1.00  0.00     0.167 HD
ATOM     49  C   UNL A   1      45.925  28.499  27.388  1.00  0.00     0.031 A 
ATOM     50  C   UNL A   1      40.028  30.806  30.374  1.00  0.00     0.031 A 
ATOM     51  C   UNL A   1      45.948  29.869  27.843  1.00  0.00     0.049 A 
ATOM     52  C   UNL A   1      41.251  31.676  30.291  1.00  0.00     0.074 A 
ATOM     53  C   UNL A   1      46.982  30.784  27.741  1.00  0.00     0.029 A 
ATOM     54  N   UNL A   1      44.906  30.518  28.491  1.00  0.00    -0.354 N 
ATOM     55  N   UNL A   1      42.411  31.409  29.738  1.00  0.00    -0.248 NA
ATOM     56  C   UNL A   1      41.162  33.017  30.886  1.00  0.00     0.031 C 
ATOM     57  C   UNL A   1      46.601  31.952  28.403  1.00  0.00     0.029 A 
ATOM     58  C   UNL A   1      45.292  31.804  28.835  1.00  0.00     0.049 A 
ATOM     59  H   UNL A   1      44.024  30.124  28.679  1.00  0.00     0.167 HD
ATOM     60  C   UNL A   1      43.183  32.553  29.903  1.00  0.00     0.074 A 
ATOM     61  C   UNL A   1      42.353  33.523  30.587  1.00  0.00     0.031 C 
ATOM     62  C   UNL A   1      44.466  32.771  29.523  1.00  0.00     0.031 A 
BRANCH  49  63
ATOM     63  C   UNL A   1      47.186  27.956  26.758  1.00  0.00    -0.014 A 
ATOM     64  C   UNL A   1      48.267  27.566  27.571  1.00  0.00     0.010 A 
ATOM     65  C   UNL A   1      47.357  27.974  25.362  1.00  0.00     0.010 A 
ATOM     66  C   UNL A   1      49.505  27.246  27.006  1.00  0.00     0.020 A 
ATOM     67  C   UNL A   1      48.583  27.622  24.789  1.00  0.00     0.020 A 
ATOM     68  C   UNL A   1      49.658  27.287  25.618  1.00  0.00     0.054 A 
BRANCH  68  69
ATOM     69  S   UNL A   1      51.285  26.914  24.904  1.00  0.00     0.124 S 
ATOM     70  O   UNL A   1      52.116  27.977  25.458  1.00  0.00    -0.237 OA
ATOM     71  O   UNL A   1      51.552  25.570  25.413  1.00  0.00    -0.237 OA
ATOM     72  O   UNL A   1      51.052  26.989  23.463  1.00  0.00    -0.744 OA
ENDBRANCH  68  69
ENDBRANCH  49  63
BRANCH  50  73
ATOM     73  C   UNL A   1      38.757  31.289  30.983  1.00  0.00    -0.014 A 
ATOM     74  C   UNL A   1      37.865  32.086  30.239  1.00  0.00     0.010 A 
ATOM     75  C   UNL A   1      38.486  31.057  32.344  1.00  0.00     0.010 A 
ATOM     76  C   UNL A   1      36.775  32.702  30.857  1.00  0.00     0.020 A 
ATOM     77  C   UNL A   1      37.375  31.642  32.959  1.00  0.00     0.020 A 
ATOM     78  C   UNL A   1      36.548  32.490  32.219  1.00  0.00     0.054 A 
BRANCH  78  79
ATOM     79  S   UNL A   1      35.181  33.376  33.018  1.00  0.00     0.124 S 
ATOM     80  O   UNL A   1      35.413  33.074  34.428  1.00  0.00    -0.237 OA
ATOM     81  O   UNL A   1      35.425  34.761  32.623  1.00  0.00    -0.237 OA
ATOM     82  O   UNL A   1      33.989  32.765  32.437  1.00  0.00    -0.744 OA
ENDBRANCH  78  79
ENDBRANCH  50  73
BRANCH  62  83
ATOM     83  C   UNL A   1      45.092  34.109  29.834  1.00  0.00    -0.014 A 
ATOM     84  C   UNL A   1      45.737  34.310  31.071  1.00  0.00     0.010 A 
ATOM     85  C   UNL A   1      44.906  35.210  28.978  1.00  0.00     0.010 A 
ATOM     86  C   UNL A   1      46.133  35.589  31.468  1.00  0.00     0.020 A 
ATOM     87  C   UNL A   1      45.335  36.486  29.356  1.00  0.00     0.020 A 
ATOM     88  C   UNL A   1      45.916  36.672  30.613  1.00  0.00     0.054 A 
BRANCH  88  89
ATOM     89  S   UNL A   1      46.379  38.334  31.174  1.00  0.00     0.124 S 
ATOM     90  O   UNL A   1      47.829  38.323  31.008  1.00  0.00    -0.237 OA
ATOM     91  O   UNL A   1      45.647  39.199  30.251  1.00  0.00    -0.237 OA
ATOM     92  O   UNL A   1      45.910  38.374  32.557  1.00  0.00    -0.744 OA
ENDBRANCH  88  89
ENDBRANCH  62  83
ENDBRANCH  36  37
ENDBRANCH  29  31
ENDBRANCH  28  29
ENDBRANCH  27  28
ENDBRANCH  26  27
ENDBRANCH   1  26
TORSDOF 20
ENDMDL
MODEL 2
REMARK VINA RESULT:     -10.2      0.419      8.058
REMARK SMILES COc1ccc(-n2c(=S)[nH]cc(CC(=O)OCCOCCOC(=O)c3ccc(-c4c5nc(c(-c6ccc(S(=O)(=O)[O-])cc6)c6ccc([nH]6)c(-c6ccc(S(=O)(=O)[O-])cc6)c6nc(c(-c7ccc(S(=O)(=O)[O-])cc7)c7ccc4[nH]7)C=C6)C=C5)cc3)c2=O)cc1Cl
REMARK SMILES IDX 19 1 18 2 17 3 16 4 14 5 15 6 13 7 12 8 7 9 8 10 85 11 9 12
REMARK SMILES IDX 10 13 86 14 11 15 6 17 3 18 4 19 88 20 5 21 87 22 89 23 2 24
REMARK SMILES IDX 1 25 20 26 21 27 22 28 23 29 24 30 25 31 26 32 84 33 27 34
REMARK SMILES IDX 83 35 28 36 29 37 30 38 77 39 31 40 82 41 76 42 78 43 32 44
REMARK SMILES IDX 81 45 75 46 74 47 33 49 63 50 44 51 62 52 45 53 48 54 61 55
REMARK SMILES IDX 79 56 46 57 47 58 60 60 80 61 49 62 34 63 35 64 43 65 36 66
REMARK SMILES IDX 42 67 37 68 38 69 39 70 40 71 41 72 64 73 65 74 73 75 66 76
REMARK SMILES IDX 72 77 67 78 68 79 69 80 70 81 71 82 50 83 51 84 59 85 52 86
REMARK SMILES IDX 58 87 53 88 54 89 55 90 56 91 57 92
REMARK H PARENT 10 16 78 48 48 59
REMARK Flexibility Score: inf
ROOT
ATOM      1  O   UNL A   1      35.354  21.864  24.088  1.00  0.00    -0.374 OA
ENDROOT
BRANCH   1   2
ATOM      2  C   UNL A   1      34.834  20.940  25.041  1.00  0.00     0.202 C 
BRANCH   2   3
ATOM      3  C   UNL A   1      33.977  21.500  26.186  1.00  0.00     0.261 C 
BRANCH   3   4
ATOM      4  O   UNL A   1      32.637  21.846  25.779  1.00  0.00    -0.463 OA
BRANCH   4   5
ATOM      5  C   UNL A   1      31.965  22.670  26.626  1.00  0.00     0.310 C 
ATOM      6  O   UNL A   1      32.243  22.827  27.812  1.00  0.00    -0.252 OA
BRANCH   5   7
ATOM      7  C   UNL A   1      30.837  23.461  25.981  1.00  0.00     0.165 C 
BRANCH   7   8
ATOM      8  C   UNL A   1      31.190  24.649  25.130  1.00  0.00     0.045 A 
ATOM      9  N   UNL A   1      31.892  27.011  25.030  1.00  0.00    -0.253 N 
ATOM     10  C   UNL A   1      32.068  26.911  23.640  1.00  0.00     0.184 A 
ATOM     11  C   UNL A   1      31.357  25.967  25.803  1.00  0.00     0.262 A 
ATOM     12  S   UNL A   1      32.606  28.064  22.544  1.00  0.00    -0.040 S 
ATOM     13  N   UNL A   1      31.862  25.661  23.112  1.00  0.00    -0.338 N 
ATOM     14  O   UNL A   1      31.065  26.059  26.995  1.00  0.00    -0.269 OA
ATOM     15  C   UNL A   1      31.511  24.567  23.836  1.00  0.00     0.095 A 
ATOM     16  H   UNL A   1      31.977  25.549  22.140  1.00  0.00     0.168 HD
BRANCH   9  17
ATOM     17  C   UNL A   1      32.432  28.124  25.752  1.00  0.00     0.053 A 
ATOM     18  C   UNL A   1      33.697  30.362  26.884  1.00  0.00     0.137 A 
ATOM     19  C   UNL A   1      34.406  29.174  26.708  1.00  0.00     0.050 A 
ATOM     20  C   UNL A   1      32.348  30.429  26.509  1.00  0.00     0.085 A 
ATOM     21  C   UNL A   1      33.774  28.056  26.163  1.00  0.00     0.031 A 
ATOM     22  C   UNL A   1      31.716  29.307  25.957  1.00  0.00     0.051 A 
ATOM     23  Cl  UNL A   1      31.430  31.887  26.609  1.00  0.00    -0.080 Cl
BRANCH  18  24
ATOM     24  O   UNL A   1      34.441  31.431  27.313  1.00  0.00    -0.495 OA
ATOM     25  C   UNL A   1      34.343  31.648  28.718  1.00  0.00     0.278 C 
ENDBRANCH  18  24
ENDBRANCH   9  17
ENDBRANCH   7   8
ENDBRANCH   5   7
ENDBRANCH   4   5
ENDBRANCH   3   4
ENDBRANCH   2   3
ENDBRANCH   1   2
BRANCH   1  26
ATOM     26  C   UNL A   1      36.769  21.988  24.004  1.00  0.00     0.202 C 
BRANCH  26  27
ATOM     27  C   UNL A   1      37.620  21.037  24.861  1.00  0.00     0.261 C 
BRANCH  27  28
ATOM     28  O   UNL A   1      38.048  21.639  26.096  1.00  0.00    -0.460 OA
BRANCH  28  29
ATOM     29  C   UNL A   1      39.381  21.550  26.335  1.00  0.00     0.338 C 
ATOM     30  O   UNL A   1      40.131  20.658  25.965  1.00  0.00    -0.246 OA
BRANCH  29  31
ATOM     31  C   UNL A   1      39.878  22.806  26.931  1.00  0.00     0.060 A 
ATOM     32  C   UNL A   1      40.922  22.827  27.856  1.00  0.00     0.016 A 
ATOM     33  C   UNL A   1      39.300  24.003  26.483  1.00  0.00     0.016 A 
ATOM     34  C   UNL A   1      41.415  24.061  28.300  1.00  0.00     0.010 A 
ATOM     35  C   UNL A   1      39.792  25.228  26.929  1.00  0.00     0.010 A 
ATOM     36  C   UNL A   1      40.871  25.270  27.820  1.00  0.00    -0.014 A 
BRANCH  36  37
ATOM     37  C   UNL A   1      41.523  26.572  28.119  1.00  0.00     0.031 A 
ATOM     38  C   UNL A   1      40.769  27.705  28.751  1.00  0.00     0.074 A 
ATOM     39  C   UNL A   1      42.808  26.742  27.750  1.00  0.00     0.049 A 
ATOM     40  N   UNL A   1      41.211  28.886  29.099  1.00  0.00    -0.248 NA
ATOM     41  C   UNL A   1      39.338  27.495  29.018  1.00  0.00     0.031 C 
ATOM     42  C   UNL A   1      43.625  25.727  27.084  1.00  0.00     0.029 A 
ATOM     43  N   UNL A   1      43.653  27.818  27.879  1.00  0.00    -0.354 N 
ATOM     44  C   UNL A   1      40.123  29.557  29.641  1.00  0.00     0.074 A 
ATOM     45  C   UNL A   1      38.985  28.668  29.529  1.00  0.00     0.031 C 
ATOM     46  C   UNL A   1      44.861  26.213  26.898  1.00  0.00     0.029 A 
ATOM     47  C   UNL A   1      44.917  27.588  27.389  1.00  0.00     0.049 A 
ATOM     48  H   UNL A   1      43.379  28.673  28.283  1.00  0.00     0.167 HD
ATOM     49  C   UNL A   1      40.087  30.791  30.199  1.00  0.00     0.031 A 
ATOM     50  C   UNL A   1      46.005  28.383  27.340  1.00  0.00     0.031 A 
ATOM     51  C   UNL A   1      41.228  31.670  30.289  1.00  0.00     0.049 A 
ATOM     52  C   UNL A   1      45.934  29.761  27.936  1.00  0.00     0.074 A 
ATOM     53  C   UNL A   1      41.300  32.916  30.888  1.00  0.00     0.029 A 
ATOM     54  N   UNL A   1      42.486  31.411  29.762  1.00  0.00    -0.354 N 
ATOM     55  N   UNL A   1      44.921  30.342  28.535  1.00  0.00    -0.248 NA
ATOM     56  C   UNL A   1      47.148  30.586  27.869  1.00  0.00     0.031 C 
ATOM     57  C   UNL A   1      42.568  33.446  30.647  1.00  0.00     0.029 A 
ATOM     58  C   UNL A   1      43.323  32.493  29.982  1.00  0.00     0.049 A 
ATOM     59  H   UNL A   1      42.745  30.581  29.300  1.00  0.00     0.167 HD
ATOM     60  C   UNL A   1      45.380  31.593  28.931  1.00  0.00     0.074 A 
ATOM     61  C   UNL A   1      46.768  31.677  28.524  1.00  0.00     0.031 C 
ATOM     62  C   UNL A   1      44.706  32.580  29.571  1.00  0.00     0.031 A 
BRANCH  49  63
ATOM     63  C   UNL A   1      38.784  31.283  30.785  1.00  0.00    -0.014 A 
ATOM     64  C   UNL A   1      37.997  32.207  30.072  1.00  0.00     0.010 A 
ATOM     65  C   UNL A   1      38.416  30.949  32.100  1.00  0.00     0.010 A 
ATOM     66  C   UNL A   1      36.894  32.820  30.675  1.00  0.00     0.020 A 
ATOM     67  C   UNL A   1      37.294  31.533  32.697  1.00  0.00     0.020 A 
ATOM     68  C   UNL A   1      36.556  32.485  31.989  1.00  0.00     0.054 A 
BRANCH  68  69
ATOM     69  S   UNL A   1      35.150  33.324  32.771  1.00  0.00     0.124 S 
ATOM     70  O   UNL A   1      35.364  33.035  34.185  1.00  0.00    -0.237 OA
ATOM     71  O   UNL A   1      35.349  34.715  32.372  1.00  0.00    -0.237 OA
ATOM     72  O   UNL A   1      33.986  32.675  32.170  1.00  0.00    -0.744 OA
ENDBRANCH  68  69
ENDBRANCH  49  63
BRANCH  50  73
ATOM     73  C   UNL A   1      47.264  27.845  26.749  1.00  0.00    -0.014 A 
ATOM     74  C   UNL A   1      48.288  27.350  27.580  1.00  0.00     0.010 A 
ATOM     75  C   UNL A   1      47.495  27.933  25.364  1.00  0.00     0.010 A 
ATOM     76  C   UNL A   1      49.540  27.028  27.051  1.00  0.00     0.020 A 
ATOM     77  C   UNL A   1      48.735  27.577  24.826  1.00  0.00     0.020 A 
ATOM     78  C   UNL A   1      49.760  27.161  25.678  1.00  0.00     0.054 A 
BRANCH  78  79
ATOM     79  S   UNL A   1      51.422  26.827  25.030  1.00  0.00     0.124 S 
ATOM     80  O   UNL A   1      51.606  25.423  25.391  1.00  0.00    -0.237 OA
ATOM     81  O   UNL A   1      51.266  27.095  23.603  1.00  0.00    -0.237 OA
ATOM     82  O   UNL A   1      52.269  27.773  25.752  1.00  0.00    -0.744 OA
ENDBRANCH  78  79
ENDBRANCH  50  73
BRANCH  62  83
ATOM     83  C   UNL A   1      45.434  33.866  29.879  1.00  0.00    -0.014 A 
ATOM     84  C   UNL A   1      46.003  34.061  31.154  1.00  0.00     0.010 A 
ATOM     85  C   UNL A   1      45.419  34.940  28.971  1.00  0.00     0.010 A 
ATOM     86  C   UNL A   1      46.492  35.313  31.532  1.00  0.00     0.020 A 
ATOM     87  C   UNL A   1      45.942  36.186  29.332  1.00  0.00     0.020 A 
ATOM     88  C   UNL A   1      46.445  36.372  30.622  1.00  0.00     0.054 A 
BRANCH  88  89
ATOM     89  S   UNL A   1      47.023  38.007  31.155  1.00  0.00     0.124 S 
ATOM     90  O   UNL A   1      46.218  38.245  32.349  1.00  0.00    -0.237 OA
ATOM     91  O   UNL A   1      48.448  37.781  31.392  1.00  0.00    -0.237 OA
ATOM     92  O   UNL A   1      46.718  38.870  30.016  1.00  0.00    -0.744 OA
ENDBRANCH  88  89
ENDBRANCH  62  83
ENDBRANCH  36  37
ENDBRANCH  29  31
ENDBRANCH  28  29
ENDBRANCH  27  28
ENDBRANCH  26  27
ENDBRANCH   1  26
TORSDOF 20
ENDMDL
MODEL 3
REMARK VINA RESULT:     -10.2      5.181      9.275
REMARK SMILES COc1ccc(-n2c(=S)[nH]cc(CC(=O)OCCOCCOC(=O)c3ccc(-c4c5nc(c(-c6ccc(S(=O)(=O)[O-])cc6)c6ccc([nH]6)c(-c6ccc(S(=O)(=O)[O-])cc6)c6nc(c(-c7ccc(S(=O)(=O)[O-])cc7)c7ccc4[nH]7)C=C6)C=C5)cc3)c2=O)cc1Cl
REMARK SMILES IDX 19 1 18 2 17 3 16 4 14 5 15 6 13 7 12 8 7 9 8 10 85 11 9 12
REMARK SMILES IDX 10 13 86 14 11 15 6 17 3 18 4 19 88 20 5 21 87 22 89 23 2 24
REMARK SMILES IDX 1 25 20 26 21 27 22 28 23 29 24 30 25 31 26 32 84 33 27 34
REMARK SMILES IDX 83 35 28 36 29 37 30 38 77 39 31 40 82 41 76 42 78 43 32 44
REMARK SMILES IDX 81 45 75 46 74 47 33 49 63 50 44 51 62 52 45 53 48 54 61 55
REMARK SMILES IDX 79 56 46 57 47 58 60 60 80 61 49 62 34 63 35 64 43 65 36 66
REMARK SMILES IDX 42 67 37 68 38 69 39 70 40 71 41 72 64 73 65 74 73 75 66 76
REMARK SMILES IDX 72 77 67 78 68 79 69 80 70 81 71 82 50 83 51 84 59 85 52 86
REMARK SMILES IDX 58 87 53 88 54 89 55 90 56 91 57 92
REMARK H PARENT 10 16 78 48 48 59
REMARK Flexibility Score: inf
ROOT
ATOM      1  O   UNL A   1      37.436  22.645  25.793  1.00  0.00    -0.374 OA
ENDROOT
BRANCH   1   2
ATOM      2  C   UNL A   1      36.653  22.778  24.610  1.00  0.00     0.202 C 
BRANCH   2   3
ATOM      3  C   UNL A   1      35.543  21.745  24.367  1.00  0.00     0.261 C 
BRANCH   3   4
ATOM      4  O   UNL A   1      34.439  22.263  23.597  1.00  0.00    -0.463 OA
BRANCH   4   5
ATOM      5  C   UNL A   1      33.207  22.062  24.136  1.00  0.00     0.310 C 
ATOM      6  O   UNL A   1      32.931  21.168  24.930  1.00  0.00    -0.252 OA
BRANCH   5   7
ATOM      7  C   UNL A   1      32.160  23.086  23.724  1.00  0.00     0.165 C 
BRANCH   7   8
ATOM      8  C   UNL A   1      32.175  24.435  24.387  1.00  0.00     0.045 A 
ATOM      9  N   UNL A   1      31.552  26.818  24.288  1.00  0.00    -0.253 N 
ATOM     10  C   UNL A   1      31.962  26.993  25.620  1.00  0.00     0.184 A 
ATOM     11  C   UNL A   1      31.733  25.612  23.590  1.00  0.00     0.262 A 
ATOM     12  S   UNL A   1      31.909  28.367  26.585  1.00  0.00    -0.040 S 
ATOM     13  N   UNL A   1      32.380  25.851  26.258  1.00  0.00    -0.338 N 
ATOM     14  O   UNL A   1      31.508  25.458  22.390  1.00  0.00    -0.269 OA
ATOM     15  C   UNL A   1      32.414  24.619  25.689  1.00  0.00     0.095 A 
ATOM     16  H   UNL A   1      32.675  25.931  27.194  1.00  0.00     0.168 HD
BRANCH   9  17
ATOM     17  C   UNL A   1      30.750  27.813  23.639  1.00  0.00     0.053 A 
ATOM     18  C   UNL A   1      29.245  29.588  22.065  1.00  0.00     0.137 A 
ATOM     19  C   UNL A   1      30.636  29.567  21.959  1.00  0.00     0.050 A 
ATOM     20  C   UNL A   1      28.604  28.731  22.971  1.00  0.00     0.085 A 
ATOM     21  C   UNL A   1      31.386  28.699  22.753  1.00  0.00     0.031 A 
ATOM     22  C   UNL A   1      29.358  27.857  23.765  1.00  0.00     0.051 A 
ATOM     23  Cl  UNL A   1      26.886  28.632  23.095  1.00  0.00    -0.080 Cl
BRANCH  18  24
ATOM     24  O   UNL A   1      28.600  30.386  21.157  1.00  0.00    -0.495 OA
ATOM     25  C   UNL A   1      28.107  31.594  21.732  1.00  0.00     0.278 C 
ENDBRANCH  18  24
ENDBRANCH   9  17
ENDBRANCH   7   8
ENDBRANCH   5   7
ENDBRANCH   4   5
ENDBRANCH   3   4
ENDBRANCH   2   3
ENDBRANCH   1   2
BRANCH   1  26
ATOM     26  C   UNL A   1      38.528  21.732  25.754  1.00  0.00     0.202 C 
BRANCH  26  27
ATOM     27  C   UNL A   1      39.838  22.159  26.435  1.00  0.00     0.261 C 
BRANCH  27  28
ATOM     28  O   UNL A   1      39.708  23.395  27.159  1.00  0.00    -0.460 OA
BRANCH  28  29
ATOM     29  C   UNL A   1      40.852  24.121  27.247  1.00  0.00     0.338 C 
ATOM     30  O   UNL A   1      41.882  23.940  26.613  1.00  0.00    -0.246 OA
BRANCH  29  31
ATOM     31  C   UNL A   1      40.630  25.327  28.068  1.00  0.00     0.060 A 
ATOM     32  C   UNL A   1      39.393  25.615  28.646  1.00  0.00     0.016 A 
ATOM     33  C   UNL A   1      41.735  26.157  28.303  1.00  0.00     0.016 A 
ATOM     34  C   UNL A   1      39.280  26.720  29.500  1.00  0.00     0.010 A 
ATOM     35  C   UNL A   1      41.618  27.256  29.152  1.00  0.00     0.010 A 
ATOM     36  C   UNL A   1      40.397  27.533  29.780  1.00  0.00    -0.014 A 
BRANCH  36  37
ATOM     37  C   UNL A   1      40.340  28.570  30.843  1.00  0.00     0.031 A 
ATOM     38  C   UNL A   1      39.380  29.721  30.771  1.00  0.00     0.074 A 
ATOM     39  C   UNL A   1      41.222  28.494  31.859  1.00  0.00     0.049 A 
ATOM     40  N   UNL A   1      39.193  30.685  31.636  1.00  0.00    -0.248 NA
ATOM     41  C   UNL A   1      38.527  29.813  29.576  1.00  0.00     0.031 C 
ATOM     42  C   UNL A   1      42.234  27.446  32.006  1.00  0.00     0.029 A 
ATOM     43  N   UNL A   1      41.414  29.299  32.955  1.00  0.00    -0.354 N 
ATOM     44  C   UNL A   1      38.193  31.489  31.104  1.00  0.00     0.074 A 
ATOM     45  C   UNL A   1      37.848  30.928  29.814  1.00  0.00     0.031 C 
ATOM     46  C   UNL A   1      42.913  27.651  33.145  1.00  0.00     0.029 A 
ATOM     47  C   UNL A   1      42.418  28.865  33.789  1.00  0.00     0.049 A 
ATOM     48  H   UNL A   1      40.883  30.110  33.127  1.00  0.00     0.167 HD
ATOM     49  C   UNL A   1      37.607  32.578  31.654  1.00  0.00     0.031 A 
ATOM     50  C   UNL A   1      42.893  29.377  34.943  1.00  0.00     0.031 A 
ATOM     51  C   UNL A   1      37.975  33.133  32.935  1.00  0.00     0.049 A 
ATOM     52  C   UNL A   1      42.248  30.606  35.519  1.00  0.00     0.074 A 
ATOM     53  C   UNL A   1      37.398  34.202  33.599  1.00  0.00     0.029 A 
ATOM     54  N   UNL A   1      39.011  32.679  33.739  1.00  0.00    -0.354 N 
ATOM     55  N   UNL A   1      41.236  31.297  35.050  1.00  0.00    -0.248 NA
ATOM     56  C   UNL A   1      42.792  31.120  36.785  1.00  0.00     0.031 C 
ATOM     57  C   UNL A   1      38.137  34.450  34.756  1.00  0.00     0.029 A 
ATOM     58  C   UNL A   1      39.118  33.477  34.868  1.00  0.00     0.049 A 
ATOM     59  H   UNL A   1      39.586  31.906  33.538  1.00  0.00     0.167 HD
ATOM     60  C   UNL A   1      41.009  32.314  35.970  1.00  0.00     0.074 A 
ATOM     61  C   UNL A   1      41.976  32.137  37.034  1.00  0.00     0.031 C 
ATOM     62  C   UNL A   1      40.085  33.305  35.928  1.00  0.00     0.031 A 
BRANCH  49  63
ATOM     63  C   UNL A   1      36.485  33.254  30.902  1.00  0.00    -0.014 A 
ATOM     64  C   UNL A   1      36.777  34.115  29.827  1.00  0.00     0.010 A 
ATOM     65  C   UNL A   1      35.157  33.158  31.353  1.00  0.00     0.010 A 
ATOM     66  C   UNL A   1      35.774  34.897  29.245  1.00  0.00     0.020 A 
ATOM     67  C   UNL A   1      34.143  33.912  30.753  1.00  0.00     0.020 A 
ATOM     68  C   UNL A   1      34.464  34.797  29.720  1.00  0.00     0.054 A 
BRANCH  68  69
ATOM     69  S   UNL A   1      33.184  35.853  28.985  1.00  0.00     0.124 S 
ATOM     70  O   UNL A   1      32.575  36.464  30.161  1.00  0.00    -0.237 OA
ATOM     71  O   UNL A   1      33.964  36.751  28.137  1.00  0.00    -0.237 OA
ATOM     72  O   UNL A   1      32.335  34.909  28.261  1.00  0.00    -0.744 OA
ENDBRANCH  68  69
ENDBRANCH  49  63
BRANCH  50  73
ATOM     73  C   UNL A   1      44.002  28.668  35.642  1.00  0.00    -0.014 A 
ATOM     74  C   UNL A   1      45.344  28.952  35.321  1.00  0.00     0.010 A 
ATOM     75  C   UNL A   1      43.725  27.624  36.542  1.00  0.00     0.010 A 
ATOM     76  C   UNL A   1      46.379  28.160  35.825  1.00  0.00     0.020 A 
ATOM     77  C   UNL A   1      44.761  26.852  37.077  1.00  0.00     0.020 A 
ATOM     78  C   UNL A   1      46.078  27.103  36.686  1.00  0.00     0.054 A 
BRANCH  78  79
ATOM     79  S   UNL A   1      47.430  26.033  37.251  1.00  0.00     0.124 S 
ATOM     80  O   UNL A   1      47.883  25.437  35.996  1.00  0.00    -0.237 OA
ATOM     81  O   UNL A   1      48.352  26.983  37.866  1.00  0.00    -0.237 OA
ATOM     82  O   UNL A   1      46.775  25.113  38.177  1.00  0.00    -0.744 OA
ENDBRANCH  78  79
ENDBRANCH  50  73
BRANCH  62  83
ATOM     83  C   UNL A   1      40.053  34.308  37.056  1.00  0.00    -0.014 A 
ATOM     84  C   UNL A   1      39.188  34.105  38.149  1.00  0.00     0.010 A 
ATOM     85  C   UNL A   1      40.756  35.522  36.962  1.00  0.00     0.010 A 
ATOM     86  C   UNL A   1      38.984  35.114  39.093  1.00  0.00     0.020 A 
ATOM     87  C   UNL A   1      40.584  36.521  37.925  1.00  0.00     0.020 A 
ATOM     88  C   UNL A   1      39.673  36.322  38.967  1.00  0.00     0.054 A 
BRANCH  88  89
ATOM     89  S   UNL A   1      39.346  37.644  40.166  1.00  0.00     0.124 S 
ATOM     90  O   UNL A   1      38.237  38.359  39.540  1.00  0.00    -0.237 OA
ATOM     91  O   UNL A   1      39.010  36.900  41.378  1.00  0.00    -0.237 OA
ATOM     92  O   UNL A   1      40.607  38.378  40.223  1.00  0.00    -0.744 OA
ENDBRANCH  88  89
ENDBRANCH  62  83
ENDBRANCH  36  37
ENDBRANCH  29  31
ENDBRANCH  28  29
ENDBRANCH  27  28
ENDBRANCH  26  27
ENDBRANCH   1  26
TORSDOF 20
ENDMDL
