MODEL 1
REMARK VINA RESULT:     -11.3      0.000      0.000
REMARK SMILES CS(=O)(=O)c1ccc(/C=C(/C(=O)OCCOCCOC(=O)c2ccc(-c3c4nc(c(-c5ccc(S(=O)(=O)[O-])cc5)c5ccc([nH]5)c(-c5ccc(S(=O)(=O)[O-])cc5)c5nc(c(-c6ccc(S(=O)(=O)[O-])cc6)c6ccc3[nH]6)C=C5)C=C4)cc2)c2ccc(F)cc2)cc1
REMARK SMILES IDX 17 1 16 2 15 3 14 4 13 5 11 6 12 7 10 8 9 9 8 10 5 11 6 12
REMARK SMILES IDX 90 13 7 14 89 15 2 16 1 17 3 18 4 19 82 20 83 21 88 22 84 23
REMARK SMILES IDX 87 24 85 25 86 26 18 27 19 28 20 29 21 30 22 31 23 32 81 33
REMARK SMILES IDX 24 34 80 35 25 36 26 37 27 38 74 39 28 40 79 41 73 42 75 43
REMARK SMILES IDX 29 44 78 45 72 46 71 47 30 49 60 50 41 51 59 52 42 53 45 54
REMARK SMILES IDX 58 55 76 56 43 57 44 58 57 60 77 61 46 62 31 63 32 64 40 65
REMARK SMILES IDX 33 66 39 67 34 68 35 69 36 70 37 71 38 72 61 73 62 74 70 75
REMARK SMILES IDX 63 76 69 77 64 78 65 79 66 80 67 81 68 82 47 83 48 84 56 85
REMARK SMILES IDX 49 86 55 87 50 88 51 89 52 90 53 91 54 92
REMARK H PARENT 75 48 45 59
REMARK Flexibility Score: inf
ROOT
ATOM      1  C   UNL A   1      37.887  23.097  25.605  1.00  0.00     0.202 C 
ENDROOT
BRANCH   1   2
ATOM      2  O   UNL A   1      36.566  22.644  25.880  1.00  0.00    -0.374 OA
BRANCH   2   3
ATOM      3  C   UNL A   1      35.552  22.943  24.918  1.00  0.00     0.202 C 
BRANCH   3   4
ATOM      4  C   UNL A   1      34.248  22.145  25.015  1.00  0.00     0.261 C 
BRANCH   4   5
ATOM      5  O   UNL A   1      33.095  23.007  24.950  1.00  0.00    -0.460 OA
BRANCH   5   6
ATOM      6  C   UNL A   1      33.139  24.084  25.775  1.00  0.00     0.338 C 
ATOM      7  O   UNL A   1      33.717  24.135  26.852  1.00  0.00    -0.246 OA
BRANCH   6   8
ATOM      8  C   UNL A   1      32.497  25.291  25.159  1.00  0.00     0.067 C 
ATOM      9  C   UNL A   1      31.686  25.167  24.082  1.00  0.00     0.024 C 
BRANCH   9  10
ATOM     10  C   UNL A   1      30.788  26.198  23.498  1.00  0.00    -0.025 A 
ATOM     11  C   UNL A   1      29.080  28.322  22.817  1.00  0.00     0.067 A 
ATOM     12  C   UNL A   1      30.381  28.295  22.320  1.00  0.00     0.021 A 
ATOM     13  C   UNL A   1      28.581  27.244  23.547  1.00  0.00     0.021 A 
ATOM     14  C   UNL A   1      31.214  27.221  22.639  1.00  0.00     0.009 A 
ATOM     15  C   UNL A   1      29.438  26.188  23.884  1.00  0.00     0.009 A 
BRANCH  11  16
ATOM     16  S   UNL A   1      28.084  29.765  22.537  1.00  0.00     0.175 S 
ATOM     17  C   UNL A   1      29.038  31.072  23.273  1.00  0.00     0.163 C 
ATOM     18  O   UNL A   1      26.865  29.627  23.315  1.00  0.00    -0.224 OA
ATOM     19  O   UNL A   1      28.038  29.987  21.108  1.00  0.00    -0.224 OA
ENDBRANCH  11  16
ENDBRANCH   9  10
BRANCH   8  20
ATOM     20  C   UNL A   1      32.740  26.573  25.850  1.00  0.00    -0.011 A 
ATOM     21  C   UNL A   1      31.821  27.022  26.817  1.00  0.00     0.012 A 
ATOM     22  C   UNL A   1      33.893  27.324  25.593  1.00  0.00     0.012 A 
ATOM     23  C   UNL A   1      32.071  28.188  27.539  1.00  0.00     0.040 A 
ATOM     24  C   UNL A   1      34.140  28.490  26.318  1.00  0.00     0.040 A 
ATOM     25  C   UNL A   1      33.232  28.908  27.287  1.00  0.00     0.123 A 
ATOM     26  F   UNL A   1      33.487  30.011  27.999  1.00  0.00    -0.207 F 
ENDBRANCH   8  20
ENDBRANCH   6   8
ENDBRANCH   5   6
ENDBRANCH   4   5
ENDBRANCH   3   4
ENDBRANCH   2   3
ENDBRANCH   1   2
BRANCH   1  27
ATOM     27  C   UNL A   1      38.401  24.327  26.363  1.00  0.00     0.261 C 
BRANCH  27  28
ATOM     28  O   UNL A   1      39.810  24.279  26.617  1.00  0.00    -0.460 OA
BRANCH  28  29
ATOM     29  C   UNL A   1      40.435  25.466  26.425  1.00  0.00     0.338 C 
ATOM     30  O   UNL A   1      40.722  25.981  25.355  1.00  0.00    -0.246 OA
BRANCH  29  31
ATOM     31  C   UNL A   1      40.590  26.178  27.707  1.00  0.00     0.060 A 
ATOM     32  C   UNL A   1      39.606  25.953  28.677  1.00  0.00     0.016 A 
ATOM     33  C   UNL A   1      41.615  27.099  27.932  1.00  0.00     0.016 A 
ATOM     34  C   UNL A   1      39.596  26.709  29.843  1.00  0.00     0.010 A 
ATOM     35  C   UNL A   1      41.602  27.861  29.105  1.00  0.00     0.010 A 
ATOM     36  C   UNL A   1      40.561  27.704  30.039  1.00  0.00    -0.014 A 
BRANCH  36  37
ATOM     37  C   UNL A   1      40.352  28.688  31.128  1.00  0.00     0.031 A 
ATOM     38  C   UNL A   1      41.231  28.616  32.349  1.00  0.00     0.074 A 
ATOM     39  C   UNL A   1      39.457  29.683  30.993  1.00  0.00     0.049 A 
ATOM     40  N   UNL A   1      41.282  29.418  33.381  1.00  0.00    -0.248 NA
ATOM     41  C   UNL A   1      42.182  27.494  32.412  1.00  0.00     0.031 C 
ATOM     42  C   UNL A   1      38.578  29.878  29.840  1.00  0.00     0.029 A 
ATOM     43  N   UNL A   1      39.153  30.726  31.830  1.00  0.00    -0.354 N 
ATOM     44  C   UNL A   1      42.266  28.899  34.214  1.00  0.00     0.074 A 
ATOM     45  C   UNL A   1      42.759  27.693  33.588  1.00  0.00     0.031 C 
ATOM     46  C   UNL A   1      37.838  30.983  30.040  1.00  0.00     0.029 A 
ATOM     47  C   UNL A   1      38.176  31.558  31.341  1.00  0.00     0.049 A 
ATOM     48  H   UNL A   1      39.594  30.865  32.699  1.00  0.00     0.167 HD
ATOM     49  C   UNL A   1      42.728  29.387  35.391  1.00  0.00     0.031 A 
ATOM     50  C   UNL A   1      37.617  32.658  31.883  1.00  0.00     0.031 A 
ATOM     51  C   UNL A   1      42.228  30.581  36.018  1.00  0.00     0.049 A 
ATOM     52  C   UNL A   1      38.111  33.154  33.216  1.00  0.00     0.074 A 
ATOM     53  C   UNL A   1      42.634  31.166  37.204  1.00  0.00     0.029 A 
ATOM     54  N   UNL A   1      41.208  31.372  35.511  1.00  0.00    -0.354 N 
ATOM     55  N   UNL A   1      39.060  32.665  33.979  1.00  0.00    -0.248 NA
ATOM     56  C   UNL A   1      37.468  34.362  33.752  1.00  0.00     0.031 C 
ATOM     57  C   UNL A   1      41.824  32.282  37.441  1.00  0.00     0.029 A 
ATOM     58  C   UNL A   1      40.954  32.427  36.372  1.00  0.00     0.049 A 
ATOM     59  H   UNL A   1      40.733  31.208  34.664  1.00  0.00     0.167 HD
ATOM     60  C   UNL A   1      39.147  33.522  35.071  1.00  0.00     0.074 A 
ATOM     61  C   UNL A   1      38.167  34.569  34.860  1.00  0.00     0.031 C 
ATOM     62  C   UNL A   1      39.968  33.455  36.150  1.00  0.00     0.031 A 
BRANCH  49  63
ATOM     63  C   UNL A   1      43.808  28.605  36.089  1.00  0.00    -0.014 A 
ATOM     64  C   UNL A   1      45.171  28.888  35.873  1.00  0.00     0.010 A 
ATOM     65  C   UNL A   1      43.457  27.587  36.994  1.00  0.00     0.010 A 
ATOM     66  C   UNL A   1      46.159  28.140  36.519  1.00  0.00     0.020 A 
ATOM     67  C   UNL A   1      44.443  26.856  37.662  1.00  0.00     0.020 A 
ATOM     68  C   UNL A   1      45.789  27.127  37.407  1.00  0.00     0.054 A 
BRANCH  68  69
ATOM     69  S   UNL A   1      47.091  26.182  38.245  1.00  0.00     0.124 S 
ATOM     70  O   UNL A   1      47.554  25.297  37.180  1.00  0.00    -0.237 OA
ATOM     71  O   UNL A   1      48.033  27.224  38.649  1.00  0.00    -0.237 OA
ATOM     72  O   UNL A   1      46.390  25.521  39.342  1.00  0.00    -0.744 OA
ENDBRANCH  68  69
ENDBRANCH  49  63
BRANCH  50  73
ATOM     73  C   UNL A   1      36.525  33.366  31.162  1.00  0.00    -0.014 A 
ATOM     74  C   UNL A   1      36.702  33.810  29.839  1.00  0.00     0.010 A 
ATOM     75  C   UNL A   1      35.293  33.600  31.801  1.00  0.00     0.010 A 
ATOM     76  C   UNL A   1      35.673  34.488  29.176  1.00  0.00     0.020 A 
ATOM     77  C   UNL A   1      34.255  34.253  31.133  1.00  0.00     0.020 A 
ATOM     78  C   UNL A   1      34.455  34.703  29.827  1.00  0.00     0.054 A 
BRANCH  78  79
ATOM     79  S   UNL A   1      33.116  35.536  28.931  1.00  0.00     0.124 S 
ATOM     80  O   UNL A   1      33.851  36.480  28.096  1.00  0.00    -0.237 OA
ATOM     81  O   UNL A   1      32.474  34.431  28.225  1.00  0.00    -0.237 OA
ATOM     82  O   UNL A   1      32.314  36.133  29.996  1.00  0.00    -0.744 OA
ENDBRANCH  78  79
ENDBRANCH  50  73
BRANCH  62  83
ATOM     83  C   UNL A   1      39.863  34.561  37.166  1.00  0.00    -0.014 A 
ATOM     84  C   UNL A   1      38.971  34.479  38.250  1.00  0.00     0.010 A 
ATOM     85  C   UNL A   1      40.692  35.693  37.046  1.00  0.00     0.010 A 
ATOM     86  C   UNL A   1      38.873  35.530  39.166  1.00  0.00     0.020 A 
ATOM     87  C   UNL A   1      40.619  36.732  37.977  1.00  0.00     0.020 A 
ATOM     88  C   UNL A   1      39.693  36.653  39.019  1.00  0.00     0.054 A 
BRANCH  88  89
ATOM     89  S   UNL A   1      39.555  38.001  40.225  1.00  0.00     0.124 S 
ATOM     90  O   UNL A   1      40.815  38.713  40.028  1.00  0.00    -0.237 OA
ATOM     91  O   UNL A   1      38.357  38.710  39.782  1.00  0.00    -0.237 OA
ATOM     92  O   UNL A   1      39.424  37.308  41.505  1.00  0.00    -0.744 OA
ENDBRANCH  88  89
ENDBRANCH  62  83
ENDBRANCH  36  37
ENDBRANCH  29  31
ENDBRANCH  28  29
ENDBRANCH  27  28
ENDBRANCH   1  27
TORSDOF 20
ENDMDL
MODEL 2
REMARK VINA RESULT:     -11.1      3.894      9.918
REMARK SMILES CS(=O)(=O)c1ccc(/C=C(/C(=O)OCCOCCOC(=O)c2ccc(-c3c4nc(c(-c5ccc(S(=O)(=O)[O-])cc5)c5ccc([nH]5)c(-c5ccc(S(=O)(=O)[O-])cc5)c5nc(c(-c6ccc(S(=O)(=O)[O-])cc6)c6ccc3[nH]6)C=C5)C=C4)cc2)c2ccc(F)cc2)cc1
REMARK SMILES IDX 17 1 16 2 15 3 14 4 13 5 11 6 12 7 10 8 9 9 8 10 5 11 6 12
REMARK SMILES IDX 90 13 7 14 89 15 2 16 1 17 3 18 4 19 82 20 83 21 88 22 84 23
REMARK SMILES IDX 87 24 85 25 86 26 18 27 19 28 20 29 21 30 22 31 23 32 81 33
REMARK SMILES IDX 24 34 80 35 25 36 26 37 27 38 74 39 28 40 79 41 73 42 75 43
REMARK SMILES IDX 29 44 78 45 72 46 71 47 30 49 60 50 41 51 59 52 42 53 45 54
REMARK SMILES IDX 58 55 76 56 43 57 44 58 57 60 77 61 46 62 31 63 32 64 40 65
REMARK SMILES IDX 33 66 39 67 34 68 35 69 36 70 37 71 38 72 61 73 62 74 70 75
REMARK SMILES IDX 63 76 69 77 64 78 65 79 66 80 67 81 68 82 47 83 48 84 56 85
REMARK SMILES IDX 49 86 55 87 50 88 51 89 52 90 53 91 54 92
REMARK H PARENT 75 48 45 59
REMARK Flexibility Score: inf
ROOT
ATOM      1  C   UNL A   1      33.092  28.351  26.232  1.00  0.00     0.202 C 
ENDROOT
BRANCH   1   2
ATOM      2  O   UNL A   1      33.015  28.195  24.819  1.00  0.00    -0.374 OA
BRANCH   2   3
ATOM      3  C   UNL A   1      33.733  27.106  24.235  1.00  0.00     0.202 C 
BRANCH   3   4
ATOM      4  C   UNL A   1      33.643  26.955  22.713  1.00  0.00     0.261 C 
BRANCH   4   5
ATOM      5  O   UNL A   1      33.757  25.576  22.312  1.00  0.00    -0.460 OA
BRANCH   5   6
ATOM      6  C   UNL A   1      32.688  24.799  22.626  1.00  0.00     0.338 C 
ATOM      7  O   UNL A   1      31.525  25.029  22.325  1.00  0.00    -0.246 OA
BRANCH   6   8
ATOM      8  C   UNL A   1      33.100  23.517  23.287  1.00  0.00     0.067 C 
ATOM      9  C   UNL A   1      32.273  22.445  23.289  1.00  0.00     0.024 C 
BRANCH   9  10
ATOM     10  C   UNL A   1      32.601  21.047  23.673  1.00  0.00    -0.025 A 
ATOM     11  C   UNL A   1      33.466  18.396  24.014  1.00  0.00     0.067 A 
ATOM     12  C   UNL A   1      33.920  19.388  24.880  1.00  0.00     0.021 A 
ATOM     13  C   UNL A   1      32.493  18.685  23.059  1.00  0.00     0.021 A 
ATOM     14  C   UNL A   1      33.462  20.697  24.723  1.00  0.00     0.009 A 
ATOM     15  C   UNL A   1      32.066  20.008  22.893  1.00  0.00     0.009 A 
BRANCH  11  16
ATOM     16  S   UNL A   1      34.175  16.772  24.125  1.00  0.00     0.175 S 
ATOM     17  C   UNL A   1      32.958  15.853  25.038  1.00  0.00     0.163 C 
ATOM     18  O   UNL A   1      35.365  16.857  24.954  1.00  0.00    -0.224 OA
ATOM     19  O   UNL A   1      34.235  16.235  22.783  1.00  0.00    -0.224 OA
ENDBRANCH  11  16
ENDBRANCH   9  10
BRANCH   8  20
ATOM     20  C   UNL A   1      34.468  23.489  23.842  1.00  0.00    -0.011 A 
ATOM     21  C   UNL A   1      34.683  23.894  25.173  1.00  0.00     0.012 A 
ATOM     22  C   UNL A   1      35.546  23.021  23.081  1.00  0.00     0.012 A 
ATOM     23  C   UNL A   1      35.952  23.800  25.742  1.00  0.00     0.040 A 
ATOM     24  C   UNL A   1      36.813  22.927  23.655  1.00  0.00     0.040 A 
ATOM     25  C   UNL A   1      37.004  23.311  24.979  1.00  0.00     0.123 A 
ATOM     26  F   UNL A   1      38.216  23.192  25.533  1.00  0.00    -0.207 F 
ENDBRANCH   8  20
ENDBRANCH   6   8
ENDBRANCH   5   6
ENDBRANCH   4   5
ENDBRANCH   3   4
ENDBRANCH   2   3
ENDBRANCH   1   2
BRANCH   1  27
ATOM     27  C   UNL A   1      32.842  29.745  26.819  1.00  0.00     0.261 C 
BRANCH  27  28
ATOM     28  O   UNL A   1      33.968  30.621  26.681  1.00  0.00    -0.460 OA
BRANCH  28  29
ATOM     29  C   UNL A   1      34.456  31.064  27.865  1.00  0.00     0.338 C 
ATOM     30  O   UNL A   1      33.905  31.822  28.650  1.00  0.00    -0.246 OA
BRANCH  29  31
ATOM     31  C   UNL A   1      35.715  30.370  28.194  1.00  0.00     0.060 A 
ATOM     32  C   UNL A   1      35.782  29.746  29.445  1.00  0.00     0.016 A 
ATOM     33  C   UNL A   1      36.825  30.393  27.347  1.00  0.00     0.016 A 
ATOM     34  C   UNL A   1      36.986  29.213  29.890  1.00  0.00     0.010 A 
ATOM     35  C   UNL A   1      38.037  29.858  27.798  1.00  0.00     0.010 A 
ATOM     36  C   UNL A   1      38.133  29.315  29.092  1.00  0.00    -0.014 A 
BRANCH  36  37
ATOM     37  C   UNL A   1      39.450  29.020  29.706  1.00  0.00     0.031 A 
ATOM     38  C   UNL A   1      39.865  29.787  30.934  1.00  0.00     0.074 A 
ATOM     39  C   UNL A   1      40.220  28.024  29.233  1.00  0.00     0.049 A 
ATOM     40  N   UNL A   1      40.928  29.639  31.682  1.00  0.00    -0.248 NA
ATOM     41  C   UNL A   1      38.960  30.859  31.381  1.00  0.00     0.031 C 
ATOM     42  C   UNL A   1      39.905  27.187  28.076  1.00  0.00     0.029 A 
ATOM     43  N   UNL A   1      41.423  27.541  29.683  1.00  0.00    -0.354 N 
ATOM     44  C   UNL A   1      40.821  30.597  32.683  1.00  0.00     0.074 A 
ATOM     45  C   UNL A   1      39.610  31.345  32.427  1.00  0.00     0.031 C 
ATOM     46  C   UNL A   1      40.888  26.284  27.912  1.00  0.00     0.029 A 
ATOM     47  C   UNL A   1      41.909  26.494  28.937  1.00  0.00     0.049 A 
ATOM     48  H   UNL A   1      41.893  27.908  30.465  1.00  0.00     0.167 HD
ATOM     49  C   UNL A   1      41.649  30.828  33.731  1.00  0.00     0.031 A 
ATOM     50  C   UNL A   1      43.049  25.787  29.066  1.00  0.00     0.031 A 
ATOM     51  C   UNL A   1      42.859  30.090  33.978  1.00  0.00     0.049 A 
ATOM     52  C   UNL A   1      43.979  26.096  30.209  1.00  0.00     0.074 A 
ATOM     53  C   UNL A   1      43.762  30.239  35.015  1.00  0.00     0.029 A 
ATOM     54  N   UNL A   1      43.337  29.066  33.175  1.00  0.00    -0.354 N 
ATOM     55  N   UNL A   1      43.850  26.987  31.163  1.00  0.00    -0.248 NA
ATOM     56  C   UNL A   1      45.202  25.286  30.303  1.00  0.00     0.031 C 
ATOM     57  C   UNL A   1      44.814  29.339  34.811  1.00  0.00     0.029 A 
ATOM     58  C   UNL A   1      44.535  28.588  33.680  1.00  0.00     0.049 A 
ATOM     59  H   UNL A   1      42.892  28.728  32.364  1.00  0.00     0.167 HD
ATOM     60  C   UNL A   1      44.961  26.828  31.984  1.00  0.00     0.074 A 
ATOM     61  C   UNL A   1      45.741  25.742  31.425  1.00  0.00     0.031 C 
ATOM     62  C   UNL A   1      45.303  27.512  33.105  1.00  0.00     0.031 A 
BRANCH  49  63
ATOM     63  C   UNL A   1      41.284  31.948  34.668  1.00  0.00    -0.014 A 
ATOM     64  C   UNL A   1      40.512  31.713  35.822  1.00  0.00     0.010 A 
ATOM     65  C   UNL A   1      41.741  33.252  34.405  1.00  0.00     0.010 A 
ATOM     66  C   UNL A   1      40.171  32.769  36.671  1.00  0.00     0.020 A 
ATOM     67  C   UNL A   1      41.425  34.305  35.268  1.00  0.00     0.020 A 
ATOM     68  C   UNL A   1      40.627  34.060  36.387  1.00  0.00     0.054 A 
BRANCH  68  69
ATOM     69  S   UNL A   1      40.184  35.410  37.515  1.00  0.00     0.124 S 
ATOM     70  O   UNL A   1      38.977  34.888  38.150  1.00  0.00    -0.237 OA
ATOM     71  O   UNL A   1      41.358  35.504  38.380  1.00  0.00    -0.237 OA
ATOM     72  O   UNL A   1      39.976  36.551  36.627  1.00  0.00    -0.744 OA
ENDBRANCH  68  69
ENDBRANCH  49  63
BRANCH  50  73
ATOM     73  C   UNL A   1      43.373  24.717  28.084  1.00  0.00    -0.014 A 
ATOM     74  C   UNL A   1      43.965  25.027  26.847  1.00  0.00     0.010 A 
ATOM     75  C   UNL A   1      43.090  23.372  28.389  1.00  0.00     0.010 A 
ATOM     76  C   UNL A   1      44.251  24.014  25.925  1.00  0.00     0.020 A 
ATOM     77  C   UNL A   1      43.399  22.356  27.482  1.00  0.00     0.020 A 
ATOM     78  C   UNL A   1      43.968  22.685  26.250  1.00  0.00     0.054 A 
BRANCH  78  79
ATOM     79  S   UNL A   1      44.398  21.381  25.064  1.00  0.00     0.124 S 
ATOM     80  O   UNL A   1      43.310  20.427  25.254  1.00  0.00    -0.237 OA
ATOM     81  O   UNL A   1      44.397  22.099  23.793  1.00  0.00    -0.237 OA
ATOM     82  O   UNL A   1      45.713  20.931  25.515  1.00  0.00    -0.744 OA
ENDBRANCH  78  79
ENDBRANCH  50  73
BRANCH  62  83
ATOM     83  C   UNL A   1      46.559  27.084  33.818  1.00  0.00    -0.014 A 
ATOM     84  C   UNL A   1      46.652  25.833  34.452  1.00  0.00     0.010 A 
ATOM     85  C   UNL A   1      47.674  27.943  33.831  1.00  0.00     0.010 A 
ATOM     86  C   UNL A   1      47.819  25.468  35.129  1.00  0.00     0.020 A 
ATOM     87  C   UNL A   1      48.853  27.570  34.481  1.00  0.00     0.020 A 
ATOM     88  C   UNL A   1      48.910  26.343  35.145  1.00  0.00     0.054 A 
BRANCH  88  89
ATOM     89  S   UNL A   1      50.418  25.846  36.022  1.00  0.00     0.124 S 
ATOM     90  O   UNL A   1      50.593  24.470  35.566  1.00  0.00    -0.237 OA
ATOM     91  O   UNL A   1      51.407  26.802  35.530  1.00  0.00    -0.237 OA
ATOM     92  O   UNL A   1      50.063  25.996  37.432  1.00  0.00    -0.744 OA
ENDBRANCH  88  89
ENDBRANCH  62  83
ENDBRANCH  36  37
ENDBRANCH  29  31
ENDBRANCH  28  29
ENDBRANCH  27  28
ENDBRANCH   1  27
TORSDOF 20
ENDMDL
MODEL 3
REMARK VINA RESULT:     -10.9      6.680     11.977
REMARK SMILES CS(=O)(=O)c1ccc(/C=C(/C(=O)OCCOCCOC(=O)c2ccc(-c3c4nc(c(-c5ccc(S(=O)(=O)[O-])cc5)c5ccc([nH]5)c(-c5ccc(S(=O)(=O)[O-])cc5)c5nc(c(-c6ccc(S(=O)(=O)[O-])cc6)c6ccc3[nH]6)C=C5)C=C4)cc2)c2ccc(F)cc2)cc1
REMARK SMILES IDX 17 1 16 2 15 3 14 4 13 5 11 6 12 7 10 8 9 9 8 10 5 11 6 12
REMARK SMILES IDX 90 13 7 14 89 15 2 16 1 17 3 18 4 19 82 20 83 21 88 22 84 23
REMARK SMILES IDX 87 24 85 25 86 26 18 27 19 28 20 29 21 30 22 31 23 32 81 33
REMARK SMILES IDX 24 34 80 35 25 36 26 37 27 38 74 39 28 40 79 41 73 42 75 43
REMARK SMILES IDX 29 44 78 45 72 46 71 47 30 49 60 50 41 51 59 52 42 53 45 54
REMARK SMILES IDX 58 55 76 56 43 57 44 58 57 60 77 61 46 62 31 63 32 64 40 65
REMARK SMILES IDX 33 66 39 67 34 68 35 69 36 70 37 71 38 72 61 73 62 74 70 75
REMARK SMILES IDX 63 76 69 77 64 78 65 79 66 80 67 81 68 82 47 83 48 84 56 85
REMARK SMILES IDX 49 86 55 87 50 88 51 89 52 90 53 91 54 92
REMARK H PARENT 75 48 45 59
REMARK Flexibility Score: inf
ROOT
ATOM      1  C   UNL A   1      34.881  32.135  29.189  1.00  0.00     0.202 C 
ENDROOT
BRANCH   1   2
ATOM      2  O   UNL A   1      34.941  31.546  27.895  1.00  0.00    -0.374 OA
BRANCH   2   3
ATOM      3  C   UNL A   1      34.542  30.178  27.774  1.00  0.00     0.202 C 
BRANCH   3   4
ATOM      4  C   UNL A   1      33.607  29.831  26.611  1.00  0.00     0.261 C 
BRANCH   4   5
ATOM      5  O   UNL A   1      34.074  28.676  25.887  1.00  0.00    -0.460 OA
BRANCH   5   6
ATOM      6  C   UNL A   1      33.571  28.545  24.633  1.00  0.00     0.338 C 
ATOM      7  O   UNL A   1      33.507  29.431  23.793  1.00  0.00    -0.246 OA
BRANCH   6   8
ATOM      8  C   UNL A   1      33.206  27.124  24.319  1.00  0.00     0.067 C 
ATOM      9  C   UNL A   1      34.167  26.185  24.155  1.00  0.00     0.024 C 
BRANCH   9  10
ATOM     10  C   UNL A   1      33.993  24.711  24.083  1.00  0.00    -0.025 A 
ATOM     11  C   UNL A   1      33.267  21.998  24.160  1.00  0.00     0.067 A 
ATOM     12  C   UNL A   1      33.310  22.667  22.939  1.00  0.00     0.021 A 
ATOM     13  C   UNL A   1      33.699  22.629  25.325  1.00  0.00     0.021 A 
ATOM     14  C   UNL A   1      33.701  24.007  22.905  1.00  0.00     0.009 A 
ATOM     15  C   UNL A   1      34.059  23.981  25.281  1.00  0.00     0.009 A 
BRANCH  11  16
ATOM     16  S   UNL A   1      32.618  20.346  24.209  1.00  0.00     0.175 S 
ATOM     17  C   UNL A   1      34.045  19.355  24.588  1.00  0.00     0.163 C 
ATOM     18  O   UNL A   1      32.190  19.992  22.867  1.00  0.00    -0.224 OA
ATOM     19  O   UNL A   1      31.706  20.273  25.329  1.00  0.00    -0.224 OA
ENDBRANCH  11  16
ENDBRANCH   9  10
BRANCH   8  20
ATOM     20  C   UNL A   1      31.761  26.821  24.291  1.00  0.00    -0.011 A 
ATOM     21  C   UNL A   1      31.160  26.214  25.410  1.00  0.00     0.012 A 
ATOM     22  C   UNL A   1      30.971  27.171  23.190  1.00  0.00     0.012 A 
ATOM     23  C   UNL A   1      29.784  25.992  25.438  1.00  0.00     0.040 A 
ATOM     24  C   UNL A   1      29.595  26.949  23.222  1.00  0.00     0.040 A 
ATOM     25  C   UNL A   1      29.014  26.369  24.346  1.00  0.00     0.123 A 
ATOM     26  F   UNL A   1      27.689  26.183  24.383  1.00  0.00    -0.207 F 
ENDBRANCH   8  20
ENDBRANCH   6   8
ENDBRANCH   5   6
ENDBRANCH   4   5
ENDBRANCH   3   4
ENDBRANCH   2   3
ENDBRANCH   1   2
BRANCH   1  27
ATOM     27  C   UNL A   1      36.202  32.445  29.903  1.00  0.00     0.261 C 
BRANCH  27  28
ATOM     28  O   UNL A   1      36.369  31.703  31.117  1.00  0.00    -0.460 OA
BRANCH  28  29
ATOM     29  C   UNL A   1      36.787  30.429  30.921  1.00  0.00     0.338 C 
ATOM     30  O   UNL A   1      36.109  29.415  30.987  1.00  0.00    -0.246 OA
BRANCH  29  31
ATOM     31  C   UNL A   1      38.179  30.415  30.432  1.00  0.00     0.060 A 
ATOM     32  C   UNL A   1      38.359  30.340  29.046  1.00  0.00     0.016 A 
ATOM     33  C   UNL A   1      39.275  30.392  31.297  1.00  0.00     0.016 A 
ATOM     34  C   UNL A   1      39.634  30.159  28.522  1.00  0.00     0.010 A 
ATOM     35  C   UNL A   1      40.557  30.208  30.768  1.00  0.00     0.010 A 
ATOM     36  C   UNL A   1      40.732  30.037  29.383  1.00  0.00    -0.014 A 
BRANCH  36  37
ATOM     37  C   UNL A   1      42.016  29.546  28.826  1.00  0.00     0.031 A 
ATOM     38  C   UNL A   1      43.184  30.494  28.752  1.00  0.00     0.074 A 
ATOM     39  C   UNL A   1      42.165  28.255  28.479  1.00  0.00     0.049 A 
ATOM     40  N   UNL A   1      44.417  30.261  28.382  1.00  0.00    -0.248 NA
ATOM     41  C   UNL A   1      42.930  31.887  29.153  1.00  0.00     0.031 C 
ATOM     42  C   UNL A   1      41.118  27.236  28.544  1.00  0.00     0.029 A 
ATOM     43  N   UNL A   1      43.265  27.580  28.015  1.00  0.00    -0.354 N 
ATOM     44  C   UNL A   1      45.083  31.474  28.504  1.00  0.00     0.074 A 
ATOM     45  C   UNL A   1      44.111  32.450  28.944  1.00  0.00     0.031 C 
ATOM     46  C   UNL A   1      41.631  26.059  28.142  1.00  0.00     0.029 A 
ATOM     47  C   UNL A   1      43.032  26.248  27.774  1.00  0.00     0.049 A 
ATOM     48  H   UNL A   1      44.139  28.010  27.870  1.00  0.00     0.167 HD
ATOM     49  C   UNL A   1      46.390  31.753  28.281  1.00  0.00     0.031 A 
ATOM     50  C   UNL A   1      43.857  25.291  27.306  1.00  0.00     0.031 A 
ATOM     51  C   UNL A   1      47.354  30.784  27.831  1.00  0.00     0.049 A 
ATOM     52  C   UNL A   1      45.294  25.635  27.016  1.00  0.00     0.074 A 
ATOM     53  C   UNL A   1      48.703  30.961  27.584  1.00  0.00     0.029 A 
ATOM     54  N   UNL A   1      47.069  29.454  27.557  1.00  0.00    -0.354 N 
ATOM     55  N   UNL A   1      45.914  26.782  27.161  1.00  0.00    -0.248 NA
ATOM     56  C   UNL A   1      46.147  24.547  26.516  1.00  0.00     0.031 C 
ATOM     57  C   UNL A   1      49.223  29.752  27.111  1.00  0.00     0.029 A 
ATOM     58  C   UNL A   1      48.211  28.805  27.121  1.00  0.00     0.049 A 
ATOM     59  H   UNL A   1      46.183  29.034  27.656  1.00  0.00     0.167 HD
ATOM     60  C   UNL A   1      47.236  26.546  26.796  1.00  0.00     0.074 A 
ATOM     61  C   UNL A   1      47.328  25.145  26.442  1.00  0.00     0.031 C 
ATOM     62  C   UNL A   1      48.283  27.410  26.764  1.00  0.00     0.031 A 
BRANCH  49  63
ATOM     63  C   UNL A   1      46.842  33.174  28.490  1.00  0.00    -0.014 A 
ATOM     64  C   UNL A   1      47.401  33.590  29.713  1.00  0.00     0.010 A 
ATOM     65  C   UNL A   1      46.728  34.102  27.439  1.00  0.00     0.010 A 
ATOM     66  C   UNL A   1      47.799  34.918  29.892  1.00  0.00     0.020 A 
ATOM     67  C   UNL A   1      47.152  35.423  27.606  1.00  0.00     0.020 A 
ATOM     68  C   UNL A   1      47.669  35.827  28.838  1.00  0.00     0.054 A 
BRANCH  68  69
ATOM     69  S   UNL A   1      48.210  37.540  29.092  1.00  0.00     0.124 S 
ATOM     70  O   UNL A   1      47.271  38.004  30.110  1.00  0.00    -0.237 OA
ATOM     71  O   UNL A   1      49.591  37.377  29.539  1.00  0.00    -0.237 OA
ATOM     72  O   UNL A   1      48.053  38.152  27.775  1.00  0.00    -0.744 OA
ENDBRANCH  68  69
ENDBRANCH  49  63
BRANCH  50  73
ATOM     73  C   UNL A   1      43.342  23.912  27.083  1.00  0.00    -0.014 A 
ATOM     74  C   UNL A   1      43.272  22.988  28.140  1.00  0.00     0.010 A 
ATOM     75  C   UNL A   1      42.915  23.518  25.801  1.00  0.00     0.010 A 
ATOM     76  C   UNL A   1      42.800  21.690  27.916  1.00  0.00     0.020 A 
ATOM     77  C   UNL A   1      42.418  22.232  25.580  1.00  0.00     0.020 A 
ATOM     78  C   UNL A   1      42.374  21.321  26.637  1.00  0.00     0.054 A 
BRANCH  78  79
ATOM     79  S   UNL A   1      41.714  19.651  26.379  1.00  0.00     0.124 S 
ATOM     80  O   UNL A   1      40.284  19.907  26.247  1.00  0.00    -0.237 OA
ATOM     81  O   UNL A   1      42.398  19.227  25.160  1.00  0.00    -0.237 OA
ATOM     82  O   UNL A   1      42.115  18.937  27.589  1.00  0.00    -0.744 OA
ENDBRANCH  78  79
ENDBRANCH  50  73
BRANCH  62  83
ATOM     83  C   UNL A   1      49.623  26.854  26.361  1.00  0.00    -0.014 A 
ATOM     84  C   UNL A   1      50.137  27.045  25.066  1.00  0.00     0.010 A 
ATOM     85  C   UNL A   1      50.392  26.148  27.306  1.00  0.00     0.010 A 
ATOM     86  C   UNL A   1      51.373  26.498  24.709  1.00  0.00     0.020 A 
ATOM     87  C   UNL A   1      51.640  25.626  26.962  1.00  0.00     0.020 A 
ATOM     88  C   UNL A   1      52.113  25.785  25.657  1.00  0.00     0.054 A 
BRANCH  88  89
ATOM     89  S   UNL A   1      53.717  25.091  25.174  1.00  0.00     0.124 S 
ATOM     90  O   UNL A   1      53.502  23.661  25.376  1.00  0.00    -0.237 OA
ATOM     91  O   UNL A   1      53.847  25.517  23.782  1.00  0.00    -0.237 OA
ATOM     92  O   UNL A   1      54.658  25.717  26.101  1.00  0.00    -0.744 OA
ENDBRANCH  88  89
ENDBRANCH  62  83
ENDBRANCH  36  37
ENDBRANCH  29  31
ENDBRANCH  28  29
ENDBRANCH  27  28
ENDBRANCH   1  27
TORSDOF 20
ENDMDL
