MODEL 1
REMARK VINA RESULT:     -10.3      0.000      0.000
REMARK SMILES Cc1ccc(C)c([C@@H](O)[C@@H](C)[C@@H](C)C(=O)OCCOCCOC(=O)c2ccc(-c3c4nc(c(-c5ccc(S(=O)(=O)[O-])cc5)c5ccc([nH]5)c(-c5ccc(S(=O)(=O)[O-])cc5)c5nc(c(-c6ccc(S(=O)(=O)[O-])cc6)c6ccc3[nH]6)C=C5)C=C4)cc2)c1
REMARK SMILES IDX 19 1 18 2 17 3 16 4 14 5 15 6 12 7 13 8 10 9 11 10 8 11 7 12
REMARK SMILES IDX 1 13 2 14 3 15 85 16 4 17 5 18 6 19 9 20 20 22 21 23 22 24
REMARK SMILES IDX 23 25 24 26 25 27 26 28 84 29 27 30 83 31 28 32 29 33 30 34
REMARK SMILES IDX 77 35 31 36 82 37 76 38 78 39 32 40 81 41 75 42 74 43 33 45
REMARK SMILES IDX 63 46 44 47 62 48 45 49 48 50 61 51 79 52 46 53 47 54 60 56
REMARK SMILES IDX 80 57 49 58 34 59 35 60 43 61 36 62 42 63 37 64 38 65 39 66
REMARK SMILES IDX 40 67 41 68 64 69 65 70 73 71 66 72 72 73 67 74 68 75 69 76
REMARK SMILES IDX 70 77 71 78 50 79 51 80 59 81 52 82 58 83 53 84 54 85 55 86
REMARK SMILES IDX 56 87 57 88
REMARK H PARENT 9 21 78 44 48 55
REMARK Flexibility Score: inf
ROOT
ATOM      1  O   UNL A   1      36.524  22.838  25.555  1.00  0.00    -0.374 OA
ENDROOT
BRANCH   1   2
ATOM      2  C   UNL A   1      35.999  24.029  25.000  1.00  0.00     0.202 C 
BRANCH   2   3
ATOM      3  C   UNL A   1      34.701  24.385  25.753  1.00  0.00     0.261 C 
BRANCH   3   4
ATOM      4  O   UNL A   1      33.549  24.401  24.886  1.00  0.00    -0.463 OA
BRANCH   4   5
ATOM      5  C   UNL A   1      33.291  25.596  24.288  1.00  0.00     0.309 C 
ATOM      6  O   UNL A   1      33.794  25.983  23.259  1.00  0.00    -0.252 OA
BRANCH   5   7
ATOM      7  C   UNL A   1      32.120  26.330  24.924  1.00  0.00     0.102 C 
ATOM      8  C   UNL A   1      31.161  26.822  23.849  1.00  0.00     0.020 C 
BRANCH   7   9
ATOM      9  C   UNL A   1      32.758  27.339  25.887  1.00  0.00     0.033 C 
ATOM     10  C   UNL A   1      31.912  27.443  27.185  1.00  0.00     0.011 C 
BRANCH   9  11
ATOM     11  C   UNL A   1      33.020  28.750  25.325  1.00  0.00     0.148 C 
BRANCH  11  12
ATOM     12  C   UNL A   1      33.654  29.585  26.428  1.00  0.00    -0.016 A 
ATOM     13  C   UNL A   1      37.176  29.818  27.867  1.00  0.00     0.044 C 
ATOM     14  C   UNL A   1      35.742  30.132  27.572  1.00  0.00    -0.051 A 
ATOM     15  C   UNL A   1      35.145  31.284  28.085  1.00  0.00     0.004 A 
ATOM     16  C   UNL A   1      34.984  29.277  26.772  1.00  0.00     0.010 A 
ATOM     17  C   UNL A   1      33.811  31.578  27.799  1.00  0.00     0.004 A 
ATOM     18  C   UNL A   1      33.042  30.736  26.983  1.00  0.00    -0.045 A 
ATOM     19  C   UNL A   1      31.634  31.184  26.670  1.00  0.00     0.045 C 
ENDBRANCH  11  12
BRANCH  11  20
ATOM     20  O   UNL A   1      33.888  28.781  24.207  1.00  0.00    -0.388 OA
ATOM     21  H   UNL A   1      33.766  29.614  23.726  1.00  0.00     0.211 HD
ENDBRANCH  11  20
ENDBRANCH   9  11
ENDBRANCH   7   9
ENDBRANCH   5   7
ENDBRANCH   4   5
ENDBRANCH   3   4
ENDBRANCH   2   3
ENDBRANCH   1   2
BRANCH   1  22
ATOM     22  C   UNL A   1      36.889  21.777  24.695  1.00  0.00     0.202 C 
BRANCH  22  23
ATOM     23  C   UNL A   1      38.114  21.032  25.230  1.00  0.00     0.261 C 
BRANCH  23  24
ATOM     24  O   UNL A   1      38.658  21.528  26.478  1.00  0.00    -0.460 OA
BRANCH  24  25
ATOM     25  C   UNL A   1      39.961  21.927  26.462  1.00  0.00     0.338 C 
ATOM     26  O   UNL A   1      40.871  21.282  25.968  1.00  0.00    -0.246 OA
BRANCH  25  27
ATOM     27  C   UNL A   1      40.107  23.233  27.165  1.00  0.00     0.060 A 
ATOM     28  C   UNL A   1      39.362  24.335  26.727  1.00  0.00     0.016 A 
ATOM     29  C   UNL A   1      41.170  23.413  28.061  1.00  0.00     0.016 A 
ATOM     30  C   UNL A   1      39.755  25.623  27.103  1.00  0.00     0.010 A 
ATOM     31  C   UNL A   1      41.606  24.692  28.363  1.00  0.00     0.010 A 
ATOM     32  C   UNL A   1      40.906  25.805  27.884  1.00  0.00    -0.014 A 
BRANCH  32  33
ATOM     33  C   UNL A   1      41.151  27.088  28.556  1.00  0.00     0.031 A 
ATOM     34  C   UNL A   1      42.353  27.722  28.017  1.00  0.00     0.074 A 
ATOM     35  C   UNL A   1      40.412  27.773  29.451  1.00  0.00     0.049 A 
ATOM     36  N   UNL A   1      43.491  27.761  28.618  1.00  0.00    -0.248 NA
ATOM     37  C   UNL A   1      42.362  28.178  26.620  1.00  0.00     0.031 C 
ATOM     38  C   UNL A   1      39.190  27.322  30.059  1.00  0.00     0.029 A 
ATOM     39  N   UNL A   1      40.543  29.030  29.984  1.00  0.00    -0.354 N 
ATOM     40  C   UNL A   1      44.286  28.503  27.779  1.00  0.00     0.074 A 
ATOM     41  C   UNL A   1      43.646  28.503  26.483  1.00  0.00     0.031 C 
ATOM     42  C   UNL A   1      38.535  28.316  30.679  1.00  0.00     0.029 A 
ATOM     43  C   UNL A   1      39.400  29.472  30.648  1.00  0.00     0.049 A 
ATOM     44  H   UNL A   1      41.364  29.567  29.905  1.00  0.00     0.167 HD
ATOM     45  C   UNL A   1      45.178  29.383  28.293  1.00  0.00     0.031 A 
ATOM     46  C   UNL A   1      39.154  30.636  31.286  1.00  0.00     0.031 A 
ATOM     47  C   UNL A   1      45.421  29.183  29.697  1.00  0.00     0.049 A 
ATOM     48  C   UNL A   1      40.455  31.115  31.788  1.00  0.00     0.074 A 
ATOM     49  C   UNL A   1      45.947  28.159  30.455  1.00  0.00     0.029 A 
ATOM     50  N   UNL A   1      44.712  29.998  30.550  1.00  0.00    -0.354 N 
ATOM     51  N   UNL A   1      41.119  30.504  32.732  1.00  0.00    -0.248 NA
ATOM     52  C   UNL A   1      41.224  32.066  30.999  1.00  0.00     0.031 C 
ATOM     53  C   UNL A   1      45.346  28.262  31.741  1.00  0.00     0.029 A 
ATOM     54  C   UNL A   1      44.477  29.355  31.743  1.00  0.00     0.049 A 
ATOM     55  H   UNL A   1      44.414  30.911  30.337  1.00  0.00     0.167 HD
ATOM     56  C   UNL A   1      42.444  30.649  32.363  1.00  0.00     0.074 A 
ATOM     57  C   UNL A   1      42.455  31.745  31.406  1.00  0.00     0.031 C 
ATOM     58  C   UNL A   1      43.364  29.677  32.623  1.00  0.00     0.031 A 
BRANCH  45  59
ATOM     59  C   UNL A   1      45.439  30.678  27.596  1.00  0.00    -0.014 A 
ATOM     60  C   UNL A   1      46.706  30.937  27.065  1.00  0.00     0.010 A 
ATOM     61  C   UNL A   1      44.501  31.736  27.626  1.00  0.00     0.010 A 
ATOM     62  C   UNL A   1      47.008  32.201  26.547  1.00  0.00     0.020 A 
ATOM     63  C   UNL A   1      44.771  32.977  27.064  1.00  0.00     0.020 A 
ATOM     64  C   UNL A   1      46.035  33.207  26.542  1.00  0.00     0.054 A 
BRANCH  64  65
ATOM     65  S   UNL A   1      46.440  34.838  25.882  1.00  0.00     0.124 S 
ATOM     66  O   UNL A   1      45.676  35.713  26.766  1.00  0.00    -0.237 OA
ATOM     67  O   UNL A   1      47.890  34.886  26.037  1.00  0.00    -0.237 OA
ATOM     68  O   UNL A   1      45.968  34.773  24.501  1.00  0.00    -0.744 OA
ENDBRANCH  64  65
ENDBRANCH  45  59
BRANCH  46  69
ATOM     69  C   UNL A   1      37.858  31.346  31.422  1.00  0.00    -0.014 A 
ATOM     70  C   UNL A   1      37.006  31.115  32.515  1.00  0.00     0.010 A 
ATOM     71  C   UNL A   1      37.578  32.461  30.600  1.00  0.00     0.010 A 
ATOM     72  C   UNL A   1      35.978  32.019  32.833  1.00  0.00     0.020 A 
ATOM     73  C   UNL A   1      36.547  33.360  30.901  1.00  0.00     0.020 A 
ATOM     74  C   UNL A   1      35.777  33.154  32.041  1.00  0.00     0.054 A 
BRANCH  74  75
ATOM     75  S   UNL A   1      34.616  34.439  32.597  1.00  0.00     0.124 S 
ATOM     76  O   UNL A   1      35.420  35.193  33.554  1.00  0.00    -0.237 OA
ATOM     77  O   UNL A   1      34.295  35.134  31.353  1.00  0.00    -0.237 OA
ATOM     78  O   UNL A   1      33.511  33.677  33.177  1.00  0.00    -0.744 OA
ENDBRANCH  74  75
ENDBRANCH  46  69
BRANCH  58  79
ATOM     79  C   UNL A   1      43.120  28.750  33.791  1.00  0.00    -0.014 A 
ATOM     80  C   UNL A   1      43.532  29.007  35.111  1.00  0.00     0.010 A 
ATOM     81  C   UNL A   1      42.306  27.627  33.548  1.00  0.00     0.010 A 
ATOM     82  C   UNL A   1      43.131  28.163  36.161  1.00  0.00     0.020 A 
ATOM     83  C   UNL A   1      41.892  26.792  34.589  1.00  0.00     0.020 A 
ATOM     84  C   UNL A   1      42.306  27.064  35.893  1.00  0.00     0.054 A 
BRANCH  84  85
ATOM     85  S   UNL A   1      41.703  26.034  37.263  1.00  0.00     0.124 S 
ATOM     86  O   UNL A   1      41.596  24.716  36.645  1.00  0.00    -0.237 OA
ATOM     87  O   UNL A   1      42.757  26.177  38.266  1.00  0.00    -0.237 OA
ATOM     88  O   UNL A   1      40.428  26.651  37.628  1.00  0.00    -0.744 OA
ENDBRANCH  84  85
ENDBRANCH  58  79
ENDBRANCH  32  33
ENDBRANCH  25  27
ENDBRANCH  24  25
ENDBRANCH  23  24
ENDBRANCH  22  23
ENDBRANCH   1  22
TORSDOF 21
ENDMDL
MODEL 2
REMARK VINA RESULT:     -10.3      1.432      2.362
REMARK SMILES Cc1ccc(C)c([C@@H](O)[C@@H](C)[C@@H](C)C(=O)OCCOCCOC(=O)c2ccc(-c3c4nc(c(-c5ccc(S(=O)(=O)[O-])cc5)c5ccc([nH]5)c(-c5ccc(S(=O)(=O)[O-])cc5)c5nc(c(-c6ccc(S(=O)(=O)[O-])cc6)c6ccc3[nH]6)C=C5)C=C4)cc2)c1
REMARK SMILES IDX 19 1 18 2 17 3 16 4 14 5 15 6 12 7 13 8 10 9 11 10 8 11 7 12
REMARK SMILES IDX 1 13 2 14 3 15 85 16 4 17 5 18 6 19 9 20 20 22 21 23 22 24
REMARK SMILES IDX 23 25 24 26 25 27 26 28 84 29 27 30 83 31 28 32 29 33 30 34
REMARK SMILES IDX 77 35 31 36 82 37 76 38 78 39 32 40 81 41 75 42 74 43 33 45
REMARK SMILES IDX 63 46 44 47 62 48 45 49 48 50 61 51 79 52 46 53 47 54 60 56
REMARK SMILES IDX 80 57 49 58 34 59 35 60 43 61 36 62 42 63 37 64 38 65 39 66
REMARK SMILES IDX 40 67 41 68 64 69 65 70 73 71 66 72 72 73 67 74 68 75 69 76
REMARK SMILES IDX 70 77 71 78 50 79 51 80 59 81 52 82 58 83 53 84 54 85 55 86
REMARK SMILES IDX 56 87 57 88
REMARK H PARENT 9 21 78 44 48 55
REMARK Flexibility Score: inf
ROOT
ATOM      1  O   UNL A   1      35.491  21.055  24.626  1.00  0.00    -0.374 OA
ENDROOT
BRANCH   1   2
ATOM      2  C   UNL A   1      34.334  21.151  25.434  1.00  0.00     0.202 C 
BRANCH   2   3
ATOM      3  C   UNL A   1      33.135  20.601  24.633  1.00  0.00     0.261 C 
BRANCH   3   4
ATOM      4  O   UNL A   1      31.877  21.143  25.083  1.00  0.00    -0.463 OA
BRANCH   4   5
ATOM      5  C   UNL A   1      31.669  22.452  24.780  1.00  0.00     0.309 C 
ATOM      6  O   UNL A   1      31.457  22.885  23.670  1.00  0.00    -0.252 OA
BRANCH   5   7
ATOM      7  C   UNL A   1      31.504  23.322  26.016  1.00  0.00     0.102 C 
ATOM      8  C   UNL A   1      30.251  22.916  26.782  1.00  0.00     0.020 C 
BRANCH   7   9
ATOM      9  C   UNL A   1      31.647  24.763  25.512  1.00  0.00     0.033 C 
ATOM     10  C   UNL A   1      33.101  25.262  25.732  1.00  0.00     0.011 C 
BRANCH   9  11
ATOM     11  C   UNL A   1      30.653  25.791  26.088  1.00  0.00     0.148 C 
BRANCH  11  12
ATOM     12  C   UNL A   1      31.020  27.161  25.535  1.00  0.00    -0.016 A 
ATOM     13  C   UNL A   1      30.240  28.986  22.279  1.00  0.00     0.044 C 
ATOM     14  C   UNL A   1      30.702  28.718  23.679  1.00  0.00    -0.051 A 
ATOM     15  C   UNL A   1      31.181  29.754  24.482  1.00  0.00     0.004 A 
ATOM     16  C   UNL A   1      30.653  27.425  24.201  1.00  0.00     0.010 A 
ATOM     17  C   UNL A   1      31.601  29.500  25.788  1.00  0.00     0.004 A 
ATOM     18  C   UNL A   1      31.542  28.210  26.331  1.00  0.00    -0.045 A 
ATOM     19  C   UNL A   1      31.944  28.056  27.779  1.00  0.00     0.045 C 
ENDBRANCH  11  12
BRANCH  11  20
ATOM     20  O   UNL A   1      29.299  25.542  25.759  1.00  0.00    -0.388 OA
ATOM     21  H   UNL A   1      29.256  25.012  24.948  1.00  0.00     0.211 HD
ENDBRANCH  11  20
ENDBRANCH   9  11
ENDBRANCH   7   9
ENDBRANCH   5   7
ENDBRANCH   4   5
ENDBRANCH   3   4
ENDBRANCH   2   3
ENDBRANCH   1   2
BRANCH   1  22
ATOM     22  C   UNL A   1      36.539  20.190  25.020  1.00  0.00     0.202 C 
BRANCH  22  23
ATOM     23  C   UNL A   1      37.885  20.917  25.006  1.00  0.00     0.261 C 
BRANCH  23  24
ATOM     24  O   UNL A   1      38.181  21.719  26.175  1.00  0.00    -0.460 OA
BRANCH  24  25
ATOM     25  C   UNL A   1      39.498  21.907  26.472  1.00  0.00     0.338 C 
ATOM     26  O   UNL A   1      40.380  21.100  26.226  1.00  0.00    -0.246 OA
BRANCH  25  27
ATOM     27  C   UNL A   1      39.687  23.212  27.167  1.00  0.00     0.060 A 
ATOM     28  C   UNL A   1      38.886  24.303  26.808  1.00  0.00     0.016 A 
ATOM     29  C   UNL A   1      40.825  23.406  27.962  1.00  0.00     0.016 A 
ATOM     30  C   UNL A   1      39.290  25.596  27.155  1.00  0.00     0.010 A 
ATOM     31  C   UNL A   1      41.266  24.691  28.231  1.00  0.00     0.010 A 
ATOM     32  C   UNL A   1      40.506  25.794  27.827  1.00  0.00    -0.014 A 
BRANCH  32  33
ATOM     33  C   UNL A   1      40.790  27.078  28.482  1.00  0.00     0.031 A 
ATOM     34  C   UNL A   1      41.988  27.687  27.905  1.00  0.00     0.074 A 
ATOM     35  C   UNL A   1      40.089  27.782  29.391  1.00  0.00     0.049 A 
ATOM     36  N   UNL A   1      43.143  27.710  28.475  1.00  0.00    -0.248 NA
ATOM     37  C   UNL A   1      41.967  28.132  26.506  1.00  0.00     0.031 C 
ATOM     38  C   UNL A   1      38.876  27.356  30.036  1.00  0.00     0.029 A 
ATOM     39  N   UNL A   1      40.255  29.040  29.911  1.00  0.00    -0.354 N 
ATOM     40  C   UNL A   1      43.927  28.433  27.609  1.00  0.00     0.074 A 
ATOM     41  C   UNL A   1      43.252  28.435  26.331  1.00  0.00     0.031 C 
ATOM     42  C   UNL A   1      38.254  28.365  30.666  1.00  0.00     0.029 A 
ATOM     43  C   UNL A   1      39.138  29.506  30.603  1.00  0.00     0.049 A 
ATOM     44  H   UNL A   1      41.083  29.562  29.806  1.00  0.00     0.167 HD
ATOM     45  C   UNL A   1      44.848  29.301  28.093  1.00  0.00     0.031 A 
ATOM     46  C   UNL A   1      38.930  30.679  31.239  1.00  0.00     0.031 A 
ATOM     47  C   UNL A   1      45.125  29.107  29.491  1.00  0.00     0.049 A 
ATOM     48  C   UNL A   1      40.252  31.138  31.701  1.00  0.00     0.074 A 
ATOM     49  C   UNL A   1      45.655  28.079  30.242  1.00  0.00     0.029 A 
ATOM     50  N   UNL A   1      44.454  29.940  30.357  1.00  0.00    -0.354 N 
ATOM     51  N   UNL A   1      40.930  30.523  32.632  1.00  0.00    -0.248 NA
ATOM     52  C   UNL A   1      41.015  32.070  30.884  1.00  0.00     0.031 C 
ATOM     53  C   UNL A   1      45.090  28.202  31.543  1.00  0.00     0.029 A 
ATOM     54  C   UNL A   1      44.241  29.309  31.560  1.00  0.00     0.049 A 
ATOM     55  H   UNL A   1      44.166  30.856  30.145  1.00  0.00     0.167 HD
ATOM     56  C   UNL A   1      42.247  30.642  32.226  1.00  0.00     0.074 A 
ATOM     57  C   UNL A   1      42.251  31.731  31.260  1.00  0.00     0.031 C 
ATOM     58  C   UNL A   1      43.158  29.657  32.468  1.00  0.00     0.031 A 
BRANCH  45  59
ATOM     59  C   UNL A   1      45.111  30.586  27.379  1.00  0.00    -0.014 A 
ATOM     60  C   UNL A   1      46.420  30.927  27.023  1.00  0.00     0.010 A 
ATOM     61  C   UNL A   1      44.103  31.566  27.223  1.00  0.00     0.010 A 
ATOM     62  C   UNL A   1      46.700  32.191  26.494  1.00  0.00     0.020 A 
ATOM     63  C   UNL A   1      44.359  32.803  26.647  1.00  0.00     0.020 A 
ATOM     64  C   UNL A   1      45.666  33.115  26.301  1.00  0.00     0.054 A 
BRANCH  64  65
ATOM     65  S   UNL A   1      46.041  34.748  25.629  1.00  0.00     0.124 S 
ATOM     66  O   UNL A   1      45.647  34.591  24.233  1.00  0.00    -0.237 OA
ATOM     67  O   UNL A   1      45.194  35.620  26.436  1.00  0.00    -0.237 OA
ATOM     68  O   UNL A   1      47.476  34.891  25.864  1.00  0.00    -0.744 OA
ENDBRANCH  64  65
ENDBRANCH  45  59
BRANCH  46  69
ATOM     69  C   UNL A   1      37.650  31.411  31.404  1.00  0.00    -0.014 A 
ATOM     70  C   UNL A   1      36.886  31.297  32.577  1.00  0.00     0.010 A 
ATOM     71  C   UNL A   1      37.309  32.443  30.500  1.00  0.00     0.010 A 
ATOM     72  C   UNL A   1      35.888  32.238  32.883  1.00  0.00     0.020 A 
ATOM     73  C   UNL A   1      36.307  33.378  30.791  1.00  0.00     0.020 A 
ATOM     74  C   UNL A   1      35.628  33.292  32.002  1.00  0.00     0.054 A 
BRANCH  74  75
ATOM     75  S   UNL A   1      34.518  34.637  32.517  1.00  0.00     0.124 S 
ATOM     76  O   UNL A   1      34.097  35.202  31.240  1.00  0.00    -0.237 OA
ATOM     77  O   UNL A   1      33.485  33.924  33.266  1.00  0.00    -0.237 OA
ATOM     78  O   UNL A   1      35.376  35.500  33.327  1.00  0.00    -0.744 OA
ENDBRANCH  74  75
ENDBRANCH  46  69
BRANCH  58  79
ATOM     79  C   UNL A   1      42.930  28.743  33.648  1.00  0.00    -0.014 A 
ATOM     80  C   UNL A   1      43.294  29.048  34.973  1.00  0.00     0.010 A 
ATOM     81  C   UNL A   1      42.180  27.575  33.410  1.00  0.00     0.010 A 
ATOM     82  C   UNL A   1      42.908  28.206  36.030  1.00  0.00     0.020 A 
ATOM     83  C   UNL A   1      41.781  26.742  34.457  1.00  0.00     0.020 A 
ATOM     84  C   UNL A   1      42.146  27.061  35.766  1.00  0.00     0.054 A 
BRANCH  84  85
ATOM     85  S   UNL A   1      41.561  26.030  37.142  1.00  0.00     0.124 S 
ATOM     86  O   UNL A   1      40.379  26.755  37.601  1.00  0.00    -0.237 OA
ATOM     87  O   UNL A   1      41.301  24.744  36.499  1.00  0.00    -0.237 OA
ATOM     88  O   UNL A   1      42.686  26.027  38.078  1.00  0.00    -0.744 OA
ENDBRANCH  84  85
ENDBRANCH  58  79
ENDBRANCH  32  33
ENDBRANCH  25  27
ENDBRANCH  24  25
ENDBRANCH  23  24
ENDBRANCH  22  23
ENDBRANCH   1  22
TORSDOF 21
ENDMDL
MODEL 3
REMARK VINA RESULT:     -10.2      2.434      9.600
REMARK SMILES Cc1ccc(C)c([C@@H](O)[C@@H](C)[C@@H](C)C(=O)OCCOCCOC(=O)c2ccc(-c3c4nc(c(-c5ccc(S(=O)(=O)[O-])cc5)c5ccc([nH]5)c(-c5ccc(S(=O)(=O)[O-])cc5)c5nc(c(-c6ccc(S(=O)(=O)[O-])cc6)c6ccc3[nH]6)C=C5)C=C4)cc2)c1
REMARK SMILES IDX 19 1 18 2 17 3 16 4 14 5 15 6 12 7 13 8 10 9 11 10 8 11 7 12
REMARK SMILES IDX 1 13 2 14 3 15 85 16 4 17 5 18 6 19 9 20 20 22 21 23 22 24
REMARK SMILES IDX 23 25 24 26 25 27 26 28 84 29 27 30 83 31 28 32 29 33 30 34
REMARK SMILES IDX 77 35 31 36 82 37 76 38 78 39 32 40 81 41 75 42 74 43 33 45
REMARK SMILES IDX 63 46 44 47 62 48 45 49 48 50 61 51 79 52 46 53 47 54 60 56
REMARK SMILES IDX 80 57 49 58 34 59 35 60 43 61 36 62 42 63 37 64 38 65 39 66
REMARK SMILES IDX 40 67 41 68 64 69 65 70 73 71 66 72 72 73 67 74 68 75 69 76
REMARK SMILES IDX 70 77 71 78 50 79 51 80 59 81 52 82 58 83 53 84 54 85 55 86
REMARK SMILES IDX 56 87 57 88
REMARK H PARENT 9 21 78 44 48 55
REMARK Flexibility Score: inf
ROOT
ATOM      1  O   UNL A   1      32.073  29.800  24.995  1.00  0.00    -0.374 OA
ENDROOT
BRANCH   1   2
ATOM      2  C   UNL A   1      31.370  29.170  23.942  1.00  0.00     0.202 C 
BRANCH   2   3
ATOM      3  C   UNL A   1      30.950  27.762  24.412  1.00  0.00     0.261 C 
BRANCH   3   4
ATOM      4  O   UNL A   1      31.979  26.776  24.187  1.00  0.00    -0.463 OA
BRANCH   4   5
ATOM      5  C   UNL A   1      32.084  25.819  25.148  1.00  0.00     0.309 C 
ATOM      6  O   UNL A   1      31.315  24.897  25.300  1.00  0.00    -0.252 OA
BRANCH   5   7
ATOM      7  C   UNL A   1      33.405  25.882  25.898  1.00  0.00     0.102 C 
ATOM      8  C   UNL A   1      33.818  27.332  26.116  1.00  0.00     0.020 C 
BRANCH   7   9
ATOM      9  C   UNL A   1      34.342  24.937  25.136  1.00  0.00     0.033 C 
ATOM     10  C   UNL A   1      34.012  24.971  23.619  1.00  0.00     0.011 C 
BRANCH   9  11
ATOM     11  C   UNL A   1      34.384  23.476  25.625  1.00  0.00     0.148 C 
BRANCH  11  12
ATOM     12  C   UNL A   1      35.825  22.992  25.535  1.00  0.00    -0.016 A 
ATOM     13  C   UNL A   1      39.174  24.470  26.598  1.00  0.00     0.044 C 
ATOM     14  C   UNL A   1      38.142  23.494  26.124  1.00  0.00    -0.051 A 
ATOM     15  C   UNL A   1      38.478  22.160  25.887  1.00  0.00     0.004 A 
ATOM     16  C   UNL A   1      36.826  23.906  25.918  1.00  0.00     0.010 A 
ATOM     17  C   UNL A   1      37.511  21.253  25.455  1.00  0.00     0.004 A 
ATOM     18  C   UNL A   1      36.181  21.649  25.259  1.00  0.00    -0.045 A 
ATOM     19  C   UNL A   1      35.195  20.573  24.868  1.00  0.00     0.045 C 
ENDBRANCH  11  12
BRANCH  11  20
ATOM     20  O   UNL A   1      33.950  23.294  26.960  1.00  0.00    -0.388 OA
ATOM     21  H   UNL A   1      32.981  23.316  26.991  1.00  0.00     0.211 HD
ENDBRANCH  11  20
ENDBRANCH   9  11
ENDBRANCH   7   9
ENDBRANCH   5   7
ENDBRANCH   4   5
ENDBRANCH   3   4
ENDBRANCH   2   3
ENDBRANCH   1   2
BRANCH   1  22
ATOM     22  C   UNL A   1      31.413  30.773  25.781  1.00  0.00     0.202 C 
BRANCH  22  23
ATOM     23  C   UNL A   1      32.224  31.109  27.035  1.00  0.00     0.261 C 
BRANCH  23  24
ATOM     24  O   UNL A   1      33.650  30.870  26.946  1.00  0.00    -0.460 OA
BRANCH  24  25
ATOM     25  C   UNL A   1      34.457  31.713  27.651  1.00  0.00     0.338 C 
ATOM     26  O   UNL A   1      34.119  32.816  28.047  1.00  0.00    -0.246 OA
BRANCH  25  27
ATOM     27  C   UNL A   1      35.807  31.106  27.825  1.00  0.00     0.060 A 
ATOM     28  C   UNL A   1      35.941  29.712  27.796  1.00  0.00     0.016 A 
ATOM     29  C   UNL A   1      36.863  31.905  28.283  1.00  0.00     0.016 A 
ATOM     30  C   UNL A   1      37.092  29.122  28.328  1.00  0.00     0.010 A 
ATOM     31  C   UNL A   1      37.963  31.316  28.885  1.00  0.00     0.010 A 
ATOM     32  C   UNL A   1      38.083  29.922  28.916  1.00  0.00    -0.014 A 
BRANCH  32  33
ATOM     33  C   UNL A   1      39.421  29.373  29.177  1.00  0.00     0.031 A 
ATOM     34  C   UNL A   1      39.715  29.418  30.609  1.00  0.00     0.074 A 
ATOM     35  C   UNL A   1      40.304  28.767  28.360  1.00  0.00     0.049 A 
ATOM     36  N   UNL A   1      40.504  30.270  31.166  1.00  0.00    -0.248 NA
ATOM     37  C   UNL A   1      38.931  28.587  31.532  1.00  0.00     0.031 C 
ATOM     38  C   UNL A   1      40.164  28.603  26.939  1.00  0.00     0.029 A 
ATOM     39  N   UNL A   1      41.489  28.121  28.601  1.00  0.00    -0.354 N 
ATOM     40  C   UNL A   1      40.525  29.890  32.486  1.00  0.00     0.074 A 
ATOM     41  C   UNL A   1      39.370  29.049  32.702  1.00  0.00     0.031 C 
ATOM     42  C   UNL A   1      41.044  27.721  26.441  1.00  0.00     0.029 A 
ATOM     43  C   UNL A   1      41.943  27.373  27.517  1.00  0.00     0.049 A 
ATOM     44  H   UNL A   1      41.972  28.180  29.457  1.00  0.00     0.167 HD
ATOM     45  C   UNL A   1      41.680  29.955  33.191  1.00  0.00     0.031 A 
ATOM     46  C   UNL A   1      43.051  26.612  27.380  1.00  0.00     0.031 A 
ATOM     47  C   UNL A   1      42.691  30.749  32.544  1.00  0.00     0.049 A 
ATOM     48  C   UNL A   1      44.069  27.203  28.268  1.00  0.00     0.074 A 
ATOM     49  C   UNL A   1      42.800  32.075  32.183  1.00  0.00     0.029 A 
ATOM     50  N   UNL A   1      43.627  30.051  31.817  1.00  0.00    -0.354 N 
ATOM     51  N   UNL A   1      44.602  28.376  28.052  1.00  0.00    -0.248 NA
ATOM     52  C   UNL A   1      44.245  26.675  29.612  1.00  0.00     0.031 C 
ATOM     53  C   UNL A   1      43.671  32.114  31.059  1.00  0.00     0.029 A 
ATOM     54  C   UNL A   1      44.085  30.813  30.767  1.00  0.00     0.049 A 
ATOM     55  H   UNL A   1      43.927  29.136  32.019  1.00  0.00     0.167 HD
ATOM     56  C   UNL A   1      44.769  28.910  29.317  1.00  0.00     0.074 A 
ATOM     57  C   UNL A   1      44.698  27.773  30.223  1.00  0.00     0.031 C 
ATOM     58  C   UNL A   1      44.640  30.247  29.547  1.00  0.00     0.031 A 
BRANCH  45  59
ATOM     59  C   UNL A   1      41.992  28.913  34.215  1.00  0.00    -0.014 A 
ATOM     60  C   UNL A   1      42.378  29.298  35.502  1.00  0.00     0.010 A 
ATOM     61  C   UNL A   1      42.099  27.546  33.869  1.00  0.00     0.010 A 
ATOM     62  C   UNL A   1      42.819  28.340  36.421  1.00  0.00     0.020 A 
ATOM     63  C   UNL A   1      42.483  26.580  34.790  1.00  0.00     0.020 A 
ATOM     64  C   UNL A   1      42.859  26.988  36.060  1.00  0.00     0.054 A 
BRANCH  64  65
ATOM     65  S   UNL A   1      43.441  25.763  37.251  1.00  0.00     0.124 S 
ATOM     66  O   UNL A   1      42.490  24.675  37.047  1.00  0.00    -0.237 OA
ATOM     67  O   UNL A   1      44.805  25.510  36.797  1.00  0.00    -0.237 OA
ATOM     68  O   UNL A   1      43.336  26.457  38.533  1.00  0.00    -0.744 OA
ENDBRANCH  64  65
ENDBRANCH  45  59
BRANCH  46  69
ATOM     69  C   UNL A   1      43.222  25.390  26.558  1.00  0.00    -0.014 A 
ATOM     70  C   UNL A   1      44.186  25.320  25.538  1.00  0.00     0.010 A 
ATOM     71  C   UNL A   1      42.606  24.182  26.957  1.00  0.00     0.010 A 
ATOM     72  C   UNL A   1      44.592  24.081  25.012  1.00  0.00     0.020 A 
ATOM     73  C   UNL A   1      42.995  22.945  26.429  1.00  0.00     0.020 A 
ATOM     74  C   UNL A   1      44.015  22.899  25.485  1.00  0.00     0.054 A 
BRANCH  74  75
ATOM     75  S   UNL A   1      44.716  21.298  24.982  1.00  0.00     0.124 S 
ATOM     76  O   UNL A   1      46.049  21.341  25.575  1.00  0.00    -0.237 OA
ATOM     77  O   UNL A   1      43.787  20.344  25.582  1.00  0.00    -0.237 OA
ATOM     78  O   UNL A   1      44.683  21.351  23.521  1.00  0.00    -0.744 OA
ENDBRANCH  74  75
ENDBRANCH  46  69
BRANCH  58  79
ATOM     79  C   UNL A   1      44.907  31.201  28.407  1.00  0.00    -0.014 A 
ATOM     80  C   UNL A   1      43.975  31.523  27.403  1.00  0.00     0.010 A 
ATOM     81  C   UNL A   1      46.124  31.910  28.445  1.00  0.00     0.010 A 
ATOM     82  C   UNL A   1      44.255  32.534  26.468  1.00  0.00     0.020 A 
ATOM     83  C   UNL A   1      46.401  32.926  27.528  1.00  0.00     0.020 A 
ATOM     84  C   UNL A   1      45.464  33.235  26.542  1.00  0.00     0.054 A 
BRANCH  84  85
ATOM     85  S   UNL A   1      45.780  34.611  25.397  1.00  0.00     0.124 S 
ATOM     86  O   UNL A   1      44.929  34.277  24.259  1.00  0.00    -0.237 OA
ATOM     87  O   UNL A   1      45.369  35.780  26.171  1.00  0.00    -0.237 OA
ATOM     88  O   UNL A   1      47.218  34.526  25.139  1.00  0.00    -0.744 OA
ENDBRANCH  84  85
ENDBRANCH  58  79
ENDBRANCH  32  33
ENDBRANCH  25  27
ENDBRANCH  24  25
ENDBRANCH  23  24
ENDBRANCH  22  23
ENDBRANCH   1  22
TORSDOF 21
ENDMDL
