MODEL 1
REMARK VINA RESULT:      -9.4      0.000      0.000
REMARK SMILES CCCc1cc(O[C@@H]2CCOC3(CCC3)C2)c(C(=O)OCCOCCOC(=O)c2ccc(-c3c4nc(c(-c5ccc(S(=O)(=O)[O-])cc5)c5ccc([nH]5)c(-c5ccc(S(=O)(=O)[O-])cc5)c5nc(c(-c6ccc(S(=O)(=O)[O-])cc6)c6ccc3[nH]6)C=C5)C=C4)cc2)s1
REMARK SMILES IDX 24 1 23 2 22 3 21 4 20 5 18 6 19 7 17 8 4 9 5 10 89 11 6 12
REMARK SMILES IDX 3 13 2 14 1 15 7 16 8 17 9 18 16 19 10 20 12 21 11 22 13 23
REMARK SMILES IDX 15 24 14 25 25 26 26 27 27 28 28 29 29 30 30 31 88 32 31 33
REMARK SMILES IDX 87 34 32 35 33 36 34 37 81 38 35 39 86 40 80 41 82 42 36 43
REMARK SMILES IDX 85 44 79 45 78 46 37 48 67 49 48 50 66 51 49 52 52 53 65 54
REMARK SMILES IDX 83 55 50 56 51 57 64 59 84 60 53 61 38 62 39 63 47 64 40 65
REMARK SMILES IDX 46 66 41 67 42 68 43 69 44 70 45 71 68 72 69 73 77 74 70 75
REMARK SMILES IDX 76 76 71 77 72 78 73 79 74 80 75 81 54 82 55 83 63 84 56 85
REMARK SMILES IDX 62 86 57 87 58 88 59 89 60 90 61 91
REMARK H PARENT 82 47 52 58
REMARK Flexibility Score: inf
ROOT
ATOM      1  C   UNL A   1      39.494  22.208  26.453  1.00  0.00     0.202 C 
ENDROOT
BRANCH   1   2
ATOM      2  O   UNL A   1      38.418  22.184  25.510  1.00  0.00    -0.374 OA
BRANCH   2   3
ATOM      3  C   UNL A   1      37.561  23.333  25.510  1.00  0.00     0.202 C 
BRANCH   3   4
ATOM      4  C   UNL A   1      36.126  23.058  25.049  1.00  0.00     0.261 C 
BRANCH   4   5
ATOM      5  O   UNL A   1      35.220  23.599  26.024  1.00  0.00    -0.459 OA
BRANCH   5   6
ATOM      6  C   UNL A   1      34.376  22.702  26.615  1.00  0.00     0.352 C 
ATOM      7  O   UNL A   1      34.188  22.626  27.812  1.00  0.00    -0.245 OA
BRANCH   6   8
ATOM      8  C   UNL A   1      33.618  22.013  25.580  1.00  0.00     0.155 A 
ATOM      9  C   UNL A   1      32.678  20.174  24.219  1.00  0.00     0.009 A 
ATOM     10  C   UNL A   1      31.926  21.331  24.177  1.00  0.00     0.062 A 
ATOM     11  S   UNL A   1      33.903  20.320  25.391  1.00  0.00    -0.130 S 
ATOM     12  C   UNL A   1      32.630  22.446  24.710  1.00  0.00     0.145 A 
BRANCH   9  13
ATOM     13  C   UNL A   1      32.505  19.019  23.273  1.00  0.00     0.046 C 
BRANCH  13  14
ATOM     14  C   UNL A   1      32.813  17.619  23.785  1.00  0.00     0.002 C 
ATOM     15  C   UNL A   1      34.030  17.011  23.110  1.00  0.00     0.004 C 
ENDBRANCH  13  14
ENDBRANCH   9  13
BRANCH  12  16
ATOM     16  O   UNL A   1      32.322  23.761  24.557  1.00  0.00    -0.488 OA
BRANCH  16  17
ATOM     17  C   UNL A   1      32.577  24.400  23.282  1.00  0.00     0.178 C 
ATOM     18  C   UNL A   1      33.893  25.171  23.143  1.00  0.00     0.074 C 
ATOM     19  C   UNL A   1      31.407  25.164  22.634  1.00  0.00     0.080 C 
ATOM     20  C   UNL A   1      33.674  26.683  23.063  1.00  0.00     0.165 C 
ATOM     21  C   UNL A   1      31.225  26.559  23.238  1.00  0.00     0.072 C 
ATOM     22  O   UNL A   1      32.486  27.081  23.744  1.00  0.00    -0.375 OA
ATOM     23  C   UNL A   1      30.438  27.621  22.395  1.00  0.00     0.036 C 
ATOM     24  C   UNL A   1      29.996  26.614  24.204  1.00  0.00     0.036 C 
ATOM     25  C   UNL A   1      29.712  28.026  23.694  1.00  0.00     0.006 C 
ENDBRANCH  16  17
ENDBRANCH  12  16
ENDBRANCH   6   8
ENDBRANCH   5   6
ENDBRANCH   4   5
ENDBRANCH   3   4
ENDBRANCH   2   3
ENDBRANCH   1   2
BRANCH   1  26
ATOM     26  C   UNL A   1      40.078  20.842  26.828  1.00  0.00     0.261 C 
BRANCH  26  27
ATOM     27  O   UNL A   1      40.838  20.288  25.739  1.00  0.00    -0.460 OA
BRANCH  27  28
ATOM     28  C   UNL A   1      42.127  20.000  26.038  1.00  0.00     0.338 C 
ATOM     29  O   UNL A   1      42.645  18.896  26.072  1.00  0.00    -0.246 OA
BRANCH  28  30
ATOM     30  C   UNL A   1      42.905  21.251  26.135  1.00  0.00     0.060 A 
ATOM     31  C   UNL A   1      43.341  21.632  27.410  1.00  0.00     0.016 A 
ATOM     32  C   UNL A   1      43.169  22.058  25.025  1.00  0.00     0.016 A 
ATOM     33  C   UNL A   1      43.994  22.848  27.591  1.00  0.00     0.010 A 
ATOM     34  C   UNL A   1      43.818  23.284  25.210  1.00  0.00     0.010 A 
ATOM     35  C   UNL A   1      44.198  23.700  26.498  1.00  0.00    -0.014 A 
BRANCH  35  36
ATOM     36  C   UNL A   1      44.672  25.084  26.743  1.00  0.00     0.031 A 
ATOM     37  C   UNL A   1      43.698  26.105  27.270  1.00  0.00     0.074 A 
ATOM     38  C   UNL A   1      45.962  25.414  26.556  1.00  0.00     0.049 A 
ATOM     39  N   UNL A   1      43.900  27.359  27.580  1.00  0.00    -0.248 NA
ATOM     40  C   UNL A   1      42.313  25.650  27.471  1.00  0.00     0.031 C 
ATOM     41  C   UNL A   1      47.008  24.505  26.090  1.00  0.00     0.029 A 
ATOM     42  N   UNL A   1      46.611  26.608  26.742  1.00  0.00    -0.354 N 
ATOM     43  C   UNL A   1      42.671  27.844  28.011  1.00  0.00     0.074 A 
ATOM     44  C   UNL A   1      41.721  26.759  27.890  1.00  0.00     0.031 C 
ATOM     45  C   UNL A   1      48.172  25.176  26.028  1.00  0.00     0.029 A 
ATOM     46  C   UNL A   1      47.946  26.566  26.421  1.00  0.00     0.049 A 
ATOM     47  H   UNL A   1      46.163  27.420  27.074  1.00  0.00     0.167 HD
ATOM     48  C   UNL A   1      42.361  29.079  28.474  1.00  0.00     0.031 A 
ATOM     49  C   UNL A   1      48.878  27.539  26.432  1.00  0.00     0.031 A 
ATOM     50  C   UNL A   1      43.304  30.161  28.582  1.00  0.00     0.049 A 
ATOM     51  C   UNL A   1      48.494  28.923  26.887  1.00  0.00     0.074 A 
ATOM     52  C   UNL A   1      43.091  31.443  29.055  1.00  0.00     0.029 A 
ATOM     53  N   UNL A   1      44.636  30.090  28.202  1.00  0.00    -0.354 N 
ATOM     54  N   UNL A   1      47.334  29.357  27.318  1.00  0.00    -0.248 NA
ATOM     55  C   UNL A   1      49.551  29.945  26.865  1.00  0.00     0.031 C 
ATOM     56  C   UNL A   1      44.280  32.166  28.908  1.00  0.00     0.029 A 
ATOM     57  C   UNL A   1      45.250  31.316  28.401  1.00  0.00     0.049 A 
ATOM     58  H   UNL A   1      45.079  29.288  27.846  1.00  0.00     0.167 HD
ATOM     59  C   UNL A   1      47.527  30.698  27.639  1.00  0.00     0.074 A 
ATOM     60  C   UNL A   1      48.920  30.995  27.370  1.00  0.00     0.031 C 
ATOM     61  C   UNL A   1      46.633  31.601  28.115  1.00  0.00     0.031 A 
BRANCH  48  62
ATOM     62  C   UNL A   1      40.928  29.333  28.863  1.00  0.00    -0.014 A 
ATOM     63  C   UNL A   1      40.520  29.302  30.209  1.00  0.00     0.010 A 
ATOM     64  C   UNL A   1      39.981  29.634  27.867  1.00  0.00     0.010 A 
ATOM     65  C   UNL A   1      39.181  29.526  30.547  1.00  0.00     0.020 A 
ATOM     66  C   UNL A   1      38.648  29.887  28.204  1.00  0.00     0.020 A 
ATOM     67  C   UNL A   1      38.253  29.813  29.541  1.00  0.00     0.054 A 
BRANCH  67  68
ATOM     68  S   UNL A   1      36.528  30.115  30.008  1.00  0.00     0.124 S 
ATOM     69  O   UNL A   1      36.512  31.566  30.181  1.00  0.00    -0.237 OA
ATOM     70  O   UNL A   1      35.790  29.613  28.852  1.00  0.00    -0.237 OA
ATOM     71  O   UNL A   1      36.359  29.340  31.236  1.00  0.00    -0.744 OA
ENDBRANCH  67  68
ENDBRANCH  48  62
BRANCH  49  72
ATOM     72  C   UNL A   1      50.265  27.243  25.981  1.00  0.00    -0.014 A 
ATOM     73  C   UNL A   1      50.587  27.204  24.613  1.00  0.00     0.010 A 
ATOM     74  C   UNL A   1      51.278  26.997  26.928  1.00  0.00     0.010 A 
ATOM     75  C   UNL A   1      51.891  26.916  24.200  1.00  0.00     0.020 A 
ATOM     76  C   UNL A   1      52.588  26.735  26.520  1.00  0.00     0.020 A 
ATOM     77  C   UNL A   1      52.884  26.686  25.156  1.00  0.00     0.054 A 
BRANCH  77  78
ATOM     78  S   UNL A   1      54.582  26.369  24.600  1.00  0.00     0.124 S 
ATOM     79  O   UNL A   1      54.754  24.960  24.934  1.00  0.00    -0.237 OA
ATOM     80  O   UNL A   1      54.509  26.681  23.175  1.00  0.00    -0.237 OA
ATOM     81  O   UNL A   1      55.380  27.304  25.392  1.00  0.00    -0.744 OA
ENDBRANCH  77  78
ENDBRANCH  49  72
BRANCH  61  82
ATOM     82  C   UNL A   1      47.138  32.993  28.394  1.00  0.00    -0.014 A 
ATOM     83  C   UNL A   1      47.695  33.331  29.641  1.00  0.00     0.010 A 
ATOM     84  C   UNL A   1      47.090  33.967  27.380  1.00  0.00     0.010 A 
ATOM     85  C   UNL A   1      48.154  34.629  29.882  1.00  0.00     0.020 A 
ATOM     86  C   UNL A   1      47.576  35.258  27.608  1.00  0.00     0.020 A 
ATOM     87  C   UNL A   1      48.089  35.586  28.864  1.00  0.00     0.054 A 
BRANCH  87  88
ATOM     88  S   UNL A   1      48.715  37.255  29.193  1.00  0.00     0.124 S 
ATOM     89  O   UNL A   1      48.627  37.331  30.649  1.00  0.00    -0.237 OA
ATOM     90  O   UNL A   1      50.070  37.205  28.648  1.00  0.00    -0.237 OA
ATOM     91  O   UNL A   1      47.790  38.122  28.467  1.00  0.00    -0.744 OA
ENDBRANCH  87  88
ENDBRANCH  61  82
ENDBRANCH  35  36
ENDBRANCH  28  30
ENDBRANCH  27  28
ENDBRANCH  26  27
ENDBRANCH   1  26
TORSDOF 21
ENDMDL
MODEL 2
REMARK VINA RESULT:      -9.3      1.024      8.114
REMARK SMILES CCCc1cc(O[C@@H]2CCOC3(CCC3)C2)c(C(=O)OCCOCCOC(=O)c2ccc(-c3c4nc(c(-c5ccc(S(=O)(=O)[O-])cc5)c5ccc([nH]5)c(-c5ccc(S(=O)(=O)[O-])cc5)c5nc(c(-c6ccc(S(=O)(=O)[O-])cc6)c6ccc3[nH]6)C=C5)C=C4)cc2)s1
REMARK SMILES IDX 24 1 23 2 22 3 21 4 20 5 18 6 19 7 17 8 4 9 5 10 89 11 6 12
REMARK SMILES IDX 3 13 2 14 1 15 7 16 8 17 9 18 16 19 10 20 12 21 11 22 13 23
REMARK SMILES IDX 15 24 14 25 25 26 26 27 27 28 28 29 29 30 30 31 88 32 31 33
REMARK SMILES IDX 87 34 32 35 33 36 34 37 81 38 35 39 86 40 80 41 82 42 36 43
REMARK SMILES IDX 85 44 79 45 78 46 37 48 67 49 48 50 66 51 49 52 52 53 65 54
REMARK SMILES IDX 83 55 50 56 51 57 64 59 84 60 53 61 38 62 39 63 47 64 40 65
REMARK SMILES IDX 46 66 41 67 42 68 43 69 44 70 45 71 68 72 69 73 77 74 70 75
REMARK SMILES IDX 76 76 71 77 72 78 73 79 74 80 75 81 54 82 55 83 63 84 56 85
REMARK SMILES IDX 62 86 57 87 58 88 59 89 60 90 61 91
REMARK H PARENT 82 47 52 58
REMARK Flexibility Score: inf
ROOT
ATOM      1  C   UNL A   1      39.185  22.208  26.709  1.00  0.00     0.202 C 
ENDROOT
BRANCH   1   2
ATOM      2  O   UNL A   1      38.931  23.458  26.062  1.00  0.00    -0.374 OA
BRANCH   2   3
ATOM      3  C   UNL A   1      37.575  23.692  25.660  1.00  0.00     0.202 C 
BRANCH   3   4
ATOM      4  C   UNL A   1      36.655  22.473  25.782  1.00  0.00     0.261 C 
BRANCH   4   5
ATOM      5  O   UNL A   1      35.341  22.843  25.332  1.00  0.00    -0.459 OA
BRANCH   5   6
ATOM      6  C   UNL A   1      34.299  22.325  26.047  1.00  0.00     0.352 C 
ATOM      7  O   UNL A   1      33.875  22.804  27.079  1.00  0.00    -0.245 OA
BRANCH   6   8
ATOM      8  C   UNL A   1      33.682  21.255  25.277  1.00  0.00     0.155 A 
ATOM      9  C   UNL A   1      33.338  19.039  24.234  1.00  0.00     0.009 A 
ATOM     10  C   UNL A   1      32.166  19.740  24.438  1.00  0.00     0.062 A 
ATOM     11  S   UNL A   1      34.635  19.844  24.986  1.00  0.00    -0.130 S 
ATOM     12  C   UNL A   1      32.408  21.106  24.751  1.00  0.00     0.145 A 
BRANCH   9  13
ATOM     13  C   UNL A   1      33.452  17.817  23.366  1.00  0.00     0.046 C 
BRANCH  13  14
ATOM     14  C   UNL A   1      33.930  16.522  24.007  1.00  0.00     0.002 C 
ATOM     15  C   UNL A   1      33.465  16.384  25.447  1.00  0.00     0.004 C 
ENDBRANCH  13  14
ENDBRANCH   9  13
BRANCH  12  16
ATOM     16  O   UNL A   1      31.513  22.128  24.718  1.00  0.00    -0.488 OA
BRANCH  16  17
ATOM     17  C   UNL A   1      31.455  22.976  23.546  1.00  0.00     0.178 C 
ATOM     18  C   UNL A   1      32.745  23.121  22.732  1.00  0.00     0.074 C 
ATOM     19  C   UNL A   1      30.727  24.325  23.690  1.00  0.00     0.080 C 
ATOM     20  C   UNL A   1      33.352  24.521  22.850  1.00  0.00     0.165 C 
ATOM     21  C   UNL A   1      31.608  25.388  24.352  1.00  0.00     0.072 C 
ATOM     22  O   UNL A   1      33.018  25.136  24.093  1.00  0.00    -0.375 OA
ATOM     23  C   UNL A   1      31.223  26.892  24.134  1.00  0.00     0.036 C 
ATOM     24  C   UNL A   1      31.193  25.638  25.839  1.00  0.00     0.036 C 
ATOM     25  C   UNL A   1      31.505  27.119  25.633  1.00  0.00     0.006 C 
ENDBRANCH  16  17
ENDBRANCH  12  16
ENDBRANCH   6   8
ENDBRANCH   5   6
ENDBRANCH   4   5
ENDBRANCH   3   4
ENDBRANCH   2   3
ENDBRANCH   1   2
BRANCH   1  26
ATOM     26  C   UNL A   1      39.577  21.050  25.786  1.00  0.00     0.261 C 
BRANCH  26  27
ATOM     27  O   UNL A   1      40.211  19.992  26.526  1.00  0.00    -0.460 OA
BRANCH  27  28
ATOM     28  C   UNL A   1      41.514  19.788  26.219  1.00  0.00     0.338 C 
ATOM     29  O   UNL A   1      42.001  18.798  25.699  1.00  0.00    -0.246 OA
BRANCH  28  30
ATOM     30  C   UNL A   1      42.273  21.038  26.424  1.00  0.00     0.060 A 
ATOM     31  C   UNL A   1      42.438  21.473  27.744  1.00  0.00     0.016 A 
ATOM     32  C   UNL A   1      42.775  21.793  25.360  1.00  0.00     0.016 A 
ATOM     33  C   UNL A   1      43.057  22.692  28.006  1.00  0.00     0.010 A 
ATOM     34  C   UNL A   1      43.389  23.022  25.624  1.00  0.00     0.010 A 
ATOM     35  C   UNL A   1      43.498  23.493  26.945  1.00  0.00    -0.014 A 
BRANCH  35  36
ATOM     36  C   UNL A   1      43.930  24.885  27.224  1.00  0.00     0.031 A 
ATOM     37  C   UNL A   1      45.361  25.270  26.960  1.00  0.00     0.074 A 
ATOM     38  C   UNL A   1      43.049  25.806  27.652  1.00  0.00     0.049 A 
ATOM     39  N   UNL A   1      45.946  26.431  27.104  1.00  0.00    -0.248 NA
ATOM     40  C   UNL A   1      46.249  24.205  26.467  1.00  0.00     0.031 C 
ATOM     41  C   UNL A   1      41.629  25.566  27.905  1.00  0.00     0.029 A 
ATOM     42  N   UNL A   1      43.223  27.136  27.942  1.00  0.00    -0.354 N 
ATOM     43  C   UNL A   1      47.269  26.237  26.724  1.00  0.00     0.074 A 
ATOM     44  C   UNL A   1      47.409  24.840  26.375  1.00  0.00     0.031 C 
ATOM     45  C   UNL A   1      41.060  26.713  28.313  1.00  0.00     0.029 A 
ATOM     46  C   UNL A   1      42.079  27.759  28.377  1.00  0.00     0.049 A 
ATOM     47  H   UNL A   1      44.087  27.600  27.849  1.00  0.00     0.167 HD
ATOM     48  C   UNL A   1      48.276  27.141  26.663  1.00  0.00     0.031 A 
ATOM     49  C   UNL A   1      41.878  29.026  28.791  1.00  0.00     0.031 A 
ATOM     50  C   UNL A   1      48.139  28.527  27.023  1.00  0.00     0.049 A 
ATOM     51  C   UNL A   1      43.030  29.998  28.779  1.00  0.00     0.074 A 
ATOM     52  C   UNL A   1      49.095  29.527  26.978  1.00  0.00     0.029 A 
ATOM     53  N   UNL A   1      46.975  29.109  27.503  1.00  0.00    -0.354 N 
ATOM     54  N   UNL A   1      44.267  29.805  28.389  1.00  0.00    -0.248 NA
ATOM     55  C   UNL A   1      42.752  31.360  29.253  1.00  0.00     0.031 C 
ATOM     56  C   UNL A   1      48.525  30.699  27.487  1.00  0.00     0.029 A 
ATOM     57  C   UNL A   1      47.196  30.446  27.789  1.00  0.00     0.049 A 
ATOM     58  H   UNL A   1      46.117  28.641  27.622  1.00  0.00     0.167 HD
ATOM     59  C   UNL A   1      44.910  31.028  28.552  1.00  0.00     0.074 A 
ATOM     60  C   UNL A   1      43.919  31.957  29.057  1.00  0.00     0.031 C 
ATOM     61  C   UNL A   1      46.204  31.354  28.305  1.00  0.00     0.031 A 
BRANCH  48  62
ATOM     62  C   UNL A   1      49.628  26.643  26.223  1.00  0.00    -0.014 A 
ATOM     63  C   UNL A   1      50.048  26.755  24.886  1.00  0.00     0.010 A 
ATOM     64  C   UNL A   1      50.502  26.079  27.171  1.00  0.00     0.010 A 
ATOM     65  C   UNL A   1      51.302  26.274  24.495  1.00  0.00     0.020 A 
ATOM     66  C   UNL A   1      51.767  25.622  26.790  1.00  0.00     0.020 A 
ATOM     67  C   UNL A   1      52.152  25.706  25.450  1.00  0.00     0.054 A 
BRANCH  67  68
ATOM     68  S   UNL A   1      53.777  25.103  24.921  1.00  0.00     0.124 S 
ATOM     69  O   UNL A   1      54.627  25.506  26.040  1.00  0.00    -0.237 OA
ATOM     70  O   UNL A   1      53.558  23.665  24.787  1.00  0.00    -0.237 OA
ATOM     71  O   UNL A   1      54.021  25.813  23.668  1.00  0.00    -0.744 OA
ENDBRANCH  67  68
ENDBRANCH  48  62
BRANCH  49  72
ATOM     72  C   UNL A   1      40.533  29.445  29.271  1.00  0.00    -0.014 A 
ATOM     73  C   UNL A   1      39.490  29.700  28.364  1.00  0.00     0.010 A 
ATOM     74  C   UNL A   1      40.289  29.589  30.650  1.00  0.00     0.010 A 
ATOM     75  C   UNL A   1      38.233  30.102  28.825  1.00  0.00     0.020 A 
ATOM     76  C   UNL A   1      39.027  29.965  31.116  1.00  0.00     0.020 A 
ATOM     77  C   UNL A   1      38.008  30.229  30.198  1.00  0.00     0.054 A 
BRANCH  77  78
ATOM     78  S   UNL A   1      36.354  30.697  30.778  1.00  0.00     0.124 S 
ATOM     79  O   UNL A   1      35.661  29.413  30.790  1.00  0.00    -0.237 OA
ATOM     80  O   UNL A   1      36.633  31.281  32.087  1.00  0.00    -0.237 OA
ATOM     81  O   UNL A   1      35.895  31.648  29.767  1.00  0.00    -0.744 OA
ENDBRANCH  77  78
ENDBRANCH  49  72
BRANCH  61  82
ATOM     82  C   UNL A   1      46.618  32.781  28.558  1.00  0.00    -0.014 A 
ATOM     83  C   UNL A   1      46.270  33.811  27.666  1.00  0.00     0.010 A 
ATOM     84  C   UNL A   1      47.334  33.101  29.726  1.00  0.00     0.010 A 
ATOM     85  C   UNL A   1      46.667  35.128  27.916  1.00  0.00     0.020 A 
ATOM     86  C   UNL A   1      47.706  34.421  29.995  1.00  0.00     0.020 A 
ATOM     87  C   UNL A   1      47.386  35.424  29.078  1.00  0.00     0.054 A 
BRANCH  87  88
ATOM     88  S   UNL A   1      47.867  37.144  29.393  1.00  0.00     0.124 S 
ATOM     89  O   UNL A   1      48.252  37.098  30.801  1.00  0.00    -0.237 OA
ATOM     90  O   UNL A   1      48.963  37.350  28.449  1.00  0.00    -0.237 OA
ATOM     91  O   UNL A   1      46.653  37.902  29.103  1.00  0.00    -0.744 OA
ENDBRANCH  87  88
ENDBRANCH  61  82
ENDBRANCH  35  36
ENDBRANCH  28  30
ENDBRANCH  27  28
ENDBRANCH  26  27
ENDBRANCH   1  26
TORSDOF 21
ENDMDL
MODEL 3
REMARK VINA RESULT:      -9.3      1.820      8.763
REMARK SMILES CCCc1cc(O[C@@H]2CCOC3(CCC3)C2)c(C(=O)OCCOCCOC(=O)c2ccc(-c3c4nc(c(-c5ccc(S(=O)(=O)[O-])cc5)c5ccc([nH]5)c(-c5ccc(S(=O)(=O)[O-])cc5)c5nc(c(-c6ccc(S(=O)(=O)[O-])cc6)c6ccc3[nH]6)C=C5)C=C4)cc2)s1
REMARK SMILES IDX 24 1 23 2 22 3 21 4 20 5 18 6 19 7 17 8 4 9 5 10 89 11 6 12
REMARK SMILES IDX 3 13 2 14 1 15 7 16 8 17 9 18 16 19 10 20 12 21 11 22 13 23
REMARK SMILES IDX 15 24 14 25 25 26 26 27 27 28 28 29 29 30 30 31 88 32 31 33
REMARK SMILES IDX 87 34 32 35 33 36 34 37 81 38 35 39 86 40 80 41 82 42 36 43
REMARK SMILES IDX 85 44 79 45 78 46 37 48 67 49 48 50 66 51 49 52 52 53 65 54
REMARK SMILES IDX 83 55 50 56 51 57 64 59 84 60 53 61 38 62 39 63 47 64 40 65
REMARK SMILES IDX 46 66 41 67 42 68 43 69 44 70 45 71 68 72 69 73 77 74 70 75
REMARK SMILES IDX 76 76 71 77 72 78 73 79 74 80 75 81 54 82 55 83 63 84 56 85
REMARK SMILES IDX 62 86 57 87 58 88 59 89 60 90 61 91
REMARK H PARENT 82 47 52 58
REMARK Flexibility Score: inf
ROOT
ATOM      1  C   UNL A   1      38.493  20.862  25.356  1.00  0.00     0.202 C 
ENDROOT
BRANCH   1   2
ATOM      2  O   UNL A   1      38.137  22.004  26.141  1.00  0.00    -0.374 OA
BRANCH   2   3
ATOM      3  C   UNL A   1      38.020  23.241  25.430  1.00  0.00     0.202 C 
BRANCH   3   4
ATOM      4  C   UNL A   1      36.627  23.517  24.853  1.00  0.00     0.261 C 
BRANCH   4   5
ATOM      5  O   UNL A   1      35.980  24.508  25.670  1.00  0.00    -0.459 OA
BRANCH   5   6
ATOM      6  C   UNL A   1      34.625  24.389  25.787  1.00  0.00     0.352 C 
ATOM      7  O   UNL A   1      34.068  23.708  26.624  1.00  0.00    -0.245 OA
BRANCH   6   8
ATOM      8  C   UNL A   1      33.987  25.346  24.893  1.00  0.00     0.155 A 
ATOM      9  C   UNL A   1      33.096  27.484  24.026  1.00  0.00     0.009 A 
ATOM     10  C   UNL A   1      33.411  26.575  23.035  1.00  0.00     0.062 A 
ATOM     11  S   UNL A   1      33.645  26.913  25.533  1.00  0.00    -0.130 S 
ATOM     12  C   UNL A   1      33.629  25.271  23.556  1.00  0.00     0.145 A 
BRANCH   9  13
ATOM     13  C   UNL A   1      32.277  28.725  23.806  1.00  0.00     0.046 C 
BRANCH  13  14
ATOM     14  C   UNL A   1      30.761  28.595  23.810  1.00  0.00     0.002 C 
ATOM     15  C   UNL A   1      30.065  29.945  23.833  1.00  0.00     0.004 C 
ENDBRANCH  13  14
ENDBRANCH   9  13
BRANCH  12  16
ATOM     16  O   UNL A   1      33.661  24.103  22.861  1.00  0.00    -0.488 OA
BRANCH  16  17
ATOM     17  C   UNL A   1      32.439  23.340  22.712  1.00  0.00     0.178 C 
ATOM     18  C   UNL A   1      31.218  23.824  23.501  1.00  0.00     0.074 C 
ATOM     19  C   UNL A   1      32.560  21.805  22.751  1.00  0.00     0.080 C 
ATOM     20  C   UNL A   1      30.846  22.870  24.638  1.00  0.00     0.165 C 
ATOM     21  C   UNL A   1      32.658  21.271  24.182  1.00  0.00     0.072 C 
ATOM     22  O   UNL A   1      31.982  22.156  25.120  1.00  0.00    -0.375 OA
ATOM     23  C   UNL A   1      32.298  19.764  24.424  1.00  0.00     0.036 C 
ATOM     24  C   UNL A   1      34.118  20.839  24.540  1.00  0.00     0.036 C 
ATOM     25  C   UNL A   1      33.533  19.679  25.343  1.00  0.00     0.006 C 
ENDBRANCH  16  17
ENDBRANCH  12  16
ENDBRANCH   6   8
ENDBRANCH   5   6
ENDBRANCH   4   5
ENDBRANCH   3   4
ENDBRANCH   2   3
ENDBRANCH   1   2
BRANCH   1  26
ATOM     26  C   UNL A   1      39.651  20.017  25.899  1.00  0.00     0.261 C 
BRANCH  26  27
ATOM     27  O   UNL A   1      40.886  20.754  25.869  1.00  0.00    -0.460 OA
BRANCH  27  28
ATOM     28  C   UNL A   1      41.563  20.770  27.042  1.00  0.00     0.338 C 
ATOM     29  O   UNL A   1      42.061  19.816  27.616  1.00  0.00    -0.246 OA
BRANCH  28  30
ATOM     30  C   UNL A   1      41.799  22.166  27.461  1.00  0.00     0.060 A 
ATOM     31  C   UNL A   1      41.508  23.168  26.528  1.00  0.00     0.016 A 
ATOM     32  C   UNL A   1      42.331  22.493  28.711  1.00  0.00     0.016 A 
ATOM     33  C   UNL A   1      41.798  24.498  26.819  1.00  0.00     0.010 A 
ATOM     34  C   UNL A   1      42.630  23.829  28.998  1.00  0.00     0.010 A 
ATOM     35  C   UNL A   1      42.400  24.832  28.039  1.00  0.00    -0.014 A 
BRANCH  35  36
ATOM     36  C   UNL A   1      42.922  26.207  28.233  1.00  0.00     0.031 A 
ATOM     37  C   UNL A   1      44.356  26.498  27.881  1.00  0.00     0.074 A 
ATOM     38  C   UNL A   1      42.116  27.195  28.660  1.00  0.00     0.049 A 
ATOM     39  N   UNL A   1      45.011  27.628  27.944  1.00  0.00    -0.248 NA
ATOM     40  C   UNL A   1      45.158  25.363  27.395  1.00  0.00     0.031 C 
ATOM     41  C   UNL A   1      40.700  27.047  28.993  1.00  0.00     0.029 A 
ATOM     42  N   UNL A   1      42.378  28.523  28.881  1.00  0.00    -0.354 N 
ATOM     43  C   UNL A   1      46.300  27.343  27.509  1.00  0.00     0.074 A 
ATOM     44  C   UNL A   1      46.345  25.926  27.218  1.00  0.00     0.031 C 
ATOM     45  C   UNL A   1      40.216  28.242  29.376  1.00  0.00     0.029 A 
ATOM     46  C   UNL A   1      41.293  29.229  29.342  1.00  0.00     0.049 A 
ATOM     47  H   UNL A   1      43.260  28.932  28.725  1.00  0.00     0.167 HD
ATOM     48  C   UNL A   1      47.351  28.184  27.358  1.00  0.00     0.031 A 
ATOM     49  C   UNL A   1      41.184  30.522  29.708  1.00  0.00     0.031 A 
ATOM     50  C   UNL A   1      47.309  29.590  27.661  1.00  0.00     0.049 A 
ATOM     51  C   UNL A   1      42.385  31.425  29.595  1.00  0.00     0.074 A 
ATOM     52  C   UNL A   1      48.315  30.530  27.524  1.00  0.00     0.029 A 
ATOM     53  N   UNL A   1      46.205  30.257  28.170  1.00  0.00    -0.354 N 
ATOM     54  N   UNL A   1      43.588  31.145  29.154  1.00  0.00    -0.248 NA
ATOM     55  C   UNL A   1      42.207  32.820  30.019  1.00  0.00     0.031 C 
ATOM     56  C   UNL A   1      47.837  31.754  28.005  1.00  0.00     0.029 A 
ATOM     57  C   UNL A   1      46.514  31.591  28.383  1.00  0.00     0.049 A 
ATOM     58  H   UNL A   1      45.330  29.845  28.351  1.00  0.00     0.167 HD
ATOM     59  C   UNL A   1      44.305  32.335  29.229  1.00  0.00     0.074 A 
ATOM     60  C   UNL A   1      43.394  33.340  29.739  1.00  0.00     0.031 C 
ATOM     61  C   UNL A   1      45.601  32.576  28.905  1.00  0.00     0.031 A 
BRANCH  48  62
ATOM     62  C   UNL A   1      48.649  27.591  26.876  1.00  0.00    -0.014 A 
ATOM     63  C   UNL A   1      49.602  27.086  27.778  1.00  0.00     0.010 A 
ATOM     64  C   UNL A   1      48.906  27.514  25.495  1.00  0.00     0.010 A 
ATOM     65  C   UNL A   1      50.807  26.553  27.310  1.00  0.00     0.020 A 
ATOM     66  C   UNL A   1      50.097  26.956  25.021  1.00  0.00     0.020 A 
ATOM     67  C   UNL A   1      51.048  26.495  25.934  1.00  0.00     0.054 A 
BRANCH  67  68
ATOM     68  S   UNL A   1      52.612  25.786  25.352  1.00  0.00     0.124 S 
ATOM     69  O   UNL A   1      53.593  26.541  26.129  1.00  0.00    -0.237 OA
ATOM     70  O   UNL A   1      52.478  24.377  25.712  1.00  0.00    -0.237 OA
ATOM     71  O   UNL A   1      52.608  26.063  23.918  1.00  0.00    -0.744 OA
ENDBRANCH  67  68
ENDBRANCH  48  62
BRANCH  49  72
ATOM     72  C   UNL A   1      39.890  31.037  30.232  1.00  0.00    -0.014 A 
ATOM     73  C   UNL A   1      38.913  31.554  29.364  1.00  0.00     0.010 A 
ATOM     74  C   UNL A   1      39.630  31.011  31.616  1.00  0.00     0.010 A 
ATOM     75  C   UNL A   1      37.705  32.044  29.869  1.00  0.00     0.020 A 
ATOM     76  C   UNL A   1      38.413  31.476  32.122  1.00  0.00     0.020 A 
ATOM     77  C   UNL A   1      37.461  31.998  31.244  1.00  0.00     0.054 A 
BRANCH  77  78
ATOM     78  S   UNL A   1      35.864  32.587  31.873  1.00  0.00     0.124 S 
ATOM     79  O   UNL A   1      35.891  32.123  33.255  1.00  0.00    -0.237 OA
ATOM     80  O   UNL A   1      35.966  34.032  31.686  1.00  0.00    -0.237 OA
ATOM     81  O   UNL A   1      34.891  31.924  31.007  1.00  0.00    -0.744 OA
ENDBRANCH  77  78
ENDBRANCH  49  72
BRANCH  61  82
ATOM     82  C   UNL A   1      46.105  33.986  29.072  1.00  0.00    -0.014 A 
ATOM     83  C   UNL A   1      46.727  34.401  30.263  1.00  0.00     0.010 A 
ATOM     84  C   UNL A   1      45.989  34.898  28.007  1.00  0.00     0.010 A 
ATOM     85  C   UNL A   1      47.185  35.714  30.401  1.00  0.00     0.020 A 
ATOM     86  C   UNL A   1      46.473  36.203  28.131  1.00  0.00     0.020 A 
ATOM     87  C   UNL A   1      47.052  36.609  29.335  1.00  0.00     0.054 A 
BRANCH  87  88
ATOM     88  S   UNL A   1      47.677  38.300  29.529  1.00  0.00     0.124 S 
ATOM     89  O   UNL A   1      47.510  38.522  30.962  1.00  0.00    -0.237 OA
ATOM     90  O   UNL A   1      49.059  38.188  29.067  1.00  0.00    -0.237 OA
ATOM     91  O   UNL A   1      46.803  39.094  28.669  1.00  0.00    -0.744 OA
ENDBRANCH  87  88
ENDBRANCH  61  82
ENDBRANCH  35  36
ENDBRANCH  28  30
ENDBRANCH  27  28
ENDBRANCH  26  27
ENDBRANCH   1  26
TORSDOF 21
ENDMDL
