MODEL 1
REMARK VINA RESULT:     -10.3      0.000      0.000
REMARK SMILES COc1ncccc1NS(=O)(=O)c1ccc(C(=O)OCCOCCOC(=O)c2ccc(-c3c4nc(c(-c5ccc(S(=O)(=O)[O-])cc5)c5ccc([nH]5)c(-c5ccc(S(=O)(=O)[O-])cc5)c5nc(c(-c6ccc(S(=O)(=O)[O-])cc6)c6ccc3[nH]6)C=C5)C=C4)cc2)cc1
REMARK SMILES IDX 21 1 20 2 19 3 17 4 18 5 16 6 13 7 14 8 89 9 15 10 88 11
REMARK SMILES IDX 10 12 11 13 12 14 9 15 8 17 3 18 4 19 5 20 7 21 6 22 2 23
REMARK SMILES IDX 1 24 22 25 23 26 24 27 25 28 26 29 27 30 28 31 29 32 87 33
REMARK SMILES IDX 30 34 86 35 31 36 32 37 33 38 80 39 34 40 85 41 79 42 81 43
REMARK SMILES IDX 35 44 84 45 78 46 77 47 36 49 66 50 47 51 65 52 48 53 51 54
REMARK SMILES IDX 64 55 82 56 49 57 50 58 63 60 83 61 52 62 37 63 38 64 46 65
REMARK SMILES IDX 39 66 45 67 40 68 41 69 42 70 43 71 44 72 67 73 68 74 76 75
REMARK SMILES IDX 69 76 75 77 70 78 71 79 72 80 73 81 74 82 53 83 54 84 62 85
REMARK SMILES IDX 55 86 61 87 56 88 57 89 58 90 59 91 60 92
REMARK H PARENT 9 16 81 48 51 59
REMARK Flexibility Score: inf
ROOT
ATOM      1  C   UNL A   1      36.193  22.451  25.509  1.00  0.00     0.202 C 
ENDROOT
BRANCH   1   2
ATOM      2  C   UNL A   1      35.571  21.491  24.492  1.00  0.00     0.261 C 
BRANCH   2   3
ATOM      3  O   UNL A   1      34.516  20.728  25.093  1.00  0.00    -0.460 OA
BRANCH   3   4
ATOM      4  C   UNL A   1      33.395  20.623  24.341  1.00  0.00     0.338 C 
ATOM      5  O   UNL A   1      33.124  19.730  23.554  1.00  0.00    -0.246 OA
BRANCH   4   6
ATOM      6  C   UNL A   1      32.414  21.668  24.729  1.00  0.00     0.060 A 
ATOM      7  C   UNL A   1      30.912  23.895  25.407  1.00  0.00     0.087 A 
ATOM      8  C   UNL A   1      31.314  23.724  24.079  1.00  0.00     0.023 A 
ATOM      9  C   UNL A   1      31.072  22.866  26.344  1.00  0.00     0.023 A 
ATOM     10  C   UNL A   1      32.072  22.607  23.745  1.00  0.00     0.017 A 
ATOM     11  C   UNL A   1      31.851  21.754  26.009  1.00  0.00     0.017 A 
BRANCH   7  12
ATOM     12  S   UNL A   1      30.354  25.490  25.947  1.00  0.00     0.262 S 
ATOM     13  O   UNL A   1      29.163  25.287  26.741  1.00  0.00    -0.201 OA
ATOM     14  O   UNL A   1      30.326  26.355  24.782  1.00  0.00    -0.201 OA
BRANCH  12  15
ATOM     15  N   UNL A   1      31.546  26.195  26.921  1.00  0.00    -0.274 N 
ATOM     16  H   UNL A   1      31.866  25.689  27.702  1.00  0.00     0.180 HD
BRANCH  15  17
ATOM     17  C   UNL A   1      32.115  27.486  26.670  1.00  0.00     0.111 A 
ATOM     18  C   UNL A   1      33.023  27.751  25.633  1.00  0.00     0.238 A 
ATOM     19  N   UNL A   1      33.528  28.970  25.358  1.00  0.00    -0.220 NA
ATOM     20  C   UNL A   1      33.056  30.001  26.089  1.00  0.00     0.115 A 
ATOM     21  C   UNL A   1      31.611  28.582  27.364  1.00  0.00     0.034 A 
ATOM     22  C   UNL A   1      32.090  29.861  27.075  1.00  0.00     0.023 A 
BRANCH  18  23
ATOM     23  O   UNL A   1      33.583  26.735  24.911  1.00  0.00    -0.480 OA
ATOM     24  C   UNL A   1      33.770  27.060  23.547  1.00  0.00     0.280 C 
ENDBRANCH  18  23
ENDBRANCH  15  17
ENDBRANCH  12  15
ENDBRANCH   7  12
ENDBRANCH   4   6
ENDBRANCH   3   4
ENDBRANCH   2   3
ENDBRANCH   1   2
BRANCH   1  25
ATOM     25  O   UNL A   1      37.584  22.751  25.383  1.00  0.00    -0.374 OA
BRANCH  25  26
ATOM     26  C   UNL A   1      38.533  21.758  25.759  1.00  0.00     0.202 C 
BRANCH  26  27
ATOM     27  C   UNL A   1      39.768  22.179  26.569  1.00  0.00     0.261 C 
BRANCH  27  28
ATOM     28  O   UNL A   1      39.610  23.414  27.284  1.00  0.00    -0.460 OA
BRANCH  28  29
ATOM     29  C   UNL A   1      40.665  24.260  27.162  1.00  0.00     0.338 C 
ATOM     30  O   UNL A   1      41.613  24.153  26.404  1.00  0.00    -0.246 OA
BRANCH  29  31
ATOM     31  C   UNL A   1      40.436  25.469  27.974  1.00  0.00     0.060 A 
ATOM     32  C   UNL A   1      41.486  26.390  28.073  1.00  0.00     0.016 A 
ATOM     33  C   UNL A   1      39.253  25.657  28.690  1.00  0.00     0.016 A 
ATOM     34  C   UNL A   1      41.372  27.487  28.923  1.00  0.00     0.010 A 
ATOM     35  C   UNL A   1      39.144  26.754  29.550  1.00  0.00     0.010 A 
ATOM     36  C   UNL A   1      40.215  27.656  29.694  1.00  0.00    -0.014 A 
BRANCH  36  37
ATOM     37  C   UNL A   1      40.184  28.699  30.747  1.00  0.00     0.031 A 
ATOM     38  C   UNL A   1      41.137  28.598  31.908  1.00  0.00     0.074 A 
ATOM     39  C   UNL A   1      39.339  29.741  30.654  1.00  0.00     0.049 A 
ATOM     40  N   UNL A   1      41.262  29.383  32.945  1.00  0.00    -0.248 NA
ATOM     41  C   UNL A   1      42.069  27.458  31.896  1.00  0.00     0.031 C 
ATOM     42  C   UNL A   1      38.400  29.973  29.556  1.00  0.00     0.029 A 
ATOM     43  N   UNL A   1      39.131  30.799  31.504  1.00  0.00    -0.354 N 
ATOM     44  C   UNL A   1      42.280  28.831  33.716  1.00  0.00     0.074 A 
ATOM     45  C   UNL A   1      42.716  27.627  33.040  1.00  0.00     0.031 C 
ATOM     46  C   UNL A   1      37.714  31.103  29.801  1.00  0.00     0.029 A 
ATOM     47  C   UNL A   1      38.139  31.652  31.088  1.00  0.00     0.049 A 
ATOM     48  H   UNL A   1      39.647  30.934  32.332  1.00  0.00     0.167 HD
ATOM     49  C   UNL A   1      42.806  29.287  34.877  1.00  0.00     0.031 A 
ATOM     50  C   UNL A   1      37.614  32.740  31.687  1.00  0.00     0.031 A 
ATOM     51  C   UNL A   1      42.360  30.478  35.551  1.00  0.00     0.049 A 
ATOM     52  C   UNL A   1      38.163  33.186  33.017  1.00  0.00     0.074 A 
ATOM     53  C   UNL A   1      42.842  31.034  36.724  1.00  0.00     0.029 A 
ATOM     54  N   UNL A   1      41.323  31.292  35.120  1.00  0.00    -0.354 N 
ATOM     55  N   UNL A   1      39.143  32.668  33.720  1.00  0.00    -0.248 NA
ATOM     56  C   UNL A   1      37.541  34.367  33.630  1.00  0.00     0.031 C 
ATOM     57  C   UNL A   1      42.055  32.149  37.034  1.00  0.00     0.029 A 
ATOM     58  C   UNL A   1      41.128  32.326  36.020  1.00  0.00     0.049 A 
ATOM     59  H   UNL A   1      40.803  31.154  34.296  1.00  0.00     0.167 HD
ATOM     60  C   UNL A   1      39.270  33.475  34.845  1.00  0.00     0.074 A 
ATOM     61  C   UNL A   1      38.279  34.525  34.721  1.00  0.00     0.031 C 
ATOM     62  C   UNL A   1      40.132  33.361  35.887  1.00  0.00     0.031 A 
BRANCH  49  63
ATOM     63  C   UNL A   1      43.902  28.472  35.513  1.00  0.00    -0.014 A 
ATOM     64  C   UNL A   1      43.613  27.424  36.405  1.00  0.00     0.010 A 
ATOM     65  C   UNL A   1      45.244  28.736  35.183  1.00  0.00     0.010 A 
ATOM     66  C   UNL A   1      44.647  26.682  36.984  1.00  0.00     0.020 A 
ATOM     67  C   UNL A   1      46.279  27.979  35.737  1.00  0.00     0.020 A 
ATOM     68  C   UNL A   1      45.974  26.966  36.648  1.00  0.00     0.054 A 
BRANCH  68  69
ATOM     69  S   UNL A   1      47.294  25.975  37.400  1.00  0.00     0.124 S 
ATOM     70  O   UNL A   1      47.642  26.776  38.571  1.00  0.00    -0.237 OA
ATOM     71  O   UNL A   1      46.620  24.709  37.684  1.00  0.00    -0.237 OA
ATOM     72  O   UNL A   1      48.317  25.914  36.360  1.00  0.00    -0.744 OA
ENDBRANCH  68  69
ENDBRANCH  49  63
BRANCH  50  73
ATOM     73  C   UNL A   1      36.488  33.471  31.043  1.00  0.00    -0.014 A 
ATOM     74  C   UNL A   1      36.626  34.011  29.752  1.00  0.00     0.010 A 
ATOM     75  C   UNL A   1      35.265  33.626  31.722  1.00  0.00     0.010 A 
ATOM     76  C   UNL A   1      35.566  34.706  29.159  1.00  0.00     0.020 A 
ATOM     77  C   UNL A   1      34.195  34.294  31.121  1.00  0.00     0.020 A 
ATOM     78  C   UNL A   1      34.356  34.839  29.846  1.00  0.00     0.054 A 
BRANCH  78  79
ATOM     79  S   UNL A   1      32.978  35.696  29.036  1.00  0.00     0.124 S 
ATOM     80  O   UNL A   1      32.389  34.630  28.231  1.00  0.00    -0.237 OA
ATOM     81  O   UNL A   1      32.179  36.150  30.170  1.00  0.00    -0.237 OA
ATOM     82  O   UNL A   1      33.634  36.761  28.280  1.00  0.00    -0.744 OA
ENDBRANCH  78  79
ENDBRANCH  50  73
BRANCH  62  83
ATOM     83  C   UNL A   1      40.064  34.412  36.965  1.00  0.00    -0.014 A 
ATOM     84  C   UNL A   1      39.226  34.260  38.083  1.00  0.00     0.010 A 
ATOM     85  C   UNL A   1      40.898  35.544  36.884  1.00  0.00     0.010 A 
ATOM     86  C   UNL A   1      39.198  35.235  39.084  1.00  0.00     0.020 A 
ATOM     87  C   UNL A   1      40.895  36.506  37.897  1.00  0.00     0.020 A 
ATOM     88  C   UNL A   1      40.034  36.352  38.984  1.00  0.00     0.054 A 
BRANCH  88  89
ATOM     89  S   UNL A   1      40.010  37.581  40.319  1.00  0.00     0.124 S 
ATOM     90  O   UNL A   1      38.610  38.001  40.320  1.00  0.00    -0.237 OA
ATOM     91  O   UNL A   1      40.433  36.803  41.479  1.00  0.00    -0.237 OA
ATOM     92  O   UNL A   1      40.963  38.595  39.874  1.00  0.00    -0.744 OA
ENDBRANCH  88  89
ENDBRANCH  62  83
ENDBRANCH  36  37
ENDBRANCH  29  31
ENDBRANCH  28  29
ENDBRANCH  27  28
ENDBRANCH  26  27
ENDBRANCH  25  26
ENDBRANCH   1  25
TORSDOF 21
ENDMDL
MODEL 2
REMARK VINA RESULT:     -10.3      1.813      2.435
REMARK SMILES COc1ncccc1NS(=O)(=O)c1ccc(C(=O)OCCOCCOC(=O)c2ccc(-c3c4nc(c(-c5ccc(S(=O)(=O)[O-])cc5)c5ccc([nH]5)c(-c5ccc(S(=O)(=O)[O-])cc5)c5nc(c(-c6ccc(S(=O)(=O)[O-])cc6)c6ccc3[nH]6)C=C5)C=C4)cc2)cc1
REMARK SMILES IDX 21 1 20 2 19 3 17 4 18 5 16 6 13 7 14 8 89 9 15 10 88 11
REMARK SMILES IDX 10 12 11 13 12 14 9 15 8 17 3 18 4 19 5 20 7 21 6 22 2 23
REMARK SMILES IDX 1 24 22 25 23 26 24 27 25 28 26 29 27 30 28 31 29 32 87 33
REMARK SMILES IDX 30 34 86 35 31 36 32 37 33 38 80 39 34 40 85 41 79 42 81 43
REMARK SMILES IDX 35 44 84 45 78 46 77 47 36 49 66 50 47 51 65 52 48 53 51 54
REMARK SMILES IDX 64 55 82 56 49 57 50 58 63 60 83 61 52 62 37 63 38 64 46 65
REMARK SMILES IDX 39 66 45 67 40 68 41 69 42 70 43 71 44 72 67 73 68 74 76 75
REMARK SMILES IDX 69 76 75 77 70 78 71 79 72 80 73 81 74 82 53 83 54 84 62 85
REMARK SMILES IDX 55 86 61 87 56 88 57 89 58 90 59 91 60 92
REMARK H PARENT 9 16 81 48 51 59
REMARK Flexibility Score: inf
ROOT
ATOM      1  C   UNL A   1      35.889  23.407  25.252  1.00  0.00     0.202 C 
ENDROOT
BRANCH   1   2
ATOM      2  C   UNL A   1      34.980  22.200  25.008  1.00  0.00     0.261 C 
BRANCH   2   3
ATOM      3  O   UNL A   1      33.599  22.584  25.063  1.00  0.00    -0.460 OA
BRANCH   3   4
ATOM      4  C   UNL A   1      32.920  22.422  23.903  1.00  0.00     0.338 C 
ATOM      5  O   UNL A   1      32.648  21.364  23.358  1.00  0.00    -0.246 OA
BRANCH   4   6
ATOM      6  C   UNL A   1      32.370  23.721  23.441  1.00  0.00     0.060 A 
ATOM      7  C   UNL A   1      31.649  26.325  22.826  1.00  0.00     0.087 A 
ATOM      8  C   UNL A   1      32.844  25.811  22.314  1.00  0.00     0.023 A 
ATOM      9  C   UNL A   1      30.720  25.489  23.460  1.00  0.00     0.023 A 
ATOM     10  C   UNL A   1      33.204  24.505  22.630  1.00  0.00     0.017 A 
ATOM     11  C   UNL A   1      31.094  24.183  23.792  1.00  0.00     0.017 A 
BRANCH   7  12
ATOM     12  S   UNL A   1      31.387  28.080  22.827  1.00  0.00     0.262 S 
ATOM     13  O   UNL A   1      30.221  28.344  22.014  1.00  0.00    -0.201 OA
ATOM     14  O   UNL A   1      32.659  28.706  22.518  1.00  0.00    -0.201 OA
BRANCH  12  15
ATOM     15  N   UNL A   1      31.079  28.595  24.410  1.00  0.00    -0.274 N 
ATOM     16  H   UNL A   1      30.141  28.669  24.700  1.00  0.00     0.180 HD
BRANCH  15  17
ATOM     17  C   UNL A   1      32.107  28.927  25.350  1.00  0.00     0.111 A 
ATOM     18  C   UNL A   1      32.052  30.036  26.209  1.00  0.00     0.238 A 
ATOM     19  N   UNL A   1      32.990  30.330  27.131  1.00  0.00    -0.220 NA
ATOM     20  C   UNL A   1      33.999  29.446  27.273  1.00  0.00     0.115 A 
ATOM     21  C   UNL A   1      33.133  28.010  25.566  1.00  0.00     0.034 A 
ATOM     22  C   UNL A   1      34.098  28.274  26.539  1.00  0.00     0.023 A 
BRANCH  18  23
ATOM     23  O   UNL A   1      31.090  30.995  26.059  1.00  0.00    -0.480 OA
ATOM     24  C   UNL A   1      31.518  32.280  26.469  1.00  0.00     0.280 C 
ENDBRANCH  18  23
ENDBRANCH  15  17
ENDBRANCH  12  15
ENDBRANCH   7  12
ENDBRANCH   4   6
ENDBRANCH   3   4
ENDBRANCH   2   3
ENDBRANCH   1   2
BRANCH   1  25
ATOM     25  O   UNL A   1      37.250  23.317  24.828  1.00  0.00    -0.374 OA
BRANCH  25  26
ATOM     26  C   UNL A   1      38.178  22.621  25.654  1.00  0.00     0.202 C 
BRANCH  26  27
ATOM     27  C   UNL A   1      39.318  23.407  26.318  1.00  0.00     0.261 C 
BRANCH  27  28
ATOM     28  O   UNL A   1      38.917  24.671  26.869  1.00  0.00    -0.460 OA
BRANCH  28  29
ATOM     29  C   UNL A   1      39.889  25.619  26.836  1.00  0.00     0.338 C 
ATOM     30  O   UNL A   1      40.722  25.792  25.963  1.00  0.00    -0.246 OA
BRANCH  29  31
ATOM     31  C   UNL A   1      39.705  26.566  27.951  1.00  0.00     0.060 A 
ATOM     32  C   UNL A   1      40.373  27.794  27.873  1.00  0.00     0.016 A 
ATOM     33  C   UNL A   1      38.965  26.227  29.084  1.00  0.00     0.016 A 
ATOM     34  C   UNL A   1      40.336  28.677  28.950  1.00  0.00     0.010 A 
ATOM     35  C   UNL A   1      38.937  27.110  30.168  1.00  0.00     0.010 A 
ATOM     36  C   UNL A   1      39.648  28.324  30.118  1.00  0.00    -0.014 A 
BRANCH  36  37
ATOM     37  C   UNL A   1      39.788  29.166  31.330  1.00  0.00     0.031 A 
ATOM     38  C   UNL A   1      40.936  28.914  32.270  1.00  0.00     0.074 A 
ATOM     39  C   UNL A   1      38.919  30.163  31.574  1.00  0.00     0.049 A 
ATOM     40  N   UNL A   1      41.231  29.514  33.393  1.00  0.00    -0.248 NA
ATOM     41  C   UNL A   1      41.873  27.844  31.892  1.00  0.00     0.031 C 
ATOM     42  C   UNL A   1      37.793  30.533  30.716  1.00  0.00     0.029 A 
ATOM     43  N   UNL A   1      38.848  31.047  32.623  1.00  0.00    -0.354 N 
ATOM     44  C   UNL A   1      42.381  28.890  33.864  1.00  0.00     0.074 A 
ATOM     45  C   UNL A   1      42.712  27.845  32.917  1.00  0.00     0.031 C 
ATOM     46  C   UNL A   1      37.141  31.567  31.275  1.00  0.00     0.029 A 
ATOM     47  C   UNL A   1      37.779  31.907  32.546  1.00  0.00     0.049 A 
ATOM     48  H   UNL A   1      39.501  31.063  33.359  1.00  0.00     0.167 HD
ATOM     49  C   UNL A   1      43.099  29.164  34.978  1.00  0.00     0.031 A 
ATOM     50  C   UNL A   1      37.350  32.846  33.413  1.00  0.00     0.031 A 
ATOM     51  C   UNL A   1      42.759  30.196  35.922  1.00  0.00     0.049 A 
ATOM     52  C   UNL A   1      38.122  33.082  34.685  1.00  0.00     0.074 A 
ATOM     53  C   UNL A   1      43.434  30.565  37.073  1.00  0.00     0.029 A 
ATOM     54  N   UNL A   1      41.646  31.018  35.831  1.00  0.00    -0.354 N 
ATOM     55  N   UNL A   1      39.222  32.502  35.102  1.00  0.00    -0.248 NA
ATOM     56  C   UNL A   1      37.597  34.106  35.599  1.00  0.00     0.031 C 
ATOM     57  C   UNL A   1      42.694  31.567  37.711  1.00  0.00     0.029 A 
ATOM     58  C   UNL A   1      41.596  31.869  36.922  1.00  0.00     0.049 A 
ATOM     59  H   UNL A   1      40.989  30.999  35.099  1.00  0.00     0.167 HD
ATOM     60  C   UNL A   1      39.535  33.108  36.314  1.00  0.00     0.074 A 
ATOM     61  C   UNL A   1      38.517  34.110  36.555  1.00  0.00     0.031 C 
ATOM     62  C   UNL A   1      40.572  32.859  37.152  1.00  0.00     0.031 A 
BRANCH  49  63
ATOM     63  C   UNL A   1      44.308  28.308  35.257  1.00  0.00    -0.014 A 
ATOM     64  C   UNL A   1      44.206  27.111  35.986  1.00  0.00     0.010 A 
ATOM     65  C   UNL A   1      45.562  28.693  34.747  1.00  0.00     0.010 A 
ATOM     66  C   UNL A   1      45.341  26.334  36.234  1.00  0.00     0.020 A 
ATOM     67  C   UNL A   1      46.694  27.904  34.968  1.00  0.00     0.020 A 
ATOM     68  C   UNL A   1      46.579  26.737  35.725  1.00  0.00     0.054 A 
BRANCH  68  69
ATOM     69  S   UNL A   1      48.032  25.700  36.045  1.00  0.00     0.124 S 
ATOM     70  O   UNL A   1      49.115  26.527  35.516  1.00  0.00    -0.237 OA
ATOM     71  O   UNL A   1      48.007  25.554  37.499  1.00  0.00    -0.237 OA
ATOM     72  O   UNL A   1      47.759  24.478  35.293  1.00  0.00    -0.744 OA
ENDBRANCH  68  69
ENDBRANCH  49  63
BRANCH  50  73
ATOM     73  C   UNL A   1      36.113  33.618  33.116  1.00  0.00    -0.014 A 
ATOM     74  C   UNL A   1      34.843  33.062  33.351  1.00  0.00     0.010 A 
ATOM     75  C   UNL A   1      36.202  34.924  32.599  1.00  0.00     0.010 A 
ATOM     76  C   UNL A   1      33.686  33.791  33.058  1.00  0.00     0.020 A 
ATOM     77  C   UNL A   1      35.048  35.667  32.333  1.00  0.00     0.020 A 
ATOM     78  C   UNL A   1      33.796  35.091  32.555  1.00  0.00     0.054 A 
BRANCH  78  79
ATOM     79  S   UNL A   1      32.282  36.038  32.236  1.00  0.00     0.124 S 
ATOM     80  O   UNL A   1      32.399  36.324  30.809  1.00  0.00    -0.237 OA
ATOM     81  O   UNL A   1      31.234  35.093  32.610  1.00  0.00    -0.237 OA
ATOM     82  O   UNL A   1      32.411  37.196  33.118  1.00  0.00    -0.744 OA
ENDBRANCH  78  79
ENDBRANCH  50  73
BRANCH  62  83
ATOM     83  C   UNL A   1      40.680  33.703  38.397  1.00  0.00    -0.014 A 
ATOM     84  C   UNL A   1      41.564  34.793  38.467  1.00  0.00     0.010 A 
ATOM     85  C   UNL A   1      39.838  33.432  39.493  1.00  0.00     0.010 A 
ATOM     86  C   UNL A   1      41.629  35.578  39.622  1.00  0.00     0.020 A 
ATOM     87  C   UNL A   1      39.879  34.233  40.638  1.00  0.00     0.020 A 
ATOM     88  C   UNL A   1      40.785  35.292  40.700  1.00  0.00     0.054 A 
BRANCH  88  89
ATOM     89  S   UNL A   1      40.859  36.354  42.170  1.00  0.00     0.124 S 
ATOM     90  O   UNL A   1      41.695  37.458  41.706  1.00  0.00    -0.237 OA
ATOM     91  O   UNL A   1      39.455  36.682  42.399  1.00  0.00    -0.237 OA
ATOM     92  O   UNL A   1      41.466  35.497  43.186  1.00  0.00    -0.744 OA
ENDBRANCH  88  89
ENDBRANCH  62  83
ENDBRANCH  36  37
ENDBRANCH  29  31
ENDBRANCH  28  29
ENDBRANCH  27  28
ENDBRANCH  26  27
ENDBRANCH  25  26
ENDBRANCH   1  25
TORSDOF 21
ENDMDL
MODEL 3
REMARK VINA RESULT:     -10.1      1.820      2.346
REMARK SMILES COc1ncccc1NS(=O)(=O)c1ccc(C(=O)OCCOCCOC(=O)c2ccc(-c3c4nc(c(-c5ccc(S(=O)(=O)[O-])cc5)c5ccc([nH]5)c(-c5ccc(S(=O)(=O)[O-])cc5)c5nc(c(-c6ccc(S(=O)(=O)[O-])cc6)c6ccc3[nH]6)C=C5)C=C4)cc2)cc1
REMARK SMILES IDX 21 1 20 2 19 3 17 4 18 5 16 6 13 7 14 8 89 9 15 10 88 11
REMARK SMILES IDX 10 12 11 13 12 14 9 15 8 17 3 18 4 19 5 20 7 21 6 22 2 23
REMARK SMILES IDX 1 24 22 25 23 26 24 27 25 28 26 29 27 30 28 31 29 32 87 33
REMARK SMILES IDX 30 34 86 35 31 36 32 37 33 38 80 39 34 40 85 41 79 42 81 43
REMARK SMILES IDX 35 44 84 45 78 46 77 47 36 49 66 50 47 51 65 52 48 53 51 54
REMARK SMILES IDX 64 55 82 56 49 57 50 58 63 60 83 61 52 62 37 63 38 64 46 65
REMARK SMILES IDX 39 66 45 67 40 68 41 69 42 70 43 71 44 72 67 73 68 74 76 75
REMARK SMILES IDX 69 76 75 77 70 78 71 79 72 80 73 81 74 82 53 83 54 84 62 85
REMARK SMILES IDX 55 86 61 87 56 88 57 89 58 90 59 91 60 92
REMARK H PARENT 9 16 81 48 51 59
REMARK Flexibility Score: inf
ROOT
ATOM      1  C   UNL A   1      36.351  20.975  25.631  1.00  0.00     0.202 C 
ENDROOT
BRANCH   1   2
ATOM      2  C   UNL A   1      35.051  21.237  24.867  1.00  0.00     0.261 C 
BRANCH   2   3
ATOM      3  O   UNL A   1      33.983  21.550  25.772  1.00  0.00    -0.460 OA
BRANCH   3   4
ATOM      4  C   UNL A   1      32.754  21.586  25.206  1.00  0.00     0.338 C 
ATOM      5  O   UNL A   1      31.897  20.719  25.264  1.00  0.00    -0.246 OA
BRANCH   4   6
ATOM      6  C   UNL A   1      32.491  22.930  24.631  1.00  0.00     0.060 A 
ATOM      7  C   UNL A   1      32.166  25.275  23.191  1.00  0.00     0.087 A 
ATOM      8  C   UNL A   1      31.344  24.180  22.904  1.00  0.00     0.023 A 
ATOM      9  C   UNL A   1      32.994  25.275  24.322  1.00  0.00     0.023 A 
ATOM     10  C   UNL A   1      31.515  23.004  23.625  1.00  0.00     0.017 A 
ATOM     11  C   UNL A   1      33.176  24.084  25.032  1.00  0.00     0.017 A 
BRANCH   7  12
ATOM     12  S   UNL A   1      32.288  26.601  22.019  1.00  0.00     0.262 S 
ATOM     13  O   UNL A   1      31.414  26.284  20.912  1.00  0.00    -0.201 OA
ATOM     14  O   UNL A   1      33.700  26.852  21.797  1.00  0.00    -0.201 OA
BRANCH  12  15
ATOM     15  N   UNL A   1      31.753  28.034  22.745  1.00  0.00    -0.274 N 
ATOM     16  H   UNL A   1      32.375  28.515  23.338  1.00  0.00     0.180 HD
BRANCH  15  17
ATOM     17  C   UNL A   1      30.447  28.587  22.543  1.00  0.00     0.111 A 
ATOM     18  C   UNL A   1      29.287  28.098  23.164  1.00  0.00     0.238 A 
ATOM     19  N   UNL A   1      28.061  28.640  23.019  1.00  0.00    -0.220 NA
ATOM     20  C   UNL A   1      27.980  29.770  22.287  1.00  0.00     0.115 A 
ATOM     21  C   UNL A   1      30.332  29.784  21.842  1.00  0.00     0.034 A 
ATOM     22  C   UNL A   1      29.079  30.385  21.706  1.00  0.00     0.023 A 
BRANCH  18  23
ATOM     23  O   UNL A   1      29.303  26.921  23.858  1.00  0.00    -0.480 OA
ATOM     24  C   UNL A   1      28.014  26.370  24.047  1.00  0.00     0.280 C 
ENDBRANCH  18  23
ENDBRANCH  15  17
ENDBRANCH  12  15
ENDBRANCH   7  12
ENDBRANCH   4   6
ENDBRANCH   3   4
ENDBRANCH   2   3
ENDBRANCH   1   2
BRANCH   1  25
ATOM     25  O   UNL A   1      37.544  21.602  25.158  1.00  0.00    -0.374 OA
BRANCH  25  26
ATOM     26  C   UNL A   1      37.761  22.976  25.462  1.00  0.00     0.202 C 
BRANCH  26  27
ATOM     27  C   UNL A   1      39.052  23.384  26.186  1.00  0.00     0.261 C 
BRANCH  27  28
ATOM     28  O   UNL A   1      39.231  24.802  26.313  1.00  0.00    -0.460 OA
BRANCH  28  29
ATOM     29  C   UNL A   1      40.526  25.182  26.469  1.00  0.00     0.338 C 
ATOM     30  O   UNL A   1      41.447  24.998  25.691  1.00  0.00    -0.246 OA
BRANCH  29  31
ATOM     31  C   UNL A   1      40.661  26.030  27.667  1.00  0.00     0.060 A 
ATOM     32  C   UNL A   1      39.748  25.825  28.710  1.00  0.00     0.016 A 
ATOM     33  C   UNL A   1      41.603  27.056  27.735  1.00  0.00     0.016 A 
ATOM     34  C   UNL A   1      39.749  26.677  29.812  1.00  0.00     0.010 A 
ATOM     35  C   UNL A   1      41.595  27.916  28.838  1.00  0.00     0.010 A 
ATOM     36  C   UNL A   1      40.648  27.749  29.865  1.00  0.00    -0.014 A 
BRANCH  36  37
ATOM     37  C   UNL A   1      40.504  28.770  30.931  1.00  0.00     0.031 A 
ATOM     38  C   UNL A   1      41.388  28.692  32.146  1.00  0.00     0.074 A 
ATOM     39  C   UNL A   1      39.616  29.772  30.803  1.00  0.00     0.049 A 
ATOM     40  N   UNL A   1      41.412  29.463  33.201  1.00  0.00    -0.248 NA
ATOM     41  C   UNL A   1      42.374  27.599  32.173  1.00  0.00     0.031 C 
ATOM     42  C   UNL A   1      38.735  29.979  29.653  1.00  0.00     0.029 A 
ATOM     43  N   UNL A   1      39.306  30.803  31.654  1.00  0.00    -0.354 N 
ATOM     44  C   UNL A   1      42.407  28.946  34.024  1.00  0.00     0.074 A 
ATOM     45  C   UNL A   1      42.941  27.777  33.358  1.00  0.00     0.031 C 
ATOM     46  C   UNL A   1      37.982  31.071  29.873  1.00  0.00     0.029 A 
ATOM     47  C   UNL A   1      38.300  31.615  31.192  1.00  0.00     0.049 A 
ATOM     48  H   UNL A   1      39.764  30.947  32.515  1.00  0.00     0.167 HD
ATOM     49  C   UNL A   1      42.839  29.405  35.223  1.00  0.00     0.031 A 
ATOM     50  C   UNL A   1      37.688  32.666  31.775  1.00  0.00     0.031 A 
ATOM     51  C   UNL A   1      42.296  30.560  35.887  1.00  0.00     0.049 A 
ATOM     52  C   UNL A   1      38.134  33.112  33.143  1.00  0.00     0.074 A 
ATOM     53  C   UNL A   1      42.679  31.116  37.095  1.00  0.00     0.029 A 
ATOM     54  N   UNL A   1      41.249  31.332  35.406  1.00  0.00    -0.354 N 
ATOM     55  N   UNL A   1      39.093  32.629  33.896  1.00  0.00    -0.248 NA
ATOM     56  C   UNL A   1      37.419  34.251  33.735  1.00  0.00     0.031 C 
ATOM     57  C   UNL A   1      41.821  32.186  37.374  1.00  0.00     0.029 A 
ATOM     58  C   UNL A   1      40.949  32.338  36.308  1.00  0.00     0.049 A 
ATOM     59  H   UNL A   1      40.787  31.185  34.549  1.00  0.00     0.167 HD
ATOM     60  C   UNL A   1      39.113  33.420  35.040  1.00  0.00     0.074 A 
ATOM     61  C   UNL A   1      38.081  34.423  34.872  1.00  0.00     0.031 C 
ATOM     62  C   UNL A   1      39.914  33.327  36.130  1.00  0.00     0.031 A 
BRANCH  49  63
ATOM     63  C   UNL A   1      43.933  28.630  35.912  1.00  0.00    -0.014 A 
ATOM     64  C   UNL A   1      43.641  27.561  36.777  1.00  0.00     0.010 A 
ATOM     65  C   UNL A   1      45.278  28.956  35.659  1.00  0.00     0.010 A 
ATOM     66  C   UNL A   1      44.673  26.858  37.407  1.00  0.00     0.020 A 
ATOM     67  C   UNL A   1      46.313  28.238  36.264  1.00  0.00     0.020 A 
ATOM     68  C   UNL A   1      46.003  27.203  37.148  1.00  0.00     0.054 A 
BRANCH  68  69
ATOM     69  S   UNL A   1      47.321  26.261  37.963  1.00  0.00     0.124 S 
ATOM     70  O   UNL A   1      48.516  26.787  37.306  1.00  0.00    -0.237 OA
ATOM     71  O   UNL A   1      47.161  26.636  39.366  1.00  0.00    -0.237 OA
ATOM     72  O   UNL A   1      47.000  24.872  37.650  1.00  0.00    -0.744 OA
ENDBRANCH  68  69
ENDBRANCH  49  63
BRANCH  50  73
ATOM     73  C   UNL A   1      36.570  33.354  31.075  1.00  0.00    -0.014 A 
ATOM     74  C   UNL A   1      35.234  33.120  31.447  1.00  0.00     0.010 A 
ATOM     75  C   UNL A   1      36.839  34.256  30.028  1.00  0.00     0.010 A 
ATOM     76  C   UNL A   1      34.189  33.764  30.776  1.00  0.00     0.020 A 
ATOM     77  C   UNL A   1      35.799  34.922  29.374  1.00  0.00     0.020 A 
ATOM     78  C   UNL A   1      34.478  34.663  29.747  1.00  0.00     0.054 A 
BRANCH  78  79
ATOM     79  S   UNL A   1      33.110  35.528  28.927  1.00  0.00     0.124 S 
ATOM     80  O   UNL A   1      33.818  36.476  28.072  1.00  0.00    -0.237 OA
ATOM     81  O   UNL A   1      32.422  34.442  28.235  1.00  0.00    -0.237 OA
ATOM     82  O   UNL A   1      32.366  36.119  30.037  1.00  0.00    -0.744 OA
ENDBRANCH  78  79
ENDBRANCH  50  73
BRANCH  62  83
ATOM     83  C   UNL A   1      39.731  34.353  37.219  1.00  0.00    -0.014 A 
ATOM     84  C   UNL A   1      39.061  34.039  38.415  1.00  0.00     0.010 A 
ATOM     85  C   UNL A   1      40.289  35.636  37.064  1.00  0.00     0.010 A 
ATOM     86  C   UNL A   1      38.925  34.999  39.422  1.00  0.00     0.020 A 
ATOM     87  C   UNL A   1      40.180  36.589  38.080  1.00  0.00     0.020 A 
ATOM     88  C   UNL A   1      39.486  36.268  39.247  1.00  0.00     0.054 A 
BRANCH  88  89
ATOM     89  S   UNL A   1      39.332  37.481  40.588  1.00  0.00     0.124 S 
ATOM     90  O   UNL A   1      38.323  38.395  40.057  1.00  0.00    -0.237 OA
ATOM     91  O   UNL A   1      38.904  36.659  41.716  1.00  0.00    -0.237 OA
ATOM     92  O   UNL A   1      40.677  38.040  40.707  1.00  0.00    -0.744 OA
ENDBRANCH  88  89
ENDBRANCH  62  83
ENDBRANCH  36  37
ENDBRANCH  29  31
ENDBRANCH  28  29
ENDBRANCH  27  28
ENDBRANCH  26  27
ENDBRANCH  25  26
ENDBRANCH   1  25
TORSDOF 21
ENDMDL
