MODEL 1
REMARK VINA RESULT:      -8.2      0.000      0.000
REMARK SMILES CCOc1cc2c(cc1/C=C1/C(=O)N(c3cccc(C(=O)OCCOCCOC(=O)c4ccc(-c5c6nc(c(-c7ccc(S(=O)(=O)[O-])cc7)c7ccc([nH]7)c(-c7ccc(S(=O)(=O)[O-])cc7)c7nc(c(-c8ccc(S(=O)(=O)[O-])cc8)c8ccc5[nH]8)C=C7)C=C6)cc4)c3)C(=S)N=C1O)OCO2
REMARK SMILES IDX 24 1 23 2 22 3 20 4 21 5 19 6 15 7 16 8 91 9 17 10 18 11
REMARK SMILES IDX 14 12 10 13 11 14 12 15 95 16 13 17 94 18 92 19 93 20 9 21
REMARK SMILES IDX 4 22 5 23 6 24 8 25 7 26 99 27 97 28 98 29 3 30 2 31 1 32
REMARK SMILES IDX 96 33 25 35 26 36 27 37 28 38 29 39 30 40 31 41 32 42 90 43
REMARK SMILES IDX 33 44 89 45 34 46 35 47 36 48 83 49 37 50 88 51 82 52 84 53
REMARK SMILES IDX 38 54 87 55 81 56 80 57 39 59 69 60 50 61 68 62 51 63 54 64
REMARK SMILES IDX 67 65 85 66 52 67 53 68 66 70 86 71 55 72 40 73 41 74 49 75
REMARK SMILES IDX 42 76 48 77 43 78 44 79 45 80 46 81 47 82 70 83 71 84 79 85
REMARK SMILES IDX 72 86 78 87 73 88 74 89 75 90 76 91 77 92 56 93 57 94 65 95
REMARK SMILES IDX 58 96 64 97 59 98 60 99 61 100 62 101 63 102
REMARK H PARENT 96 34 84 58 54 69
REMARK Flexibility Score: inf
ROOT
ATOM      1  C   UNL A   1      34.020  35.036  30.850  1.00  0.00     0.202 C 
ENDROOT
BRANCH   1   2
ATOM      2  C   UNL A   1      34.607  33.728  31.393  1.00  0.00     0.261 C 
BRANCH   2   3
ATOM      3  O   UNL A   1      35.749  33.972  32.230  1.00  0.00    -0.460 OA
BRANCH   3   4
ATOM      4  C   UNL A   1      36.217  32.890  32.896  1.00  0.00     0.338 C 
ATOM      5  O   UNL A   1      35.659  31.812  33.035  1.00  0.00    -0.246 OA
BRANCH   4   6
ATOM      6  C   UNL A   1      37.634  33.112  33.269  1.00  0.00     0.062 A 
ATOM      7  C   UNL A   1      39.728  32.418  34.295  1.00  0.00     0.052 A 
ATOM      8  C   UNL A   1      40.248  33.699  34.020  1.00  0.00     0.027 A 
ATOM      9  C   UNL A   1      38.412  32.130  33.900  1.00  0.00     0.042 A 
ATOM     10  C   UNL A   1      39.468  34.680  33.404  1.00  0.00     0.003 A 
ATOM     11  C   UNL A   1      38.162  34.387  33.030  1.00  0.00     0.016 A 
BRANCH   7  12
ATOM     12  N   UNL A   1      40.557  31.420  34.934  1.00  0.00    -0.251 N 
ATOM     13  C   UNL A   1      42.348  28.310  34.138  1.00  0.00     0.031 C 
ATOM     14  C   UNL A   1      42.027  29.449  34.801  1.00  0.00     0.103 C 
ATOM     15  C   UNL A   1      41.085  30.402  34.118  1.00  0.00     0.270 C 
ATOM     16  C   UNL A   1      42.493  29.944  36.094  1.00  0.00     0.226 C 
ATOM     17  O   UNL A   1      40.859  30.285  32.914  1.00  0.00    -0.268 OA
ATOM     18  N   UNL A   1      41.968  30.877  36.791  1.00  0.00    -0.184 NA
ATOM     19  C   UNL A   1      40.845  31.506  36.315  1.00  0.00     0.210 C 
ATOM     20  S   UNL A   1      39.878  32.321  37.456  1.00  0.00    -0.038 S 
BRANCH  13  21
ATOM     21  C   UNL A   1      43.266  27.182  34.461  1.00  0.00     0.021 A 
ATOM     22  C   UNL A   1      42.758  25.912  34.863  1.00  0.00     0.130 A 
ATOM     23  C   UNL A   1      43.584  24.782  34.947  1.00  0.00     0.097 A 
ATOM     24  C   UNL A   1      44.929  24.957  34.748  1.00  0.00     0.169 A 
ATOM     25  C   UNL A   1      44.661  27.322  34.396  1.00  0.00     0.062 A 
ATOM     26  C   UNL A   1      45.456  26.197  34.503  1.00  0.00     0.166 A 
ATOM     27  O   UNL A   1      45.873  23.980  34.776  1.00  0.00    -0.453 OA
ATOM     28  O   UNL A   1      46.807  26.162  34.348  1.00  0.00    -0.454 OA
ATOM     29  C   UNL A   1      47.060  24.749  34.495  1.00  0.00     0.468 C 
BRANCH  22  30
ATOM     30  O   UNL A   1      41.418  25.726  35.120  1.00  0.00    -0.493 OA
BRANCH  30  31
ATOM     31  C   UNL A   1      41.202  24.917  36.298  1.00  0.00     0.226 C 
ATOM     32  C   UNL A   1      41.140  25.732  37.586  1.00  0.00     0.049 C 
ENDBRANCH  30  31
ENDBRANCH  22  30
ENDBRANCH  13  21
BRANCH  16  33
ATOM     33  O   UNL A   1      43.615  29.427  36.591  1.00  0.00    -0.493 OA
ATOM     34  H   UNL A   1      43.744  28.500  36.590  1.00  0.00     0.295 HD
ENDBRANCH  16  33
ENDBRANCH   7  12
ENDBRANCH   4   6
ENDBRANCH   3   4
ENDBRANCH   2   3
ENDBRANCH   1   2
BRANCH   1  35
ATOM     35  O   UNL A   1      32.977  34.929  29.880  1.00  0.00    -0.374 OA
BRANCH  35  36
ATOM     36  C   UNL A   1      33.226  34.119  28.731  1.00  0.00     0.202 C 
BRANCH  36  37
ATOM     37  C   UNL A   1      34.607  34.217  28.071  1.00  0.00     0.261 C 
BRANCH  37  38
ATOM     38  O   UNL A   1      34.940  33.053  27.296  1.00  0.00    -0.460 OA
BRANCH  38  39
ATOM     39  C   UNL A   1      34.684  31.880  27.925  1.00  0.00     0.338 C 
ATOM     40  O   UNL A   1      33.601  31.328  28.040  1.00  0.00    -0.246 OA
BRANCH  39  41
ATOM     41  C   UNL A   1      35.945  31.228  28.322  1.00  0.00     0.060 A 
ATOM     42  C   UNL A   1      36.505  31.620  29.543  1.00  0.00     0.016 A 
ATOM     43  C   UNL A   1      36.612  30.327  27.490  1.00  0.00     0.016 A 
ATOM     44  C   UNL A   1      37.770  31.170  29.904  1.00  0.00     0.010 A 
ATOM     45  C   UNL A   1      37.885  29.872  27.858  1.00  0.00     0.010 A 
ATOM     46  C   UNL A   1      38.489  30.329  29.043  1.00  0.00    -0.014 A 
BRANCH  46  47
ATOM     47  C   UNL A   1      39.916  30.050  29.345  1.00  0.00     0.031 A 
ATOM     48  C   UNL A   1      40.505  28.714  28.979  1.00  0.00     0.074 A 
ATOM     49  C   UNL A   1      40.696  31.010  29.874  1.00  0.00     0.049 A 
ATOM     50  N   UNL A   1      41.742  28.302  29.079  1.00  0.00    -0.248 NA
ATOM     51  C   UNL A   1      39.580  27.710  28.430  1.00  0.00     0.031 C 
ATOM     52  C   UNL A   1      40.246  32.350  30.252  1.00  0.00     0.029 A 
ATOM     53  N   UNL A   1      42.035  31.007  30.173  1.00  0.00    -0.354 N 
ATOM     54  C   UNL A   1      41.744  26.990  28.616  1.00  0.00     0.074 A 
ATOM     55  C   UNL A   1      40.377  26.664  28.270  1.00  0.00     0.031 C 
ATOM     56  C   UNL A   1      41.294  33.046  30.721  1.00  0.00     0.029 A 
ATOM     57  C   UNL A   1      42.482  32.194  30.706  1.00  0.00     0.049 A 
ATOM     58  H   UNL A   1      42.620  30.231  30.021  1.00  0.00     0.167 HD
ATOM     59  C   UNL A   1      42.789  26.137  28.483  1.00  0.00     0.031 A 
ATOM     60  C   UNL A   1      43.706  32.552  31.141  1.00  0.00     0.031 A 
ATOM     61  C   UNL A   1      44.145  26.464  28.840  1.00  0.00     0.049 A 
ATOM     62  C   UNL A   1      44.846  31.577  31.017  1.00  0.00     0.074 A 
ATOM     63  C   UNL A   1      45.280  25.681  28.711  1.00  0.00     0.029 A 
ATOM     64  N   UNL A   1      44.551  27.665  29.405  1.00  0.00    -0.354 N 
ATOM     65  N   UNL A   1      44.839  30.356  30.534  1.00  0.00    -0.248 NA
ATOM     66  C   UNL A   1      46.163  32.036  31.477  1.00  0.00     0.031 C 
ATOM     67  C   UNL A   1      46.358  26.380  29.265  1.00  0.00     0.029 A 
ATOM     68  C   UNL A   1      45.912  27.631  29.662  1.00  0.00     0.049 A 
ATOM     69  H   UNL A   1      43.958  28.427  29.596  1.00  0.00     0.167 HD
ATOM     70  C   UNL A   1      46.155  29.913  30.603  1.00  0.00     0.074 A 
ATOM     71  C   UNL A   1      46.932  31.003  31.160  1.00  0.00     0.031 C 
ATOM     72  C   UNL A   1      46.675  28.716  30.229  1.00  0.00     0.031 A 
BRANCH  59  73
ATOM     73  C   UNL A   1      42.497  24.747  27.972  1.00  0.00    -0.014 A 
ATOM     74  C   UNL A   1      42.401  24.471  26.596  1.00  0.00     0.010 A 
ATOM     75  C   UNL A   1      42.350  23.691  28.890  1.00  0.00     0.010 A 
ATOM     76  C   UNL A   1      42.119  23.175  26.151  1.00  0.00     0.020 A 
ATOM     77  C   UNL A   1      42.100  22.388  28.449  1.00  0.00     0.020 A 
ATOM     78  C   UNL A   1      41.967  22.142  27.082  1.00  0.00     0.054 A 
BRANCH  78  79
ATOM     79  S   UNL A   1      41.613  20.469  26.477  1.00  0.00     0.124 S 
ATOM     80  O   UNL A   1      42.662  20.281  25.478  1.00  0.00    -0.237 OA
ATOM     81  O   UNL A   1      41.743  19.659  27.685  1.00  0.00    -0.237 OA
ATOM     82  O   UNL A   1      40.257  20.573  25.942  1.00  0.00    -0.744 OA
ENDBRANCH  78  79
ENDBRANCH  59  73
BRANCH  60  83
ATOM     83  C   UNL A   1      43.906  33.901  31.738  1.00  0.00    -0.014 A 
ATOM     84  C   UNL A   1      44.115  35.031  30.928  1.00  0.00     0.010 A 
ATOM     85  C   UNL A   1      43.859  34.061  33.136  1.00  0.00     0.010 A 
ATOM     86  C   UNL A   1      44.280  36.294  31.506  1.00  0.00     0.020 A 
ATOM     87  C   UNL A   1      43.992  35.324  33.714  1.00  0.00     0.020 A 
ATOM     88  C   UNL A   1      44.210  36.433  32.895  1.00  0.00     0.054 A 
BRANCH  88  89
ATOM     89  S   UNL A   1      44.353  38.091  33.620  1.00  0.00     0.124 S 
ATOM     90  O   UNL A   1      45.582  38.585  33.007  1.00  0.00    -0.237 OA
ATOM     91  O   UNL A   1      43.119  38.734  33.175  1.00  0.00    -0.237 OA
ATOM     92  O   UNL A   1      44.430  37.830  35.055  1.00  0.00    -0.744 OA
ENDBRANCH  88  89
ENDBRANCH  60  83
BRANCH  72  93
ATOM     93  C   UNL A   1      48.166  28.533  30.370  1.00  0.00    -0.014 A 
ATOM     94  C   UNL A   1      48.747  28.094  31.572  1.00  0.00     0.010 A 
ATOM     95  C   UNL A   1      48.996  28.773  29.258  1.00  0.00     0.010 A 
ATOM     96  C   UNL A   1      50.135  27.949  31.676  1.00  0.00     0.020 A 
ATOM     97  C   UNL A   1      50.379  28.595  29.347  1.00  0.00     0.020 A 
ATOM     98  C   UNL A   1      50.941  28.204  30.563  1.00  0.00     0.054 A 
BRANCH  98  99
ATOM     99  S   UNL A   1      52.736  27.994  30.717  1.00  0.00     0.124 S 
ATOM    100  O   UNL A   1      53.217  29.365  30.556  1.00  0.00    -0.237 OA
ATOM    101  O   UNL A   1      52.879  27.431  32.057  1.00  0.00    -0.237 OA
ATOM    102  O   UNL A   1      53.075  27.084  29.626  1.00  0.00    -0.744 OA
ENDBRANCH  98  99
ENDBRANCH  72  93
ENDBRANCH  46  47
ENDBRANCH  39  41
ENDBRANCH  38  39
ENDBRANCH  37  38
ENDBRANCH  36  37
ENDBRANCH  35  36
ENDBRANCH   1  35
TORSDOF 22
ENDMDL
MODEL 2
REMARK VINA RESULT:      -7.8      3.643     10.137
REMARK SMILES CCOc1cc2c(cc1/C=C1/C(=O)N(c3cccc(C(=O)OCCOCCOC(=O)c4ccc(-c5c6nc(c(-c7ccc(S(=O)(=O)[O-])cc7)c7ccc([nH]7)c(-c7ccc(S(=O)(=O)[O-])cc7)c7nc(c(-c8ccc(S(=O)(=O)[O-])cc8)c8ccc5[nH]8)C=C7)C=C6)cc4)c3)C(=S)N=C1O)OCO2
REMARK SMILES IDX 24 1 23 2 22 3 20 4 21 5 19 6 15 7 16 8 91 9 17 10 18 11
REMARK SMILES IDX 14 12 10 13 11 14 12 15 95 16 13 17 94 18 92 19 93 20 9 21
REMARK SMILES IDX 4 22 5 23 6 24 8 25 7 26 99 27 97 28 98 29 3 30 2 31 1 32
REMARK SMILES IDX 96 33 25 35 26 36 27 37 28 38 29 39 30 40 31 41 32 42 90 43
REMARK SMILES IDX 33 44 89 45 34 46 35 47 36 48 83 49 37 50 88 51 82 52 84 53
REMARK SMILES IDX 38 54 87 55 81 56 80 57 39 59 69 60 50 61 68 62 51 63 54 64
REMARK SMILES IDX 67 65 85 66 52 67 53 68 66 70 86 71 55 72 40 73 41 74 49 75
REMARK SMILES IDX 42 76 48 77 43 78 44 79 45 80 46 81 47 82 70 83 71 84 79 85
REMARK SMILES IDX 72 86 78 87 73 88 74 89 75 90 76 91 77 92 56 93 57 94 65 95
REMARK SMILES IDX 58 96 64 97 59 98 60 99 61 100 62 101 63 102
REMARK H PARENT 96 34 84 58 54 69
REMARK Flexibility Score: inf
ROOT
ATOM      1  C   UNL A   1      49.515  26.246  27.725  1.00  0.00     0.202 C 
ENDROOT
BRANCH   1   2
ATOM      2  C   UNL A   1      48.003  26.188  27.974  1.00  0.00     0.261 C 
BRANCH   2   3
ATOM      3  O   UNL A   1      47.529  24.832  28.018  1.00  0.00    -0.460 OA
BRANCH   3   4
ATOM      4  C   UNL A   1      46.856  24.421  26.918  1.00  0.00     0.338 C 
ATOM      5  O   UNL A   1      47.336  24.029  25.865  1.00  0.00    -0.246 OA
BRANCH   4   6
ATOM      6  C   UNL A   1      45.413  24.301  27.234  1.00  0.00     0.062 A 
ATOM      7  C   UNL A   1      43.260  25.236  27.871  1.00  0.00     0.052 A 
ATOM      8  C   UNL A   1      42.745  23.926  27.926  1.00  0.00     0.027 A 
ATOM      9  C   UNL A   1      44.605  25.413  27.509  1.00  0.00     0.042 A 
ATOM     10  C   UNL A   1      43.554  22.818  27.665  1.00  0.00     0.003 A 
ATOM     11  C   UNL A   1      44.887  23.005  27.321  1.00  0.00     0.016 A 
BRANCH   7  12
ATOM     12  N   UNL A   1      42.401  26.367  28.147  1.00  0.00    -0.251 N 
ATOM     13  C   UNL A   1      41.145  28.326  30.993  1.00  0.00     0.031 C 
ATOM     14  C   UNL A   1      41.488  28.033  29.713  1.00  0.00     0.103 C 
ATOM     15  C   UNL A   1      42.304  26.791  29.486  1.00  0.00     0.270 C 
ATOM     16  C   UNL A   1      41.226  28.771  28.480  1.00  0.00     0.226 C 
ATOM     17  O   UNL A   1      42.867  26.243  30.433  1.00  0.00    -0.268 OA
ATOM     18  N   UNL A   1      41.333  28.330  27.286  1.00  0.00    -0.184 NA
ATOM     19  C   UNL A   1      41.730  27.030  27.095  1.00  0.00     0.210 C 
ATOM     20  S   UNL A   1      41.344  26.321  25.595  1.00  0.00    -0.038 S 
BRANCH  13  21
ATOM     21  C   UNL A   1      40.408  29.470  31.600  1.00  0.00     0.021 A 
ATOM     22  C   UNL A   1      38.985  29.543  31.538  1.00  0.00     0.130 A 
ATOM     23  C   UNL A   1      38.264  30.479  32.295  1.00  0.00     0.097 A 
ATOM     24  C   UNL A   1      38.974  31.409  33.009  1.00  0.00     0.169 A 
ATOM     25  C   UNL A   1      41.077  30.523  32.244  1.00  0.00     0.062 A 
ATOM     26  C   UNL A   1      40.342  31.445  32.964  1.00  0.00     0.166 A 
ATOM     27  O   UNL A   1      38.447  32.376  33.804  1.00  0.00    -0.453 OA
ATOM     28  O   UNL A   1      40.857  32.447  33.728  1.00  0.00    -0.454 OA
ATOM     29  C   UNL A   1      39.649  33.015  34.278  1.00  0.00     0.468 C 
BRANCH  22  30
ATOM     30  O   UNL A   1      38.254  28.652  30.785  1.00  0.00    -0.493 OA
BRANCH  30  31
ATOM     31  C   UNL A   1      37.183  29.304  30.067  1.00  0.00     0.226 C 
ATOM     32  C   UNL A   1      37.468  29.468  28.578  1.00  0.00     0.049 C 
ENDBRANCH  30  31
ENDBRANCH  22  30
ENDBRANCH  13  21
BRANCH  16  33
ATOM     33  O   UNL A   1      40.900  30.058  28.582  1.00  0.00    -0.493 OA
ATOM     34  H   UNL A   1      41.404  30.627  29.128  1.00  0.00     0.295 HD
ENDBRANCH  16  33
ENDBRANCH   7  12
ENDBRANCH   4   6
ENDBRANCH   3   4
ENDBRANCH   2   3
ENDBRANCH   1   2
BRANCH   1  35
ATOM     35  O   UNL A   1      49.960  26.974  26.580  1.00  0.00    -0.374 OA
BRANCH  35  36
ATOM     36  C   UNL A   1      50.061  26.265  25.345  1.00  0.00     0.202 C 
BRANCH  36  37
ATOM     37  C   UNL A   1      49.048  26.596  24.242  1.00  0.00     0.261 C 
BRANCH  37  38
ATOM     38  O   UNL A   1      48.290  27.786  24.519  1.00  0.00    -0.460 OA
BRANCH  38  39
ATOM     39  C   UNL A   1      46.962  27.568  24.678  1.00  0.00     0.338 C 
ATOM     40  O   UNL A   1      46.320  26.612  24.272  1.00  0.00    -0.246 OA
BRANCH  39  41
ATOM     41  C   UNL A   1      46.384  28.573  25.588  1.00  0.00     0.060 A 
ATOM     42  C   UNL A   1      47.282  29.414  26.257  1.00  0.00     0.016 A 
ATOM     43  C   UNL A   1      45.015  28.639  25.854  1.00  0.00     0.016 A 
ATOM     44  C   UNL A   1      46.822  30.273  27.249  1.00  0.00     0.010 A 
ATOM     45  C   UNL A   1      44.554  29.507  26.852  1.00  0.00     0.010 A 
ATOM     46  C   UNL A   1      45.461  30.293  27.586  1.00  0.00    -0.014 A 
BRANCH  46  47
ATOM     47  C   UNL A   1      45.036  31.045  28.793  1.00  0.00     0.031 A 
ATOM     48  C   UNL A   1      44.931  30.331  30.115  1.00  0.00     0.074 A 
ATOM     49  C   UNL A   1      44.819  32.371  28.723  1.00  0.00     0.049 A 
ATOM     50  N   UNL A   1      44.661  30.820  31.298  1.00  0.00    -0.248 NA
ATOM     51  C   UNL A   1      45.158  28.878  30.103  1.00  0.00     0.031 C 
ATOM     52  C   UNL A   1      44.911  33.177  27.505  1.00  0.00     0.029 A 
ATOM     53  N   UNL A   1      44.489  33.275  29.701  1.00  0.00    -0.354 N 
ATOM     54  C   UNL A   1      44.675  29.736  32.169  1.00  0.00     0.074 A 
ATOM     55  C   UNL A   1      44.944  28.559  31.370  1.00  0.00     0.031 C 
ATOM     56  C   UNL A   1      44.655  34.460  27.811  1.00  0.00     0.029 A 
ATOM     57  C   UNL A   1      44.353  34.562  29.237  1.00  0.00     0.049 A 
ATOM     58  H   UNL A   1      44.363  33.025  30.645  1.00  0.00     0.167 HD
ATOM     59  C   UNL A   1      44.488  29.721  33.511  1.00  0.00     0.031 A 
ATOM     60  C   UNL A   1      44.015  35.694  29.885  1.00  0.00     0.031 A 
ATOM     61  C   UNL A   1      44.210  30.895  34.298  1.00  0.00     0.049 A 
ATOM     62  C   UNL A   1      43.779  35.650  31.370  1.00  0.00     0.074 A 
ATOM     63  C   UNL A   1      44.040  30.990  35.669  1.00  0.00     0.029 A 
ATOM     64  N   UNL A   1      44.049  32.175  33.787  1.00  0.00    -0.354 N 
ATOM     65  N   UNL A   1      43.841  34.623  32.186  1.00  0.00    -0.248 NA
ATOM     66  C   UNL A   1      43.446  36.922  32.027  1.00  0.00     0.031 C 
ATOM     67  C   UNL A   1      43.705  32.312  35.976  1.00  0.00     0.029 A 
ATOM     68  C   UNL A   1      43.748  33.059  34.809  1.00  0.00     0.049 A 
ATOM     69  H   UNL A   1      44.136  32.417  32.837  1.00  0.00     0.167 HD
ATOM     70  C   UNL A   1      43.587  35.131  33.456  1.00  0.00     0.074 A 
ATOM     71  C   UNL A   1      43.385  36.558  33.300  1.00  0.00     0.031 C 
ATOM     72  C   UNL A   1      43.537  34.476  34.644  1.00  0.00     0.031 A 
BRANCH  59  73
ATOM     73  C   UNL A   1      44.533  28.383  34.209  1.00  0.00    -0.014 A 
ATOM     74  C   UNL A   1      43.374  27.610  34.399  1.00  0.00     0.010 A 
ATOM     75  C   UNL A   1      45.769  27.877  34.653  1.00  0.00     0.010 A 
ATOM     76  C   UNL A   1      43.443  26.378  35.059  1.00  0.00     0.020 A 
ATOM     77  C   UNL A   1      45.848  26.632  35.283  1.00  0.00     0.020 A 
ATOM     78  C   UNL A   1      44.681  25.899  35.500  1.00  0.00     0.054 A 
BRANCH  78  79
ATOM     79  S   UNL A   1      44.744  24.294  36.343  1.00  0.00     0.124 S 
ATOM     80  O   UNL A   1      43.680  23.556  35.667  1.00  0.00    -0.237 OA
ATOM     81  O   UNL A   1      46.103  23.838  36.060  1.00  0.00    -0.237 OA
ATOM     82  O   UNL A   1      44.479  24.625  37.741  1.00  0.00    -0.744 OA
ENDBRANCH  78  79
ENDBRANCH  59  73
BRANCH  60  83
ATOM     83  C   UNL A   1      43.880  36.964  29.120  1.00  0.00    -0.014 A 
ATOM     84  C   UNL A   1      44.994  37.782  28.864  1.00  0.00     0.010 A 
ATOM     85  C   UNL A   1      42.621  37.345  28.615  1.00  0.00     0.010 A 
ATOM     86  C   UNL A   1      44.851  38.960  28.125  1.00  0.00     0.020 A 
ATOM     87  C   UNL A   1      42.481  38.505  27.851  1.00  0.00     0.020 A 
ATOM     88  C   UNL A   1      43.596  39.310  27.616  1.00  0.00     0.054 A 
BRANCH  88  89
ATOM     89  S   UNL A   1      43.447  40.805  26.598  1.00  0.00     0.124 S 
ATOM     90  O   UNL A   1      44.420  40.551  25.541  1.00  0.00    -0.237 OA
ATOM     91  O   UNL A   1      42.044  40.768  26.192  1.00  0.00    -0.237 OA
ATOM     92  O   UNL A   1      43.793  41.883  27.523  1.00  0.00    -0.744 OA
ENDBRANCH  88  89
ENDBRANCH  60  83
BRANCH  72  93
ATOM     93  C   UNL A   1      43.293  35.302  35.882  1.00  0.00    -0.014 A 
ATOM     94  C   UNL A   1      41.994  35.557  36.359  1.00  0.00     0.010 A 
ATOM     95  C   UNL A   1      44.394  35.805  36.601  1.00  0.00     0.010 A 
ATOM     96  C   UNL A   1      41.800  36.340  37.501  1.00  0.00     0.020 A 
ATOM     97  C   UNL A   1      44.206  36.559  37.762  1.00  0.00     0.020 A 
ATOM     98  C   UNL A   1      42.908  36.839  38.193  1.00  0.00     0.054 A 
BRANCH  98  99
ATOM     99  S   UNL A   1      42.632  37.840  39.681  1.00  0.00     0.124 S 
ATOM    100  O   UNL A   1      43.776  37.470  40.512  1.00  0.00    -0.237 OA
ATOM    101  O   UNL A   1      42.651  39.203  39.157  1.00  0.00    -0.237 OA
ATOM    102  O   UNL A   1      41.334  37.384  40.171  1.00  0.00    -0.744 OA
ENDBRANCH  98  99
ENDBRANCH  72  93
ENDBRANCH  46  47
ENDBRANCH  39  41
ENDBRANCH  38  39
ENDBRANCH  37  38
ENDBRANCH  36  37
ENDBRANCH  35  36
ENDBRANCH   1  35
TORSDOF 22
ENDMDL
MODEL 3
REMARK VINA RESULT:      -7.8      6.234     13.262
REMARK SMILES CCOc1cc2c(cc1/C=C1/C(=O)N(c3cccc(C(=O)OCCOCCOC(=O)c4ccc(-c5c6nc(c(-c7ccc(S(=O)(=O)[O-])cc7)c7ccc([nH]7)c(-c7ccc(S(=O)(=O)[O-])cc7)c7nc(c(-c8ccc(S(=O)(=O)[O-])cc8)c8ccc5[nH]8)C=C7)C=C6)cc4)c3)C(=S)N=C1O)OCO2
REMARK SMILES IDX 24 1 23 2 22 3 20 4 21 5 19 6 15 7 16 8 91 9 17 10 18 11
REMARK SMILES IDX 14 12 10 13 11 14 12 15 95 16 13 17 94 18 92 19 93 20 9 21
REMARK SMILES IDX 4 22 5 23 6 24 8 25 7 26 99 27 97 28 98 29 3 30 2 31 1 32
REMARK SMILES IDX 96 33 25 35 26 36 27 37 28 38 29 39 30 40 31 41 32 42 90 43
REMARK SMILES IDX 33 44 89 45 34 46 35 47 36 48 83 49 37 50 88 51 82 52 84 53
REMARK SMILES IDX 38 54 87 55 81 56 80 57 39 59 69 60 50 61 68 62 51 63 54 64
REMARK SMILES IDX 67 65 85 66 52 67 53 68 66 70 86 71 55 72 40 73 41 74 49 75
REMARK SMILES IDX 42 76 48 77 43 78 44 79 45 80 46 81 47 82 70 83 71 84 79 85
REMARK SMILES IDX 72 86 78 87 73 88 74 89 75 90 76 91 77 92 56 93 57 94 65 95
REMARK SMILES IDX 58 96 64 97 59 98 60 99 61 100 62 101 63 102
REMARK H PARENT 96 34 84 58 54 69
REMARK Flexibility Score: inf
ROOT
ATOM      1  C   UNL A   1      50.041  39.728  31.925  1.00  0.00     0.202 C 
ENDROOT
BRANCH   1   2
ATOM      2  C   UNL A   1      49.834  41.227  32.173  1.00  0.00     0.261 C 
BRANCH   2   3
ATOM      3  O   UNL A   1      48.447  41.541  32.374  1.00  0.00    -0.460 OA
BRANCH   3   4
ATOM      4  C   UNL A   1      48.144  42.859  32.337  1.00  0.00     0.338 C 
ATOM      5  O   UNL A   1      48.906  43.796  32.523  1.00  0.00    -0.246 OA
BRANCH   4   6
ATOM      6  C   UNL A   1      46.767  43.037  31.817  1.00  0.00     0.062 A 
ATOM      7  C   UNL A   1      45.103  42.943  30.045  1.00  0.00     0.052 A 
ATOM      8  C   UNL A   1      44.177  43.530  30.930  1.00  0.00     0.027 A 
ATOM      9  C   UNL A   1      46.404  42.689  30.508  1.00  0.00     0.042 A 
ATOM     10  C   UNL A   1      44.544  43.889  32.229  1.00  0.00     0.003 A 
ATOM     11  C   UNL A   1      45.838  43.644  32.671  1.00  0.00     0.016 A 
BRANCH   7  12
ATOM     12  N   UNL A   1      44.697  42.581  28.705  1.00  0.00    -0.251 N 
ATOM     13  C   UNL A   1      44.493  44.031  25.333  1.00  0.00     0.031 C 
ATOM     14  C   UNL A   1      44.568  43.079  26.297  1.00  0.00     0.103 C 
ATOM     15  C   UNL A   1      44.903  43.535  27.690  1.00  0.00     0.270 C 
ATOM     16  C   UNL A   1      44.417  41.629  26.197  1.00  0.00     0.226 C 
ATOM     17  O   UNL A   1      45.365  44.661  27.875  1.00  0.00    -0.268 OA
ATOM     18  N   UNL A   1      44.233  40.811  27.161  1.00  0.00    -0.184 NA
ATOM     19  C   UNL A   1      44.159  41.302  28.441  1.00  0.00     0.210 C 
ATOM     20  S   UNL A   1      43.390  40.318  29.598  1.00  0.00    -0.038 S 
BRANCH  13  21
ATOM     21  C   UNL A   1      44.246  43.959  23.865  1.00  0.00     0.021 A 
ATOM     22  C   UNL A   1      45.326  44.011  22.935  1.00  0.00     0.130 A 
ATOM     23  C   UNL A   1      45.141  43.716  21.576  1.00  0.00     0.097 A 
ATOM     24  C   UNL A   1      43.861  43.491  21.139  1.00  0.00     0.169 A 
ATOM     25  C   UNL A   1      42.951  43.850  23.337  1.00  0.00     0.062 A 
ATOM     26  C   UNL A   1      42.793  43.580  21.992  1.00  0.00     0.166 A 
ATOM     27  O   UNL A   1      43.496  43.179  19.868  1.00  0.00    -0.453 OA
ATOM     28  O   UNL A   1      41.611  43.337  21.364  1.00  0.00    -0.454 OA
ATOM     29  C   UNL A   1      42.068  43.056  20.024  1.00  0.00     0.468 C 
BRANCH  22  30
ATOM     30  O   UNL A   1      46.611  44.287  23.344  1.00  0.00    -0.493 OA
BRANCH  30  31
ATOM     31  C   UNL A   1      47.587  43.509  22.618  1.00  0.00     0.226 C 
ATOM     32  C   UNL A   1      48.990  44.108  22.660  1.00  0.00     0.049 C 
ENDBRANCH  30  31
ENDBRANCH  22  30
ENDBRANCH  13  21
BRANCH  16  33
ATOM     33  O   UNL A   1      44.542  41.072  24.995  1.00  0.00    -0.493 OA
ATOM     34  H   UNL A   1      45.364  40.709  24.730  1.00  0.00     0.295 HD
ENDBRANCH  16  33
ENDBRANCH   7  12
ENDBRANCH   4   6
ENDBRANCH   3   4
ENDBRANCH   2   3
ENDBRANCH   1   2
BRANCH   1  35
ATOM     35  O   UNL A   1      48.983  38.851  32.316  1.00  0.00    -0.374 OA
BRANCH  35  36
ATOM     36  C   UNL A   1      49.044  37.500  31.857  1.00  0.00     0.202 C 
BRANCH  36  37
ATOM     37  C   UNL A   1      50.265  37.078  31.030  1.00  0.00     0.261 C 
BRANCH  37  38
ATOM     38  O   UNL A   1      49.986  35.984  30.141  1.00  0.00    -0.460 OA
BRANCH  38  39
ATOM     39  C   UNL A   1      49.134  36.295  29.134  1.00  0.00     0.338 C 
ATOM     40  O   UNL A   1      49.195  37.263  28.393  1.00  0.00    -0.246 OA
BRANCH  39  41
ATOM     41  C   UNL A   1      48.183  35.191  28.910  1.00  0.00     0.060 A 
ATOM     42  C   UNL A   1      48.100  34.213  29.908  1.00  0.00     0.016 A 
ATOM     43  C   UNL A   1      47.458  35.062  27.724  1.00  0.00     0.016 A 
ATOM     44  C   UNL A   1      47.347  33.063  29.692  1.00  0.00     0.010 A 
ATOM     45  C   UNL A   1      46.699  33.905  27.510  1.00  0.00     0.010 A 
ATOM     46  C   UNL A   1      46.679  32.879  28.474  1.00  0.00    -0.014 A 
BRANCH  46  47
ATOM     47  C   UNL A   1      46.076  31.554  28.184  1.00  0.00     0.031 A 
ATOM     48  C   UNL A   1      46.934  30.456  27.612  1.00  0.00     0.074 A 
ATOM     49  C   UNL A   1      44.791  31.312  28.498  1.00  0.00     0.049 A 
ATOM     50  N   UNL A   1      46.625  29.209  27.367  1.00  0.00    -0.248 NA
ATOM     51  C   UNL A   1      48.321  30.810  27.271  1.00  0.00     0.031 C 
ATOM     52  C   UNL A   1      43.865  32.287  29.076  1.00  0.00     0.029 A 
ATOM     53  N   UNL A   1      44.046  30.165  28.388  1.00  0.00    -0.354 N 
ATOM     54  C   UNL A   1      47.772  28.631  26.835  1.00  0.00     0.074 A 
ATOM     55  C   UNL A   1      48.772  29.675  26.759  1.00  0.00     0.031 C 
ATOM     56  C   UNL A   1      42.678  31.693  29.281  1.00  0.00     0.029 A 
ATOM     57  C   UNL A   1      42.749  30.307  28.822  1.00  0.00     0.049 A 
ATOM     58  H   UNL A   1      44.405  29.320  28.032  1.00  0.00     0.167 HD
ATOM     59  C   UNL A   1      47.978  27.348  26.451  1.00  0.00     0.031 A 
ATOM     60  C   UNL A   1      41.731  29.425  28.843  1.00  0.00     0.031 A 
ATOM     61  C   UNL A   1      46.974  26.317  26.520  1.00  0.00     0.049 A 
ATOM     62  C   UNL A   1      41.971  28.013  28.380  1.00  0.00     0.074 A 
ATOM     63  C   UNL A   1      47.094  24.978  26.188  1.00  0.00     0.029 A 
ATOM     64  N   UNL A   1      45.665  26.508  26.937  1.00  0.00    -0.354 N 
ATOM     65  N   UNL A   1      43.075  27.471  27.922  1.00  0.00    -0.248 NA
ATOM     66  C   UNL A   1      40.832  27.088  28.457  1.00  0.00     0.031 C 
ATOM     67  C   UNL A   1      45.839  24.377  26.335  1.00  0.00     0.029 A 
ATOM     68  C   UNL A   1      44.958  25.322  26.838  1.00  0.00     0.049 A 
ATOM     69  H   UNL A   1      45.294  27.363  27.255  1.00  0.00     0.167 HD
ATOM     70  C   UNL A   1      42.773  26.134  27.686  1.00  0.00     0.074 A 
ATOM     71  C   UNL A   1      41.387  25.948  28.066  1.00  0.00     0.031 C 
ATOM     72  C   UNL A   1      43.574  25.148  27.208  1.00  0.00     0.031 A 
BRANCH  59  73
ATOM     73  C   UNL A   1      49.328  26.997  25.877  1.00  0.00    -0.014 A 
ATOM     74  C   UNL A   1      50.385  26.554  26.693  1.00  0.00     0.010 A 
ATOM     75  C   UNL A   1      49.531  27.080  24.487  1.00  0.00     0.010 A 
ATOM     76  C   UNL A   1      51.631  26.245  26.136  1.00  0.00     0.020 A 
ATOM     77  C   UNL A   1      50.764  26.741  23.921  1.00  0.00     0.020 A 
ATOM     78  C   UNL A   1      51.812  26.344  24.752  1.00  0.00     0.054 A 
BRANCH  78  79
ATOM     79  S   UNL A   1      53.434  25.927  24.054  1.00  0.00     0.124 S 
ATOM     80  O   UNL A   1      53.673  24.601  24.618  1.00  0.00    -0.237 OA
ATOM     81  O   UNL A   1      53.180  25.962  22.616  1.00  0.00    -0.237 OA
ATOM     82  O   UNL A   1      54.310  26.984  24.555  1.00  0.00    -0.744 OA
ENDBRANCH  78  79
ENDBRANCH  59  73
BRANCH  60  83
ATOM     83  C   UNL A   1      40.390  29.863  29.319  1.00  0.00    -0.014 A 
ATOM     84  C   UNL A   1      40.130  30.053  30.687  1.00  0.00     0.010 A 
ATOM     85  C   UNL A   1      39.367  30.121  28.386  1.00  0.00     0.010 A 
ATOM     86  C   UNL A   1      38.870  30.486  31.113  1.00  0.00     0.020 A 
ATOM     87  C   UNL A   1      38.119  30.583  28.805  1.00  0.00     0.020 A 
ATOM     88  C   UNL A   1      37.875  30.756  30.169  1.00  0.00     0.054 A 
BRANCH  88  89
ATOM     89  S   UNL A   1      36.271  31.386  30.738  1.00  0.00     0.124 S 
ATOM     90  O   UNL A   1      35.900  30.402  31.749  1.00  0.00    -0.237 OA
ATOM     91  O   UNL A   1      36.618  32.713  31.241  1.00  0.00    -0.237 OA
ATOM     92  O   UNL A   1      35.453  31.381  29.527  1.00  0.00    -0.744 OA
ENDBRANCH  88  89
ENDBRANCH  60  83
BRANCH  72  93
ATOM     93  C   UNL A   1      42.985  23.763  27.106  1.00  0.00    -0.014 A 
ATOM     94  C   UNL A   1      42.902  22.910  28.221  1.00  0.00     0.010 A 
ATOM     95  C   UNL A   1      42.472  23.323  25.871  1.00  0.00     0.010 A 
ATOM     96  C   UNL A   1      42.364  21.625  28.091  1.00  0.00     0.020 A 
ATOM     97  C   UNL A   1      41.903  22.054  25.744  1.00  0.00     0.020 A 
ATOM     98  C   UNL A   1      41.872  21.204  26.851  1.00  0.00     0.054 A 
BRANCH  98  99
ATOM     99  S   UNL A   1      41.166  19.539  26.710  1.00  0.00     0.124 S 
ATOM    100  O   UNL A   1      40.036  19.764  25.812  1.00  0.00    -0.237 OA
ATOM    101  O   UNL A   1      42.272  18.769  26.147  1.00  0.00    -0.237 OA
ATOM    102  O   UNL A   1      40.810  19.195  28.084  1.00  0.00    -0.744 OA
ENDBRANCH  98  99
ENDBRANCH  72  93
ENDBRANCH  46  47
ENDBRANCH  39  41
ENDBRANCH  38  39
ENDBRANCH  37  38
ENDBRANCH  36  37
ENDBRANCH  35  36
ENDBRANCH   1  35
TORSDOF 22
ENDMDL
