MODEL 1
REMARK VINA RESULT:     -10.0      0.000      0.000
REMARK SMILES CCc1cc(Oc2cncc(C(=O)OCCOCCOC(=O)c3ccc(-c4c5nc(c(-c6ccc(S(=O)(=O)[O-])cc6)c6ccc([nH]6)c(-c6ccc(S(=O)(=O)[O-])cc6)c6nc(c(-c7ccc(S(=O)(=O)[O-])cc7)c7ccc4[nH]7)C=C6)C=C5)cc3)n2)ccc1Cl
REMARK SMILES IDX 17 1 16 2 15 3 14 4 12 5 13 6 11 7 7 8 8 9 83 10 9 11 10 12
REMARK SMILES IDX 6 13 5 14 3 15 4 16 86 17 85 18 87 19 84 20 2 21 1 22 18 23
REMARK SMILES IDX 19 24 20 25 21 26 22 27 23 28 24 29 82 30 25 31 81 32 26 33
REMARK SMILES IDX 27 34 28 35 75 36 29 37 80 38 74 39 76 40 30 41 79 42 73 43
REMARK SMILES IDX 72 44 31 46 61 47 42 48 60 49 43 50 46 51 59 52 77 53 44 54
REMARK SMILES IDX 45 55 58 57 78 58 47 59 32 60 33 61 41 62 34 63 40 64 35 65
REMARK SMILES IDX 36 66 37 67 38 68 39 69 62 70 63 71 71 72 64 73 70 74 65 75
REMARK SMILES IDX 66 76 67 77 68 78 69 79 48 80 49 81 57 82 50 83 56 84 51 85
REMARK SMILES IDX 52 86 53 87 54 88 55 89
REMARK H PARENT 76 45 46 56
REMARK Flexibility Score: inf
ROOT
ATOM      1  O   UNL A   1      43.312  21.440  24.963  1.00  0.00    -0.374 OA
ENDROOT
BRANCH   1   2
ATOM      2  C   UNL A   1      43.704  20.133  25.383  1.00  0.00     0.202 C 
BRANCH   2   3
ATOM      3  C   UNL A   1      42.587  19.176  25.815  1.00  0.00     0.261 C 
BRANCH   3   4
ATOM      4  O   UNL A   1      41.284  19.728  25.575  1.00  0.00    -0.458 OA
BRANCH   4   5
ATOM      5  C   UNL A   1      40.662  20.228  26.672  1.00  0.00     0.358 C 
ATOM      6  O   UNL A   1      40.934  19.977  27.837  1.00  0.00    -0.244 OA
BRANCH   5   7
ATOM      7  C   UNL A   1      39.684  21.278  26.302  1.00  0.00     0.170 A 
ATOM      8  C   UNL A   1      37.855  22.047  25.145  1.00  0.00     0.238 A 
ATOM      9  C   UNL A   1      37.997  23.283  25.773  1.00  0.00     0.179 A 
ATOM     10  N   UNL A   1      38.694  21.015  25.407  1.00  0.00    -0.203 NA
ATOM     11  N   UNL A   1      39.019  23.570  26.618  1.00  0.00    -0.257 NA
ATOM     12  C   UNL A   1      39.855  22.534  26.872  1.00  0.00     0.147 A 
BRANCH   8  13
ATOM     13  O   UNL A   1      36.802  21.737  24.317  1.00  0.00    -0.437 OA
BRANCH  13  14
ATOM     14  C   UNL A   1      35.502  21.924  24.729  1.00  0.00     0.129 A 
ATOM     15  C   UNL A   1      33.307  20.849  24.940  1.00  0.00    -0.026 A 
ATOM     16  C   UNL A   1      34.679  20.796  24.620  1.00  0.00     0.052 A 
ATOM     17  C   UNL A   1      32.780  22.066  25.397  1.00  0.00     0.044 A 
ATOM     18  C   UNL A   1      33.596  23.195  25.501  1.00  0.00     0.024 A 
ATOM     19  Cl  UNL A   1      31.114  22.247  25.821  1.00  0.00    -0.084 Cl
ATOM     20  C   UNL A   1      34.947  23.134  25.144  1.00  0.00     0.049 A 
BRANCH  15  21
ATOM     21  C   UNL A   1      32.463  19.619  24.700  1.00  0.00     0.034 C 
ATOM     22  C   UNL A   1      33.224  18.347  25.046  1.00  0.00     0.009 C 
ENDBRANCH  15  21
ENDBRANCH  13  14
ENDBRANCH   8  13
ENDBRANCH   5   7
ENDBRANCH   4   5
ENDBRANCH   3   4
ENDBRANCH   2   3
ENDBRANCH   1   2
BRANCH   1  23
ATOM     23  C   UNL A   1      43.594  22.523  25.852  1.00  0.00     0.202 C 
BRANCH  23  24
ATOM     24  C   UNL A   1      43.417  23.950  25.315  1.00  0.00     0.261 C 
BRANCH  24  25
ATOM     25  O   UNL A   1      42.427  24.697  26.043  1.00  0.00    -0.460 OA
BRANCH  25  26
ATOM     26  C   UNL A   1      42.408  26.028  25.790  1.00  0.00     0.338 C 
ATOM     27  O   UNL A   1      42.541  26.575  24.705  1.00  0.00    -0.246 OA
BRANCH  26  28
ATOM     28  C   UNL A   1      42.000  26.752  27.007  1.00  0.00     0.060 A 
ATOM     29  C   UNL A   1      42.536  28.028  27.224  1.00  0.00     0.016 A 
ATOM     30  C   UNL A   1      41.128  26.183  27.935  1.00  0.00     0.016 A 
ATOM     31  C   UNL A   1      42.205  28.739  28.377  1.00  0.00     0.010 A 
ATOM     32  C   UNL A   1      40.808  26.891  29.097  1.00  0.00     0.010 A 
ATOM     33  C   UNL A   1      41.351  28.169  29.329  1.00  0.00    -0.014 A 
BRANCH  33  34
ATOM     34  C   UNL A   1      41.056  28.881  30.597  1.00  0.00     0.031 A 
ATOM     35  C   UNL A   1      39.935  29.882  30.644  1.00  0.00     0.074 A 
ATOM     36  C   UNL A   1      41.798  28.642  31.694  1.00  0.00     0.049 A 
ATOM     37  N   UNL A   1      39.583  30.681  31.618  1.00  0.00    -0.248 NA
ATOM     38  C   UNL A   1      39.102  29.999  29.436  1.00  0.00     0.031 C 
ATOM     39  C   UNL A   1      42.882  27.663  31.784  1.00  0.00     0.029 A 
ATOM     40  N   UNL A   1      41.764  29.219  32.939  1.00  0.00    -0.354 N 
ATOM     41  C   UNL A   1      38.492  31.399  31.142  1.00  0.00     0.074 A 
ATOM     42  C   UNL A   1      38.255  30.959  29.785  1.00  0.00     0.031 C 
ATOM     43  C   UNL A   1      43.419  27.718  33.014  1.00  0.00     0.029 A 
ATOM     44  C   UNL A   1      42.752  28.767  33.782  1.00  0.00     0.049 A 
ATOM     45  H   UNL A   1      41.096  29.892  33.204  1.00  0.00     0.167 HD
ATOM     46  C   UNL A   1      37.754  32.337  31.784  1.00  0.00     0.031 A 
ATOM     47  C   UNL A   1      43.104  29.179  35.016  1.00  0.00     0.031 A 
ATOM     48  C   UNL A   1      38.007  32.783  33.129  1.00  0.00     0.049 A 
ATOM     49  C   UNL A   1      42.335  30.302  35.663  1.00  0.00     0.074 A 
ATOM     50  C   UNL A   1      37.307  33.721  33.869  1.00  0.00     0.029 A 
ATOM     51  N   UNL A   1      39.042  32.333  33.934  1.00  0.00    -0.354 N 
ATOM     52  N   UNL A   1      41.288  30.951  35.214  1.00  0.00    -0.248 NA
ATOM     53  C   UNL A   1      42.798  30.750  36.985  1.00  0.00     0.031 C 
ATOM     54  C   UNL A   1      37.958  33.885  35.096  1.00  0.00     0.029 A 
ATOM     55  C   UNL A   1      39.024  33.002  35.146  1.00  0.00     0.049 A 
ATOM     56  H   UNL A   1      39.695  31.640  33.680  1.00  0.00     0.167 HD
ATOM     57  C   UNL A   1      40.956  31.870  36.206  1.00  0.00     0.074 A 
ATOM     58  C   UNL A   1      41.897  31.674  37.289  1.00  0.00     0.031 C 
ATOM     59  C   UNL A   1      39.968  32.797  36.217  1.00  0.00     0.031 A 
BRANCH  46  60
ATOM     60  C   UNL A   1      36.611  32.970  31.034  1.00  0.00    -0.014 A 
ATOM     61  C   UNL A   1      35.279  32.619  31.312  1.00  0.00     0.010 A 
ATOM     62  C   UNL A   1      36.870  33.989  30.099  1.00  0.00     0.010 A 
ATOM     63  C   UNL A   1      34.226  33.263  30.655  1.00  0.00     0.020 A 
ATOM     64  C   UNL A   1      35.819  34.653  29.458  1.00  0.00     0.020 A 
ATOM     65  C   UNL A   1      34.504  34.279  29.735  1.00  0.00     0.054 A 
BRANCH  65  66
ATOM     66  S   UNL A   1      33.114  35.133  28.940  1.00  0.00     0.124 S 
ATOM     67  O   UNL A   1      33.779  36.271  28.312  1.00  0.00    -0.237 OA
ATOM     68  O   UNL A   1      32.601  34.120  28.022  1.00  0.00    -0.237 OA
ATOM     69  O   UNL A   1      32.228  35.467  30.054  1.00  0.00    -0.744 OA
ENDBRANCH  65  66
ENDBRANCH  46  60
BRANCH  47  70
ATOM     70  C   UNL A   1      44.275  28.568  35.708  1.00  0.00    -0.014 A 
ATOM     71  C   UNL A   1      45.574  29.060  35.493  1.00  0.00     0.010 A 
ATOM     72  C   UNL A   1      44.098  27.462  36.560  1.00  0.00     0.010 A 
ATOM     73  C   UNL A   1      46.675  28.440  36.091  1.00  0.00     0.020 A 
ATOM     74  C   UNL A   1      45.191  26.860  37.187  1.00  0.00     0.020 A 
ATOM     75  C   UNL A   1      46.476  27.343  36.934  1.00  0.00     0.054 A 
BRANCH  75  76
ATOM     76  S   UNL A   1      47.918  26.566  37.715  1.00  0.00     0.124 S 
ATOM     77  O   UNL A   1      48.420  27.642  38.563  1.00  0.00    -0.237 OA
ATOM     78  O   UNL A   1      47.323  25.431  38.416  1.00  0.00    -0.237 OA
ATOM     79  O   UNL A   1      48.771  26.212  36.582  1.00  0.00    -0.744 OA
ENDBRANCH  75  76
ENDBRANCH  47  70
BRANCH  59  80
ATOM     80  C   UNL A   1      39.837  33.662  37.443  1.00  0.00    -0.014 A 
ATOM     81  C   UNL A   1      39.125  33.217  38.571  1.00  0.00     0.010 A 
ATOM     82  C   UNL A   1      40.489  34.909  37.492  1.00  0.00     0.010 A 
ATOM     83  C   UNL A   1      39.045  34.014  39.717  1.00  0.00     0.020 A 
ATOM     84  C   UNL A   1      40.437  35.694  38.647  1.00  0.00     0.020 A 
ATOM     85  C   UNL A   1      39.706  35.246  39.749  1.00  0.00     0.054 A 
BRANCH  85  86
ATOM     86  S   UNL A   1      39.635  36.232  41.270  1.00  0.00     0.124 S 
ATOM     87  O   UNL A   1      38.837  35.381  42.147  1.00  0.00    -0.237 OA
ATOM     88  O   UNL A   1      41.045  36.361  41.632  1.00  0.00    -0.237 OA
ATOM     89  O   UNL A   1      38.990  37.474  40.850  1.00  0.00    -0.744 OA
ENDBRANCH  85  86
ENDBRANCH  59  80
ENDBRANCH  33  34
ENDBRANCH  26  28
ENDBRANCH  25  26
ENDBRANCH  24  25
ENDBRANCH  23  24
ENDBRANCH   1  23
TORSDOF 20
ENDMDL
MODEL 2
REMARK VINA RESULT:     -10.0      3.690      9.548
REMARK SMILES CCc1cc(Oc2cncc(C(=O)OCCOCCOC(=O)c3ccc(-c4c5nc(c(-c6ccc(S(=O)(=O)[O-])cc6)c6ccc([nH]6)c(-c6ccc(S(=O)(=O)[O-])cc6)c6nc(c(-c7ccc(S(=O)(=O)[O-])cc7)c7ccc4[nH]7)C=C6)C=C5)cc3)n2)ccc1Cl
REMARK SMILES IDX 17 1 16 2 15 3 14 4 12 5 13 6 11 7 7 8 8 9 83 10 9 11 10 12
REMARK SMILES IDX 6 13 5 14 3 15 4 16 86 17 85 18 87 19 84 20 2 21 1 22 18 23
REMARK SMILES IDX 19 24 20 25 21 26 22 27 23 28 24 29 82 30 25 31 81 32 26 33
REMARK SMILES IDX 27 34 28 35 75 36 29 37 80 38 74 39 76 40 30 41 79 42 73 43
REMARK SMILES IDX 72 44 31 46 61 47 42 48 60 49 43 50 46 51 59 52 77 53 44 54
REMARK SMILES IDX 45 55 58 57 78 58 47 59 32 60 33 61 41 62 34 63 40 64 35 65
REMARK SMILES IDX 36 66 37 67 38 68 39 69 62 70 63 71 71 72 64 73 70 74 65 75
REMARK SMILES IDX 66 76 67 77 68 78 69 79 48 80 49 81 57 82 50 83 56 84 51 85
REMARK SMILES IDX 52 86 53 87 54 88 55 89
REMARK H PARENT 76 45 46 56
REMARK Flexibility Score: inf
ROOT
ATOM      1  O   UNL A   1      35.448  21.557  25.943  1.00  0.00    -0.374 OA
ENDROOT
BRANCH   1   2
ATOM      2  C   UNL A   1      35.808  20.518  25.033  1.00  0.00     0.202 C 
BRANCH   2   3
ATOM      3  C   UNL A   1      34.832  19.344  24.894  1.00  0.00     0.261 C 
BRANCH   3   4
ATOM      4  O   UNL A   1      33.526  19.668  25.394  1.00  0.00    -0.458 OA
BRANCH   4   5
ATOM      5  C   UNL A   1      32.561  19.777  24.447  1.00  0.00     0.358 C 
ATOM      6  O   UNL A   1      31.854  18.873  24.026  1.00  0.00    -0.244 OA
BRANCH   5   7
ATOM      7  C   UNL A   1      32.331  21.193  24.076  1.00  0.00     0.170 A 
ATOM      8  C   UNL A   1      31.577  23.319  24.506  1.00  0.00     0.238 A 
ATOM      9  C   UNL A   1      32.018  23.714  23.244  1.00  0.00     0.179 A 
ATOM     10  N   UNL A   1      31.735  22.048  24.949  1.00  0.00    -0.203 NA
ATOM     11  N   UNL A   1      32.555  22.851  22.344  1.00  0.00    -0.257 NA
ATOM     12  C   UNL A   1      32.706  21.582  22.796  1.00  0.00     0.147 A 
BRANCH   8  13
ATOM     13  O   UNL A   1      31.066  24.195  25.434  1.00  0.00    -0.437 OA
BRANCH  13  14
ATOM     14  C   UNL A   1      31.549  25.480  25.533  1.00  0.00     0.129 A 
ATOM     15  C   UNL A   1      31.231  27.789  24.770  1.00  0.00    -0.026 A 
ATOM     16  C   UNL A   1      30.822  26.442  24.819  1.00  0.00     0.052 A 
ATOM     17  C   UNL A   1      32.385  28.159  25.476  1.00  0.00     0.044 A 
ATOM     18  C   UNL A   1      33.116  27.202  26.186  1.00  0.00     0.024 A 
ATOM     19  Cl  UNL A   1      32.978  29.782  25.490  1.00  0.00    -0.084 Cl
ATOM     20  C   UNL A   1      32.716  25.862  26.194  1.00  0.00     0.049 A 
BRANCH  15  21
ATOM     21  C   UNL A   1      30.454  28.747  23.896  1.00  0.00     0.034 C 
ATOM     22  C   UNL A   1      29.307  28.043  23.185  1.00  0.00     0.009 C 
ENDBRANCH  15  21
ENDBRANCH  13  14
ENDBRANCH   8  13
ENDBRANCH   5   7
ENDBRANCH   4   5
ENDBRANCH   3   4
ENDBRANCH   2   3
ENDBRANCH   1   2
BRANCH   1  23
ATOM     23  C   UNL A   1      35.305  22.874  25.407  1.00  0.00     0.202 C 
BRANCH  23  24
ATOM     24  C   UNL A   1      36.382  23.908  25.760  1.00  0.00     0.261 C 
BRANCH  24  25
ATOM     25  O   UNL A   1      37.669  23.579  25.210  1.00  0.00    -0.460 OA
BRANCH  25  26
ATOM     26  C   UNL A   1      38.594  23.170  26.112  1.00  0.00     0.338 C 
ATOM     27  O   UNL A   1      39.034  22.039  26.258  1.00  0.00    -0.246 OA
BRANCH  26  28
ATOM     28  C   UNL A   1      39.165  24.345  26.794  1.00  0.00     0.060 A 
ATOM     29  C   UNL A   1      38.830  24.552  28.139  1.00  0.00     0.016 A 
ATOM     30  C   UNL A   1      39.993  25.245  26.124  1.00  0.00     0.016 A 
ATOM     31  C   UNL A   1      39.320  25.667  28.818  1.00  0.00     0.010 A 
ATOM     32  C   UNL A   1      40.473  26.370  26.802  1.00  0.00     0.010 A 
ATOM     33  C   UNL A   1      40.132  26.592  28.150  1.00  0.00    -0.014 A 
BRANCH  33  34
ATOM     34  C   UNL A   1      40.593  27.824  28.838  1.00  0.00     0.031 A 
ATOM     35  C   UNL A   1      41.956  27.855  29.471  1.00  0.00     0.074 A 
ATOM     36  C   UNL A   1      39.787  28.899  28.906  1.00  0.00     0.049 A 
ATOM     37  N   UNL A   1      42.504  28.791  30.203  1.00  0.00    -0.248 NA
ATOM     38  C   UNL A   1      42.815  26.681  29.252  1.00  0.00     0.031 C 
ATOM     39  C   UNL A   1      38.463  29.005  28.293  1.00  0.00     0.029 A 
ATOM     40  N   UNL A   1      39.960  30.105  29.539  1.00  0.00    -0.354 N 
ATOM     41  C   UNL A   1      43.768  28.319  30.537  1.00  0.00     0.074 A 
ATOM     42  C   UNL A   1      43.897  27.004  29.947  1.00  0.00     0.031 C 
ATOM     43  C   UNL A   1      37.937  30.204  28.592  1.00  0.00     0.029 A 
ATOM     44  C   UNL A   1      38.863  30.931  29.456  1.00  0.00     0.049 A 
ATOM     45  H   UNL A   1      40.789  30.356  30.007  1.00  0.00     0.167 HD
ATOM     46  C   UNL A   1      44.732  28.931  31.265  1.00  0.00     0.031 A 
ATOM     47  C   UNL A   1      38.618  32.120  30.043  1.00  0.00     0.031 A 
ATOM     48  C   UNL A   1      44.589  30.233  31.864  1.00  0.00     0.049 A 
ATOM     49  C   UNL A   1      39.666  32.728  30.939  1.00  0.00     0.074 A 
ATOM     50  C   UNL A   1      45.515  30.941  32.610  1.00  0.00     0.029 A 
ATOM     51  N   UNL A   1      43.449  31.018  31.794  1.00  0.00    -0.354 N 
ATOM     52  N   UNL A   1      40.868  32.284  31.221  1.00  0.00    -0.248 NA
ATOM     53  C   UNL A   1      39.324  33.996  31.599  1.00  0.00     0.031 C 
ATOM     54  C   UNL A   1      44.912  32.125  33.047  1.00  0.00     0.029 A 
ATOM     55  C   UNL A   1      43.633  32.185  32.517  1.00  0.00     0.049 A 
ATOM     56  H   UNL A   1      42.629  30.781  31.303  1.00  0.00     0.167 HD
ATOM     57  C   UNL A   1      41.430  33.229  32.075  1.00  0.00     0.074 A 
ATOM     58  C   UNL A   1      40.448  34.279  32.242  1.00  0.00     0.031 C 
ATOM     59  C   UNL A   1      42.646  33.224  32.674  1.00  0.00     0.031 A 
BRANCH  46  60
ATOM     60  C   UNL A   1      46.027  28.193  31.482  1.00  0.00    -0.014 A 
ATOM     61  C   UNL A   1      46.234  27.416  32.635  1.00  0.00     0.010 A 
ATOM     62  C   UNL A   1      47.015  28.210  30.482  1.00  0.00     0.010 A 
ATOM     63  C   UNL A   1      47.414  26.684  32.792  1.00  0.00     0.020 A 
ATOM     64  C   UNL A   1      48.187  27.459  30.622  1.00  0.00     0.020 A 
ATOM     65  C   UNL A   1      48.382  26.707  31.782  1.00  0.00     0.054 A 
BRANCH  65  66
ATOM     66  S   UNL A   1      49.878  25.703  31.990  1.00  0.00     0.124 S 
ATOM     67  O   UNL A   1      50.201  25.352  30.610  1.00  0.00    -0.237 OA
ATOM     68  O   UNL A   1      50.800  26.635  32.633  1.00  0.00    -0.237 OA
ATOM     69  O   UNL A   1      49.436  24.589  32.827  1.00  0.00    -0.744 OA
ENDBRANCH  65  66
ENDBRANCH  46  60
BRANCH  47  70
ATOM     70  C   UNL A   1      37.304  32.797  29.851  1.00  0.00    -0.014 A 
ATOM     71  C   UNL A   1      37.103  33.688  28.783  1.00  0.00     0.010 A 
ATOM     72  C   UNL A   1      36.254  32.580  30.763  1.00  0.00     0.010 A 
ATOM     73  C   UNL A   1      35.891  34.371  28.648  1.00  0.00     0.020 A 
ATOM     74  C   UNL A   1      35.029  33.234  30.613  1.00  0.00     0.020 A 
ATOM     75  C   UNL A   1      34.862  34.140  29.565  1.00  0.00     0.054 A 
BRANCH  75  76
ATOM     76  S   UNL A   1      33.290  35.023  29.359  1.00  0.00     0.124 S 
ATOM     77  O   UNL A   1      32.581  34.165  28.416  1.00  0.00    -0.237 OA
ATOM     78  O   UNL A   1      32.760  35.043  30.720  1.00  0.00    -0.237 OA
ATOM     79  O   UNL A   1      33.696  36.327  28.837  1.00  0.00    -0.744 OA
ENDBRANCH  75  76
ENDBRANCH  47  70
BRANCH  59  80
ATOM     80  C   UNL A   1      42.995  34.397  33.553  1.00  0.00    -0.014 A 
ATOM     81  C   UNL A   1      42.791  34.347  34.944  1.00  0.00     0.010 A 
ATOM     82  C   UNL A   1      43.595  35.538  32.989  1.00  0.00     0.010 A 
ATOM     83  C   UNL A   1      43.157  35.427  35.751  1.00  0.00     0.020 A 
ATOM     84  C   UNL A   1      43.990  36.608  33.798  1.00  0.00     0.020 A 
ATOM     85  C   UNL A   1      43.758  36.550  35.173  1.00  0.00     0.054 A 
BRANCH  85  86
ATOM     86  S   UNL A   1      44.276  37.912  36.252  1.00  0.00     0.124 S 
ATOM     87  O   UNL A   1      44.045  39.078  35.404  1.00  0.00    -0.237 OA
ATOM     88  O   UNL A   1      43.374  37.776  37.393  1.00  0.00    -0.237 OA
ATOM     89  O   UNL A   1      45.679  37.617  36.536  1.00  0.00    -0.744 OA
ENDBRANCH  85  86
ENDBRANCH  59  80
ENDBRANCH  33  34
ENDBRANCH  26  28
ENDBRANCH  25  26
ENDBRANCH  24  25
ENDBRANCH  23  24
ENDBRANCH   1  23
TORSDOF 20
ENDMDL
MODEL 3
REMARK VINA RESULT:      -9.9      6.262      9.293
REMARK SMILES CCc1cc(Oc2cncc(C(=O)OCCOCCOC(=O)c3ccc(-c4c5nc(c(-c6ccc(S(=O)(=O)[O-])cc6)c6ccc([nH]6)c(-c6ccc(S(=O)(=O)[O-])cc6)c6nc(c(-c7ccc(S(=O)(=O)[O-])cc7)c7ccc4[nH]7)C=C6)C=C5)cc3)n2)ccc1Cl
REMARK SMILES IDX 17 1 16 2 15 3 14 4 12 5 13 6 11 7 7 8 8 9 83 10 9 11 10 12
REMARK SMILES IDX 6 13 5 14 3 15 4 16 86 17 85 18 87 19 84 20 2 21 1 22 18 23
REMARK SMILES IDX 19 24 20 25 21 26 22 27 23 28 24 29 82 30 25 31 81 32 26 33
REMARK SMILES IDX 27 34 28 35 75 36 29 37 80 38 74 39 76 40 30 41 79 42 73 43
REMARK SMILES IDX 72 44 31 46 61 47 42 48 60 49 43 50 46 51 59 52 77 53 44 54
REMARK SMILES IDX 45 55 58 57 78 58 47 59 32 60 33 61 41 62 34 63 40 64 35 65
REMARK SMILES IDX 36 66 37 67 38 68 39 69 62 70 63 71 71 72 64 73 70 74 65 75
REMARK SMILES IDX 66 76 67 77 68 78 69 79 48 80 49 81 57 82 50 83 56 84 51 85
REMARK SMILES IDX 52 86 53 87 54 88 55 89
REMARK H PARENT 76 45 46 56
REMARK Flexibility Score: inf
ROOT
ATOM      1  O   UNL A   1      36.560  20.195  25.051  1.00  0.00    -0.374 OA
ENDROOT
BRANCH   1   2
ATOM      2  C   UNL A   1      35.504  21.156  25.018  1.00  0.00     0.202 C 
BRANCH   2   3
ATOM      3  C   UNL A   1      34.142  20.677  24.504  1.00  0.00     0.261 C 
BRANCH   3   4
ATOM      4  O   UNL A   1      33.274  21.773  24.178  1.00  0.00    -0.458 OA
BRANCH   4   5
ATOM      5  C   UNL A   1      32.113  21.813  24.877  1.00  0.00     0.358 C 
ATOM      6  O   UNL A   1      31.522  20.856  25.356  1.00  0.00    -0.244 OA
BRANCH   5   7
ATOM      7  C   UNL A   1      31.699  23.209  25.152  1.00  0.00     0.170 A 
ATOM      8  C   UNL A   1      31.432  25.412  24.561  1.00  0.00     0.238 A 
ATOM      9  C   UNL A   1      30.878  25.664  25.815  1.00  0.00     0.179 A 
ATOM     10  N   UNL A   1      31.845  24.172  24.203  1.00  0.00    -0.203 NA
ATOM     11  N   UNL A   1      30.789  24.723  26.788  1.00  0.00    -0.257 NA
ATOM     12  C   UNL A   1      31.208  23.487  26.421  1.00  0.00     0.147 A 
BRANCH   8  13
ATOM     13  O   UNL A   1      31.491  26.351  23.559  1.00  0.00    -0.437 OA
BRANCH  13  14
ATOM     14  C   UNL A   1      30.981  27.617  23.747  1.00  0.00     0.129 A 
ATOM     15  C   UNL A   1      29.136  29.125  23.166  1.00  0.00    -0.026 A 
ATOM     16  C   UNL A   1      29.752  27.858  23.120  1.00  0.00     0.052 A 
ATOM     17  C   UNL A   1      29.777  30.148  23.879  1.00  0.00     0.044 A 
ATOM     18  C   UNL A   1      31.007  29.914  24.501  1.00  0.00     0.024 A 
ATOM     19  Cl  UNL A   1      29.115  31.739  24.005  1.00  0.00    -0.084 Cl
ATOM     20  C   UNL A   1      31.621  28.660  24.414  1.00  0.00     0.049 A 
BRANCH  15  21
ATOM     21  C   UNL A   1      27.863  29.336  22.380  1.00  0.00     0.034 C 
ATOM     22  C   UNL A   1      28.062  30.350  21.262  1.00  0.00     0.009 C 
ENDBRANCH  15  21
ENDBRANCH  13  14
ENDBRANCH   8  13
ENDBRANCH   5   7
ENDBRANCH   4   5
ENDBRANCH   3   4
ENDBRANCH   2   3
ENDBRANCH   1   2
BRANCH   1  23
ATOM     23  C   UNL A   1      37.895  20.696  25.135  1.00  0.00     0.202 C 
BRANCH  23  24
ATOM     24  C   UNL A   1      39.017  19.689  25.423  1.00  0.00     0.261 C 
BRANCH  24  25
ATOM     25  O   UNL A   1      39.818  20.061  26.558  1.00  0.00    -0.460 OA
BRANCH  25  26
ATOM     26  C   UNL A   1      41.157  20.036  26.351  1.00  0.00     0.338 C 
ATOM     27  O   UNL A   1      41.803  19.159  25.795  1.00  0.00    -0.246 OA
BRANCH  26  28
ATOM     28  C   UNL A   1      41.736  21.338  26.727  1.00  0.00     0.060 A 
ATOM     29  C   UNL A   1      41.769  22.348  25.756  1.00  0.00     0.016 A 
ATOM     30  C   UNL A   1      42.262  21.561  28.000  1.00  0.00     0.016 A 
ATOM     31  C   UNL A   1      42.335  23.587  26.055  1.00  0.00     0.010 A 
ATOM     32  C   UNL A   1      42.842  22.799  28.293  1.00  0.00     0.010 A 
ATOM     33  C   UNL A   1      42.890  23.816  27.321  1.00  0.00    -0.014 A 
BRANCH  33  34
ATOM     34  C   UNL A   1      43.568  25.100  27.624  1.00  0.00     0.031 A 
ATOM     35  C   UNL A   1      42.762  26.264  28.130  1.00  0.00     0.074 A 
ATOM     36  C   UNL A   1      44.894  25.225  27.433  1.00  0.00     0.049 A 
ATOM     37  N   UNL A   1      43.143  27.495  28.356  1.00  0.00    -0.248 NA
ATOM     38  C   UNL A   1      41.342  26.009  28.420  1.00  0.00     0.031 C 
ATOM     39  C   UNL A   1      45.789  24.156  26.989  1.00  0.00     0.029 A 
ATOM     40  N   UNL A   1      45.718  26.314  27.571  1.00  0.00    -0.354 N 
ATOM     41  C   UNL A   1      42.012  28.164  28.809  1.00  0.00     0.074 A 
ATOM     42  C   UNL A   1      40.925  27.209  28.804  1.00  0.00     0.031 C 
ATOM     43  C   UNL A   1      47.034  24.646  26.877  1.00  0.00     0.029 A 
ATOM     44  C   UNL A   1      47.018  26.072  27.193  1.00  0.00     0.049 A 
ATOM     45  H   UNL A   1      45.408  27.186  27.908  1.00  0.00     0.167 HD
ATOM     46  C   UNL A   1      41.894  29.457  29.197  1.00  0.00     0.031 A 
ATOM     47  C   UNL A   1      48.065  26.912  27.078  1.00  0.00     0.031 A 
ATOM     48  C   UNL A   1      42.977  30.406  29.182  1.00  0.00     0.049 A 
ATOM     49  C   UNL A   1      47.879  28.370  27.411  1.00  0.00     0.074 A 
ATOM     50  C   UNL A   1      42.958  31.736  29.567  1.00  0.00     0.029 A 
ATOM     51  N   UNL A   1      44.266  30.134  28.753  1.00  0.00    -0.354 N 
ATOM     52  N   UNL A   1      46.812  28.982  27.866  1.00  0.00    -0.248 NA
ATOM     53  C   UNL A   1      49.038  29.253  27.211  1.00  0.00     0.031 C 
ATOM     54  C   UNL A   1      44.219  32.284  29.309  1.00  0.00     0.029 A 
ATOM     55  C   UNL A   1      45.041  31.280  28.826  1.00  0.00     0.049 A 
ATOM     56  H   UNL A   1      44.585  29.256  28.441  1.00  0.00     0.167 HD
ATOM     57  C   UNL A   1      47.178  30.316  28.025  1.00  0.00     0.074 A 
ATOM     58  C   UNL A   1      48.571  30.416  27.642  1.00  0.00     0.031 C 
ATOM     59  C   UNL A   1      46.428  31.365  28.441  1.00  0.00     0.031 A 
BRANCH  46  60
ATOM     60  C   UNL A   1      40.541  29.937  29.650  1.00  0.00    -0.014 A 
ATOM     61  C   UNL A   1      39.502  30.154  28.728  1.00  0.00     0.010 A 
ATOM     62  C   UNL A   1      40.281  30.092  31.024  1.00  0.00     0.010 A 
ATOM     63  C   UNL A   1      38.233  30.536  29.171  1.00  0.00     0.020 A 
ATOM     64  C   UNL A   1      39.005  30.450  31.473  1.00  0.00     0.020 A 
ATOM     65  C   UNL A   1      37.991  30.677  30.541  1.00  0.00     0.054 A 
BRANCH  65  66
ATOM     66  S   UNL A   1      36.318  31.119  31.087  1.00  0.00     0.124 S 
ATOM     67  O   UNL A   1      36.551  32.385  31.777  1.00  0.00    -0.237 OA
ATOM     68  O   UNL A   1      35.588  31.217  29.826  1.00  0.00    -0.237 OA
ATOM     69  O   UNL A   1      35.926  30.005  31.947  1.00  0.00    -0.744 OA
ENDBRANCH  65  66
ENDBRANCH  46  60
BRANCH  47  70
ATOM     70  C   UNL A   1      49.377  26.415  26.573  1.00  0.00    -0.014 A 
ATOM     71  C   UNL A   1      50.311  25.836  27.448  1.00  0.00     0.010 A 
ATOM     72  C   UNL A   1      49.712  26.553  25.213  1.00  0.00     0.010 A 
ATOM     73  C   UNL A   1      51.566  25.433  26.980  1.00  0.00     0.020 A 
ATOM     74  C   UNL A   1      50.951  26.121  24.734  1.00  0.00     0.020 A 
ATOM     75  C   UNL A   1      51.878  25.580  25.626  1.00  0.00     0.054 A 
BRANCH  75  76
ATOM     76  S   UNL A   1      53.504  25.033  25.037  1.00  0.00     0.124 S 
ATOM     77  O   UNL A   1      53.438  23.592  25.256  1.00  0.00    -0.237 OA
ATOM     78  O   UNL A   1      53.495  25.462  23.641  1.00  0.00    -0.237 OA
ATOM     79  O   UNL A   1      54.440  25.754  25.898  1.00  0.00    -0.744 OA
ENDBRANCH  75  76
ENDBRANCH  47  70
BRANCH  59  80
ATOM     80  C   UNL A   1      47.098  32.712  28.525  1.00  0.00    -0.014 A 
ATOM     81  C   UNL A   1      47.060  33.609  27.442  1.00  0.00     0.010 A 
ATOM     82  C   UNL A   1      47.719  33.111  29.723  1.00  0.00     0.010 A 
ATOM     83  C   UNL A   1      47.652  34.870  27.549  1.00  0.00     0.020 A 
ATOM     84  C   UNL A   1      48.284  34.383  29.843  1.00  0.00     0.020 A 
ATOM     85  C   UNL A   1      48.257  35.251  28.751  1.00  0.00     0.054 A 
BRANCH  85  86
ATOM     86  S   UNL A   1      48.964  36.916  28.879  1.00  0.00     0.124 S 
ATOM     87  O   UNL A   1      47.972  37.606  29.698  1.00  0.00    -0.237 OA
ATOM     88  O   UNL A   1      50.250  36.668  29.527  1.00  0.00    -0.237 OA
ATOM     89  O   UNL A   1      49.049  37.367  27.492  1.00  0.00    -0.744 OA
ENDBRANCH  85  86
ENDBRANCH  59  80
ENDBRANCH  33  34
ENDBRANCH  26  28
ENDBRANCH  25  26
ENDBRANCH  24  25
ENDBRANCH  23  24
ENDBRANCH   1  23
TORSDOF 20
ENDMDL
