MODEL 1
REMARK VINA RESULT:      -5.7      0.000      0.000
REMARK SMILES CCN(CC)C(=O)CN(CC(=O)OCCOCCOC(=O)c1ccc(-c2c3nc(c(-c4ccc(S(=O)(=O)[O-])cc4)c4ccc([nH]4)c(-c4ccc(S(=O)(=O)[O-])cc4)c4nc(c(-c5ccc(S(=O)(=O)[O-])cc5)c5ccc2[nH]5)C=C4)C=C3)cc1)c1ccccc1
REMARK SMILES IDX 15 1 14 2 13 3 11 4 12 5 10 6 9 7 8 8 6 9 3 10 7 11 2 12
REMARK SMILES IDX 1 13 4 14 5 15 82 16 83 17 87 18 84 19 86 20 85 21 16 22
REMARK SMILES IDX 17 23 18 24 19 25 20 26 21 27 22 28 23 29 81 30 24 31 80 32
REMARK SMILES IDX 25 33 26 34 27 35 74 36 28 37 79 38 73 39 75 40 29 41 78 42
REMARK SMILES IDX 72 43 71 44 30 46 60 47 41 48 59 49 42 50 45 51 58 52 76 53
REMARK SMILES IDX 43 54 44 55 57 57 77 58 46 59 31 60 32 61 40 62 33 63 39 64
REMARK SMILES IDX 34 65 35 66 36 67 37 68 38 69 61 70 62 71 70 72 63 73 69 74
REMARK SMILES IDX 64 75 65 76 66 77 67 78 68 79 47 80 48 81 56 82 49 83 55 84
REMARK SMILES IDX 50 85 51 86 52 87 53 88 54 89
REMARK H PARENT 75 45 45 56
REMARK Flexibility Score: inf
ROOT
ATOM      1  C   UNL A   1      42.723  24.867  27.097  1.00  0.00     0.202 C 
ENDROOT
BRANCH   1   2
ATOM      2  C   UNL A   1      42.293  26.257  27.588  1.00  0.00     0.261 C 
BRANCH   2   3
ATOM      3  O   UNL A   1      41.893  27.141  26.528  1.00  0.00    -0.462 OA
BRANCH   3   4
ATOM      4  C   UNL A   1      41.833  28.455  26.868  1.00  0.00     0.325 C 
ATOM      5  O   UNL A   1      41.073  28.925  27.713  1.00  0.00    -0.250 OA
BRANCH   4   6
ATOM      6  C   UNL A   1      42.907  29.321  26.226  1.00  0.00     0.239 C 
BRANCH   6   7
ATOM      7  N   UNL A   1      43.908  29.933  27.104  1.00  0.00    -0.351 N 
BRANCH   7   8
ATOM      8  C   UNL A   1      45.090  29.178  27.549  1.00  0.00     0.217 C 
BRANCH   8   9
ATOM      9  C   UNL A   1      46.016  28.656  26.419  1.00  0.00     0.242 C 
ATOM     10  N   UNL A   1      46.763  27.483  26.581  1.00  0.00    -0.342 N 
ATOM     11  O   UNL A   1      46.128  29.323  25.381  1.00  0.00    -0.273 OA
BRANCH  10  12
ATOM     12  C   UNL A   1      47.595  27.048  25.457  1.00  0.00     0.116 C 
ATOM     13  C   UNL A   1      47.229  25.644  24.995  1.00  0.00     0.027 C 
ENDBRANCH  10  12
BRANCH  10  14
ATOM     14  C   UNL A   1      46.719  26.589  27.732  1.00  0.00     0.116 C 
ATOM     15  C   UNL A   1      47.678  26.995  28.838  1.00  0.00     0.027 C 
ENDBRANCH  10  14
ENDBRANCH   8   9
ENDBRANCH   7   8
BRANCH   7  16
ATOM     16  C   UNL A   1      43.873  31.299  27.321  1.00  0.00     0.038 A 
ATOM     17  C   UNL A   1      43.304  31.823  28.483  1.00  0.00     0.026 A 
ATOM     18  C   UNL A   1      44.420  32.197  26.396  1.00  0.00     0.026 A 
ATOM     19  C   UNL A   1      43.266  33.204  28.710  1.00  0.00     0.002 A 
ATOM     20  C   UNL A   1      44.407  33.575  26.626  1.00  0.00     0.002 A 
ATOM     21  C   UNL A   1      43.821  34.080  27.782  1.00  0.00     0.000 A 
ENDBRANCH   7  16
ENDBRANCH   6   7
ENDBRANCH   4   6
ENDBRANCH   3   4
ENDBRANCH   2   3
ENDBRANCH   1   2
BRANCH   1  22
ATOM     22  O   UNL A   1      44.059  24.463  27.402  1.00  0.00    -0.374 OA
BRANCH  22  23
ATOM     23  C   UNL A   1      44.225  23.349  28.288  1.00  0.00     0.202 C 
BRANCH  23  24
ATOM     24  C   UNL A   1      44.066  23.636  29.783  1.00  0.00     0.261 C 
BRANCH  24  25
ATOM     25  O   UNL A   1      45.018  24.630  30.201  1.00  0.00    -0.460 OA
BRANCH  25  26
ATOM     26  C   UNL A   1      44.801  25.109  31.443  1.00  0.00     0.338 C 
ATOM     27  O   UNL A   1      44.690  24.466  32.471  1.00  0.00    -0.246 OA
BRANCH  26  28
ATOM     28  C   UNL A   1      44.884  26.579  31.399  1.00  0.00     0.060 A 
ATOM     29  C   UNL A   1      45.835  27.209  32.206  1.00  0.00     0.016 A 
ATOM     30  C   UNL A   1      43.968  27.329  30.658  1.00  0.00     0.016 A 
ATOM     31  C   UNL A   1      45.830  28.600  32.324  1.00  0.00     0.010 A 
ATOM     32  C   UNL A   1      43.974  28.725  30.770  1.00  0.00     0.010 A 
ATOM     33  C   UNL A   1      44.874  29.366  31.640  1.00  0.00    -0.014 A 
BRANCH  33  34
ATOM     34  C   UNL A   1      44.732  30.811  31.963  1.00  0.00     0.031 A 
ATOM     35  C   UNL A   1      45.549  31.821  31.195  1.00  0.00     0.074 A 
ATOM     36  C   UNL A   1      43.838  31.235  32.876  1.00  0.00     0.049 A 
ATOM     37  N   UNL A   1      45.522  33.128  31.262  1.00  0.00    -0.248 NA
ATOM     38  C   UNL A   1      46.515  31.290  30.219  1.00  0.00     0.031 C 
ATOM     39  C   UNL A   1      42.966  30.373  33.673  1.00  0.00     0.029 A 
ATOM     40  N   UNL A   1      43.510  32.508  33.278  1.00  0.00    -0.354 N 
ATOM     41  C   UNL A   1      46.455  33.574  30.333  1.00  0.00     0.074 A 
ATOM     42  C   UNL A   1      47.060  32.400  29.744  1.00  0.00     0.031 C 
ATOM     43  C   UNL A   1      42.193  31.142  34.460  1.00  0.00     0.029 A 
ATOM     44  C   UNL A   1      42.528  32.549  34.239  1.00  0.00     0.049 A 
ATOM     45  H   UNL A   1      43.938  33.314  32.911  1.00  0.00     0.167 HD
ATOM     46  C   UNL A   1      46.768  34.845  29.983  1.00  0.00     0.031 A 
ATOM     47  C   UNL A   1      41.963  33.598  34.870  1.00  0.00     0.031 A 
ATOM     48  C   UNL A   1      46.183  36.021  30.568  1.00  0.00     0.049 A 
ATOM     49  C   UNL A   1      42.383  35.001  34.514  1.00  0.00     0.074 A 
ATOM     50  C   UNL A   1      46.441  37.349  30.267  1.00  0.00     0.029 A 
ATOM     51  N   UNL A   1      45.229  36.016  31.570  1.00  0.00    -0.354 N 
ATOM     52  N   UNL A   1      43.241  35.401  33.606  1.00  0.00    -0.248 NA
ATOM     53  C   UNL A   1      41.746  36.096  35.263  1.00  0.00     0.031 C 
ATOM     54  C   UNL A   1      45.672  38.147  31.120  1.00  0.00     0.029 A 
ATOM     55  C   UNL A   1      44.900  37.317  31.915  1.00  0.00     0.049 A 
ATOM     56  H   UNL A   1      44.841  35.208  31.977  1.00  0.00     0.167 HD
ATOM     57  C   UNL A   1      43.224  36.792  33.656  1.00  0.00     0.074 A 
ATOM     58  C   UNL A   1      42.263  37.164  34.672  1.00  0.00     0.031 C 
ATOM     59  C   UNL A   1      43.938  37.680  32.923  1.00  0.00     0.031 A 
BRANCH  46  60
ATOM     60  C   UNL A   1      47.806  35.033  28.910  1.00  0.00    -0.014 A 
ATOM     61  C   UNL A   1      49.170  35.136  29.240  1.00  0.00     0.010 A 
ATOM     62  C   UNL A   1      47.423  35.042  27.557  1.00  0.00     0.010 A 
ATOM     63  C   UNL A   1      50.131  35.269  28.236  1.00  0.00     0.020 A 
ATOM     64  C   UNL A   1      48.385  35.153  26.549  1.00  0.00     0.020 A 
ATOM     65  C   UNL A   1      49.732  35.278  26.895  1.00  0.00     0.054 A 
BRANCH  65  66
ATOM     66  S   UNL A   1      51.004  35.410  25.609  1.00  0.00     0.124 S 
ATOM     67  O   UNL A   1      52.228  35.169  26.371  1.00  0.00    -0.237 OA
ATOM     68  O   UNL A   1      50.629  34.350  24.675  1.00  0.00    -0.237 OA
ATOM     69  O   UNL A   1      50.845  36.769  25.100  1.00  0.00    -0.744 OA
ENDBRANCH  65  66
ENDBRANCH  46  60
BRANCH  47  70
ATOM     70  C   UNL A   1      40.933  33.373  35.921  1.00  0.00    -0.014 A 
ATOM     71  C   UNL A   1      39.567  33.338  35.592  1.00  0.00     0.010 A 
ATOM     72  C   UNL A   1      41.318  33.233  37.266  1.00  0.00     0.010 A 
ATOM     73  C   UNL A   1      38.601  33.199  36.595  1.00  0.00     0.020 A 
ATOM     74  C   UNL A   1      40.358  33.069  38.267  1.00  0.00     0.020 A 
ATOM     75  C   UNL A   1      39.004  33.071  37.927  1.00  0.00     0.054 A 
BRANCH  75  76
ATOM     76  S   UNL A   1      37.741  32.869  39.214  1.00  0.00     0.124 S 
ATOM     77  O   UNL A   1      36.510  32.855  38.430  1.00  0.00    -0.237 OA
ATOM     78  O   UNL A   1      38.114  31.598  39.830  1.00  0.00    -0.237 OA
ATOM     79  O   UNL A   1      37.931  34.043  40.062  1.00  0.00    -0.744 OA
ENDBRANCH  75  76
ENDBRANCH  47  70
BRANCH  59  80
ATOM     80  C   UNL A   1      43.686  39.146  33.159  1.00  0.00    -0.014 A 
ATOM     81  C   UNL A   1      42.991  39.926  32.218  1.00  0.00     0.010 A 
ATOM     82  C   UNL A   1      44.105  39.737  34.364  1.00  0.00     0.010 A 
ATOM     83  C   UNL A   1      42.747  41.280  32.466  1.00  0.00     0.020 A 
ATOM     84  C   UNL A   1      43.841  41.084  34.627  1.00  0.00     0.020 A 
ATOM     85  C   UNL A   1      43.175  41.852  33.668  1.00  0.00     0.054 A 
BRANCH  85  86
ATOM     86  S   UNL A   1      42.810  43.600  33.987  1.00  0.00     0.124 S 
ATOM     87  O   UNL A   1      44.131  44.131  34.314  1.00  0.00    -0.237 OA
ATOM     88  O   UNL A   1      42.248  44.051  32.716  1.00  0.00    -0.237 OA
ATOM     89  O   UNL A   1      41.862  43.558  35.099  1.00  0.00    -0.744 OA
ENDBRANCH  85  86
ENDBRANCH  59  80
ENDBRANCH  33  34
ENDBRANCH  26  28
ENDBRANCH  25  26
ENDBRANCH  24  25
ENDBRANCH  23  24
ENDBRANCH  22  23
ENDBRANCH   1  22
TORSDOF 23
ENDMDL
MODEL 2
REMARK VINA RESULT:      -5.7      4.458     12.061
REMARK SMILES CCN(CC)C(=O)CN(CC(=O)OCCOCCOC(=O)c1ccc(-c2c3nc(c(-c4ccc(S(=O)(=O)[O-])cc4)c4ccc([nH]4)c(-c4ccc(S(=O)(=O)[O-])cc4)c4nc(c(-c5ccc(S(=O)(=O)[O-])cc5)c5ccc2[nH]5)C=C4)C=C3)cc1)c1ccccc1
REMARK SMILES IDX 15 1 14 2 13 3 11 4 12 5 10 6 9 7 8 8 6 9 3 10 7 11 2 12
REMARK SMILES IDX 1 13 4 14 5 15 82 16 83 17 87 18 84 19 86 20 85 21 16 22
REMARK SMILES IDX 17 23 18 24 19 25 20 26 21 27 22 28 23 29 81 30 24 31 80 32
REMARK SMILES IDX 25 33 26 34 27 35 74 36 28 37 79 38 73 39 75 40 29 41 78 42
REMARK SMILES IDX 72 43 71 44 30 46 60 47 41 48 59 49 42 50 45 51 58 52 76 53
REMARK SMILES IDX 43 54 44 55 57 57 77 58 46 59 31 60 32 61 40 62 33 63 39 64
REMARK SMILES IDX 34 65 35 66 36 67 37 68 38 69 61 70 62 71 70 72 63 73 69 74
REMARK SMILES IDX 64 75 65 76 66 77 67 78 68 79 47 80 48 81 56 82 49 83 55 84
REMARK SMILES IDX 50 85 51 86 52 87 53 88 54 89
REMARK H PARENT 75 45 45 56
REMARK Flexibility Score: inf
ROOT
ATOM      1  C   UNL A   1      44.168  37.595  30.745  1.00  0.00     0.202 C 
ENDROOT
BRANCH   1   2
ATOM      2  C   UNL A   1      45.691  37.488  30.572  1.00  0.00     0.261 C 
BRANCH   2   3
ATOM      3  O   UNL A   1      46.175  36.135  30.584  1.00  0.00    -0.462 OA
BRANCH   3   4
ATOM      4  C   UNL A   1      46.822  35.748  29.454  1.00  0.00     0.325 C 
ATOM      5  O   UNL A   1      48.033  35.549  29.374  1.00  0.00    -0.250 OA
BRANCH   4   6
ATOM      6  C   UNL A   1      45.906  35.417  28.286  1.00  0.00     0.239 C 
BRANCH   6   7
ATOM      7  N   UNL A   1      44.902  34.367  28.480  1.00  0.00    -0.351 N 
BRANCH   7   8
ATOM      8  C   UNL A   1      45.299  32.990  28.810  1.00  0.00     0.217 C 
BRANCH   8   9
ATOM      9  C   UNL A   1      45.536  32.051  27.598  1.00  0.00     0.242 C 
ATOM     10  N   UNL A   1      46.123  30.791  27.764  1.00  0.00    -0.342 N 
ATOM     11  O   UNL A   1      45.243  32.453  26.463  1.00  0.00    -0.273 OA
BRANCH  10  12
ATOM     12  C   UNL A   1      46.289  29.958  26.570  1.00  0.00     0.116 C 
ATOM     13  C   UNL A   1      45.244  28.853  26.503  1.00  0.00     0.027 C 
ENDBRANCH  10  12
BRANCH  10  14
ATOM     14  C   UNL A   1      46.499  30.178  29.032  1.00  0.00     0.116 C 
ATOM     15  C   UNL A   1      47.963  30.382  29.380  1.00  0.00     0.027 C 
ENDBRANCH  10  14
ENDBRANCH   8   9
ENDBRANCH   7   8
BRANCH   7  16
ATOM     16  C   UNL A   1      43.569  34.718  28.594  1.00  0.00     0.038 A 
ATOM     17  C   UNL A   1      42.960  35.535  27.640  1.00  0.00     0.026 A 
ATOM     18  C   UNL A   1      42.783  34.256  29.658  1.00  0.00     0.026 A 
ATOM     19  C   UNL A   1      41.612  35.894  27.749  1.00  0.00     0.002 A 
ATOM     20  C   UNL A   1      41.430  34.590  29.761  1.00  0.00     0.002 A 
ATOM     21  C   UNL A   1      40.846  35.418  28.809  1.00  0.00     0.000 A 
ENDBRANCH   7  16
ENDBRANCH   6   7
ENDBRANCH   4   6
ENDBRANCH   3   4
ENDBRANCH   2   3
ENDBRANCH   1   2
BRANCH   1  22
ATOM     22  O   UNL A   1      43.670  37.555  32.083  1.00  0.00    -0.374 OA
BRANCH  22  23
ATOM     23  C   UNL A   1      43.765  38.756  32.859  1.00  0.00     0.202 C 
BRANCH  23  24
ATOM     24  C   UNL A   1      43.695  38.593  34.379  1.00  0.00     0.261 C 
BRANCH  24  25
ATOM     25  O   UNL A   1      44.846  37.876  34.854  1.00  0.00    -0.460 OA
BRANCH  25  26
ATOM     26  C   UNL A   1      44.579  37.010  35.855  1.00  0.00     0.338 C 
ATOM     27  O   UNL A   1      44.179  37.279  36.973  1.00  0.00    -0.246 OA
BRANCH  26  28
ATOM     28  C   UNL A   1      44.689  35.638  35.329  1.00  0.00     0.060 A 
ATOM     29  C   UNL A   1      45.205  35.467  34.041  1.00  0.00     0.016 A 
ATOM     30  C   UNL A   1      44.190  34.550  36.048  1.00  0.00     0.016 A 
ATOM     31  C   UNL A   1      45.165  34.207  33.441  1.00  0.00     0.010 A 
ATOM     32  C   UNL A   1      44.163  33.286  35.447  1.00  0.00     0.010 A 
ATOM     33  C   UNL A   1      44.606  33.115  34.123  1.00  0.00    -0.014 A 
BRANCH  33  34
ATOM     34  C   UNL A   1      44.354  31.849  33.386  1.00  0.00     0.031 A 
ATOM     35  C   UNL A   1      43.009  31.632  32.735  1.00  0.00     0.074 A 
ATOM     36  C   UNL A   1      45.324  30.929  33.230  1.00  0.00     0.049 A 
ATOM     37  N   UNL A   1      42.606  30.639  31.982  1.00  0.00    -0.248 NA
ATOM     38  C   UNL A   1      41.990  32.672  32.954  1.00  0.00     0.031 C 
ATOM     39  C   UNL A   1      46.675  31.019  33.781  1.00  0.00     0.029 A 
ATOM     40  N   UNL A   1      45.319  29.736  32.547  1.00  0.00    -0.354 N 
ATOM     41  C   UNL A   1      41.296  30.940  31.629  1.00  0.00     0.074 A 
ATOM     42  C   UNL A   1      40.956  32.185  32.282  1.00  0.00     0.031 C 
ATOM     43  C   UNL A   1      47.374  29.934  33.405  1.00  0.00     0.029 A 
ATOM     44  C   UNL A   1      46.516  29.062  32.603  1.00  0.00     0.049 A 
ATOM     45  H   UNL A   1      44.533  29.398  32.062  1.00  0.00     0.167 HD
ATOM     46  C   UNL A   1      40.453  30.255  30.819  1.00  0.00     0.031 A 
ATOM     47  C   UNL A   1      46.880  27.878  32.071  1.00  0.00     0.031 A 
ATOM     48  C   UNL A   1      40.773  29.011  30.172  1.00  0.00     0.049 A 
ATOM     49  C   UNL A   1      45.898  27.099  31.233  1.00  0.00     0.074 A 
ATOM     50  C   UNL A   1      39.977  28.252  29.329  1.00  0.00     0.029 A 
ATOM     51  N   UNL A   1      41.978  28.341  30.296  1.00  0.00    -0.354 N 
ATOM     52  N   UNL A   1      44.676  27.419  30.883  1.00  0.00    -0.248 NA
ATOM     53  C   UNL A   1      46.354  25.802  30.709  1.00  0.00     0.031 C 
ATOM     54  C   UNL A   1      40.689  27.100  28.977  1.00  0.00     0.029 A 
ATOM     55  C   UNL A   1      41.942  27.168  29.561  1.00  0.00     0.049 A 
ATOM     56  H   UNL A   1      42.746  28.653  30.826  1.00  0.00     0.167 HD
ATOM     57  C   UNL A   1      44.229  26.378  30.074  1.00  0.00     0.074 A 
ATOM     58  C   UNL A   1      45.315  25.425  29.977  1.00  0.00     0.031 C 
ATOM     59  C   UNL A   1      43.029  26.227  29.464  1.00  0.00     0.031 A 
BRANCH  46  60
ATOM     60  C   UNL A   1      39.087  30.840  30.586  1.00  0.00    -0.014 A 
ATOM     61  C   UNL A   1      37.965  30.337  31.270  1.00  0.00     0.010 A 
ATOM     62  C   UNL A   1      38.932  31.941  29.726  1.00  0.00     0.010 A 
ATOM     63  C   UNL A   1      36.706  30.913  31.080  1.00  0.00     0.020 A 
ATOM     64  C   UNL A   1      37.677  32.532  29.549  1.00  0.00     0.020 A 
ATOM     65  C   UNL A   1      36.570  32.006  30.218  1.00  0.00     0.054 A 
BRANCH  65  66
ATOM     66  S   UNL A   1      34.932  32.760  30.021  1.00  0.00     0.124 S 
ATOM     67  O   UNL A   1      35.273  34.099  29.545  1.00  0.00    -0.237 OA
ATOM     68  O   UNL A   1      34.293  31.889  29.038  1.00  0.00    -0.237 OA
ATOM     69  O   UNL A   1      34.360  32.703  31.363  1.00  0.00    -0.744 OA
ENDBRANCH  65  66
ENDBRANCH  46  60
BRANCH  47  70
ATOM     70  C   UNL A   1      48.244  27.335  32.317  1.00  0.00    -0.014 A 
ATOM     71  C   UNL A   1      48.508  26.534  33.442  1.00  0.00     0.010 A 
ATOM     72  C   UNL A   1      49.298  27.654  31.441  1.00  0.00     0.010 A 
ATOM     73  C   UNL A   1      49.807  26.088  33.704  1.00  0.00     0.020 A 
ATOM     74  C   UNL A   1      50.592  27.188  31.686  1.00  0.00     0.020 A 
ATOM     75  C   UNL A   1      50.841  26.423  32.826  1.00  0.00     0.054 A 
BRANCH  75  76
ATOM     76  S   UNL A   1      52.518  25.818  33.168  1.00  0.00     0.124 S 
ATOM     77  O   UNL A   1      52.851  25.130  31.924  1.00  0.00    -0.237 OA
ATOM     78  O   UNL A   1      53.256  27.052  33.426  1.00  0.00    -0.237 OA
ATOM     79  O   UNL A   1      52.336  24.955  34.333  1.00  0.00    -0.744 OA
ENDBRANCH  75  76
ENDBRANCH  47  70
BRANCH  59  80
ATOM     80  C   UNL A   1      42.829  25.008  28.604  1.00  0.00    -0.014 A 
ATOM     81  C   UNL A   1      43.088  25.041  27.222  1.00  0.00     0.010 A 
ATOM     82  C   UNL A   1      42.427  23.797  29.197  1.00  0.00     0.010 A 
ATOM     83  C   UNL A   1      42.919  23.892  26.444  1.00  0.00     0.020 A 
ATOM     84  C   UNL A   1      42.280  22.640  28.427  1.00  0.00     0.020 A 
ATOM     85  C   UNL A   1      42.514  22.698  27.051  1.00  0.00     0.054 A 
BRANCH  85  86
ATOM     86  S   UNL A   1      42.341  21.209  26.030  1.00  0.00     0.124 S 
ATOM     87  O   UNL A   1      40.960  21.317  25.566  1.00  0.00    -0.237 OA
ATOM     88  O   UNL A   1      43.365  21.399  25.004  1.00  0.00    -0.237 OA
ATOM     89  O   UNL A   1      42.602  20.116  26.964  1.00  0.00    -0.744 OA
ENDBRANCH  85  86
ENDBRANCH  59  80
ENDBRANCH  33  34
ENDBRANCH  26  28
ENDBRANCH  25  26
ENDBRANCH  24  25
ENDBRANCH  23  24
ENDBRANCH  22  23
ENDBRANCH   1  22
TORSDOF 23
ENDMDL
MODEL 3
REMARK VINA RESULT:      -5.6      5.348      8.276
REMARK SMILES CCN(CC)C(=O)CN(CC(=O)OCCOCCOC(=O)c1ccc(-c2c3nc(c(-c4ccc(S(=O)(=O)[O-])cc4)c4ccc([nH]4)c(-c4ccc(S(=O)(=O)[O-])cc4)c4nc(c(-c5ccc(S(=O)(=O)[O-])cc5)c5ccc2[nH]5)C=C4)C=C3)cc1)c1ccccc1
REMARK SMILES IDX 15 1 14 2 13 3 11 4 12 5 10 6 9 7 8 8 6 9 3 10 7 11 2 12
REMARK SMILES IDX 1 13 4 14 5 15 82 16 83 17 87 18 84 19 86 20 85 21 16 22
REMARK SMILES IDX 17 23 18 24 19 25 20 26 21 27 22 28 23 29 81 30 24 31 80 32
REMARK SMILES IDX 25 33 26 34 27 35 74 36 28 37 79 38 73 39 75 40 29 41 78 42
REMARK SMILES IDX 72 43 71 44 30 46 60 47 41 48 59 49 42 50 45 51 58 52 76 53
REMARK SMILES IDX 43 54 44 55 57 57 77 58 46 59 31 60 32 61 40 62 33 63 39 64
REMARK SMILES IDX 34 65 35 66 36 67 37 68 38 69 61 70 62 71 70 72 63 73 69 74
REMARK SMILES IDX 64 75 65 76 66 77 67 78 68 79 47 80 48 81 56 82 49 83 55 84
REMARK SMILES IDX 50 85 51 86 52 87 53 88 54 89
REMARK H PARENT 75 45 45 56
REMARK Flexibility Score: inf
ROOT
ATOM      1  C   UNL A   1      48.192  27.353  28.777  1.00  0.00     0.202 C 
ENDROOT
BRANCH   1   2
ATOM      2  C   UNL A   1      48.022  25.949  28.176  1.00  0.00     0.261 C 
BRANCH   2   3
ATOM      3  O   UNL A   1      46.900  25.229  28.711  1.00  0.00    -0.462 OA
BRANCH   3   4
ATOM      4  C   UNL A   1      46.133  24.593  27.788  1.00  0.00     0.325 C 
ATOM      5  O   UNL A   1      46.491  23.613  27.135  1.00  0.00    -0.250 OA
BRANCH   4   6
ATOM      6  C   UNL A   1      44.697  25.089  27.711  1.00  0.00     0.239 C 
BRANCH   6   7
ATOM      7  N   UNL A   1      43.694  24.411  28.537  1.00  0.00    -0.351 N 
BRANCH   7   8
ATOM      8  C   UNL A   1      43.991  24.021  29.924  1.00  0.00     0.217 C 
BRANCH   8   9
ATOM      9  C   UNL A   1      44.206  25.192  30.919  1.00  0.00     0.242 C 
ATOM     10  N   UNL A   1      44.545  24.952  32.255  1.00  0.00    -0.342 N 
ATOM     11  O   UNL A   1      44.022  26.353  30.526  1.00  0.00    -0.273 OA
BRANCH  10  12
ATOM     12  C   UNL A   1      44.752  26.114  33.122  1.00  0.00     0.116 C 
ATOM     13  C   UNL A   1      43.923  26.021  34.397  1.00  0.00     0.027 C 
ENDBRANCH  10  12
BRANCH  10  14
ATOM     14  C   UNL A   1      44.813  23.649  32.853  1.00  0.00     0.116 C 
ATOM     15  C   UNL A   1      43.571  22.993  33.432  1.00  0.00     0.027 C 
ENDBRANCH  10  14
ENDBRANCH   8   9
ENDBRANCH   7   8
BRANCH   7  16
ATOM     16  C   UNL A   1      42.383  24.354  28.098  1.00  0.00     0.038 A 
ATOM     17  C   UNL A   1      41.988  23.407  27.151  1.00  0.00     0.026 A 
ATOM     18  C   UNL A   1      41.409  25.228  28.598  1.00  0.00     0.026 A 
ATOM     19  C   UNL A   1      40.664  23.343  26.703  1.00  0.00     0.002 A 
ATOM     20  C   UNL A   1      40.080  25.154  28.174  1.00  0.00     0.002 A 
ATOM     21  C   UNL A   1      39.709  24.215  27.217  1.00  0.00     0.000 A 
ENDBRANCH   7  16
ENDBRANCH   6   7
ENDBRANCH   4   6
ENDBRANCH   3   4
ENDBRANCH   2   3
ENDBRANCH   1   2
BRANCH   1  22
ATOM     22  O   UNL A   1      47.203  28.323  28.430  1.00  0.00    -0.374 OA
BRANCH  22  23
ATOM     23  C   UNL A   1      47.411  29.076  27.229  1.00  0.00     0.202 C 
BRANCH  23  24
ATOM     24  C   UNL A   1      46.426  28.821  26.085  1.00  0.00     0.261 C 
BRANCH  24  25
ATOM     25  O   UNL A   1      45.243  29.619  26.262  1.00  0.00    -0.460 OA
BRANCH  25  26
ATOM     26  C   UNL A   1      44.106  28.899  26.364  1.00  0.00     0.338 C 
ATOM     27  O   UNL A   1      43.811  27.896  25.741  1.00  0.00    -0.246 OA
BRANCH  26  28
ATOM     28  C   UNL A   1      43.319  29.427  27.492  1.00  0.00     0.060 A 
ATOM     29  C   UNL A   1      43.619  30.709  27.961  1.00  0.00     0.016 A 
ATOM     30  C   UNL A   1      42.377  28.631  28.146  1.00  0.00     0.016 A 
ATOM     31  C   UNL A   1      43.019  31.176  29.132  1.00  0.00     0.010 A 
ATOM     32  C   UNL A   1      41.767  29.108  29.314  1.00  0.00     0.010 A 
ATOM     33  C   UNL A   1      42.120  30.363  29.840  1.00  0.00    -0.014 A 
BRANCH  33  34
ATOM     34  C   UNL A   1      41.680  30.777  31.199  1.00  0.00     0.031 A 
ATOM     35  C   UNL A   1      42.581  30.505  32.378  1.00  0.00     0.074 A 
ATOM     36  C   UNL A   1      40.529  31.451  31.383  1.00  0.00     0.049 A 
ATOM     37  N   UNL A   1      42.428  30.850  33.632  1.00  0.00    -0.248 NA
ATOM     38  C   UNL A   1      43.819  29.755  32.110  1.00  0.00     0.031 C 
ATOM     39  C   UNL A   1      39.576  31.804  30.332  1.00  0.00     0.029 A 
ATOM     40  N   UNL A   1      39.974  31.969  32.528  1.00  0.00    -0.354 N 
ATOM     41  C   UNL A   1      43.551  30.371  34.297  1.00  0.00     0.074 A 
ATOM     42  C   UNL A   1      44.358  29.676  33.318  1.00  0.00     0.031 C 
ATOM     43  C   UNL A   1      38.557  32.492  30.879  1.00  0.00     0.029 A 
ATOM     44  C   UNL A   1      38.776  32.612  32.321  1.00  0.00     0.049 A 
ATOM     45  H   UNL A   1      40.394  31.889  33.414  1.00  0.00     0.167 HD
ATOM     46  C   UNL A   1      43.894  30.511  35.600  1.00  0.00     0.031 A 
ATOM     47  C   UNL A   1      37.948  33.224  33.190  1.00  0.00     0.031 A 
ATOM     48  C   UNL A   1      43.098  31.189  36.586  1.00  0.00     0.049 A 
ATOM     49  C   UNL A   1      38.319  33.303  34.650  1.00  0.00     0.074 A 
ATOM     50  C   UNL A   1      43.375  31.382  37.930  1.00  0.00     0.029 A 
ATOM     51  N   UNL A   1      41.871  31.782  36.342  1.00  0.00    -0.354 N 
ATOM     52  N   UNL A   1      39.403  32.874  35.250  1.00  0.00    -0.248 NA
ATOM     53  C   UNL A   1      37.355  33.961  35.546  1.00  0.00     0.031 C 
ATOM     54  C   UNL A   1      42.293  32.055  38.507  1.00  0.00     0.029 A 
ATOM     55  C   UNL A   1      41.368  32.324  37.513  1.00  0.00     0.049 A 
ATOM     56  H   UNL A   1      41.423  31.815  35.466  1.00  0.00     0.167 HD
ATOM     57  C   UNL A   1      39.264  33.237  36.586  1.00  0.00     0.074 A 
ATOM     58  C   UNL A   1      37.999  33.930  36.704  1.00  0.00     0.031 C 
ATOM     59  C   UNL A   1      40.111  33.018  37.622  1.00  0.00     0.031 A 
BRANCH  46  60
ATOM     60  C   UNL A   1      45.200  29.910  36.041  1.00  0.00    -0.014 A 
ATOM     61  C   UNL A   1      45.251  28.600  36.552  1.00  0.00     0.010 A 
ATOM     62  C   UNL A   1      46.396  30.633  35.885  1.00  0.00     0.010 A 
ATOM     63  C   UNL A   1      46.473  28.033  36.921  1.00  0.00     0.020 A 
ATOM     64  C   UNL A   1      47.622  30.061  36.234  1.00  0.00     0.020 A 
ATOM     65  C   UNL A   1      47.652  28.769  36.761  1.00  0.00     0.054 A 
BRANCH  65  66
ATOM     66  S   UNL A   1      49.230  27.993  37.209  1.00  0.00     0.124 S 
ATOM     67  O   UNL A   1      49.668  28.827  38.327  1.00  0.00    -0.237 OA
ATOM     68  O   UNL A   1      48.831  26.632  37.562  1.00  0.00    -0.237 OA
ATOM     69  O   UNL A   1      50.031  28.109  35.994  1.00  0.00    -0.744 OA
ENDBRANCH  65  66
ENDBRANCH  46  60
BRANCH  47  70
ATOM     70  C   UNL A   1      36.668  33.816  32.715  1.00  0.00    -0.014 A 
ATOM     71  C   UNL A   1      36.334  35.148  33.019  1.00  0.00     0.010 A 
ATOM     72  C   UNL A   1      35.755  33.031  31.987  1.00  0.00     0.010 A 
ATOM     73  C   UNL A   1      35.098  35.674  32.631  1.00  0.00     0.020 A 
ATOM     74  C   UNL A   1      34.530  33.561  31.576  1.00  0.00     0.020 A 
ATOM     75  C   UNL A   1      34.202  34.874  31.916  1.00  0.00     0.054 A 
BRANCH  75  76
ATOM     76  S   UNL A   1      32.611  35.578  31.401  1.00  0.00     0.124 S 
ATOM     77  O   UNL A   1      32.445  35.008  30.068  1.00  0.00    -0.237 OA
ATOM     78  O   UNL A   1      31.694  35.077  32.422  1.00  0.00    -0.237 OA
ATOM     79  O   UNL A   1      32.848  37.019  31.443  1.00  0.00    -0.744 OA
ENDBRANCH  75  76
ENDBRANCH  47  70
BRANCH  59  80
ATOM     80  C   UNL A   1      39.722  33.564  38.970  1.00  0.00    -0.014 A 
ATOM     81  C   UNL A   1      39.257  32.717  39.992  1.00  0.00     0.010 A 
ATOM     82  C   UNL A   1      39.877  34.936  39.235  1.00  0.00     0.010 A 
ATOM     83  C   UNL A   1      38.923  33.239  41.245  1.00  0.00     0.020 A 
ATOM     84  C   UNL A   1      39.567  35.459  40.494  1.00  0.00     0.020 A 
ATOM     85  C   UNL A   1      39.079  34.608  41.488  1.00  0.00     0.054 A 
BRANCH  85  86
ATOM     86  S   UNL A   1      38.679  35.257  43.134  1.00  0.00     0.124 S 
ATOM     87  O   UNL A   1      39.264  36.595  43.083  1.00  0.00    -0.237 OA
ATOM     88  O   UNL A   1      37.218  35.210  43.155  1.00  0.00    -0.237 OA
ATOM     89  O   UNL A   1      39.338  34.322  44.044  1.00  0.00    -0.744 OA
ENDBRANCH  85  86
ENDBRANCH  59  80
ENDBRANCH  33  34
ENDBRANCH  26  28
ENDBRANCH  25  26
ENDBRANCH  24  25
ENDBRANCH  23  24
ENDBRANCH  22  23
ENDBRANCH   1  22
TORSDOF 23
ENDMDL
