MODEL 1
REMARK VINA RESULT:      -9.6      0.000      0.000
REMARK SMILES CC[C@@H](C)S(=O)(=O)c1cc(C(=O)OCCOCCOC(=O)c2ccc(-c3c4nc(c(-c5ccc(S(=O)(=O)[O-])cc5)c5ccc([nH]5)c(-c5ccc(S(=O)(=O)[O-])cc5)c5nc(c(-c6ccc(S(=O)(=O)[O-])cc6)c6ccc3[nH]6)C=C5)C=C4)cc2)c(C)cc1C
REMARK SMILES IDX 16 1 15 2 14 3 13 4 11 5 12 6 10 7 8 8 9 9 85 10 84 11 86 12
REMARK SMILES IDX 82 13 83 14 5 15 6 16 7 17 3 18 4 19 2 20 1 21 17 22 18 23
REMARK SMILES IDX 19 24 20 25 21 26 22 27 23 28 81 29 24 30 80 31 25 32 26 33
REMARK SMILES IDX 27 34 74 35 28 36 79 37 73 38 75 39 29 40 78 41 72 42 71 43
REMARK SMILES IDX 30 45 60 46 41 47 59 48 42 49 45 50 58 51 76 52 43 53 44 54
REMARK SMILES IDX 57 56 77 57 46 58 31 59 32 60 40 61 33 62 39 63 34 64 35 65
REMARK SMILES IDX 36 66 37 67 38 68 61 69 62 70 70 71 63 72 69 73 64 74 65 75
REMARK SMILES IDX 66 76 67 77 68 78 47 79 48 80 56 81 49 82 55 83 50 84 51 85
REMARK SMILES IDX 52 86 53 87 54 88
REMARK H PARENT 75 44 45 55
REMARK Flexibility Score: inf
ROOT
ATOM      1  O   UNL A   1      35.440  21.980  25.517  1.00  0.00    -0.374 OA
ENDROOT
BRANCH   1   2
ATOM      2  C   UNL A   1      34.760  21.560  26.704  1.00  0.00     0.202 C 
BRANCH   2   3
ATOM      3  C   UNL A   1      33.796  22.582  27.306  1.00  0.00     0.261 C 
BRANCH   3   4
ATOM      4  O   UNL A   1      32.439  22.162  27.081  1.00  0.00    -0.460 OA
BRANCH   4   5
ATOM      5  C   UNL A   1      31.600  23.130  26.659  1.00  0.00     0.338 C 
ATOM      6  O   UNL A   1      30.668  23.615  27.283  1.00  0.00    -0.246 OA
BRANCH   5   7
ATOM      7  C   UNL A   1      32.094  23.751  25.403  1.00  0.00     0.064 A 
ATOM      8  C   UNL A   1      32.630  25.913  24.392  1.00  0.00     0.071 A 
ATOM      9  C   UNL A   1      32.308  25.138  25.503  1.00  0.00     0.036 A 
ATOM     10  C   UNL A   1      32.768  25.286  23.139  1.00  0.00    -0.032 A 
ATOM     11  C   UNL A   1      32.613  23.886  23.061  1.00  0.00     0.009 A 
ATOM     12  C   UNL A   1      32.989  26.038  21.853  1.00  0.00     0.046 C 
ATOM     13  C   UNL A   1      32.307  23.095  24.186  1.00  0.00    -0.036 A 
ATOM     14  C   UNL A   1      32.146  21.613  23.995  1.00  0.00     0.045 C 
BRANCH   8  15
ATOM     15  S   UNL A   1      32.853  27.681  24.549  1.00  0.00     0.181 S 
ATOM     16  O   UNL A   1      31.606  28.286  24.112  1.00  0.00    -0.223 OA
ATOM     17  O   UNL A   1      34.086  27.975  23.838  1.00  0.00    -0.223 OA
BRANCH  15  18
ATOM     18  C   UNL A   1      33.079  28.186  26.258  1.00  0.00     0.110 C 
ATOM     19  C   UNL A   1      31.765  28.356  27.024  1.00  0.00     0.025 C 
BRANCH  18  20
ATOM     20  C   UNL A   1      34.093  29.332  26.409  1.00  0.00     0.016 C 
ATOM     21  C   UNL A   1      34.476  29.636  27.850  1.00  0.00     0.005 C 
ENDBRANCH  18  20
ENDBRANCH  15  18
ENDBRANCH   8  15
ENDBRANCH   5   7
ENDBRANCH   4   5
ENDBRANCH   3   4
ENDBRANCH   2   3
ENDBRANCH   1   2
BRANCH   1  22
ATOM     22  C   UNL A   1      36.349  21.056  24.920  1.00  0.00     0.202 C 
BRANCH  22  23
ATOM     23  C   UNL A   1      37.843  21.334  25.119  1.00  0.00     0.261 C 
BRANCH  23  24
ATOM     24  O   UNL A   1      38.086  22.593  25.769  1.00  0.00    -0.460 OA
BRANCH  24  25
ATOM     25  C   UNL A   1      39.346  22.754  26.240  1.00  0.00     0.338 C 
ATOM     26  O   UNL A   1      40.295  21.999  26.077  1.00  0.00    -0.246 OA
BRANCH  25  27
ATOM     27  C   UNL A   1      39.492  24.089  26.849  1.00  0.00     0.060 A 
ATOM     28  C   UNL A   1      40.239  25.043  26.144  1.00  0.00     0.016 A 
ATOM     29  C   UNL A   1      38.970  24.387  28.109  1.00  0.00     0.016 A 
ATOM     30  C   UNL A   1      40.509  26.283  26.719  1.00  0.00     0.010 A 
ATOM     31  C   UNL A   1      39.249  25.631  28.688  1.00  0.00     0.010 A 
ATOM     32  C   UNL A   1      40.048  26.570  28.010  1.00  0.00    -0.014 A 
BRANCH  32  33
ATOM     33  C   UNL A   1      40.518  27.796  28.699  1.00  0.00     0.031 A 
ATOM     34  C   UNL A   1      41.932  27.852  29.210  1.00  0.00     0.074 A 
ATOM     35  C   UNL A   1      39.705  28.858  28.843  1.00  0.00     0.049 A 
ATOM     36  N   UNL A   1      42.543  28.816  29.848  1.00  0.00    -0.248 NA
ATOM     37  C   UNL A   1      42.765  26.663  28.972  1.00  0.00     0.031 C 
ATOM     38  C   UNL A   1      38.330  28.944  28.352  1.00  0.00     0.029 A 
ATOM     39  N   UNL A   1      39.923  30.070  29.447  1.00  0.00    -0.354 N 
ATOM     40  C   UNL A   1      43.829  28.348  30.096  1.00  0.00     0.074 A 
ATOM     41  C   UNL A   1      43.900  27.004  29.564  1.00  0.00     0.031 C 
ATOM     42  C   UNL A   1      37.826  30.146  28.678  1.00  0.00     0.029 A 
ATOM     43  C   UNL A   1      38.829  30.902  29.426  1.00  0.00     0.049 A 
ATOM     44  H   UNL A   1      40.783  30.321  29.858  1.00  0.00     0.167 HD
ATOM     45  C   UNL A   1      44.858  28.981  30.708  1.00  0.00     0.031 A 
ATOM     46  C   UNL A   1      38.652  32.125  29.963  1.00  0.00     0.031 A 
ATOM     47  C   UNL A   1      44.782  30.312  31.249  1.00  0.00     0.049 A 
ATOM     48  C   UNL A   1      39.787  32.780  30.702  1.00  0.00     0.074 A 
ATOM     49  C   UNL A   1      45.778  31.047  31.869  1.00  0.00     0.029 A 
ATOM     50  N   UNL A   1      43.643  31.103  31.246  1.00  0.00    -0.354 N 
ATOM     51  N   UNL A   1      41.005  32.336  30.904  1.00  0.00    -0.248 NA
ATOM     52  C   UNL A   1      39.526  34.107  31.280  1.00  0.00     0.031 C 
ATOM     53  C   UNL A   1      45.224  32.261  32.290  1.00  0.00     0.029 A 
ATOM     54  C   UNL A   1      43.901  32.306  31.881  1.00  0.00     0.049 A 
ATOM     55  H   UNL A   1      42.779  30.847  30.851  1.00  0.00     0.167 HD
ATOM     56  C   UNL A   1      41.663  33.339  31.608  1.00  0.00     0.074 A 
ATOM     57  C   UNL A   1      40.711  34.416  31.788  1.00  0.00     0.031 C 
ATOM     58  C   UNL A   1      42.942  33.368  32.059  1.00  0.00     0.031 A 
BRANCH  45  59
ATOM     59  C   UNL A   1      46.147  28.215  30.861  1.00  0.00    -0.014 A 
ATOM     60  C   UNL A   1      46.401  27.430  32.000  1.00  0.00     0.010 A 
ATOM     61  C   UNL A   1      47.111  28.270  29.839  1.00  0.00     0.010 A 
ATOM     62  C   UNL A   1      47.615  26.751  32.133  1.00  0.00     0.020 A 
ATOM     63  C   UNL A   1      48.315  27.571  29.956  1.00  0.00     0.020 A 
ATOM     64  C   UNL A   1      48.568  26.833  31.113  1.00  0.00     0.054 A 
BRANCH  64  65
ATOM     65  S   UNL A   1      50.136  25.941  31.310  1.00  0.00     0.124 S 
ATOM     66  O   UNL A   1      50.475  25.621  29.926  1.00  0.00    -0.237 OA
ATOM     67  O   UNL A   1      50.993  26.934  31.953  1.00  0.00    -0.237 OA
ATOM     68  O   UNL A   1      49.781  24.796  32.145  1.00  0.00    -0.744 OA
ENDBRANCH  64  65
ENDBRANCH  45  59
BRANCH  46  69
ATOM     69  C   UNL A   1      37.336  32.807  29.826  1.00  0.00    -0.014 A 
ATOM     70  C   UNL A   1      36.348  32.663  30.816  1.00  0.00     0.010 A 
ATOM     71  C   UNL A   1      37.073  33.620  28.709  1.00  0.00     0.010 A 
ATOM     72  C   UNL A   1      35.120  33.316  30.688  1.00  0.00     0.020 A 
ATOM     73  C   UNL A   1      35.855  34.295  28.590  1.00  0.00     0.020 A 
ATOM     74  C   UNL A   1      34.882  34.132  29.579  1.00  0.00     0.054 A 
BRANCH  74  75
ATOM     75  S   UNL A   1      33.307  35.027  29.469  1.00  0.00     0.124 S 
ATOM     76  O   UNL A   1      32.823  34.960  30.844  1.00  0.00    -0.237 OA
ATOM     77  O   UNL A   1      33.728  36.348  29.009  1.00  0.00    -0.237 OA
ATOM     78  O   UNL A   1      32.542  34.252  28.495  1.00  0.00    -0.744 OA
ENDBRANCH  74  75
ENDBRANCH  46  69
BRANCH  58  79
ATOM     79  C   UNL A   1      43.401  34.615  32.768  1.00  0.00    -0.014 A 
ATOM     80  C   UNL A   1      43.811  35.753  32.052  1.00  0.00     0.010 A 
ATOM     81  C   UNL A   1      43.366  34.666  34.174  1.00  0.00     0.010 A 
ATOM     82  C   UNL A   1      44.207  36.910  32.730  1.00  0.00     0.020 A 
ATOM     83  C   UNL A   1      43.736  35.829  34.855  1.00  0.00     0.020 A 
ATOM     84  C   UNL A   1      44.167  36.939  34.128  1.00  0.00     0.054 A 
BRANCH  84  85
ATOM     85  S   UNL A   1      44.645  38.467  34.985  1.00  0.00     0.124 S 
ATOM     86  O   UNL A   1      44.336  39.485  33.985  1.00  0.00    -0.237 OA
ATOM     87  O   UNL A   1      43.780  38.458  36.162  1.00  0.00    -0.237 OA
ATOM     88  O   UNL A   1      46.067  38.278  35.263  1.00  0.00    -0.744 OA
ENDBRANCH  84  85
ENDBRANCH  58  79
ENDBRANCH  32  33
ENDBRANCH  25  27
ENDBRANCH  24  25
ENDBRANCH  23  24
ENDBRANCH  22  23
ENDBRANCH   1  22
TORSDOF 20
ENDMDL
MODEL 2
REMARK VINA RESULT:      -9.5      2.628      8.323
REMARK SMILES CC[C@@H](C)S(=O)(=O)c1cc(C(=O)OCCOCCOC(=O)c2ccc(-c3c4nc(c(-c5ccc(S(=O)(=O)[O-])cc5)c5ccc([nH]5)c(-c5ccc(S(=O)(=O)[O-])cc5)c5nc(c(-c6ccc(S(=O)(=O)[O-])cc6)c6ccc3[nH]6)C=C5)C=C4)cc2)c(C)cc1C
REMARK SMILES IDX 16 1 15 2 14 3 13 4 11 5 12 6 10 7 8 8 9 9 85 10 84 11 86 12
REMARK SMILES IDX 82 13 83 14 5 15 6 16 7 17 3 18 4 19 2 20 1 21 17 22 18 23
REMARK SMILES IDX 19 24 20 25 21 26 22 27 23 28 81 29 24 30 80 31 25 32 26 33
REMARK SMILES IDX 27 34 74 35 28 36 79 37 73 38 75 39 29 40 78 41 72 42 71 43
REMARK SMILES IDX 30 45 60 46 41 47 59 48 42 49 45 50 58 51 76 52 43 53 44 54
REMARK SMILES IDX 57 56 77 57 46 58 31 59 32 60 40 61 33 62 39 63 34 64 35 65
REMARK SMILES IDX 36 66 37 67 38 68 61 69 62 70 70 71 63 72 69 73 64 74 65 75
REMARK SMILES IDX 66 76 67 77 68 78 47 79 48 80 56 81 49 82 55 83 50 84 51 85
REMARK SMILES IDX 52 86 53 87 54 88
REMARK H PARENT 75 44 45 55
REMARK Flexibility Score: inf
ROOT
ATOM      1  O   UNL A   1      31.620  30.092  25.065  1.00  0.00    -0.374 OA
ENDROOT
BRANCH   1   2
ATOM      2  C   UNL A   1      31.543  28.813  24.428  1.00  0.00     0.202 C 
BRANCH   2   3
ATOM      3  C   UNL A   1      32.325  28.682  23.121  1.00  0.00     0.261 C 
BRANCH   3   4
ATOM      4  O   UNL A   1      33.346  27.679  23.263  1.00  0.00    -0.460 OA
BRANCH   4   5
ATOM      5  C   UNL A   1      33.133  26.541  22.573  1.00  0.00     0.338 C 
ATOM      6  O   UNL A   1      33.410  26.332  21.401  1.00  0.00    -0.246 OA
BRANCH   5   7
ATOM      7  C   UNL A   1      32.739  25.433  23.481  1.00  0.00     0.064 A 
ATOM      8  C   UNL A   1      33.664  23.626  24.845  1.00  0.00     0.071 A 
ATOM      9  C   UNL A   1      33.830  24.777  24.080  1.00  0.00     0.036 A 
ATOM     10  C   UNL A   1      32.365  23.121  25.044  1.00  0.00    -0.032 A 
ATOM     11  C   UNL A   1      31.273  23.823  24.493  1.00  0.00     0.009 A 
ATOM     12  C   UNL A   1      32.078  21.819  25.747  1.00  0.00     0.046 C 
ATOM     13  C   UNL A   1      31.434  24.998  23.734  1.00  0.00    -0.036 A 
ATOM     14  C   UNL A   1      30.208  25.663  23.177  1.00  0.00     0.045 C 
BRANCH   8  15
ATOM     15  S   UNL A   1      35.078  22.792  25.555  1.00  0.00     0.181 S 
ATOM     16  O   UNL A   1      34.997  21.410  25.113  1.00  0.00    -0.223 OA
ATOM     17  O   UNL A   1      35.031  23.099  26.975  1.00  0.00    -0.223 OA
BRANCH  15  18
ATOM     18  C   UNL A   1      36.631  23.428  24.914  1.00  0.00     0.110 C 
ATOM     19  C   UNL A   1      36.998  22.873  23.536  1.00  0.00     0.025 C 
BRANCH  18  20
ATOM     20  C   UNL A   1      37.757  23.412  25.962  1.00  0.00     0.016 C 
ATOM     21  C   UNL A   1      38.601  22.146  25.947  1.00  0.00     0.005 C 
ENDBRANCH  18  20
ENDBRANCH  15  18
ENDBRANCH   8  15
ENDBRANCH   5   7
ENDBRANCH   4   5
ENDBRANCH   3   4
ENDBRANCH   2   3
ENDBRANCH   1   2
BRANCH   1  22
ATOM     22  C   UNL A   1      32.161  30.135  26.386  1.00  0.00     0.202 C 
BRANCH  22  23
ATOM     23  C   UNL A   1      33.642  29.766  26.536  1.00  0.00     0.261 C 
BRANCH  23  24
ATOM     24  O   UNL A   1      34.027  29.588  27.911  1.00  0.00    -0.460 OA
BRANCH  24  25
ATOM     25  C   UNL A   1      34.874  30.531  28.388  1.00  0.00     0.338 C 
ATOM     26  O   UNL A   1      34.576  31.630  28.836  1.00  0.00    -0.246 OA
BRANCH  25  27
ATOM     27  C   UNL A   1      36.241  29.987  28.473  1.00  0.00     0.060 A 
ATOM     28  C   UNL A   1      36.652  29.460  29.705  1.00  0.00     0.016 A 
ATOM     29  C   UNL A   1      37.128  30.046  27.396  1.00  0.00     0.016 A 
ATOM     30  C   UNL A   1      37.968  29.037  29.880  1.00  0.00     0.010 A 
ATOM     31  C   UNL A   1      38.452  29.627  27.576  1.00  0.00     0.010 A 
ATOM     32  C   UNL A   1      38.885  29.153  28.828  1.00  0.00    -0.014 A 
BRANCH  32  33
ATOM     33  C   UNL A   1      40.326  28.907  29.082  1.00  0.00     0.031 A 
ATOM     34  C   UNL A   1      40.916  27.572  28.721  1.00  0.00     0.074 A 
ATOM     35  C   UNL A   1      41.105  29.872  29.601  1.00  0.00     0.049 A 
ATOM     36  N   UNL A   1      42.143  27.143  28.866  1.00  0.00    -0.248 NA
ATOM     37  C   UNL A   1      40.001  26.589  28.118  1.00  0.00     0.031 C 
ATOM     38  C   UNL A   1      40.663  31.222  29.950  1.00  0.00     0.029 A 
ATOM     39  N   UNL A   1      42.439  29.862  29.924  1.00  0.00    -0.354 N 
ATOM     40  C   UNL A   1      42.146  25.839  28.383  1.00  0.00     0.074 A 
ATOM     41  C   UNL A   1      40.794  25.539  27.965  1.00  0.00     0.031 C 
ATOM     42  C   UNL A   1      41.708  31.909  30.443  1.00  0.00     0.029 A 
ATOM     43  C   UNL A   1      42.883  31.041  30.473  1.00  0.00     0.049 A 
ATOM     44  H   UNL A   1      43.023  29.082  29.777  1.00  0.00     0.167 HD
ATOM     45  C   UNL A   1      43.183  24.971  28.291  1.00  0.00     0.031 A 
ATOM     46  C   UNL A   1      44.095  31.376  30.959  1.00  0.00     0.031 A 
ATOM     47  C   UNL A   1      44.524  25.267  28.720  1.00  0.00     0.049 A 
ATOM     48  C   UNL A   1      45.214  30.370  30.913  1.00  0.00     0.074 A 
ATOM     49  C   UNL A   1      45.647  24.460  28.648  1.00  0.00     0.029 A 
ATOM     50  N   UNL A   1      44.922  26.457  29.309  1.00  0.00    -0.354 N 
ATOM     51  N   UNL A   1      45.208  29.152  30.427  1.00  0.00    -0.248 NA
ATOM     52  C   UNL A   1      46.506  30.790  31.475  1.00  0.00     0.031 C 
ATOM     53  C   UNL A   1      46.712  25.143  29.247  1.00  0.00     0.029 A 
ATOM     54  C   UNL A   1      46.267  26.396  29.637  1.00  0.00     0.049 A 
ATOM     55  H   UNL A   1      44.336  27.230  29.472  1.00  0.00     0.167 HD
ATOM     56  C   UNL A   1      46.501  28.668  30.600  1.00  0.00     0.074 A 
ATOM     57  C   UNL A   1      47.263  29.730  31.226  1.00  0.00     0.031 C 
ATOM     58  C   UNL A   1      47.012  27.457  30.266  1.00  0.00     0.031 A 
BRANCH  45  59
ATOM     59  C   UNL A   1      42.889  23.600  27.741  1.00  0.00    -0.014 A 
ATOM     60  C   UNL A   1      42.470  22.550  28.578  1.00  0.00     0.010 A 
ATOM     61  C   UNL A   1      43.017  23.365  26.360  1.00  0.00     0.010 A 
ATOM     62  C   UNL A   1      42.231  21.279  28.050  1.00  0.00     0.020 A 
ATOM     63  C   UNL A   1      42.752  22.102  25.824  1.00  0.00     0.020 A 
ATOM     64  C   UNL A   1      42.381  21.061  26.677  1.00  0.00     0.054 A 
BRANCH  64  65
ATOM     65  S   UNL A   1      42.062  19.401  26.016  1.00  0.00     0.124 S 
ATOM     66  O   UNL A   1      42.497  18.551  27.121  1.00  0.00    -0.237 OA
ATOM     67  O   UNL A   1      40.622  19.424  25.771  1.00  0.00    -0.237 OA
ATOM     68  O   UNL A   1      42.895  19.339  24.818  1.00  0.00    -0.744 OA
ENDBRANCH  64  65
ENDBRANCH  45  59
BRANCH  46  69
ATOM     69  C   UNL A   1      44.307  32.729  31.541  1.00  0.00    -0.014 A 
ATOM     70  C   UNL A   1      44.101  32.958  32.913  1.00  0.00     0.010 A 
ATOM     71  C   UNL A   1      44.737  33.791  30.726  1.00  0.00     0.010 A 
ATOM     72  C   UNL A   1      44.315  34.228  33.457  1.00  0.00     0.020 A 
ATOM     73  C   UNL A   1      44.976  35.056  31.270  1.00  0.00     0.020 A 
ATOM     74  C   UNL A   1      44.756  35.268  32.633  1.00  0.00     0.054 A 
BRANCH  74  75
ATOM     75  S   UNL A   1      45.095  36.890  33.374  1.00  0.00     0.124 S 
ATOM     76  O   UNL A   1      46.522  36.797  33.666  1.00  0.00    -0.237 OA
ATOM     77  O   UNL A   1      44.726  37.808  32.300  1.00  0.00    -0.237 OA
ATOM     78  O   UNL A   1      44.216  36.922  34.540  1.00  0.00    -0.744 OA
ENDBRANCH  74  75
ENDBRANCH  46  69
BRANCH  58  79
ATOM     79  C   UNL A   1      48.473  27.219  30.541  1.00  0.00    -0.014 A 
ATOM     80  C   UNL A   1      48.928  26.875  31.826  1.00  0.00     0.010 A 
ATOM     81  C   UNL A   1      49.398  27.285  29.482  1.00  0.00     0.010 A 
ATOM     82  C   UNL A   1      50.286  26.630  32.053  1.00  0.00     0.020 A 
ATOM     83  C   UNL A   1      50.751  27.015  29.699  1.00  0.00     0.020 A 
ATOM     84  C   UNL A   1      51.189  26.703  30.987  1.00  0.00     0.054 A 
BRANCH  84  85
ATOM     85  S   UNL A   1      52.940  26.339  31.298  1.00  0.00     0.124 S 
ATOM     86  O   UNL A   1      53.519  26.472  29.965  1.00  0.00    -0.237 OA
ATOM     87  O   UNL A   1      53.318  27.377  32.255  1.00  0.00    -0.237 OA
ATOM     88  O   UNL A   1      52.921  24.981  31.837  1.00  0.00    -0.744 OA
ENDBRANCH  84  85
ENDBRANCH  58  79
ENDBRANCH  32  33
ENDBRANCH  25  27
ENDBRANCH  24  25
ENDBRANCH  23  24
ENDBRANCH  22  23
ENDBRANCH   1  22
TORSDOF 20
ENDMDL
MODEL 3
REMARK VINA RESULT:      -9.5      2.477      9.349
REMARK SMILES CC[C@@H](C)S(=O)(=O)c1cc(C(=O)OCCOCCOC(=O)c2ccc(-c3c4nc(c(-c5ccc(S(=O)(=O)[O-])cc5)c5ccc([nH]5)c(-c5ccc(S(=O)(=O)[O-])cc5)c5nc(c(-c6ccc(S(=O)(=O)[O-])cc6)c6ccc3[nH]6)C=C5)C=C4)cc2)c(C)cc1C
REMARK SMILES IDX 16 1 15 2 14 3 13 4 11 5 12 6 10 7 8 8 9 9 85 10 84 11 86 12
REMARK SMILES IDX 82 13 83 14 5 15 6 16 7 17 3 18 4 19 2 20 1 21 17 22 18 23
REMARK SMILES IDX 19 24 20 25 21 26 22 27 23 28 81 29 24 30 80 31 25 32 26 33
REMARK SMILES IDX 27 34 74 35 28 36 79 37 73 38 75 39 29 40 78 41 72 42 71 43
REMARK SMILES IDX 30 45 60 46 41 47 59 48 42 49 45 50 58 51 76 52 43 53 44 54
REMARK SMILES IDX 57 56 77 57 46 58 31 59 32 60 40 61 33 62 39 63 34 64 35 65
REMARK SMILES IDX 36 66 37 67 38 68 61 69 62 70 70 71 63 72 69 73 64 74 65 75
REMARK SMILES IDX 66 76 67 77 68 78 47 79 48 80 56 81 49 82 55 83 50 84 51 85
REMARK SMILES IDX 52 86 53 87 54 88
REMARK H PARENT 75 44 45 55
REMARK Flexibility Score: inf
ROOT
ATOM      1  O   UNL A   1      31.228  29.972  25.056  1.00  0.00    -0.374 OA
ENDROOT
BRANCH   1   2
ATOM      2  C   UNL A   1      31.698  28.766  24.448  1.00  0.00     0.202 C 
BRANCH   2   3
ATOM      3  C   UNL A   1      33.139  28.805  23.939  1.00  0.00     0.261 C 
BRANCH   3   4
ATOM      4  O   UNL A   1      33.693  27.477  23.943  1.00  0.00    -0.460 OA
BRANCH   4   5
ATOM      5  C   UNL A   1      33.132  26.618  23.069  1.00  0.00     0.338 C 
ATOM      6  O   UNL A   1      33.139  26.705  21.849  1.00  0.00    -0.246 OA
BRANCH   5   7
ATOM      7  C   UNL A   1      32.699  25.371  23.750  1.00  0.00     0.064 A 
ATOM      8  C   UNL A   1      33.557  23.291  24.709  1.00  0.00     0.071 A 
ATOM      9  C   UNL A   1      33.766  24.562  24.181  1.00  0.00     0.036 A 
ATOM     10  C   UNL A   1      32.239  22.814  24.836  1.00  0.00    -0.032 A 
ATOM     11  C   UNL A   1      31.173  23.658  24.460  1.00  0.00     0.009 A 
ATOM     12  C   UNL A   1      31.900  21.413  25.275  1.00  0.00     0.046 C 
ATOM     13  C   UNL A   1      31.379  24.953  23.945  1.00  0.00    -0.036 A 
ATOM     14  C   UNL A   1      30.177  25.768  23.559  1.00  0.00     0.045 C 
BRANCH   8  15
ATOM     15  S   UNL A   1      34.940  22.271  25.206  1.00  0.00     0.181 S 
ATOM     16  O   UNL A   1      34.748  20.986  24.557  1.00  0.00    -0.223 OA
ATOM     17  O   UNL A   1      34.972  22.351  26.657  1.00  0.00    -0.223 OA
BRANCH  15  18
ATOM     18  C   UNL A   1      36.505  22.908  24.594  1.00  0.00     0.110 C 
ATOM     19  C   UNL A   1      36.685  22.741  23.084  1.00  0.00     0.025 C 
BRANCH  18  20
ATOM     20  C   UNL A   1      37.701  22.477  25.461  1.00  0.00     0.016 C 
ATOM     21  C   UNL A   1      38.322  23.608  26.267  1.00  0.00     0.005 C 
ENDBRANCH  18  20
ENDBRANCH  15  18
ENDBRANCH   8  15
ENDBRANCH   5   7
ENDBRANCH   4   5
ENDBRANCH   3   4
ENDBRANCH   2   3
ENDBRANCH   1   2
BRANCH   1  22
ATOM     22  C   UNL A   1      31.705  30.274  26.367  1.00  0.00     0.202 C 
BRANCH  22  23
ATOM     23  C   UNL A   1      33.226  30.313  26.554  1.00  0.00     0.261 C 
BRANCH  23  24
ATOM     24  O   UNL A   1      33.622  30.020  27.906  1.00  0.00    -0.460 OA
BRANCH  24  25
ATOM     25  C   UNL A   1      34.524  30.883  28.431  1.00  0.00     0.338 C 
ATOM     26  O   UNL A   1      34.295  31.980  28.922  1.00  0.00    -0.246 OA
BRANCH  25  27
ATOM     27  C   UNL A   1      35.850  30.243  28.509  1.00  0.00     0.060 A 
ATOM     28  C   UNL A   1      36.232  29.691  29.739  1.00  0.00     0.016 A 
ATOM     29  C   UNL A   1      36.732  30.238  27.425  1.00  0.00     0.016 A 
ATOM     30  C   UNL A   1      37.515  29.176  29.906  1.00  0.00     0.010 A 
ATOM     31  C   UNL A   1      38.024  29.727  27.597  1.00  0.00     0.010 A 
ATOM     32  C   UNL A   1      38.431  29.225  28.847  1.00  0.00    -0.014 A 
BRANCH  32  33
ATOM     33  C   UNL A   1      39.852  28.879  29.092  1.00  0.00     0.031 A 
ATOM     34  C   UNL A   1      40.757  29.902  29.725  1.00  0.00     0.074 A 
ATOM     35  C   UNL A   1      40.325  27.659  28.781  1.00  0.00     0.049 A 
ATOM     36  N   UNL A   1      42.028  29.813  30.017  1.00  0.00    -0.248 NA
ATOM     37  C   UNL A   1      40.146  31.195  30.072  1.00  0.00     0.031 C 
ATOM     38  C   UNL A   1      39.539  26.568  28.206  1.00  0.00     0.029 A 
ATOM     39  N   UNL A   1      41.587  27.135  28.909  1.00  0.00    -0.354 N 
ATOM     40  C   UNL A   1      42.373  31.041  30.573  1.00  0.00     0.074 A 
ATOM     41  C   UNL A   1      41.183  31.864  30.552  1.00  0.00     0.031 C 
ATOM     42  C   UNL A   1      40.340  25.503  28.027  1.00  0.00     0.029 A 
ATOM     43  C   UNL A   1      41.698  25.846  28.445  1.00  0.00     0.049 A 
ATOM     44  H   UNL A   1      42.342  27.635  29.295  1.00  0.00     0.167 HD
ATOM     45  C   UNL A   1      43.571  31.444  31.061  1.00  0.00     0.031 A 
ATOM     46  C   UNL A   1      42.775  25.041  28.353  1.00  0.00     0.031 A 
ATOM     47  C   UNL A   1      44.756  30.628  31.068  1.00  0.00     0.049 A 
ATOM     48  C   UNL A   1      44.112  25.536  28.835  1.00  0.00     0.074 A 
ATOM     49  C   UNL A   1      46.012  30.940  31.560  1.00  0.00     0.029 A 
ATOM     50  N   UNL A   1      44.837  29.345  30.550  1.00  0.00    -0.354 N 
ATOM     51  N   UNL A   1      44.415  26.688  29.384  1.00  0.00    -0.248 NA
ATOM     52  C   UNL A   1      45.251  24.617  28.691  1.00  0.00     0.031 C 
ATOM     53  C   UNL A   1      46.866  29.866  31.287  1.00  0.00     0.029 A 
ATOM     54  C   UNL A   1      46.128  28.862  30.681  1.00  0.00     0.049 A 
ATOM     55  H   UNL A   1      44.087  28.850  30.148  1.00  0.00     0.167 HD
ATOM     56  C   UNL A   1      45.774  26.623  29.675  1.00  0.00     0.074 A 
ATOM     57  C   UNL A   1      46.230  25.315  29.251  1.00  0.00     0.031 C 
ATOM     58  C   UNL A   1      46.571  27.560  30.248  1.00  0.00     0.031 A 
BRANCH  45  59
ATOM     59  C   UNL A   1      43.663  32.852  31.588  1.00  0.00    -0.014 A 
ATOM     60  C   UNL A   1      43.980  33.931  30.744  1.00  0.00     0.010 A 
ATOM     61  C   UNL A   1      43.411  33.099  32.950  1.00  0.00     0.010 A 
ATOM     62  C   UNL A   1      44.088  35.225  31.261  1.00  0.00     0.020 A 
ATOM     63  C   UNL A   1      43.491  34.395  33.465  1.00  0.00     0.020 A 
ATOM     64  C   UNL A   1      43.850  35.448  32.621  1.00  0.00     0.054 A 
BRANCH  64  65
ATOM     65  S   UNL A   1      43.996  37.137  33.267  1.00  0.00     0.124 S 
ATOM     66  O   UNL A   1      42.724  37.300  33.966  1.00  0.00    -0.237 OA
ATOM     67  O   UNL A   1      45.176  37.053  34.123  1.00  0.00    -0.237 OA
ATOM     68  O   UNL A   1      44.156  37.954  32.067  1.00  0.00    -0.744 OA
ENDBRANCH  64  65
ENDBRANCH  45  59
BRANCH  46  69
ATOM     69  C   UNL A   1      42.630  23.679  27.770  1.00  0.00    -0.014 A 
ATOM     70  C   UNL A   1      42.861  23.458  26.401  1.00  0.00     0.010 A 
ATOM     71  C   UNL A   1      42.277  22.592  28.589  1.00  0.00     0.010 A 
ATOM     72  C   UNL A   1      42.736  22.175  25.862  1.00  0.00     0.020 A 
ATOM     73  C   UNL A   1      42.176  21.303  28.059  1.00  0.00     0.020 A 
ATOM     74  C   UNL A   1      42.399  21.104  26.694  1.00  0.00     0.054 A 
BRANCH  74  75
ATOM     75  S   UNL A   1      42.312  19.436  25.986  1.00  0.00     0.124 S 
ATOM     76  O   UNL A   1      43.182  19.555  24.820  1.00  0.00    -0.237 OA
ATOM     77  O   UNL A   1      42.823  18.606  27.075  1.00  0.00    -0.237 OA
ATOM     78  O   UNL A   1      40.891  19.263  25.695  1.00  0.00    -0.744 OA
ENDBRANCH  74  75
ENDBRANCH  46  69
BRANCH  58  79
ATOM     79  C   UNL A   1      48.014  27.198  30.479  1.00  0.00    -0.014 A 
ATOM     80  C   UNL A   1      49.014  27.560  29.559  1.00  0.00     0.010 A 
ATOM     81  C   UNL A   1      48.382  26.535  31.665  1.00  0.00     0.010 A 
ATOM     82  C   UNL A   1      50.352  27.239  29.808  1.00  0.00     0.020 A 
ATOM     83  C   UNL A   1      49.720  26.236  31.929  1.00  0.00     0.020 A 
ATOM     84  C   UNL A   1      50.696  26.578  30.992  1.00  0.00     0.054 A 
BRANCH  84  85
ATOM     85  S   UNL A   1      52.445  26.210  31.312  1.00  0.00     0.124 S 
ATOM     86  O   UNL A   1      52.950  25.944  29.968  1.00  0.00    -0.237 OA
ATOM     87  O   UNL A   1      52.923  27.443  31.932  1.00  0.00    -0.237 OA
ATOM     88  O   UNL A   1      52.397  25.051  32.200  1.00  0.00    -0.744 OA
ENDBRANCH  84  85
ENDBRANCH  58  79
ENDBRANCH  32  33
ENDBRANCH  25  27
ENDBRANCH  24  25
ENDBRANCH  23  24
ENDBRANCH  22  23
ENDBRANCH   1  22
TORSDOF 20
ENDMDL
