MODEL 1
REMARK VINA RESULT:     -10.4      0.000      0.000
REMARK SMILES C[C@H]1[C@@H](C(=O)OCCOCCOC(=O)c2ccc(-c3c4nc(c(-c5ccc(S(=O)(=O)[O-])cc5)c5ccc([nH]5)c(-c5ccc(S(=O)(=O)[O-])cc5)c5nc(c(-c6ccc(S(=O)(=O)[O-])cc6)c6ccc3[nH]6)C=C5)C=C4)cc2)CC[N@@H+]1Cc1cc(F)c(F)c(F)c1
REMARK SMILES IDX 10 1 9 2 8 3 7 4 6 5 4 6 5 7 3 8 1 9 2 10 77 11 75 12 76 13
REMARK SMILES IDX 78 15 79 16 80 17 87 18 81 19 85 20 82 21 83 22 86 23 84 24
REMARK SMILES IDX 11 25 12 26 13 27 14 28 15 29 16 30 74 31 17 32 73 33 18 34
REMARK SMILES IDX 19 35 20 36 67 37 21 38 72 39 66 40 68 41 22 42 71 43 65 44
REMARK SMILES IDX 64 45 23 47 53 48 34 49 52 50 35 51 38 52 51 53 69 54 36 55
REMARK SMILES IDX 37 56 50 58 70 59 39 60 24 61 25 62 33 63 26 64 32 65 27 66
REMARK SMILES IDX 28 67 29 68 30 69 31 70 54 71 55 72 63 73 56 74 62 75 57 76
REMARK SMILES IDX 58 77 59 78 60 79 61 80 40 81 41 82 49 83 42 84 48 85 43 86
REMARK SMILES IDX 44 87 45 88 46 89 47 90
REMARK H PARENT 77 14 68 46 38 57
REMARK Flexibility Score: inf
ROOT
ATOM      1  C   UNL A   1      31.768  29.683  26.060  1.00  0.00     0.202 C 
ENDROOT
BRANCH   1   2
ATOM      2  O   UNL A   1      32.078  29.609  24.671  1.00  0.00    -0.374 OA
BRANCH   2   3
ATOM      3  C   UNL A   1      31.183  28.826  23.870  1.00  0.00     0.202 C 
BRANCH   3   4
ATOM      4  C   UNL A   1      31.851  28.066  22.719  1.00  0.00     0.261 C 
BRANCH   4   5
ATOM      5  O   UNL A   1      33.118  27.537  23.165  1.00  0.00    -0.463 OA
BRANCH   5   6
ATOM      6  C   UNL A   1      33.369  26.234  22.922  1.00  0.00     0.315 C 
ATOM      7  O   UNL A   1      33.836  25.806  21.871  1.00  0.00    -0.252 OA
BRANCH   6   8
ATOM      8  C   UNL A   1      33.163  25.322  24.123  1.00  0.00     0.162 C 
ATOM      9  C   UNL A   1      30.635  24.765  23.557  1.00  0.00     0.076 C 
ATOM     10  C   UNL A   1      31.896  24.477  24.369  1.00  0.00     0.195 C 
ATOM     11  N   UNL A   1      31.549  24.667  25.793  1.00  0.00    -0.328 N 
ATOM     12  C   UNL A   1      33.370  26.139  25.404  1.00  0.00     0.083 C 
ATOM     13  C   UNL A   1      32.112  25.935  26.227  1.00  0.00     0.263 C 
ATOM     14  H   UNL A   1      30.532  24.712  25.864  1.00  0.00     0.348 HD
BRANCH  11  15
ATOM     15  C   UNL A   1      31.760  23.530  26.688  1.00  0.00     0.299 C 
BRANCH  15  16
ATOM     16  C   UNL A   1      32.587  22.382  26.152  1.00  0.00     0.012 A 
ATOM     17  C   UNL A   1      31.981  21.353  25.415  1.00  0.00     0.052 A 
ATOM     18  C   UNL A   1      33.974  22.323  26.366  1.00  0.00     0.052 A 
ATOM     19  C   UNL A   1      32.756  20.328  24.872  1.00  0.00     0.162 A 
ATOM     20  C   UNL A   1      34.737  21.312  25.787  1.00  0.00     0.162 A 
ATOM     21  F   UNL A   1      32.154  19.353  24.179  1.00  0.00    -0.204 F 
ATOM     22  C   UNL A   1      34.133  20.315  25.038  1.00  0.00     0.194 A 
ATOM     23  F   UNL A   1      36.068  21.324  25.951  1.00  0.00    -0.204 F 
ATOM     24  F   UNL A   1      34.875  19.346  24.483  1.00  0.00    -0.200 F 
ENDBRANCH  15  16
ENDBRANCH  11  15
ENDBRANCH   6   8
ENDBRANCH   5   6
ENDBRANCH   4   5
ENDBRANCH   3   4
ENDBRANCH   2   3
ENDBRANCH   1   2
BRANCH   1  25
ATOM     25  C   UNL A   1      32.472  30.794  26.842  1.00  0.00     0.261 C 
BRANCH  25  26
ATOM     26  O   UNL A   1      33.543  30.256  27.631  1.00  0.00    -0.460 OA
BRANCH  26  27
ATOM     27  C   UNL A   1      34.547  31.132  27.853  1.00  0.00     0.338 C 
ATOM     28  O   UNL A   1      34.450  32.348  27.956  1.00  0.00    -0.246 OA
BRANCH  27  29
ATOM     29  C   UNL A   1      35.801  30.414  28.139  1.00  0.00     0.060 A 
ATOM     30  C   UNL A   1      35.856  29.721  29.352  1.00  0.00     0.016 A 
ATOM     31  C   UNL A   1      36.914  30.462  27.293  1.00  0.00     0.016 A 
ATOM     32  C   UNL A   1      37.056  29.171  29.781  1.00  0.00     0.010 A 
ATOM     33  C   UNL A   1      38.120  29.899  27.722  1.00  0.00     0.010 A 
ATOM     34  C   UNL A   1      38.208  29.312  28.997  1.00  0.00    -0.014 A 
BRANCH  34  35
ATOM     35  C   UNL A   1      39.517  29.026  29.631  1.00  0.00     0.031 A 
ATOM     36  C   UNL A   1      39.897  29.782  30.876  1.00  0.00     0.074 A 
ATOM     37  C   UNL A   1      40.290  28.025  29.173  1.00  0.00     0.049 A 
ATOM     38  N   UNL A   1      40.929  29.616  31.662  1.00  0.00    -0.248 NA
ATOM     39  C   UNL A   1      38.994  30.868  31.295  1.00  0.00     0.031 C 
ATOM     40  C   UNL A   1      39.997  27.198  28.001  1.00  0.00     0.029 A 
ATOM     41  N   UNL A   1      41.467  27.518  29.658  1.00  0.00    -0.354 N 
ATOM     42  C   UNL A   1      40.799  30.572  32.664  1.00  0.00     0.074 A 
ATOM     43  C   UNL A   1      39.614  31.344  32.364  1.00  0.00     0.031 C 
ATOM     44  C   UNL A   1      40.962  26.273  27.870  1.00  0.00     0.029 A 
ATOM     45  C   UNL A   1      41.950  26.457  28.930  1.00  0.00     0.049 A 
ATOM     46  H   UNL A   1      41.924  27.879  30.452  1.00  0.00     0.167 HD
ATOM     47  C   UNL A   1      41.586  30.780  33.746  1.00  0.00     0.031 A 
ATOM     48  C   UNL A   1      43.064  25.720  29.101  1.00  0.00     0.031 A 
ATOM     49  C   UNL A   1      42.768  30.012  34.034  1.00  0.00     0.049 A 
ATOM     50  C   UNL A   1      43.954  26.005  30.283  1.00  0.00     0.074 A 
ATOM     51  C   UNL A   1      43.634  30.133  35.107  1.00  0.00     0.029 A 
ATOM     52  N   UNL A   1      43.253  28.983  33.242  1.00  0.00    -0.354 N 
ATOM     53  N   UNL A   1      43.802  26.897  31.234  1.00  0.00    -0.248 NA
ATOM     54  C   UNL A   1      45.154  25.170  30.422  1.00  0.00     0.031 C 
ATOM     55  C   UNL A   1      44.674  29.216  34.932  1.00  0.00     0.029 A 
ATOM     56  C   UNL A   1      44.420  28.476  33.787  1.00  0.00     0.049 A 
ATOM     57  H   UNL A   1      42.830  28.660  32.414  1.00  0.00     0.167 HD
ATOM     58  C   UNL A   1      44.874  26.710  32.101  1.00  0.00     0.074 A 
ATOM     59  C   UNL A   1      45.651  25.609  31.570  1.00  0.00     0.031 C 
ATOM     60  C   UNL A   1      45.186  27.386  33.237  1.00  0.00     0.031 A 
BRANCH  47  61
ATOM     61  C   UNL A   1      41.211  31.906  34.675  1.00  0.00    -0.014 A 
ATOM     62  C   UNL A   1      41.602  33.233  34.413  1.00  0.00     0.010 A 
ATOM     63  C   UNL A   1      40.432  31.637  35.815  1.00  0.00     0.010 A 
ATOM     64  C   UNL A   1      41.252  34.261  35.294  1.00  0.00     0.020 A 
ATOM     65  C   UNL A   1      40.055  32.666  36.683  1.00  0.00     0.020 A 
ATOM     66  C   UNL A   1      40.483  33.970  36.425  1.00  0.00     0.054 A 
BRANCH  66  67
ATOM     67  S   UNL A   1      40.026  35.326  37.541  1.00  0.00     0.124 S 
ATOM     68  O   UNL A   1      39.928  36.454  36.619  1.00  0.00    -0.237 OA
ATOM     69  O   UNL A   1      38.760  34.863  38.104  1.00  0.00    -0.237 OA
ATOM     70  O   UNL A   1      41.138  35.388  38.487  1.00  0.00    -0.744 OA
ENDBRANCH  66  67
ENDBRANCH  47  61
BRANCH  48  71
ATOM     71  C   UNL A   1      43.398  24.643  28.129  1.00  0.00    -0.014 A 
ATOM     72  C   UNL A   1      42.880  23.344  28.277  1.00  0.00     0.010 A 
ATOM     73  C   UNL A   1      44.241  24.921  27.036  1.00  0.00     0.010 A 
ATOM     74  C   UNL A   1      43.213  22.341  27.362  1.00  0.00     0.020 A 
ATOM     75  C   UNL A   1      44.551  23.929  26.103  1.00  0.00     0.020 A 
ATOM     76  C   UNL A   1      44.044  22.641  26.279  1.00  0.00     0.054 A 
BRANCH  76  77
ATOM     77  S   UNL A   1      44.422  21.336  25.075  1.00  0.00     0.124 S 
ATOM     78  O   UNL A   1      43.368  20.363  25.341  1.00  0.00    -0.237 OA
ATOM     79  O   UNL A   1      44.324  22.046  23.802  1.00  0.00    -0.237 OA
ATOM     80  O   UNL A   1      45.772  20.914  25.441  1.00  0.00    -0.744 OA
ENDBRANCH  76  77
ENDBRANCH  48  71
BRANCH  60  81
ATOM     81  C   UNL A   1      46.403  26.927  33.997  1.00  0.00    -0.014 A 
ATOM     82  C   UNL A   1      47.665  27.506  33.781  1.00  0.00     0.010 A 
ATOM     83  C   UNL A   1      46.271  25.915  34.966  1.00  0.00     0.010 A 
ATOM     84  C   UNL A   1      48.784  27.046  34.481  1.00  0.00     0.020 A 
ATOM     85  C   UNL A   1      47.380  25.474  35.693  1.00  0.00     0.020 A 
ATOM     86  C   UNL A   1      48.634  26.028  35.429  1.00  0.00     0.054 A 
BRANCH  86  87
ATOM     87  S   UNL A   1      50.098  25.454  36.331  1.00  0.00     0.124 S 
ATOM     88  O   UNL A   1      51.175  25.784  35.402  1.00  0.00    -0.237 OA
ATOM     89  O   UNL A   1      50.055  26.252  37.554  1.00  0.00    -0.237 OA
ATOM     90  O   UNL A   1      49.852  24.026  36.517  1.00  0.00    -0.744 OA
ENDBRANCH  86  87
ENDBRANCH  60  81
ENDBRANCH  34  35
ENDBRANCH  27  29
ENDBRANCH  26  27
ENDBRANCH  25  26
ENDBRANCH   1  25
TORSDOF 19
ENDMDL
MODEL 2
REMARK VINA RESULT:     -10.3      2.648      8.362
REMARK SMILES C[C@H]1[C@@H](C(=O)OCCOCCOC(=O)c2ccc(-c3c4nc(c(-c5ccc(S(=O)(=O)[O-])cc5)c5ccc([nH]5)c(-c5ccc(S(=O)(=O)[O-])cc5)c5nc(c(-c6ccc(S(=O)(=O)[O-])cc6)c6ccc3[nH]6)C=C5)C=C4)cc2)CC[N@@H+]1Cc1cc(F)c(F)c(F)c1
REMARK SMILES IDX 10 1 9 2 8 3 7 4 6 5 4 6 5 7 3 8 1 9 2 10 77 11 75 12 76 13
REMARK SMILES IDX 78 15 79 16 80 17 87 18 81 19 85 20 82 21 83 22 86 23 84 24
REMARK SMILES IDX 11 25 12 26 13 27 14 28 15 29 16 30 74 31 17 32 73 33 18 34
REMARK SMILES IDX 19 35 20 36 67 37 21 38 72 39 66 40 68 41 22 42 71 43 65 44
REMARK SMILES IDX 64 45 23 47 53 48 34 49 52 50 35 51 38 52 51 53 69 54 36 55
REMARK SMILES IDX 37 56 50 58 70 59 39 60 24 61 25 62 33 63 26 64 32 65 27 66
REMARK SMILES IDX 28 67 29 68 30 69 31 70 54 71 55 72 63 73 56 74 62 75 57 76
REMARK SMILES IDX 58 77 59 78 60 79 61 80 40 81 41 82 49 83 42 84 48 85 43 86
REMARK SMILES IDX 44 87 45 88 46 89 47 90
REMARK H PARENT 77 14 68 46 38 57
REMARK Flexibility Score: inf
ROOT
ATOM      1  C   UNL A   1      31.756  30.544  26.015  1.00  0.00     0.202 C 
ENDROOT
BRANCH   1   2
ATOM      2  O   UNL A   1      31.041  29.938  24.941  1.00  0.00    -0.374 OA
BRANCH   2   3
ATOM      3  C   UNL A   1      31.793  29.039  24.116  1.00  0.00     0.202 C 
BRANCH   3   4
ATOM      4  C   UNL A   1      31.043  27.769  23.701  1.00  0.00     0.261 C 
BRANCH   4   5
ATOM      5  O   UNL A   1      31.479  27.362  22.387  1.00  0.00    -0.463 OA
BRANCH   5   6
ATOM      6  C   UNL A   1      32.562  26.561  22.310  1.00  0.00     0.315 C 
ATOM      7  O   UNL A   1      33.608  26.869  21.747  1.00  0.00    -0.252 OA
BRANCH   6   8
ATOM      8  C   UNL A   1      32.449  25.274  23.115  1.00  0.00     0.162 C 
ATOM      9  C   UNL A   1      34.158  26.029  24.995  1.00  0.00     0.076 C 
ATOM     10  C   UNL A   1      33.094  25.052  24.499  1.00  0.00     0.195 C 
ATOM     11  N   UNL A   1      33.721  23.715  24.447  1.00  0.00    -0.328 N 
ATOM     12  C   UNL A   1      32.925  24.105  22.246  1.00  0.00     0.083 C 
ATOM     13  C   UNL A   1      33.999  23.403  23.056  1.00  0.00     0.263 C 
ATOM     14  H   UNL A   1      34.600  23.762  24.961  1.00  0.00     0.348 HD
BRANCH  11  15
ATOM     15  C   UNL A   1      33.090  22.652  25.231  1.00  0.00     0.299 C 
BRANCH  15  16
ATOM     16  C   UNL A   1      33.485  21.230  24.896  1.00  0.00     0.012 A 
ATOM     17  C   UNL A   1      34.816  20.809  25.039  1.00  0.00     0.052 A 
ATOM     18  C   UNL A   1      32.534  20.298  24.448  1.00  0.00     0.052 A 
ATOM     19  C   UNL A   1      35.163  19.482  24.787  1.00  0.00     0.162 A 
ATOM     20  C   UNL A   1      32.891  18.969  24.235  1.00  0.00     0.162 A 
ATOM     21  F   UNL A   1      36.441  19.106  24.922  1.00  0.00    -0.204 F 
ATOM     22  C   UNL A   1      34.203  18.557  24.405  1.00  0.00     0.194 A 
ATOM     23  F   UNL A   1      31.945  18.089  23.877  1.00  0.00    -0.204 F 
ATOM     24  F   UNL A   1      34.539  17.276  24.198  1.00  0.00    -0.200 F 
ENDBRANCH  15  16
ENDBRANCH  11  15
ENDBRANCH   6   8
ENDBRANCH   5   6
ENDBRANCH   4   5
ENDBRANCH   3   4
ENDBRANCH   2   3
ENDBRANCH   1   2
BRANCH   1  25
ATOM     25  C   UNL A   1      33.182  30.034  26.239  1.00  0.00     0.261 C 
BRANCH  25  26
ATOM     26  O   UNL A   1      33.481  29.969  27.640  1.00  0.00    -0.460 OA
BRANCH  26  27
ATOM     27  C   UNL A   1      34.436  30.839  28.033  1.00  0.00     0.338 C 
ATOM     28  O   UNL A   1      34.271  32.006  28.369  1.00  0.00    -0.246 OA
BRANCH  27  29
ATOM     29  C   UNL A   1      35.730  30.151  28.181  1.00  0.00     0.060 A 
ATOM     30  C   UNL A   1      36.019  29.641  29.450  1.00  0.00     0.016 A 
ATOM     31  C   UNL A   1      36.664  30.058  27.144  1.00  0.00     0.016 A 
ATOM     32  C   UNL A   1      37.284  29.140  29.722  1.00  0.00     0.010 A 
ATOM     33  C   UNL A   1      37.936  29.545  27.418  1.00  0.00     0.010 A 
ATOM     34  C   UNL A   1      38.268  29.148  28.725  1.00  0.00    -0.014 A 
BRANCH  34  35
ATOM     35  C   UNL A   1      39.676  28.937  29.138  1.00  0.00     0.031 A 
ATOM     36  C   UNL A   1      40.342  27.632  28.789  1.00  0.00     0.074 A 
ATOM     37  C   UNL A   1      40.377  29.937  29.700  1.00  0.00     0.049 A 
ATOM     38  N   UNL A   1      41.591  27.274  28.941  1.00  0.00    -0.248 NA
ATOM     39  C   UNL A   1      39.491  26.593  28.184  1.00  0.00     0.031 C 
ATOM     40  C   UNL A   1      39.843  31.256  30.041  1.00  0.00     0.029 A 
ATOM     41  N   UNL A   1      41.698  30.003  30.059  1.00  0.00    -0.354 N 
ATOM     42  C   UNL A   1      41.674  25.974  28.453  1.00  0.00     0.074 A 
ATOM     43  C   UNL A   1      40.343  25.589  28.041  1.00  0.00     0.031 C 
ATOM     44  C   UNL A   1      40.836  32.010  30.543  1.00  0.00     0.029 A 
ATOM     45  C   UNL A   1      42.064  31.220  30.582  1.00  0.00     0.049 A 
ATOM     46  H   UNL A   1      42.325  29.252  29.952  1.00  0.00     0.167 HD
ATOM     47  C   UNL A   1      42.763  25.177  28.343  1.00  0.00     0.031 A 
ATOM     48  C   UNL A   1      43.257  31.647  31.039  1.00  0.00     0.031 A 
ATOM     49  C   UNL A   1      44.083  25.565  28.763  1.00  0.00     0.049 A 
ATOM     50  C   UNL A   1      44.444  30.723  30.957  1.00  0.00     0.074 A 
ATOM     51  C   UNL A   1      45.259  24.839  28.690  1.00  0.00     0.029 A 
ATOM     52  N   UNL A   1      44.402  26.786  29.339  1.00  0.00    -0.354 N 
ATOM     53  N   UNL A   1      44.509  29.505  30.470  1.00  0.00    -0.248 NA
ATOM     54  C   UNL A   1      45.720  31.239  31.468  1.00  0.00     0.031 C 
ATOM     55  C   UNL A   1      46.277  25.598  29.276  1.00  0.00     0.029 A 
ATOM     56  C   UNL A   1      45.750  26.825  29.650  1.00  0.00     0.049 A 
ATOM     57  H   UNL A   1      43.763  27.517  29.502  1.00  0.00     0.167 HD
ATOM     58  C   UNL A   1      45.841  29.121  30.591  1.00  0.00     0.074 A 
ATOM     59  C   UNL A   1      46.546  30.243  31.178  1.00  0.00     0.031 C 
ATOM     60  C   UNL A   1      46.430  27.948  30.245  1.00  0.00     0.031 A 
BRANCH  47  61
ATOM     61  C   UNL A   1      42.561  23.794  27.781  1.00  0.00    -0.014 A 
ATOM     62  C   UNL A   1      42.526  23.565  26.392  1.00  0.00     0.010 A 
ATOM     63  C   UNL A   1      42.430  22.700  28.656  1.00  0.00     0.010 A 
ATOM     64  C   UNL A   1      42.326  22.275  25.892  1.00  0.00     0.020 A 
ATOM     65  C   UNL A   1      42.260  21.404  28.160  1.00  0.00     0.020 A 
ATOM     66  C   UNL A   1      42.192  21.203  26.780  1.00  0.00     0.054 A 
BRANCH  66  67
ATOM     67  S   UNL A   1      41.954  19.536  26.104  1.00  0.00     0.124 S 
ATOM     68  O   UNL A   1      42.824  19.560  24.931  1.00  0.00    -0.237 OA
ATOM     69  O   UNL A   1      42.402  18.680  27.200  1.00  0.00    -0.237 OA
ATOM     70  O   UNL A   1      40.523  19.477  25.818  1.00  0.00    -0.744 OA
ENDBRANCH  66  67
ENDBRANCH  47  61
BRANCH  48  71
ATOM     71  C   UNL A   1      43.385  33.014  31.616  1.00  0.00    -0.014 A 
ATOM     72  C   UNL A   1      43.232  33.236  32.996  1.00  0.00     0.010 A 
ATOM     73  C   UNL A   1      43.670  34.107  30.775  1.00  0.00     0.010 A 
ATOM     74  C   UNL A   1      43.344  34.527  33.521  1.00  0.00     0.020 A 
ATOM     75  C   UNL A   1      43.812  35.393  31.301  1.00  0.00     0.020 A 
ATOM     76  C   UNL A   1      43.636  35.597  32.670  1.00  0.00     0.054 A 
BRANCH  76  77
ATOM     77  S   UNL A   1      43.826  37.256  33.380  1.00  0.00     0.124 S 
ATOM     78  O   UNL A   1      45.082  37.132  34.111  1.00  0.00    -0.237 OA
ATOM     79  O   UNL A   1      43.866  38.104  32.190  1.00  0.00    -0.237 OA
ATOM     80  O   UNL A   1      42.632  37.413  34.207  1.00  0.00    -0.744 OA
ENDBRANCH  76  77
ENDBRANCH  48  71
BRANCH  60  81
ATOM     81  C   UNL A   1      47.917  27.835  30.462  1.00  0.00    -0.014 A 
ATOM     82  C   UNL A   1      48.836  28.300  29.506  1.00  0.00     0.010 A 
ATOM     83  C   UNL A   1      48.399  27.279  31.661  1.00  0.00     0.010 A 
ATOM     84  C   UNL A   1      50.210  28.162  29.720  1.00  0.00     0.020 A 
ATOM     85  C   UNL A   1      49.772  27.169  31.895  1.00  0.00     0.020 A 
ATOM     86  C   UNL A   1      50.669  27.591  30.912  1.00  0.00     0.054 A 
BRANCH  86  87
ATOM     87  S   UNL A   1      52.456  27.431  31.171  1.00  0.00     0.124 S 
ATOM     88  O   UNL A   1      52.826  28.783  31.580  1.00  0.00    -0.237 OA
ATOM     89  O   UNL A   1      52.538  26.413  32.216  1.00  0.00    -0.237 OA
ATOM     90  O   UNL A   1      52.960  27.016  29.864  1.00  0.00    -0.744 OA
ENDBRANCH  86  87
ENDBRANCH  60  81
ENDBRANCH  34  35
ENDBRANCH  27  29
ENDBRANCH  26  27
ENDBRANCH  25  26
ENDBRANCH   1  25
TORSDOF 19
ENDMDL
MODEL 3
REMARK VINA RESULT:     -10.3      5.882     12.433
REMARK SMILES C[C@H]1[C@@H](C(=O)OCCOCCOC(=O)c2ccc(-c3c4nc(c(-c5ccc(S(=O)(=O)[O-])cc5)c5ccc([nH]5)c(-c5ccc(S(=O)(=O)[O-])cc5)c5nc(c(-c6ccc(S(=O)(=O)[O-])cc6)c6ccc3[nH]6)C=C5)C=C4)cc2)CC[N@@H+]1Cc1cc(F)c(F)c(F)c1
REMARK SMILES IDX 10 1 9 2 8 3 7 4 6 5 4 6 5 7 3 8 1 9 2 10 77 11 75 12 76 13
REMARK SMILES IDX 78 15 79 16 80 17 87 18 81 19 85 20 82 21 83 22 86 23 84 24
REMARK SMILES IDX 11 25 12 26 13 27 14 28 15 29 16 30 74 31 17 32 73 33 18 34
REMARK SMILES IDX 19 35 20 36 67 37 21 38 72 39 66 40 68 41 22 42 71 43 65 44
REMARK SMILES IDX 64 45 23 47 53 48 34 49 52 50 35 51 38 52 51 53 69 54 36 55
REMARK SMILES IDX 37 56 50 58 70 59 39 60 24 61 25 62 33 63 26 64 32 65 27 66
REMARK SMILES IDX 28 67 29 68 30 69 31 70 54 71 55 72 63 73 56 74 62 75 57 76
REMARK SMILES IDX 58 77 59 78 60 79 61 80 40 81 41 82 49 83 42 84 48 85 43 86
REMARK SMILES IDX 44 87 45 88 46 89 47 90
REMARK H PARENT 77 14 68 46 38 57
REMARK Flexibility Score: inf
ROOT
ATOM      1  C   UNL A   1      41.743  19.692  26.845  1.00  0.00     0.202 C 
ENDROOT
BRANCH   1   2
ATOM      2  O   UNL A   1      43.083  19.617  26.366  1.00  0.00    -0.374 OA
BRANCH   2   3
ATOM      3  C   UNL A   1      43.342  18.602  25.388  1.00  0.00     0.202 C 
BRANCH   3   4
ATOM      4  C   UNL A   1      44.341  19.003  24.297  1.00  0.00     0.261 C 
BRANCH   4   5
ATOM      5  O   UNL A   1      45.310  19.920  24.848  1.00  0.00    -0.463 OA
BRANCH   5   6
ATOM      6  C   UNL A   1      45.254  21.205  24.439  1.00  0.00     0.315 C 
ATOM      7  O   UNL A   1      44.529  21.609  23.534  1.00  0.00    -0.252 OA
BRANCH   6   8
ATOM      8  C   UNL A   1      46.063  22.171  25.292  1.00  0.00     0.162 C 
ATOM      9  C   UNL A   1      44.044  22.817  26.882  1.00  0.00     0.076 C 
ATOM     10  C   UNL A   1      45.540  22.848  26.576  1.00  0.00     0.195 C 
ATOM     11  N   UNL A   1      45.935  24.268  26.479  1.00  0.00    -0.328 N 
ATOM     12  C   UNL A   1      46.570  23.311  24.402  1.00  0.00     0.083 C 
ATOM     13  C   UNL A   1      46.106  24.590  25.072  1.00  0.00     0.263 C 
ATOM     14  H   UNL A   1      45.174  24.831  26.859  1.00  0.00     0.348 HD
BRANCH  11  15
ATOM     15  C   UNL A   1      46.992  24.730  27.378  1.00  0.00     0.299 C 
BRANCH  15  16
ATOM     16  C   UNL A   1      46.554  25.351  28.686  1.00  0.00     0.012 A 
ATOM     17  C   UNL A   1      47.303  26.385  29.268  1.00  0.00     0.052 A 
ATOM     18  C   UNL A   1      45.389  24.920  29.342  1.00  0.00     0.052 A 
ATOM     19  C   UNL A   1      46.863  26.995  30.444  1.00  0.00     0.162 A 
ATOM     20  C   UNL A   1      44.946  25.563  30.494  1.00  0.00     0.162 A 
ATOM     21  F   UNL A   1      47.600  27.974  30.984  1.00  0.00    -0.204 F 
ATOM     22  C   UNL A   1      45.678  26.601  31.047  1.00  0.00     0.194 A 
ATOM     23  F   UNL A   1      43.792  25.174  31.056  1.00  0.00    -0.204 F 
ATOM     24  F   UNL A   1      45.245  27.216  32.157  1.00  0.00    -0.200 F 
ENDBRANCH  15  16
ENDBRANCH  11  15
ENDBRANCH   6   8
ENDBRANCH   5   6
ENDBRANCH   4   5
ENDBRANCH   3   4
ENDBRANCH   2   3
ENDBRANCH   1   2
BRANCH   1  25
ATOM     25  C   UNL A   1      40.833  20.692  26.128  1.00  0.00     0.261 C 
BRANCH  25  26
ATOM     26  O   UNL A   1      39.988  21.372  27.068  1.00  0.00    -0.460 OA
BRANCH  26  27
ATOM     27  C   UNL A   1      39.329  22.426  26.542  1.00  0.00     0.338 C 
ATOM     28  O   UNL A   1      38.451  22.391  25.688  1.00  0.00    -0.246 OA
BRANCH  27  29
ATOM     29  C   UNL A   1      39.678  23.663  27.262  1.00  0.00     0.060 A 
ATOM     30  C   UNL A   1      38.996  24.820  26.873  1.00  0.00     0.016 A 
ATOM     31  C   UNL A   1      40.679  23.718  28.238  1.00  0.00     0.016 A 
ATOM     32  C   UNL A   1      39.389  26.054  27.371  1.00  0.00     0.010 A 
ATOM     33  C   UNL A   1      41.068  24.962  28.745  1.00  0.00     0.010 A 
ATOM     34  C   UNL A   1      40.468  26.137  28.261  1.00  0.00    -0.014 A 
BRANCH  34  35
ATOM     35  C   UNL A   1      41.073  27.470  28.495  1.00  0.00     0.031 A 
ATOM     36  C   UNL A   1      42.417  27.770  27.887  1.00  0.00     0.074 A 
ATOM     37  C   UNL A   1      40.378  28.429  29.132  1.00  0.00     0.049 A 
ATOM     38  N   UNL A   1      43.080  28.898  27.859  1.00  0.00    -0.248 NA
ATOM     39  C   UNL A   1      43.107  26.654  27.217  1.00  0.00     0.031 C 
ATOM     40  C   UNL A   1      39.049  28.261  29.722  1.00  0.00     0.029 A 
ATOM     41  N   UNL A   1      40.687  29.744  29.365  1.00  0.00    -0.354 N 
ATOM     42  C   UNL A   1      44.258  28.627  27.172  1.00  0.00     0.074 A 
ATOM     43  C   UNL A   1      44.243  27.220  26.840  1.00  0.00     0.031 C 
ATOM     44  C   UNL A   1      38.648  29.437  30.233  1.00  0.00     0.029 A 
ATOM     45  C   UNL A   1      39.699  30.431  30.029  1.00  0.00     0.049 A 
ATOM     46  H   UNL A   1      41.534  30.158  29.083  1.00  0.00     0.167 HD
ATOM     47  C   UNL A   1      45.258  29.476  26.835  1.00  0.00     0.031 A 
ATOM     48  C   UNL A   1      39.650  31.717  30.426  1.00  0.00     0.031 A 
ATOM     49  C   UNL A   1      45.270  30.873  27.177  1.00  0.00     0.049 A 
ATOM     50  C   UNL A   1      40.799  32.630  30.087  1.00  0.00     0.074 A 
ATOM     51  C   UNL A   1      46.228  31.826  26.877  1.00  0.00     0.029 A 
ATOM     52  N   UNL A   1      44.276  31.518  27.898  1.00  0.00    -0.354 N 
ATOM     53  N   UNL A   1      41.895  32.363  29.416  1.00  0.00    -0.248 NA
ATOM     54  C   UNL A   1      40.693  34.022  30.542  1.00  0.00     0.031 C 
ATOM     55  C   UNL A   1      45.842  33.032  27.469  1.00  0.00     0.029 A 
ATOM     56  C   UNL A   1      44.609  32.849  28.077  1.00  0.00     0.049 A 
ATOM     57  H   UNL A   1      43.455  31.092  28.233  1.00  0.00     0.167 HD
ATOM     58  C   UNL A   1      42.597  33.563  29.344  1.00  0.00     0.074 A 
ATOM     59  C   UNL A   1      41.790  34.557  30.023  1.00  0.00     0.031 C 
ATOM     60  C   UNL A   1      43.797  33.821  28.766  1.00  0.00     0.031 A 
BRANCH  47  61
ATOM     61  C   UNL A   1      46.437  28.904  26.090  1.00  0.00    -0.014 A 
ATOM     62  C   UNL A   1      47.696  28.768  26.705  1.00  0.00     0.010 A 
ATOM     63  C   UNL A   1      46.276  28.470  24.762  1.00  0.00     0.010 A 
ATOM     64  C   UNL A   1      48.779  28.245  25.992  1.00  0.00     0.020 A 
ATOM     65  C   UNL A   1      47.349  27.918  24.055  1.00  0.00     0.020 A 
ATOM     66  C   UNL A   1      48.598  27.826  24.670  1.00  0.00     0.054 A 
BRANCH  66  67
ATOM     67  S   UNL A   1      50.015  27.131  23.774  1.00  0.00     0.124 S 
ATOM     68  O   UNL A   1      49.359  26.403  22.691  1.00  0.00    -0.237 OA
ATOM     69  O   UNL A   1      50.754  28.325  23.371  1.00  0.00    -0.237 OA
ATOM     70  O   UNL A   1      50.682  26.297  24.771  1.00  0.00    -0.744 OA
ENDBRANCH  66  67
ENDBRANCH  47  61
BRANCH  48  71
ATOM     71  C   UNL A   1      38.472  32.214  31.190  1.00  0.00    -0.014 A 
ATOM     72  C   UNL A   1      38.438  32.149  32.594  1.00  0.00     0.010 A 
ATOM     73  C   UNL A   1      37.373  32.765  30.504  1.00  0.00     0.010 A 
ATOM     74  C   UNL A   1      37.320  32.609  33.296  1.00  0.00     0.020 A 
ATOM     75  C   UNL A   1      36.267  33.252  31.204  1.00  0.00     0.020 A 
ATOM     76  C   UNL A   1      36.242  33.160  32.596  1.00  0.00     0.054 A 
BRANCH  76  77
ATOM     77  S   UNL A   1      34.823  33.797  33.530  1.00  0.00     0.124 S 
ATOM     78  O   UNL A   1      34.847  35.216  33.190  1.00  0.00    -0.237 OA
ATOM     79  O   UNL A   1      33.711  33.030  32.974  1.00  0.00    -0.237 OA
ATOM     80  O   UNL A   1      35.156  33.480  34.917  1.00  0.00    -0.744 OA
ENDBRANCH  76  77
ENDBRANCH  48  71
BRANCH  60  81
ATOM     81  C   UNL A   1      44.292  35.243  28.816  1.00  0.00    -0.014 A 
ATOM     82  C   UNL A   1      45.106  35.701  29.867  1.00  0.00     0.010 A 
ATOM     83  C   UNL A   1      43.959  36.127  27.773  1.00  0.00     0.010 A 
ATOM     84  C   UNL A   1      45.531  37.031  29.903  1.00  0.00     0.020 A 
ATOM     85  C   UNL A   1      44.409  37.449  27.787  1.00  0.00     0.020 A 
ATOM     86  C   UNL A   1      45.175  37.898  28.865  1.00  0.00     0.054 A 
BRANCH  86  87
ATOM     87  S   UNL A   1      45.747  39.618  28.929  1.00  0.00     0.124 S 
ATOM     88  O   UNL A   1      46.847  39.536  29.887  1.00  0.00    -0.237 OA
ATOM     89  O   UNL A   1      46.136  39.878  27.545  1.00  0.00    -0.237 OA
ATOM     90  O   UNL A   1      44.574  40.356  29.390  1.00  0.00    -0.744 OA
ENDBRANCH  86  87
ENDBRANCH  60  81
ENDBRANCH  34  35
ENDBRANCH  27  29
ENDBRANCH  26  27
ENDBRANCH  25  26
ENDBRANCH   1  25
TORSDOF 19
ENDMDL
