MODEL 1
REMARK VINA RESULT:     -10.3      0.000      0.000
REMARK SMILES C[C@@H](C(=O)OCCOCCOC(=O)c1ccc(-c2c3nc(c(-c4ccc(S(=O)(=O)[O-])cc4)c4ccc([nH]4)c(-c4ccc(S(=O)(=O)[O-])cc4)c4nc(c(-c5ccc(S(=O)(=O)[O-])cc5)c5ccc2[nH]5)C=C4)C=C3)cc1)c1ccc(-c2cccc(OC(=O)NCCC3CCCCC3)c2)c(F)c1
REMARK SMILES IDX 6 1 5 2 3 3 4 4 2 5 1 6 74 7 75 8 98 9 76 10 96 11 77 12
REMARK SMILES IDX 97 13 78 14 79 15 95 16 80 17 82 18 81 19 83 20 84 21 85 22
REMARK SMILES IDX 86 23 87 25 88 26 89 27 90 28 94 29 91 30 93 31 92 32 7 33
REMARK SMILES IDX 8 34 9 35 10 36 11 37 12 38 13 39 14 40 15 41 73 42 16 43
REMARK SMILES IDX 72 44 17 45 18 46 19 47 66 48 20 49 71 50 65 51 67 52 21 53
REMARK SMILES IDX 70 54 64 55 63 56 22 58 52 59 33 60 51 61 34 62 37 63 50 64
REMARK SMILES IDX 68 65 35 66 36 67 49 69 69 70 38 71 23 72 24 73 32 74 25 75
REMARK SMILES IDX 31 76 26 77 27 78 28 79 29 80 30 81 53 82 54 83 62 84 55 85
REMARK SMILES IDX 61 86 56 87 57 88 58 89 59 90 60 91 39 92 40 93 48 94 41 95
REMARK SMILES IDX 47 96 42 97 43 98 44 99 45 100 46 101
REMARK H PARENT 86 24 67 57 37 68
REMARK Flexibility Score: inf
ROOT
ATOM      1  C   UNL A   1      43.738  19.148  25.221  1.00  0.00     0.261 C 
ENDROOT
BRANCH   1   2
ATOM      2  O   UNL A   1      42.454  19.781  25.307  1.00  0.00    -0.463 OA
BRANCH   2   3
ATOM      3  C   UNL A   1      41.969  19.974  26.566  1.00  0.00     0.313 C 
ATOM      4  O   UNL A   1      41.926  19.100  27.425  1.00  0.00    -0.252 OA
BRANCH   3   5
ATOM      5  C   UNL A   1      41.527  21.427  26.821  1.00  0.00     0.126 C 
ATOM      6  C   UNL A   1      41.768  21.848  28.281  1.00  0.00     0.025 C 
BRANCH   5   7
ATOM      7  C   UNL A   1      40.116  21.751  26.295  1.00  0.00    -0.031 A 
ATOM      8  C   UNL A   1      39.337  20.814  25.590  1.00  0.00     0.005 A 
ATOM      9  C   UNL A   1      39.511  22.988  26.575  1.00  0.00     0.044 A 
ATOM     10  C   UNL A   1      38.028  21.111  25.164  1.00  0.00     0.012 A 
ATOM     11  C   UNL A   1      38.216  23.281  26.142  1.00  0.00     0.131 A 
ATOM     12  C   UNL A   1      37.447  22.357  25.428  1.00  0.00     0.018 A 
ATOM     13  F   UNL A   1      37.710  24.488  26.440  1.00  0.00    -0.206 F 
BRANCH  12  14
ATOM     14  C   UNL A   1      36.101  22.706  24.948  1.00  0.00    -0.012 A 
ATOM     15  C   UNL A   1      35.860  23.081  23.617  1.00  0.00     0.009 A 
ATOM     16  C   UNL A   1      35.009  22.646  25.832  1.00  0.00     0.056 A 
ATOM     17  C   UNL A   1      34.564  23.372  23.180  1.00  0.00     0.004 A 
ATOM     18  C   UNL A   1      33.720  22.960  25.404  1.00  0.00     0.133 A 
ATOM     19  C   UNL A   1      33.493  23.310  24.073  1.00  0.00     0.047 A 
BRANCH  18  20
ATOM     20  O   UNL A   1      32.573  22.944  26.239  1.00  0.00    -0.410 OA
BRANCH  20  21
ATOM     21  C   UNL A   1      31.312  22.506  25.844  1.00  0.00     0.412 C 
ATOM     22  O   UNL A   1      30.986  21.353  25.575  1.00  0.00    -0.224 OA
ATOM     23  N   UNL A   1      30.370  23.489  25.794  1.00  0.00    -0.321 N 
ATOM     24  H   UNL A   1      29.465  23.204  25.533  1.00  0.00     0.167 HD
BRANCH  23  25
ATOM     25  C   UNL A   1      30.527  24.899  26.074  1.00  0.00     0.119 C 
BRANCH  25  26
ATOM     26  C   UNL A   1      30.234  25.752  24.839  1.00  0.00     0.025 C 
BRANCH  26  27
ATOM     27  C   UNL A   1      31.359  26.739  24.455  1.00  0.00    -0.009 C 
ATOM     28  C   UNL A   1      30.905  28.205  24.560  1.00  0.00     0.003 C 
ATOM     29  C   UNL A   1      32.596  26.491  25.336  1.00  0.00     0.003 C 
ATOM     30  C   UNL A   1      32.042  29.183  24.269  1.00  0.00     0.000 C 
ATOM     31  C   UNL A   1      33.725  27.468  25.017  1.00  0.00     0.000 C 
ATOM     32  C   UNL A   1      33.260  28.914  25.145  1.00  0.00     0.000 C 
ENDBRANCH  26  27
ENDBRANCH  25  26
ENDBRANCH  23  25
ENDBRANCH  20  21
ENDBRANCH  18  20
ENDBRANCH  12  14
ENDBRANCH   5   7
ENDBRANCH   3   5
ENDBRANCH   2   3
ENDBRANCH   1   2
BRANCH   1  33
ATOM     33  C   UNL A   1      44.871  20.112  25.588  1.00  0.00     0.202 C 
BRANCH  33  34
ATOM     34  O   UNL A   1      44.758  21.465  25.158  1.00  0.00    -0.374 OA
BRANCH  34  35
ATOM     35  C   UNL A   1      45.761  22.394  25.569  1.00  0.00     0.202 C 
BRANCH  35  36
ATOM     36  C   UNL A   1      45.408  23.889  25.612  1.00  0.00     0.261 C 
BRANCH  36  37
ATOM     37  O   UNL A   1      44.450  24.231  26.631  1.00  0.00    -0.460 OA
BRANCH  37  38
ATOM     38  C   UNL A   1      43.259  24.677  26.155  1.00  0.00     0.338 C 
ATOM     39  O   UNL A   1      42.639  24.243  25.199  1.00  0.00    -0.246 OA
BRANCH  38  40
ATOM     40  C   UNL A   1      42.679  25.672  27.075  1.00  0.00     0.060 A 
ATOM     41  C   UNL A   1      43.319  26.916  27.175  1.00  0.00     0.016 A 
ATOM     42  C   UNL A   1      41.604  25.359  27.906  1.00  0.00     0.016 A 
ATOM     43  C   UNL A   1      42.912  27.836  28.138  1.00  0.00     0.010 A 
ATOM     44  C   UNL A   1      41.202  26.283  28.880  1.00  0.00     0.010 A 
ATOM     45  C   UNL A   1      41.877  27.510  29.024  1.00  0.00    -0.014 A 
BRANCH  45  46
ATOM     46  C   UNL A   1      41.599  28.395  30.182  1.00  0.00     0.031 A 
ATOM     47  C   UNL A   1      42.456  28.280  31.415  1.00  0.00     0.074 A 
ATOM     48  C   UNL A   1      40.619  29.314  30.125  1.00  0.00     0.049 A 
ATOM     49  N   UNL A   1      42.365  28.926  32.548  1.00  0.00    -0.248 NA
ATOM     50  C   UNL A   1      43.559  27.307  31.363  1.00  0.00     0.031 C 
ATOM     51  C   UNL A   1      39.755  29.557  28.970  1.00  0.00     0.029 A 
ATOM     52  N   UNL A   1      40.183  30.214  31.065  1.00  0.00    -0.354 N 
ATOM     53  C   UNL A   1      43.390  28.432  33.349  1.00  0.00     0.074 A 
ATOM     54  C   UNL A   1      44.068  27.409  32.582  1.00  0.00     0.031 C 
ATOM     55  C   UNL A   1      38.886  30.536  29.273  1.00  0.00     0.029 A 
ATOM     56  C   UNL A   1      39.105  30.961  30.654  1.00  0.00     0.049 A 
ATOM     57  H   UNL A   1      40.603  30.315  31.950  1.00  0.00     0.167 HD
ATOM     58  C   UNL A   1      43.740  28.802  34.605  1.00  0.00     0.031 A 
ATOM     59  C   UNL A   1      38.362  31.865  31.323  1.00  0.00     0.031 A 
ATOM     60  C   UNL A   1      43.052  29.810  35.368  1.00  0.00     0.049 A 
ATOM     61  C   UNL A   1      38.718  32.203  32.748  1.00  0.00     0.074 A 
ATOM     62  C   UNL A   1      43.334  30.264  36.645  1.00  0.00     0.029 A 
ATOM     63  N   UNL A   1      41.941  30.517  34.931  1.00  0.00    -0.354 N 
ATOM     64  N   UNL A   1      39.700  31.739  33.485  1.00  0.00    -0.248 NA
ATOM     65  C   UNL A   1      37.871  33.192  33.428  1.00  0.00     0.031 C 
ATOM     66  C   UNL A   1      42.354  31.195  37.005  1.00  0.00     0.029 A 
ATOM     67  C   UNL A   1      41.507  31.380  35.924  1.00  0.00     0.049 A 
ATOM     68  H   UNL A   1      41.523  30.419  34.045  1.00  0.00     0.167 HD
ATOM     69  C   UNL A   1      39.606  32.404  34.704  1.00  0.00     0.074 A 
ATOM     70  C   UNL A   1      38.481  33.310  34.599  1.00  0.00     0.031 C 
ATOM     71  C   UNL A   1      40.383  32.277  35.809  1.00  0.00     0.031 A 
BRANCH  58  72
ATOM     72  C   UNL A   1      44.899  28.082  35.247  1.00  0.00    -0.014 A 
ATOM     73  C   UNL A   1      44.710  26.897  35.980  1.00  0.00     0.010 A 
ATOM     74  C   UNL A   1      46.205  28.581  35.082  1.00  0.00     0.010 A 
ATOM     75  C   UNL A   1      45.799  26.248  36.571  1.00  0.00     0.020 A 
ATOM     76  C   UNL A   1      47.299  27.918  35.644  1.00  0.00     0.020 A 
ATOM     77  C   UNL A   1      47.087  26.764  36.400  1.00  0.00     0.054 A 
BRANCH  77  78
ATOM     78  S   UNL A   1      48.482  25.891  37.163  1.00  0.00     0.124 S 
ATOM     79  O   UNL A   1      49.370  26.996  37.520  1.00  0.00    -0.237 OA
ATOM     80  O   UNL A   1      47.852  25.204  38.287  1.00  0.00    -0.237 OA
ATOM     81  O   UNL A   1      48.972  25.020  36.098  1.00  0.00    -0.744 OA
ENDBRANCH  77  78
ENDBRANCH  58  72
BRANCH  59  82
ATOM     82  C   UNL A   1      37.189  32.496  30.657  1.00  0.00    -0.014 A 
ATOM     83  C   UNL A   1      35.902  31.943  30.784  1.00  0.00     0.010 A 
ATOM     84  C   UNL A   1      37.356  33.667  29.894  1.00  0.00     0.010 A 
ATOM     85  C   UNL A   1      34.809  32.542  30.149  1.00  0.00     0.020 A 
ATOM     86  C   UNL A   1      36.261  34.285  29.285  1.00  0.00     0.020 A 
ATOM     87  C   UNL A   1      34.996  33.712  29.408  1.00  0.00     0.054 A 
BRANCH  87  88
ATOM     88  S   UNL A   1      33.552  34.501  28.641  1.00  0.00     0.124 S 
ATOM     89  O   UNL A   1      32.690  34.743  29.793  1.00  0.00    -0.237 OA
ATOM     90  O   UNL A   1      34.136  35.690  28.025  1.00  0.00    -0.237 OA
ATOM     91  O   UNL A   1      33.073  33.492  27.699  1.00  0.00    -0.744 OA
ENDBRANCH  87  88
ENDBRANCH  59  82
BRANCH  71  92
ATOM     92  C   UNL A   1      40.073  33.166  36.986  1.00  0.00    -0.014 A 
ATOM     93  C   UNL A   1      39.074  32.832  37.918  1.00  0.00     0.010 A 
ATOM     94  C   UNL A   1      40.838  34.330  37.193  1.00  0.00     0.010 A 
ATOM     95  C   UNL A   1      38.823  33.662  39.014  1.00  0.00     0.020 A 
ATOM     96  C   UNL A   1      40.612  35.146  38.304  1.00  0.00     0.020 A 
ATOM     97  C   UNL A   1      39.596  34.813  39.202  1.00  0.00     0.054 A 
BRANCH  97  98
ATOM     98  S   UNL A   1      39.277  35.850  40.656  1.00  0.00     0.124 S 
ATOM     99  O   UNL A   1      40.629  36.190  41.090  1.00  0.00    -0.237 OA
ATOM    100  O   UNL A   1      38.500  36.954  40.097  1.00  0.00    -0.237 OA
ATOM    101  O   UNL A   1      38.538  34.969  41.556  1.00  0.00    -0.744 OA
ENDBRANCH  97  98
ENDBRANCH  71  92
ENDBRANCH  45  46
ENDBRANCH  38  40
ENDBRANCH  37  38
ENDBRANCH  36  37
ENDBRANCH  35  36
ENDBRANCH  34  35
ENDBRANCH  33  34
ENDBRANCH   1  33
TORSDOF 24
ENDMDL
MODEL 2
REMARK VINA RESULT:      -9.8      5.492     10.573
REMARK SMILES C[C@@H](C(=O)OCCOCCOC(=O)c1ccc(-c2c3nc(c(-c4ccc(S(=O)(=O)[O-])cc4)c4ccc([nH]4)c(-c4ccc(S(=O)(=O)[O-])cc4)c4nc(c(-c5ccc(S(=O)(=O)[O-])cc5)c5ccc2[nH]5)C=C4)C=C3)cc1)c1ccc(-c2cccc(OC(=O)NCCC3CCCCC3)c2)c(F)c1
REMARK SMILES IDX 6 1 5 2 3 3 4 4 2 5 1 6 74 7 75 8 98 9 76 10 96 11 77 12
REMARK SMILES IDX 97 13 78 14 79 15 95 16 80 17 82 18 81 19 83 20 84 21 85 22
REMARK SMILES IDX 86 23 87 25 88 26 89 27 90 28 94 29 91 30 93 31 92 32 7 33
REMARK SMILES IDX 8 34 9 35 10 36 11 37 12 38 13 39 14 40 15 41 73 42 16 43
REMARK SMILES IDX 72 44 17 45 18 46 19 47 66 48 20 49 71 50 65 51 67 52 21 53
REMARK SMILES IDX 70 54 64 55 63 56 22 58 52 59 33 60 51 61 34 62 37 63 50 64
REMARK SMILES IDX 68 65 35 66 36 67 49 69 69 70 38 71 23 72 24 73 32 74 25 75
REMARK SMILES IDX 31 76 26 77 27 78 28 79 29 80 30 81 53 82 54 83 62 84 55 85
REMARK SMILES IDX 61 86 56 87 57 88 58 89 59 90 60 91 39 92 40 93 48 94 41 95
REMARK SMILES IDX 47 96 42 97 43 98 44 99 45 100 46 101
REMARK H PARENT 86 24 67 57 37 68
REMARK Flexibility Score: inf
ROOT
ATOM      1  C   UNL A   1      35.334  19.955  25.004  1.00  0.00     0.261 C 
ENDROOT
BRANCH   1   2
ATOM      2  O   UNL A   1      34.941  18.751  24.329  1.00  0.00    -0.463 OA
BRANCH   2   3
ATOM      3  C   UNL A   1      33.735  18.232  24.692  1.00  0.00     0.313 C 
ATOM      4  O   UNL A   1      33.556  17.556  25.700  1.00  0.00    -0.252 OA
BRANCH   3   5
ATOM      5  C   UNL A   1      32.600  18.626  23.730  1.00  0.00     0.126 C 
ATOM      6  C   UNL A   1      32.879  18.151  22.294  1.00  0.00     0.025 C 
BRANCH   5   7
ATOM      7  C   UNL A   1      32.178  20.104  23.836  1.00  0.00    -0.031 A 
ATOM      8  C   UNL A   1      31.951  20.911  22.705  1.00  0.00     0.005 A 
ATOM      9  C   UNL A   1      31.921  20.689  25.088  1.00  0.00     0.044 A 
ATOM     10  C   UNL A   1      31.515  22.244  22.823  1.00  0.00     0.012 A 
ATOM     11  C   UNL A   1      31.498  22.016  25.200  1.00  0.00     0.131 A 
ATOM     12  C   UNL A   1      31.287  22.823  24.077  1.00  0.00     0.018 A 
ATOM     13  F   UNL A   1      31.283  22.507  26.430  1.00  0.00    -0.206 F 
BRANCH  12  14
ATOM     14  C   UNL A   1      30.881  24.228  24.224  1.00  0.00    -0.012 A 
ATOM     15  C   UNL A   1      30.387  24.737  25.436  1.00  0.00     0.009 A 
ATOM     16  C   UNL A   1      31.003  25.107  23.133  1.00  0.00     0.056 A 
ATOM     17  C   UNL A   1      30.042  26.087  25.555  1.00  0.00     0.004 A 
ATOM     18  C   UNL A   1      30.636  26.447  23.244  1.00  0.00     0.133 A 
ATOM     19  C   UNL A   1      30.168  26.943  24.461  1.00  0.00     0.047 A 
BRANCH  18  20
ATOM     20  O   UNL A   1      30.712  27.388  22.185  1.00  0.00    -0.410 OA
BRANCH  20  21
ATOM     21  C   UNL A   1      30.833  28.765  22.355  1.00  0.00     0.412 C 
ATOM     22  O   UNL A   1      29.917  29.570  22.502  1.00  0.00    -0.224 OA
ATOM     23  N   UNL A   1      32.119  29.213  22.384  1.00  0.00    -0.321 N 
ATOM     24  H   UNL A   1      32.233  30.181  22.519  1.00  0.00     0.167 HD
BRANCH  23  25
ATOM     25  C   UNL A   1      33.339  28.450  22.241  1.00  0.00     0.119 C 
BRANCH  25  26
ATOM     26  C   UNL A   1      33.961  28.127  23.601  1.00  0.00     0.025 C 
BRANCH  26  27
ATOM     27  C   UNL A   1      33.756  26.670  24.073  1.00  0.00    -0.009 C 
ATOM     28  C   UNL A   1      34.629  25.678  23.286  1.00  0.00     0.003 C 
ATOM     29  C   UNL A   1      34.040  26.564  25.582  1.00  0.00     0.003 C 
ATOM     30  C   UNL A   1      34.495  24.249  23.812  1.00  0.00     0.000 C 
ATOM     31  C   UNL A   1      33.885  25.132  26.088  1.00  0.00     0.000 C 
ATOM     32  C   UNL A   1      34.771  24.168  25.310  1.00  0.00     0.000 C 
ENDBRANCH  26  27
ENDBRANCH  25  26
ENDBRANCH  23  25
ENDBRANCH  20  21
ENDBRANCH  18  20
ENDBRANCH  12  14
ENDBRANCH   5   7
ENDBRANCH   3   5
ENDBRANCH   2   3
ENDBRANCH   1   2
BRANCH   1  33
ATOM     33  C   UNL A   1      36.847  20.181  24.924  1.00  0.00     0.202 C 
BRANCH  33  34
ATOM     34  O   UNL A   1      37.324  21.522  24.987  1.00  0.00    -0.374 OA
BRANCH  34  35
ATOM     35  C   UNL A   1      38.443  21.805  25.826  1.00  0.00     0.202 C 
BRANCH  35  36
ATOM     36  C   UNL A   1      39.571  20.767  25.926  1.00  0.00     0.261 C 
BRANCH  36  37
ATOM     37  O   UNL A   1      40.166  20.679  27.235  1.00  0.00    -0.460 OA
BRANCH  37  38
ATOM     38  C   UNL A   1      41.461  20.271  27.236  1.00  0.00     0.338 C 
ATOM     39  O   UNL A   1      41.876  19.138  27.058  1.00  0.00    -0.246 OA
BRANCH  38  40
ATOM     40  C   UNL A   1      42.366  21.434  27.294  1.00  0.00     0.060 A 
ATOM     41  C   UNL A   1      42.731  21.911  28.561  1.00  0.00     0.016 A 
ATOM     42  C   UNL A   1      42.756  22.114  26.141  1.00  0.00     0.016 A 
ATOM     43  C   UNL A   1      43.454  23.096  28.680  1.00  0.00     0.010 A 
ATOM     44  C   UNL A   1      43.475  23.310  26.264  1.00  0.00     0.010 A 
ATOM     45  C   UNL A   1      43.796  23.824  27.535  1.00  0.00    -0.014 A 
BRANCH  45  46
ATOM     46  C   UNL A   1      44.364  25.188  27.677  1.00  0.00     0.031 A 
ATOM     47  C   UNL A   1      43.479  26.305  28.165  1.00  0.00     0.074 A 
ATOM     48  C   UNL A   1      45.661  25.423  27.410  1.00  0.00     0.049 A 
ATOM     49  N   UNL A   1      43.759  27.571  28.327  1.00  0.00    -0.248 NA
ATOM     50  C   UNL A   1      42.095  25.944  28.514  1.00  0.00     0.031 C 
ATOM     51  C   UNL A   1      46.631  24.416  26.980  1.00  0.00     0.029 A 
ATOM     52  N   UNL A   1      46.385  26.587  27.458  1.00  0.00    -0.354 N 
ATOM     53  C   UNL A   1      42.587  28.162  28.786  1.00  0.00     0.074 A 
ATOM     54  C   UNL A   1      41.584  27.121  28.844  1.00  0.00     0.031 C 
ATOM     55  C   UNL A   1      47.822  25.008  26.795  1.00  0.00     0.029 A 
ATOM     56  C   UNL A   1      47.691  26.441  27.055  1.00  0.00     0.049 A 
ATOM     57  H   UNL A   1      46.006  27.446  27.754  1.00  0.00     0.167 HD
ATOM     58  C   UNL A   1      42.367  29.453  29.135  1.00  0.00     0.031 A 
ATOM     59  C   UNL A   1      48.662  27.360  26.887  1.00  0.00     0.031 A 
ATOM     60  C   UNL A   1      43.364  30.488  29.060  1.00  0.00     0.049 A 
ATOM     61  C   UNL A   1      48.373  28.805  27.203  1.00  0.00     0.074 A 
ATOM     62  C   UNL A   1      43.245  31.825  29.399  1.00  0.00     0.029 A 
ATOM     63  N   UNL A   1      44.664  30.308  28.610  1.00  0.00    -0.354 N 
ATOM     64  N   UNL A   1      47.265  29.345  27.652  1.00  0.00    -0.248 NA
ATOM     65  C   UNL A   1      49.469  29.762  26.997  1.00  0.00     0.031 C 
ATOM     66  C   UNL A   1      44.449  32.465  29.090  1.00  0.00     0.029 A 
ATOM     67  C   UNL A   1      45.346  31.513  28.632  1.00  0.00     0.049 A 
ATOM     68  H   UNL A   1      45.045  29.448  28.317  1.00  0.00     0.167 HD
ATOM     69  C   UNL A   1      47.541  30.700  27.811  1.00  0.00     0.074 A 
ATOM     70  C   UNL A   1      48.923  30.892  27.424  1.00  0.00     0.031 C 
ATOM     71  C   UNL A   1      46.723  31.694  28.242  1.00  0.00     0.031 A 
BRANCH  58  72
ATOM     72  C   UNL A   1      40.980  29.826  29.592  1.00  0.00    -0.014 A 
ATOM     73  C   UNL A   1      39.908  29.918  28.686  1.00  0.00     0.010 A 
ATOM     74  C   UNL A   1      40.736  30.052  30.961  1.00  0.00     0.010 A 
ATOM     75  C   UNL A   1      38.631  30.270  29.132  1.00  0.00     0.020 A 
ATOM     76  C   UNL A   1      39.454  30.372  31.414  1.00  0.00     0.020 A 
ATOM     77  C   UNL A   1      38.412  30.496  30.494  1.00  0.00     0.054 A 
BRANCH  77  78
ATOM     78  S   UNL A   1      36.740  30.933  31.046  1.00  0.00     0.124 S 
ATOM     79  O   UNL A   1      36.207  31.623  29.873  1.00  0.00    -0.237 OA
ATOM     80  O   UNL A   1      36.147  29.630  31.330  1.00  0.00    -0.237 OA
ATOM     81  O   UNL A   1      36.968  31.780  32.214  1.00  0.00    -0.744 OA
ENDBRANCH  77  78
ENDBRANCH  58  72
BRANCH  59  82
ATOM     82  C   UNL A   1      49.995  26.942  26.369  1.00  0.00    -0.014 A 
ATOM     83  C   UNL A   1      50.354  27.170  25.029  1.00  0.00     0.010 A 
ATOM     84  C   UNL A   1      50.919  26.314  27.226  1.00  0.00     0.010 A 
ATOM     85  C   UNL A   1      51.606  26.768  24.553  1.00  0.00     0.020 A 
ATOM     86  C   UNL A   1      52.183  25.940  26.762  1.00  0.00     0.020 A 
ATOM     87  C   UNL A   1      52.514  26.160  25.425  1.00  0.00     0.054 A 
BRANCH  87  88
ATOM     88  S   UNL A   1      54.154  25.698  24.798  1.00  0.00     0.124 S 
ATOM     89  O   UNL A   1      54.036  24.249  24.675  1.00  0.00    -0.237 OA
ATOM     90  O   UNL A   1      54.227  26.437  23.540  1.00  0.00    -0.237 OA
ATOM     91  O   UNL A   1      55.062  26.168  25.841  1.00  0.00    -0.744 OA
ENDBRANCH  87  88
ENDBRANCH  59  82
BRANCH  71  92
ATOM     92  C   UNL A   1      47.309  33.078  28.359  1.00  0.00    -0.014 A 
ATOM     93  C   UNL A   1      47.959  33.505  29.530  1.00  0.00     0.010 A 
ATOM     94  C   UNL A   1      47.256  33.946  27.252  1.00  0.00     0.010 A 
ATOM     95  C   UNL A   1      48.515  34.786  29.604  1.00  0.00     0.020 A 
ATOM     96  C   UNL A   1      47.839  35.214  27.310  1.00  0.00     0.020 A 
ATOM     97  C   UNL A   1      48.453  35.632  28.491  1.00  0.00     0.054 A 
BRANCH  97  98
ATOM     98  S   UNL A   1      49.220  37.272  28.599  1.00  0.00     0.124 S 
ATOM     99  O   UNL A   1      49.833  37.236  29.923  1.00  0.00    -0.237 OA
ATOM    100  O   UNL A   1      50.152  37.264  27.474  1.00  0.00    -0.237 OA
ATOM    101  O   UNL A   1      48.094  38.192  28.460  1.00  0.00    -0.744 OA
ENDBRANCH  97  98
ENDBRANCH  71  92
ENDBRANCH  45  46
ENDBRANCH  38  40
ENDBRANCH  37  38
ENDBRANCH  36  37
ENDBRANCH  35  36
ENDBRANCH  34  35
ENDBRANCH  33  34
ENDBRANCH   1  33
TORSDOF 24
ENDMDL
MODEL 3
REMARK VINA RESULT:      -9.7      2.412      4.292
REMARK SMILES C[C@@H](C(=O)OCCOCCOC(=O)c1ccc(-c2c3nc(c(-c4ccc(S(=O)(=O)[O-])cc4)c4ccc([nH]4)c(-c4ccc(S(=O)(=O)[O-])cc4)c4nc(c(-c5ccc(S(=O)(=O)[O-])cc5)c5ccc2[nH]5)C=C4)C=C3)cc1)c1ccc(-c2cccc(OC(=O)NCCC3CCCCC3)c2)c(F)c1
REMARK SMILES IDX 6 1 5 2 3 3 4 4 2 5 1 6 74 7 75 8 98 9 76 10 96 11 77 12
REMARK SMILES IDX 97 13 78 14 79 15 95 16 80 17 82 18 81 19 83 20 84 21 85 22
REMARK SMILES IDX 86 23 87 25 88 26 89 27 90 28 94 29 91 30 93 31 92 32 7 33
REMARK SMILES IDX 8 34 9 35 10 36 11 37 12 38 13 39 14 40 15 41 73 42 16 43
REMARK SMILES IDX 72 44 17 45 18 46 19 47 66 48 20 49 71 50 65 51 67 52 21 53
REMARK SMILES IDX 70 54 64 55 63 56 22 58 52 59 33 60 51 61 34 62 37 63 50 64
REMARK SMILES IDX 68 65 35 66 36 67 49 69 69 70 38 71 23 72 24 73 32 74 25 75
REMARK SMILES IDX 31 76 26 77 27 78 28 79 29 80 30 81 53 82 54 83 62 84 55 85
REMARK SMILES IDX 61 86 56 87 57 88 58 89 59 90 60 91 39 92 40 93 48 94 41 95
REMARK SMILES IDX 47 96 42 97 43 98 44 99 45 100 46 101
REMARK H PARENT 86 24 67 57 37 68
REMARK Flexibility Score: inf
ROOT
ATOM      1  C   UNL A   1      37.511  20.836  24.702  1.00  0.00     0.261 C 
ENDROOT
BRANCH   1   2
ATOM      2  O   UNL A   1      36.638  21.652  25.496  1.00  0.00    -0.463 OA
BRANCH   2   3
ATOM      3  C   UNL A   1      35.322  21.300  25.487  1.00  0.00     0.313 C 
ATOM      4  O   UNL A   1      34.813  20.574  24.639  1.00  0.00    -0.252 OA
BRANCH   3   5
ATOM      5  C   UNL A   1      34.544  21.863  26.690  1.00  0.00     0.126 C 
ATOM      6  C   UNL A   1      33.473  20.877  27.188  1.00  0.00     0.025 C 
BRANCH   5   7
ATOM      7  C   UNL A   1      34.031  23.301  26.482  1.00  0.00    -0.031 A 
ATOM      8  C   UNL A   1      34.840  24.324  25.953  1.00  0.00     0.005 A 
ATOM      9  C   UNL A   1      32.690  23.630  26.742  1.00  0.00     0.044 A 
ATOM     10  C   UNL A   1      34.337  25.619  25.721  1.00  0.00     0.012 A 
ATOM     11  C   UNL A   1      32.199  24.919  26.519  1.00  0.00     0.131 A 
ATOM     12  C   UNL A   1      33.005  25.940  26.008  1.00  0.00     0.018 A 
ATOM     13  F   UNL A   1      30.909  25.158  26.801  1.00  0.00    -0.206 F 
BRANCH  12  14
ATOM     14  C   UNL A   1      32.475  27.299  25.821  1.00  0.00    -0.012 A 
ATOM     15  C   UNL A   1      32.259  28.168  26.901  1.00  0.00     0.009 A 
ATOM     16  C   UNL A   1      32.189  27.763  24.524  1.00  0.00     0.056 A 
ATOM     17  C   UNL A   1      31.787  29.468  26.689  1.00  0.00     0.004 A 
ATOM     18  C   UNL A   1      31.695  29.049  24.314  1.00  0.00     0.133 A 
ATOM     19  C   UNL A   1      31.506  29.910  25.395  1.00  0.00     0.047 A 
BRANCH  18  20
ATOM     20  O   UNL A   1      31.365  29.581  23.041  1.00  0.00    -0.410 OA
BRANCH  20  21
ATOM     21  C   UNL A   1      30.071  29.682  22.536  1.00  0.00     0.412 C 
ATOM     22  O   UNL A   1      29.558  30.673  22.023  1.00  0.00    -0.224 OA
ATOM     23  N   UNL A   1      29.349  28.530  22.616  1.00  0.00    -0.321 N 
ATOM     24  H   UNL A   1      28.435  28.570  22.252  1.00  0.00     0.167 HD
BRANCH  23  25
ATOM     25  C   UNL A   1      29.749  27.255  23.169  1.00  0.00     0.119 C 
BRANCH  25  26
ATOM     26  C   UNL A   1      30.601  26.458  22.179  1.00  0.00     0.025 C 
BRANCH  26  27
ATOM     27  C   UNL A   1      31.457  25.341  22.818  1.00  0.00    -0.009 C 
ATOM     28  C   UNL A   1      30.629  24.082  23.125  1.00  0.00     0.003 C 
ATOM     29  C   UNL A   1      32.643  25.000  21.900  1.00  0.00     0.003 C 
ATOM     30  C   UNL A   1      31.491  22.945  23.673  1.00  0.00     0.000 C 
ATOM     31  C   UNL A   1      33.499  23.874  22.474  1.00  0.00     0.000 C 
ATOM     32  C   UNL A   1      32.665  22.630  22.754  1.00  0.00     0.000 C 
ENDBRANCH  26  27
ENDBRANCH  25  26
ENDBRANCH  23  25
ENDBRANCH  20  21
ENDBRANCH  18  20
ENDBRANCH  12  14
ENDBRANCH   5   7
ENDBRANCH   3   5
ENDBRANCH   2   3
ENDBRANCH   1   2
BRANCH   1  33
ATOM     33  C   UNL A   1      38.697  20.313  25.520  1.00  0.00     0.202 C 
BRANCH  33  34
ATOM     34  O   UNL A   1      39.789  21.199  25.748  1.00  0.00    -0.374 OA
BRANCH  34  35
ATOM     35  C   UNL A   1      39.658  22.190  26.767  1.00  0.00     0.202 C 
BRANCH  35  36
ATOM     36  C   UNL A   1      40.612  23.394  26.751  1.00  0.00     0.261 C 
BRANCH  36  37
ATOM     37  O   UNL A   1      40.241  24.442  27.667  1.00  0.00    -0.460 OA
BRANCH  37  38
ATOM     38  C   UNL A   1      40.394  25.698  27.174  1.00  0.00     0.338 C 
ATOM     39  O   UNL A   1      40.567  26.016  26.010  1.00  0.00    -0.246 OA
BRANCH  38  40
ATOM     40  C   UNL A   1      40.131  26.697  28.226  1.00  0.00     0.060 A 
ATOM     41  C   UNL A   1      40.899  27.870  28.214  1.00  0.00     0.016 A 
ATOM     42  C   UNL A   1      39.238  26.445  29.267  1.00  0.00     0.016 A 
ATOM     43  C   UNL A   1      40.806  28.778  29.267  1.00  0.00     0.010 A 
ATOM     44  C   UNL A   1      39.153  27.355  30.329  1.00  0.00     0.010 A 
ATOM     45  C   UNL A   1      39.963  28.506  30.351  1.00  0.00    -0.014 A 
BRANCH  45  46
ATOM     46  C   UNL A   1      40.035  29.357  31.565  1.00  0.00     0.031 A 
ATOM     47  C   UNL A   1      41.152  29.137  32.551  1.00  0.00     0.074 A 
ATOM     48  C   UNL A   1      39.137  30.337  31.772  1.00  0.00     0.049 A 
ATOM     49  N   UNL A   1      41.383  29.738  33.688  1.00  0.00    -0.248 NA
ATOM     50  C   UNL A   1      42.139  28.100  32.207  1.00  0.00     0.031 C 
ATOM     51  C   UNL A   1      38.041  30.681  30.868  1.00  0.00     0.029 A 
ATOM     52  N   UNL A   1      39.005  31.221  32.813  1.00  0.00    -0.354 N 
ATOM     53  C   UNL A   1      42.533  29.148  34.202  1.00  0.00     0.074 A 
ATOM     54  C   UNL A   1      42.932  28.118  33.268  1.00  0.00     0.031 C 
ATOM     55  C   UNL A   1      37.341  31.699  31.398  1.00  0.00     0.029 A 
ATOM     56  C   UNL A   1      37.915  32.051  32.696  1.00  0.00     0.049 A 
ATOM     57  H   UNL A   1      39.631  31.258  33.571  1.00  0.00     0.167 HD
ATOM     58  C   UNL A   1      43.199  29.442  35.345  1.00  0.00     0.031 A 
ATOM     59  C   UNL A   1      37.421  32.970  33.548  1.00  0.00     0.031 A 
ATOM     60  C   UNL A   1      42.788  30.457  36.279  1.00  0.00     0.049 A 
ATOM     61  C   UNL A   1      38.132  33.224  34.852  1.00  0.00     0.074 A 
ATOM     62  C   UNL A   1      43.400  30.838  37.461  1.00  0.00     0.029 A 
ATOM     63  N   UNL A   1      41.657  31.250  36.143  1.00  0.00    -0.354 N 
ATOM     64  N   UNL A   1      39.227  32.669  35.316  1.00  0.00    -0.248 NA
ATOM     65  C   UNL A   1      37.544  34.234  35.743  1.00  0.00     0.031 C 
ATOM     66  C   UNL A   1      42.604  31.813  38.072  1.00  0.00     0.029 A 
ATOM     67  C   UNL A   1      41.537  32.095  37.234  1.00  0.00     0.049 A 
ATOM     68  H   UNL A   1      41.033  31.216  35.382  1.00  0.00     0.167 HD
ATOM     69  C   UNL A   1      39.475  33.287  36.539  1.00  0.00     0.074 A 
ATOM     70  C   UNL A   1      38.425  34.265  36.734  1.00  0.00     0.031 C 
ATOM     71  C   UNL A   1      40.485  33.065  37.419  1.00  0.00     0.031 A 
BRANCH  58  72
ATOM     72  C   UNL A   1      44.424  28.624  35.668  1.00  0.00    -0.014 A 
ATOM     73  C   UNL A   1      44.336  27.428  36.403  1.00  0.00     0.010 A 
ATOM     74  C   UNL A   1      45.683  29.042  35.195  1.00  0.00     0.010 A 
ATOM     75  C   UNL A   1      45.486  26.689  36.695  1.00  0.00     0.020 A 
ATOM     76  C   UNL A   1      46.830  28.288  35.457  1.00  0.00     0.020 A 
ATOM     77  C   UNL A   1      46.727  27.124  36.221  1.00  0.00     0.054 A 
BRANCH  77  78
ATOM     78  S   UNL A   1      48.199  26.135  36.600  1.00  0.00     0.124 S 
ATOM     79  O   UNL A   1      48.568  26.638  37.921  1.00  0.00    -0.237 OA
ATOM     80  O   UNL A   1      47.682  24.770  36.569  1.00  0.00    -0.237 OA
ATOM     81  O   UNL A   1      49.130  26.470  35.525  1.00  0.00    -0.744 OA
ENDBRANCH  77  78
ENDBRANCH  58  72
BRANCH  59  82
ATOM     82  C   UNL A   1      36.169  33.700  33.204  1.00  0.00    -0.014 A 
ATOM     83  C   UNL A   1      34.914  33.076  33.313  1.00  0.00     0.010 A 
ATOM     84  C   UNL A   1      36.230  35.038  32.769  1.00  0.00     0.010 A 
ATOM     85  C   UNL A   1      33.746  33.770  32.981  1.00  0.00     0.020 A 
ATOM     86  C   UNL A   1      35.063  35.745  32.467  1.00  0.00     0.020 A 
ATOM     87  C   UNL A   1      33.829  35.103  32.565  1.00  0.00     0.054 A 
BRANCH  87  88
ATOM     88  S   UNL A   1      32.295  36.000  32.196  1.00  0.00     0.124 S 
ATOM     89  O   UNL A   1      31.276  35.054  32.636  1.00  0.00    -0.237 OA
ATOM     90  O   UNL A   1      32.435  37.206  33.007  1.00  0.00    -0.237 OA
ATOM     91  O   UNL A   1      32.368  36.218  30.752  1.00  0.00    -0.744 OA
ENDBRANCH  87  88
ENDBRANCH  59  82
BRANCH  71  92
ATOM     92  C   UNL A   1      40.530  33.921  38.659  1.00  0.00    -0.014 A 
ATOM     93  C   UNL A   1      39.913  33.516  39.855  1.00  0.00     0.010 A 
ATOM     94  C   UNL A   1      41.255  35.127  38.639  1.00  0.00     0.010 A 
ATOM     95  C   UNL A   1      39.991  34.317  40.998  1.00  0.00     0.020 A 
ATOM     96  C   UNL A   1      41.363  35.915  39.787  1.00  0.00     0.020 A 
ATOM     97  C   UNL A   1      40.717  35.512  40.957  1.00  0.00     0.054 A 
BRANCH  97  98
ATOM     98  S   UNL A   1      40.838  36.512  42.466  1.00  0.00     0.124 S 
ATOM     99  O   UNL A   1      39.484  37.044  42.588  1.00  0.00    -0.237 OA
ATOM    100  O   UNL A   1      41.220  35.525  43.473  1.00  0.00    -0.237 OA
ATOM    101  O   UNL A   1      41.868  37.498  42.148  1.00  0.00    -0.744 OA
ENDBRANCH  97  98
ENDBRANCH  71  92
ENDBRANCH  45  46
ENDBRANCH  38  40
ENDBRANCH  37  38
ENDBRANCH  36  37
ENDBRANCH  35  36
ENDBRANCH  34  35
ENDBRANCH  33  34
ENDBRANCH   1  33
TORSDOF 24
ENDMDL
