MODEL 1
REMARK VINA RESULT:     -11.1      0.000      0.000
REMARK SMILES Cc1cc2[nH]c(=O)[nH]c2cc1S(=O)(=O)NCCC(=O)OCCOCCOC(=O)c1ccc(-c2c3nc(c(-c4ccc(S(=O)(=O)[O-])cc4)c4ccc([nH]4)c(-c4ccc(S(=O)(=O)[O-])cc4)c4nc(c(-c5ccc(S(=O)(=O)[O-])cc5)c5ccc2[nH]5)C=C4)C=C3)cc1
REMARK SMILES IDX 22 1 21 2 20 3 18 4 19 5 17 6 16 7 15 8 12 10 13 11 14 12
REMARK SMILES IDX 11 13 1 14 2 15 3 16 4 17 10 18 5 19 9 20 6 21 8 23 7 24
REMARK SMILES IDX 23 26 24 27 25 28 26 29 27 30 28 31 29 32 30 33 88 34 31 35
REMARK SMILES IDX 87 36 32 37 33 38 34 39 81 40 35 41 86 42 80 43 82 44 36 45
REMARK SMILES IDX 85 46 79 47 78 48 37 50 67 51 48 52 66 53 49 54 52 55 65 56
REMARK SMILES IDX 83 57 50 58 51 59 64 61 84 62 53 63 38 64 39 65 47 66 40 67
REMARK SMILES IDX 46 68 41 69 42 70 43 71 44 72 45 73 68 74 69 75 77 76 70 77
REMARK SMILES IDX 76 78 71 79 72 80 73 81 74 82 75 83 54 84 55 85 63 86 56 87
REMARK SMILES IDX 62 88 57 89 58 90 59 91 60 92 61 93
REMARK H PARENT 15 9 5 22 8 25 82 49 52 60
REMARK Flexibility Score: inf
ROOT
ATOM      1  C   UNL A   1      34.973  29.963  27.701  1.00  0.00     0.202 C 
ENDROOT
BRANCH   1   2
ATOM      2  C   UNL A   1      33.823  29.568  26.766  1.00  0.00     0.261 C 
BRANCH   2   3
ATOM      3  O   UNL A   1      32.757  28.864  27.416  1.00  0.00    -0.463 OA
BRANCH   3   4
ATOM      4  C   UNL A   1      32.379  27.722  26.779  1.00  0.00     0.307 C 
ATOM      5  O   UNL A   1      31.257  27.233  26.811  1.00  0.00    -0.252 OA
BRANCH   4   6
ATOM      6  C   UNL A   1      33.507  27.095  26.010  1.00  0.00     0.139 C 
BRANCH   6   7
ATOM      7  C   UNL A   1      33.120  26.447  24.698  1.00  0.00     0.110 C 
BRANCH   7   8
ATOM      8  N   UNL A   1      32.411  27.291  23.721  1.00  0.00    -0.211 NA
ATOM      9  H   UNL A   1      32.089  28.114  24.231  1.00  0.00     0.141 HD
BRANCH   8  10
ATOM     10  S   UNL A   1      31.080  26.711  22.862  1.00  0.00     0.240 S 
ATOM     11  O   UNL A   1      30.551  25.610  23.641  1.00  0.00    -0.207 OA
ATOM     12  O   UNL A   1      31.512  26.531  21.502  1.00  0.00    -0.207 OA
BRANCH  10  13
ATOM     13  C   UNL A   1      29.863  28.020  22.872  1.00  0.00     0.087 A 
ATOM     14  C   UNL A   1      28.000  26.544  23.899  1.00  0.00     0.046 C 
ATOM     15  C   UNL A   1      28.517  27.829  23.312  1.00  0.00    -0.029 A 
ATOM     16  C   UNL A   1      27.592  28.886  23.170  1.00  0.00     0.033 A 
ATOM     17  C   UNL A   1      28.053  30.084  22.676  1.00  0.00     0.067 A 
ATOM     18  C   UNL A   1      30.306  29.266  22.380  1.00  0.00     0.050 A 
ATOM     19  N   UNL A   1      27.373  31.277  22.462  1.00  0.00    -0.306 N 
ATOM     20  C   UNL A   1      29.380  30.273  22.308  1.00  0.00     0.068 A 
ATOM     21  C   UNL A   1      28.280  32.232  21.975  1.00  0.00     0.323 A 
ATOM     22  H   UNL A   1      26.414  31.428  22.626  1.00  0.00     0.171 HD
ATOM     23  N   UNL A   1      29.524  31.590  21.882  1.00  0.00    -0.306 N 
ATOM     24  O   UNL A   1      28.023  33.388  21.694  1.00  0.00    -0.248 OA
ATOM     25  H   UNL A   1      30.361  32.004  21.569  1.00  0.00     0.171 HD
ENDBRANCH  10  13
ENDBRANCH   8  10
ENDBRANCH   7   8
ENDBRANCH   6   7
ENDBRANCH   4   6
ENDBRANCH   3   4
ENDBRANCH   2   3
ENDBRANCH   1   2
BRANCH   1  26
ATOM     26  O   UNL A   1      35.506  31.283  27.636  1.00  0.00    -0.374 OA
BRANCH  26  27
ATOM     27  C   UNL A   1      34.699  32.348  28.142  1.00  0.00     0.202 C 
BRANCH  27  28
ATOM     28  C   UNL A   1      35.029  32.905  29.537  1.00  0.00     0.261 C 
BRANCH  28  29
ATOM     29  O   UNL A   1      34.755  31.925  30.549  1.00  0.00    -0.460 OA
BRANCH  29  30
ATOM     30  C   UNL A   1      35.336  32.185  31.754  1.00  0.00     0.338 C 
ATOM     31  O   UNL A   1      34.812  32.681  32.733  1.00  0.00    -0.246 OA
BRANCH  30  32
ATOM     32  C   UNL A   1      36.562  31.363  31.770  1.00  0.00     0.060 A 
ATOM     33  C   UNL A   1      37.822  31.968  31.763  1.00  0.00     0.016 A 
ATOM     34  C   UNL A   1      36.403  30.008  31.436  1.00  0.00     0.016 A 
ATOM     35  C   UNL A   1      38.916  31.226  31.334  1.00  0.00     0.010 A 
ATOM     36  C   UNL A   1      37.496  29.280  30.978  1.00  0.00     0.010 A 
ATOM     37  C   UNL A   1      38.745  29.900  30.895  1.00  0.00    -0.014 A 
BRANCH  37  38
ATOM     38  C   UNL A   1      39.945  29.149  30.526  1.00  0.00     0.031 A 
ATOM     39  C   UNL A   1      40.899  28.959  31.652  1.00  0.00     0.074 A 
ATOM     40  C   UNL A   1      40.179  28.526  29.354  1.00  0.00     0.049 A 
ATOM     41  N   UNL A   1      42.126  29.354  31.742  1.00  0.00    -0.248 NA
ATOM     42  C   UNL A   1      40.370  28.329  32.872  1.00  0.00     0.031 C 
ATOM     43  C   UNL A   1      39.252  28.290  28.246  1.00  0.00     0.029 A 
ATOM     44  N   UNL A   1      41.309  27.865  28.958  1.00  0.00    -0.354 N 
ATOM     45  C   UNL A   1      42.578  28.909  32.982  1.00  0.00     0.074 A 
ATOM     46  C   UNL A   1      41.428  28.392  33.678  1.00  0.00     0.031 C 
ATOM     47  C   UNL A   1      39.780  27.361  27.414  1.00  0.00     0.029 A 
ATOM     48  C   UNL A   1      41.129  27.044  27.853  1.00  0.00     0.049 A 
ATOM     49  H   UNL A   1      42.175  27.963  29.416  1.00  0.00     0.167 HD
ATOM     50  C   UNL A   1      43.896  28.849  33.311  1.00  0.00     0.031 A 
ATOM     51  C   UNL A   1      41.999  26.117  27.383  1.00  0.00     0.031 A 
ATOM     52  C   UNL A   1      44.720  29.608  32.416  1.00  0.00     0.049 A 
ATOM     53  C   UNL A   1      43.349  26.452  27.893  1.00  0.00     0.074 A 
ATOM     54  C   UNL A   1      44.863  30.946  32.123  1.00  0.00     0.029 A 
ATOM     55  N   UNL A   1      45.346  28.917  31.409  1.00  0.00    -0.354 N 
ATOM     56  N   UNL A   1      44.017  27.516  27.548  1.00  0.00    -0.248 NA
ATOM     57  C   UNL A   1      43.850  25.755  29.067  1.00  0.00     0.031 C 
ATOM     58  C   UNL A   1      45.209  30.994  30.744  1.00  0.00     0.029 A 
ATOM     59  C   UNL A   1      45.280  29.680  30.270  1.00  0.00     0.049 A 
ATOM     60  H   UNL A   1      45.768  28.030  31.488  1.00  0.00     0.167 HD
ATOM     61  C   UNL A   1      44.758  27.850  28.670  1.00  0.00     0.074 A 
ATOM     62  C   UNL A   1      44.720  26.662  29.514  1.00  0.00     0.031 C 
ATOM     63  C   UNL A   1      45.101  29.144  28.932  1.00  0.00     0.031 A 
BRANCH  50  64
ATOM     64  C   UNL A   1      44.468  27.862  34.293  1.00  0.00    -0.014 A 
ATOM     65  C   UNL A   1      44.945  28.245  35.564  1.00  0.00     0.010 A 
ATOM     66  C   UNL A   1      44.318  26.481  34.057  1.00  0.00     0.010 A 
ATOM     67  C   UNL A   1      45.290  27.310  36.539  1.00  0.00     0.020 A 
ATOM     68  C   UNL A   1      44.615  25.533  35.049  1.00  0.00     0.020 A 
ATOM     69  C   UNL A   1      45.107  25.958  36.282  1.00  0.00     0.054 A 
BRANCH  69  70
ATOM     70  S   UNL A   1      45.431  24.787  37.624  1.00  0.00     0.124 S 
ATOM     71  O   UNL A   1      45.646  23.543  36.890  1.00  0.00    -0.237 OA
ATOM     72  O   UNL A   1      46.616  25.359  38.257  1.00  0.00    -0.237 OA
ATOM     73  O   UNL A   1      44.212  24.839  38.426  1.00  0.00    -0.744 OA
ENDBRANCH  69  70
ENDBRANCH  50  64
BRANCH  51  74
ATOM     74  C   UNL A   1      41.677  24.766  26.854  1.00  0.00    -0.014 A 
ATOM     75  C   UNL A   1      40.665  24.002  27.470  1.00  0.00     0.010 A 
ATOM     76  C   UNL A   1      42.551  24.107  25.967  1.00  0.00     0.010 A 
ATOM     77  C   UNL A   1      40.571  22.621  27.270  1.00  0.00     0.020 A 
ATOM     78  C   UNL A   1      42.463  22.718  25.763  1.00  0.00     0.020 A 
ATOM     79  C   UNL A   1      41.495  21.982  26.446  1.00  0.00     0.054 A 
BRANCH  79  80
ATOM     80  S   UNL A   1      41.452  20.168  26.362  1.00  0.00     0.124 S 
ATOM     81  O   UNL A   1      41.859  19.792  27.713  1.00  0.00    -0.237 OA
ATOM     82  O   UNL A   1      40.055  19.900  26.033  1.00  0.00    -0.237 OA
ATOM     83  O   UNL A   1      42.410  19.846  25.307  1.00  0.00    -0.744 OA
ENDBRANCH  79  80
ENDBRANCH  51  74
BRANCH  63  84
ATOM     84  C   UNL A   1      45.001  30.169  27.823  1.00  0.00    -0.014 A 
ATOM     85  C   UNL A   1      46.204  30.670  27.292  1.00  0.00     0.010 A 
ATOM     86  C   UNL A   1      43.793  30.793  27.454  1.00  0.00     0.010 A 
ATOM     87  C   UNL A   1      46.212  31.795  26.466  1.00  0.00     0.020 A 
ATOM     88  C   UNL A   1      43.792  31.909  26.601  1.00  0.00     0.020 A 
ATOM     89  C   UNL A   1      45.007  32.422  26.142  1.00  0.00     0.054 A 
BRANCH  89  90
ATOM     90  S   UNL A   1      45.070  33.938  25.147  1.00  0.00     0.124 S 
ATOM     91  O   UNL A   1      44.172  34.828  25.881  1.00  0.00    -0.237 OA
ATOM     92  O   UNL A   1      46.485  34.302  25.201  1.00  0.00    -0.237 OA
ATOM     93  O   UNL A   1      44.591  33.520  23.831  1.00  0.00    -0.744 OA
ENDBRANCH  89  90
ENDBRANCH  63  84
ENDBRANCH  37  38
ENDBRANCH  30  32
ENDBRANCH  29  30
ENDBRANCH  28  29
ENDBRANCH  27  28
ENDBRANCH  26  27
ENDBRANCH   1  26
TORSDOF 21
ENDMDL
MODEL 2
REMARK VINA RESULT:     -11.0      5.569     12.418
REMARK SMILES Cc1cc2[nH]c(=O)[nH]c2cc1S(=O)(=O)NCCC(=O)OCCOCCOC(=O)c1ccc(-c2c3nc(c(-c4ccc(S(=O)(=O)[O-])cc4)c4ccc([nH]4)c(-c4ccc(S(=O)(=O)[O-])cc4)c4nc(c(-c5ccc(S(=O)(=O)[O-])cc5)c5ccc2[nH]5)C=C4)C=C3)cc1
REMARK SMILES IDX 22 1 21 2 20 3 18 4 19 5 17 6 16 7 15 8 12 10 13 11 14 12
REMARK SMILES IDX 11 13 1 14 2 15 3 16 4 17 10 18 5 19 9 20 6 21 8 23 7 24
REMARK SMILES IDX 23 26 24 27 25 28 26 29 27 30 28 31 29 32 30 33 88 34 31 35
REMARK SMILES IDX 87 36 32 37 33 38 34 39 81 40 35 41 86 42 80 43 82 44 36 45
REMARK SMILES IDX 85 46 79 47 78 48 37 50 67 51 48 52 66 53 49 54 52 55 65 56
REMARK SMILES IDX 83 57 50 58 51 59 64 61 84 62 53 63 38 64 39 65 47 66 40 67
REMARK SMILES IDX 46 68 41 69 42 70 43 71 44 72 45 73 68 74 69 75 77 76 70 77
REMARK SMILES IDX 76 78 71 79 72 80 73 81 74 82 75 83 54 84 55 85 63 86 56 87
REMARK SMILES IDX 62 88 57 89 58 90 59 91 60 92 61 93
REMARK H PARENT 15 9 5 22 8 25 82 49 52 60
REMARK Flexibility Score: inf
ROOT
ATOM      1  C   UNL A   1      44.015  18.992  25.004  1.00  0.00     0.202 C 
ENDROOT
BRANCH   1   2
ATOM      2  C   UNL A   1      45.271  19.696  24.478  1.00  0.00     0.261 C 
BRANCH   2   3
ATOM      3  O   UNL A   1      45.477  21.007  25.019  1.00  0.00    -0.463 OA
BRANCH   3   4
ATOM      4  C   UNL A   1      44.748  21.979  24.406  1.00  0.00     0.307 C 
ATOM      5  O   UNL A   1      44.506  22.032  23.207  1.00  0.00    -0.252 OA
BRANCH   4   6
ATOM      6  C   UNL A   1      44.254  23.020  25.371  1.00  0.00     0.139 C 
BRANCH   6   7
ATOM      7  C   UNL A   1      43.542  24.200  24.748  1.00  0.00     0.110 C 
BRANCH   7   8
ATOM      8  N   UNL A   1      43.974  25.543  25.175  1.00  0.00    -0.211 NA
ATOM      9  H   UNL A   1      43.562  26.201  24.514  1.00  0.00     0.141 HD
BRANCH   8  10
ATOM     10  S   UNL A   1      45.607  25.944  25.295  1.00  0.00     0.240 S 
ATOM     11  O   UNL A   1      45.703  27.345  24.933  1.00  0.00    -0.207 OA
ATOM     12  O   UNL A   1      46.336  24.932  24.578  1.00  0.00    -0.207 OA
BRANCH  10  13
ATOM     13  C   UNL A   1      46.038  25.797  27.022  1.00  0.00     0.087 A 
ATOM     14  C   UNL A   1      48.570  26.160  26.622  1.00  0.00     0.046 C 
ATOM     15  C   UNL A   1      47.384  25.866  27.499  1.00  0.00    -0.029 A 
ATOM     16  C   UNL A   1      47.642  25.617  28.864  1.00  0.00     0.033 A 
ATOM     17  C   UNL A   1      46.567  25.388  29.693  1.00  0.00     0.067 A 
ATOM     18  C   UNL A   1      44.958  25.571  27.901  1.00  0.00     0.050 A 
ATOM     19  N   UNL A   1      46.537  25.146  31.061  1.00  0.00    -0.306 N 
ATOM     20  C   UNL A   1      45.259  25.384  29.225  1.00  0.00     0.068 A 
ATOM     21  C   UNL A   1      45.199  25.008  31.464  1.00  0.00     0.323 A 
ATOM     22  H   UNL A   1      47.323  25.083  31.650  1.00  0.00     0.171 HD
ATOM     23  N   UNL A   1      44.416  25.156  30.309  1.00  0.00    -0.306 N 
ATOM     24  O   UNL A   1      44.809  24.802  32.599  1.00  0.00    -0.248 OA
ATOM     25  H   UNL A   1      43.434  25.108  30.272  1.00  0.00     0.171 HD
ENDBRANCH  10  13
ENDBRANCH   8  10
ENDBRANCH   7   8
ENDBRANCH   6   7
ENDBRANCH   4   6
ENDBRANCH   3   4
ENDBRANCH   2   3
ENDBRANCH   1   2
BRANCH   1  26
ATOM     26  O   UNL A   1      42.861  19.764  25.322  1.00  0.00    -0.374 OA
BRANCH  26  27
ATOM     27  C   UNL A   1      41.946  19.224  26.277  1.00  0.00     0.202 C 
BRANCH  27  28
ATOM     28  C   UNL A   1      40.658  20.013  26.571  1.00  0.00     0.261 C 
BRANCH  28  29
ATOM     29  O   UNL A   1      40.951  21.405  26.759  1.00  0.00    -0.460 OA
BRANCH  29  30
ATOM     30  C   UNL A   1      39.931  22.244  26.426  1.00  0.00     0.338 C 
ATOM     31  O   UNL A   1      38.776  21.943  26.193  1.00  0.00    -0.246 OA
BRANCH  30  32
ATOM     32  C   UNL A   1      40.396  23.587  26.826  1.00  0.00     0.060 A 
ATOM     33  C   UNL A   1      41.433  23.732  27.752  1.00  0.00     0.016 A 
ATOM     34  C   UNL A   1      39.537  24.655  26.521  1.00  0.00     0.016 A 
ATOM     35  C   UNL A   1      41.551  24.935  28.438  1.00  0.00     0.010 A 
ATOM     36  C   UNL A   1      39.641  25.845  27.233  1.00  0.00     0.010 A 
ATOM     37  C   UNL A   1      40.627  25.972  28.215  1.00  0.00    -0.014 A 
BRANCH  37  38
ATOM     38  C   UNL A   1      40.849  27.238  28.913  1.00  0.00     0.031 A 
ATOM     39  C   UNL A   1      42.023  28.000  28.407  1.00  0.00     0.074 A 
ATOM     40  C   UNL A   1      40.039  27.809  29.827  1.00  0.00     0.049 A 
ATOM     41  N   UNL A   1      43.083  28.363  29.049  1.00  0.00    -0.248 NA
ATOM     42  C   UNL A   1      42.047  28.306  26.968  1.00  0.00     0.031 C 
ATOM     43  C   UNL A   1      38.684  27.415  30.216  1.00  0.00     0.029 A 
ATOM     44  N   UNL A   1      40.243  28.960  30.537  1.00  0.00    -0.354 N 
ATOM     45  C   UNL A   1      43.862  29.063  28.131  1.00  0.00     0.074 A 
ATOM     46  C   UNL A   1      43.233  28.895  26.845  1.00  0.00     0.031 C 
ATOM     47  C   UNL A   1      38.112  28.425  30.914  1.00  0.00     0.029 A 
ATOM     48  C   UNL A   1      39.100  29.467  31.137  1.00  0.00     0.049 A 
ATOM     49  H   UNL A   1      41.126  29.391  30.616  1.00  0.00     0.167 HD
ATOM     50  C   UNL A   1      44.894  29.869  28.498  1.00  0.00     0.031 A 
ATOM     51  C   UNL A   1      38.959  30.690  31.707  1.00  0.00     0.031 A 
ATOM     52  C   UNL A   1      45.312  29.641  29.850  1.00  0.00     0.049 A 
ATOM     53  C   UNL A   1      40.308  31.197  32.048  1.00  0.00     0.074 A 
ATOM     54  C   UNL A   1      45.901  28.594  30.525  1.00  0.00     0.029 A 
ATOM     55  N   UNL A   1      44.823  30.496  30.806  1.00  0.00    -0.354 N 
ATOM     56  N   UNL A   1      41.082  30.666  32.952  1.00  0.00    -0.248 NA
ATOM     57  C   UNL A   1      40.958  32.130  31.141  1.00  0.00     0.031 C 
ATOM     58  C   UNL A   1      45.380  28.658  31.847  1.00  0.00     0.029 A 
ATOM     59  C   UNL A   1      44.515  29.754  31.918  1.00  0.00     0.049 A 
ATOM     60  H   UNL A   1      44.713  31.471  30.711  1.00  0.00     0.167 HD
ATOM     61  C   UNL A   1      42.369  30.875  32.484  1.00  0.00     0.074 A 
ATOM     62  C   UNL A   1      42.234  31.892  31.449  1.00  0.00     0.031 C 
ATOM     63  C   UNL A   1      43.381  30.012  32.788  1.00  0.00     0.031 A 
BRANCH  50  64
ATOM     64  C   UNL A   1      45.341  31.068  27.706  1.00  0.00    -0.014 A 
ATOM     65  C   UNL A   1      44.536  32.214  27.546  1.00  0.00     0.010 A 
ATOM     66  C   UNL A   1      46.687  31.171  27.302  1.00  0.00     0.010 A 
ATOM     67  C   UNL A   1      45.026  33.391  26.982  1.00  0.00     0.020 A 
ATOM     68  C   UNL A   1      47.204  32.367  26.780  1.00  0.00     0.020 A 
ATOM     69  C   UNL A   1      46.364  33.467  26.617  1.00  0.00     0.054 A 
BRANCH  69  70
ATOM     70  S   UNL A   1      46.994  35.057  26.023  1.00  0.00     0.124 S 
ATOM     71  O   UNL A   1      47.871  35.459  27.119  1.00  0.00    -0.237 OA
ATOM     72  O   UNL A   1      47.665  34.682  24.782  1.00  0.00    -0.237 OA
ATOM     73  O   UNL A   1      45.787  35.863  25.858  1.00  0.00    -0.744 OA
ENDBRANCH  69  70
ENDBRANCH  50  64
BRANCH  51  74
ATOM     74  C   UNL A   1      37.783  31.594  31.619  1.00  0.00    -0.014 A 
ATOM     75  C   UNL A   1      37.913  32.943  32.008  1.00  0.00     0.010 A 
ATOM     76  C   UNL A   1      36.481  31.078  31.462  1.00  0.00     0.010 A 
ATOM     77  C   UNL A   1      36.794  33.728  32.301  1.00  0.00     0.020 A 
ATOM     78  C   UNL A   1      35.352  31.862  31.756  1.00  0.00     0.020 A 
ATOM     79  C   UNL A   1      35.520  33.171  32.209  1.00  0.00     0.054 A 
BRANCH  79  80
ATOM     80  S   UNL A   1      34.110  34.165  32.776  1.00  0.00     0.124 S 
ATOM     81  O   UNL A   1      33.664  34.793  31.536  1.00  0.00    -0.237 OA
ATOM     82  O   UNL A   1      33.211  33.154  33.324  1.00  0.00    -0.237 OA
ATOM     83  O   UNL A   1      34.698  35.071  33.761  1.00  0.00    -0.744 OA
ENDBRANCH  79  80
ENDBRANCH  51  74
BRANCH  63  84
ATOM     84  C   UNL A   1      43.195  29.036  33.930  1.00  0.00    -0.014 A 
ATOM     85  C   UNL A   1      42.784  27.730  33.606  1.00  0.00     0.010 A 
ATOM     86  C   UNL A   1      43.200  29.422  35.285  1.00  0.00     0.010 A 
ATOM     87  C   UNL A   1      42.336  26.851  34.594  1.00  0.00     0.020 A 
ATOM     88  C   UNL A   1      42.776  28.533  36.286  1.00  0.00     0.020 A 
ATOM     89  C   UNL A   1      42.314  27.265  35.927  1.00  0.00     0.054 A 
BRANCH  89  90
ATOM     90  S   UNL A   1      41.632  26.128  37.167  1.00  0.00     0.124 S 
ATOM     91  O   UNL A   1      42.681  26.112  38.184  1.00  0.00    -0.237 OA
ATOM     92  O   UNL A   1      40.392  26.792  37.566  1.00  0.00    -0.237 OA
ATOM     93  O   UNL A   1      41.453  24.874  36.439  1.00  0.00    -0.744 OA
ENDBRANCH  89  90
ENDBRANCH  63  84
ENDBRANCH  37  38
ENDBRANCH  30  32
ENDBRANCH  29  30
ENDBRANCH  28  29
ENDBRANCH  27  28
ENDBRANCH  26  27
ENDBRANCH   1  26
TORSDOF 21
ENDMDL
MODEL 3
REMARK VINA RESULT:     -10.8      5.514     12.294
REMARK SMILES Cc1cc2[nH]c(=O)[nH]c2cc1S(=O)(=O)NCCC(=O)OCCOCCOC(=O)c1ccc(-c2c3nc(c(-c4ccc(S(=O)(=O)[O-])cc4)c4ccc([nH]4)c(-c4ccc(S(=O)(=O)[O-])cc4)c4nc(c(-c5ccc(S(=O)(=O)[O-])cc5)c5ccc2[nH]5)C=C4)C=C3)cc1
REMARK SMILES IDX 22 1 21 2 20 3 18 4 19 5 17 6 16 7 15 8 12 10 13 11 14 12
REMARK SMILES IDX 11 13 1 14 2 15 3 16 4 17 10 18 5 19 9 20 6 21 8 23 7 24
REMARK SMILES IDX 23 26 24 27 25 28 26 29 27 30 28 31 29 32 30 33 88 34 31 35
REMARK SMILES IDX 87 36 32 37 33 38 34 39 81 40 35 41 86 42 80 43 82 44 36 45
REMARK SMILES IDX 85 46 79 47 78 48 37 50 67 51 48 52 66 53 49 54 52 55 65 56
REMARK SMILES IDX 83 57 50 58 51 59 64 61 84 62 53 63 38 64 39 65 47 66 40 67
REMARK SMILES IDX 46 68 41 69 42 70 43 71 44 72 45 73 68 74 69 75 77 76 70 77
REMARK SMILES IDX 76 78 71 79 72 80 73 81 74 82 75 83 54 84 55 85 63 86 56 87
REMARK SMILES IDX 62 88 57 89 58 90 59 91 60 92 61 93
REMARK H PARENT 15 9 5 22 8 25 82 49 52 60
REMARK Flexibility Score: inf
ROOT
ATOM      1  C   UNL A   1      43.682  22.537  28.222  1.00  0.00     0.202 C 
ENDROOT
BRANCH   1   2
ATOM      2  C   UNL A   1      44.363  23.206  29.421  1.00  0.00     0.261 C 
BRANCH   2   3
ATOM      3  O   UNL A   1      45.611  23.838  29.107  1.00  0.00    -0.463 OA
BRANCH   3   4
ATOM      4  C   UNL A   1      45.698  25.130  29.526  1.00  0.00     0.307 C 
ATOM      5  O   UNL A   1      46.520  25.561  30.325  1.00  0.00    -0.252 OA
BRANCH   4   6
ATOM      6  C   UNL A   1      44.653  26.008  28.897  1.00  0.00     0.139 C 
BRANCH   6   7
ATOM      7  C   UNL A   1      45.018  26.591  27.549  1.00  0.00     0.110 C 
BRANCH   7   8
ATOM      8  N   UNL A   1      46.291  26.150  26.952  1.00  0.00    -0.211 NA
ATOM      9  H   UNL A   1      46.986  26.852  27.205  1.00  0.00     0.141 HD
BRANCH   8  10
ATOM     10  S   UNL A   1      46.444  25.903  25.291  1.00  0.00     0.240 S 
ATOM     11  O   UNL A   1      47.862  25.742  25.039  1.00  0.00    -0.207 OA
ATOM     12  O   UNL A   1      45.678  26.936  24.647  1.00  0.00    -0.207 OA
BRANCH  10  13
ATOM     13  C   UNL A   1      45.648  24.342  24.937  1.00  0.00     0.087 A 
ATOM     14  C   UNL A   1      43.252  25.317  25.043  1.00  0.00     0.046 C 
ATOM     15  C   UNL A   1      44.229  24.184  24.892  1.00  0.00    -0.029 A 
ATOM     16  C   UNL A   1      43.688  22.890  24.727  1.00  0.00     0.033 A 
ATOM     17  C   UNL A   1      44.562  21.844  24.544  1.00  0.00     0.067 A 
ATOM     18  C   UNL A   1      46.517  23.249  24.735  1.00  0.00     0.050 A 
ATOM     19  N   UNL A   1      44.302  20.495  24.335  1.00  0.00    -0.306 N 
ATOM     20  C   UNL A   1      45.941  22.023  24.530  1.00  0.00     0.068 A 
ATOM     21  C   UNL A   1      45.522  19.821  24.169  1.00  0.00     0.323 A 
ATOM     22  H   UNL A   1      43.409  20.080  24.307  1.00  0.00     0.171 HD
ATOM     23  N   UNL A   1      46.532  20.785  24.295  1.00  0.00    -0.306 N 
ATOM     24  O   UNL A   1      45.661  18.630  23.954  1.00  0.00    -0.248 OA
ATOM     25  H   UNL A   1      47.500  20.616  24.228  1.00  0.00     0.171 HD
ENDBRANCH  10  13
ENDBRANCH   8  10
ENDBRANCH   7   8
ENDBRANCH   6   7
ENDBRANCH   4   6
ENDBRANCH   3   4
ENDBRANCH   2   3
ENDBRANCH   1   2
BRANCH   1  26
ATOM     26  O   UNL A   1      42.673  21.557  28.446  1.00  0.00    -0.374 OA
BRANCH  26  27
ATOM     27  C   UNL A   1      42.336  20.693  27.359  1.00  0.00     0.202 C 
BRANCH  27  28
ATOM     28  C   UNL A   1      40.876  20.674  26.877  1.00  0.00     0.261 C 
BRANCH  28  29
ATOM     29  O   UNL A   1      40.141  21.766  27.449  1.00  0.00    -0.460 OA
BRANCH  29  30
ATOM     30  C   UNL A   1      39.555  22.589  26.535  1.00  0.00     0.338 C 
ATOM     31  O   UNL A   1      38.655  22.313  25.765  1.00  0.00    -0.246 OA
BRANCH  30  32
ATOM     32  C   UNL A   1      39.919  23.954  26.964  1.00  0.00     0.060 A 
ATOM     33  C   UNL A   1      41.094  24.181  27.687  1.00  0.00     0.016 A 
ATOM     34  C   UNL A   1      38.889  24.908  26.929  1.00  0.00     0.016 A 
ATOM     35  C   UNL A   1      41.194  25.340  28.448  1.00  0.00     0.010 A 
ATOM     36  C   UNL A   1      38.983  26.050  27.717  1.00  0.00     0.010 A 
ATOM     37  C   UNL A   1      40.122  26.249  28.502  1.00  0.00    -0.014 A 
BRANCH  37  38
ATOM     38  C   UNL A   1      40.318  27.484  29.262  1.00  0.00     0.031 A 
ATOM     39  C   UNL A   1      41.407  28.346  28.726  1.00  0.00     0.074 A 
ATOM     40  C   UNL A   1      39.544  27.948  30.262  1.00  0.00     0.049 A 
ATOM     41  N   UNL A   1      42.487  28.736  29.316  1.00  0.00    -0.248 NA
ATOM     42  C   UNL A   1      41.310  28.735  27.310  1.00  0.00     0.031 C 
ATOM     43  C   UNL A   1      38.245  27.449  30.717  1.00  0.00     0.029 A 
ATOM     44  N   UNL A   1      39.730  29.066  31.027  1.00  0.00    -0.354 N 
ATOM     45  C   UNL A   1      43.156  29.536  28.393  1.00  0.00     0.074 A 
ATOM     46  C   UNL A   1      42.448  29.405  27.145  1.00  0.00     0.031 C 
ATOM     47  C   UNL A   1      37.666  28.378  31.513  1.00  0.00     0.029 A 
ATOM     48  C   UNL A   1      38.605  29.465  31.734  1.00  0.00     0.049 A 
ATOM     49  H   UNL A   1      40.589  29.547  31.073  1.00  0.00     0.167 HD
ATOM     50  C   UNL A   1      44.163  30.382  28.739  1.00  0.00     0.031 A 
ATOM     51  C   UNL A   1      38.433  30.641  32.387  1.00  0.00     0.031 A 
ATOM     52  C   UNL A   1      44.689  30.103  30.043  1.00  0.00     0.049 A 
ATOM     53  C   UNL A   1      39.771  31.211  32.667  1.00  0.00     0.074 A 
ATOM     54  C   UNL A   1      45.385  29.057  30.610  1.00  0.00     0.029 A 
ATOM     55  N   UNL A   1      44.220  30.869  31.081  1.00  0.00    -0.354 N 
ATOM     56  N   UNL A   1      40.637  30.678  33.481  1.00  0.00    -0.248 NA
ATOM     57  C   UNL A   1      40.299  32.234  31.778  1.00  0.00     0.031 C 
ATOM     58  C   UNL A   1      44.956  29.011  31.965  1.00  0.00     0.029 A 
ATOM     59  C   UNL A   1      44.036  30.046  32.163  1.00  0.00     0.049 A 
ATOM     60  H   UNL A   1      44.046  31.838  31.055  1.00  0.00     0.167 HD
ATOM     61  C   UNL A   1      41.873  30.994  32.942  1.00  0.00     0.074 A 
ATOM     62  C   UNL A   1      41.606  32.060  31.984  1.00  0.00     0.031 C 
ATOM     63  C   UNL A   1      42.953  30.181  33.122  1.00  0.00     0.031 A 
BRANCH  50  64
ATOM     64  C   UNL A   1      44.481  31.651  27.995  1.00  0.00    -0.014 A 
ATOM     65  C   UNL A   1      43.774  32.853  28.207  1.00  0.00     0.010 A 
ATOM     66  C   UNL A   1      45.665  31.732  27.234  1.00  0.00     0.010 A 
ATOM     67  C   UNL A   1      44.196  34.066  27.665  1.00  0.00     0.020 A 
ATOM     68  C   UNL A   1      46.125  32.957  26.726  1.00  0.00     0.020 A 
ATOM     69  C   UNL A   1      45.379  34.115  26.940  1.00  0.00     0.054 A 
BRANCH  69  70
ATOM     70  S   UNL A   1      45.964  35.733  26.377  1.00  0.00     0.124 S 
ATOM     71  O   UNL A   1      44.822  36.588  26.686  1.00  0.00    -0.237 OA
ATOM     72  O   UNL A   1      47.150  35.941  27.204  1.00  0.00    -0.237 OA
ATOM     73  O   UNL A   1      46.227  35.526  24.955  1.00  0.00    -0.744 OA
ENDBRANCH  69  70
ENDBRANCH  50  64
BRANCH  51  74
ATOM     74  C   UNL A   1      37.203  31.473  32.435  1.00  0.00    -0.014 A 
ATOM     75  C   UNL A   1      36.569  31.846  31.232  1.00  0.00     0.010 A 
ATOM     76  C   UNL A   1      36.834  32.155  33.612  1.00  0.00     0.010 A 
ATOM     77  C   UNL A   1      35.658  32.905  31.187  1.00  0.00     0.020 A 
ATOM     78  C   UNL A   1      35.920  33.222  33.573  1.00  0.00     0.020 A 
ATOM     79  C   UNL A   1      35.366  33.612  32.353  1.00  0.00     0.054 A 
BRANCH  79  80
ATOM     80  S   UNL A   1      34.325  35.093  32.215  1.00  0.00     0.124 S 
ATOM     81  O   UNL A   1      34.212  35.251  30.768  1.00  0.00    -0.237 OA
ATOM     82  O   UNL A   1      33.100  34.682  32.897  1.00  0.00    -0.237 OA
ATOM     83  O   UNL A   1      35.098  36.127  32.900  1.00  0.00    -0.744 OA
ENDBRANCH  79  80
ENDBRANCH  51  74
BRANCH  63  84
ATOM     84  C   UNL A   1      42.907  29.130  34.211  1.00  0.00    -0.014 A 
ATOM     85  C   UNL A   1      42.502  27.833  33.844  1.00  0.00     0.010 A 
ATOM     86  C   UNL A   1      43.034  29.431  35.582  1.00  0.00     0.010 A 
ATOM     87  C   UNL A   1      42.176  26.881  34.811  1.00  0.00     0.020 A 
ATOM     88  C   UNL A   1      42.734  28.468  36.559  1.00  0.00     0.020 A 
ATOM     89  C   UNL A   1      42.273  27.210  36.164  1.00  0.00     0.054 A 
BRANCH  89  90
ATOM     90  S   UNL A   1      41.747  25.977  37.387  1.00  0.00     0.124 S 
ATOM     91  O   UNL A   1      40.439  26.485  37.796  1.00  0.00    -0.237 OA
ATOM     92  O   UNL A   1      41.716  24.741  36.607  1.00  0.00    -0.237 OA
ATOM     93  O   UNL A   1      42.783  26.031  38.415  1.00  0.00    -0.744 OA
ENDBRANCH  89  90
ENDBRANCH  63  84
ENDBRANCH  37  38
ENDBRANCH  30  32
ENDBRANCH  29  30
ENDBRANCH  28  29
ENDBRANCH  27  28
ENDBRANCH  26  27
ENDBRANCH   1  26
TORSDOF 21
ENDMDL
