MODEL 1
REMARK VINA RESULT:     -10.4      0.000      0.000
REMARK SMILES O=C(Cn1cc(-c2ccccc2CO)cn1)OCCOCCOC(=O)c1ccc(-c2c3nc(c(-c4ccc(S(=O)(=O)[O-])cc4)c4ccc([nH]4)c(-c4ccc(S(=O)(=O)[O-])cc4)c4nc(c(-c5ccc(S(=O)(=O)[O-])cc5)c5ccc2[nH]5)C=C4)C=C3)cc1
REMARK SMILES IDX 19 1 18 2 17 3 2 4 1 5 3 6 4 7 5 8 16 9 6 10 15 11 7 12 8 13
REMARK SMILES IDX 12 14 9 15 11 16 10 17 13 18 14 19 20 21 21 22 22 23 23 24
REMARK SMILES IDX 24 25 25 26 26 27 27 28 85 29 28 30 84 31 29 32 30 33 31 34
REMARK SMILES IDX 78 35 32 36 83 37 77 38 79 39 33 40 82 41 76 42 75 43 34 45
REMARK SMILES IDX 64 46 45 47 63 48 46 49 49 50 62 51 80 52 47 53 48 54 61 56
REMARK SMILES IDX 81 57 50 58 35 59 36 60 44 61 37 62 43 63 38 64 39 65 40 66
REMARK SMILES IDX 41 67 42 68 65 69 66 70 74 71 67 72 73 73 68 74 69 75 70 76
REMARK SMILES IDX 71 77 72 78 51 79 52 80 60 81 53 82 59 83 54 84 55 85 56 86
REMARK SMILES IDX 57 87 58 88
REMARK H PARENT 14 20 79 44 49 55
REMARK Flexibility Score: inf
ROOT
ATOM      1  C   UNL A   1      31.580  27.846  27.000  1.00  0.00     0.202 C 
ENDROOT
BRANCH   1   2
ATOM      2  C   UNL A   1      31.220  26.610  26.196  1.00  0.00     0.261 C 
BRANCH   2   3
ATOM      3  O   UNL A   1      31.745  26.569  24.862  1.00  0.00    -0.462 OA
BRANCH   3   4
ATOM      4  C   UNL A   1      30.984  26.438  23.747  1.00  0.00     0.327 C 
ATOM      5  O   UNL A   1      29.936  27.077  23.656  1.00  0.00    -0.250 OA
BRANCH   4   6
ATOM      6  C   UNL A   1      31.365  25.445  22.683  1.00  0.00     0.266 C 
BRANCH   6   7
ATOM      7  N   UNL A   1      32.126  24.307  23.150  1.00  0.00    -0.261 N 
ATOM      8  C   UNL A   1      31.649  23.101  23.576  1.00  0.00     0.118 A 
ATOM      9  N   UNL A   1      33.472  24.335  23.042  1.00  0.00    -0.180 NA
ATOM     10  C   UNL A   1      32.734  22.252  23.568  1.00  0.00     0.020 A 
ATOM     11  C   UNL A   1      33.839  23.073  23.280  1.00  0.00     0.143 A 
BRANCH  10  12
ATOM     12  C   UNL A   1      32.630  20.837  23.815  1.00  0.00    -0.010 A 
ATOM     13  C   UNL A   1      32.240  20.024  22.742  1.00  0.00     0.009 A 
ATOM     14  C   UNL A   1      32.958  20.264  25.062  1.00  0.00    -0.015 A 
ATOM     15  C   UNL A   1      32.202  18.641  22.883  1.00  0.00     0.001 A 
ATOM     16  C   UNL A   1      32.932  18.863  25.175  1.00  0.00     0.007 A 
ATOM     17  C   UNL A   1      32.557  18.059  24.096  1.00  0.00     0.000 A 
BRANCH  14  18
ATOM     18  C   UNL A   1      33.417  21.077  26.248  1.00  0.00     0.192 C 
BRANCH  18  19
ATOM     19  O   UNL A   1      34.837  21.053  26.363  1.00  0.00    -0.392 OA
ATOM     20  H   UNL A   1      35.231  21.503  25.599  1.00  0.00     0.211 HD
ENDBRANCH  18  19
ENDBRANCH  14  18
ENDBRANCH  10  12
ENDBRANCH   6   7
ENDBRANCH   4   6
ENDBRANCH   3   4
ENDBRANCH   2   3
ENDBRANCH   1   2
BRANCH   1  21
ATOM     21  O   UNL A   1      31.601  29.087  26.308  1.00  0.00    -0.374 OA
BRANCH  21  22
ATOM     22  C   UNL A   1      32.864  29.665  25.971  1.00  0.00     0.202 C 
BRANCH  22  23
ATOM     23  C   UNL A   1      33.320  30.854  26.797  1.00  0.00     0.261 C 
BRANCH  23  24
ATOM     24  O   UNL A   1      34.599  30.584  27.343  1.00  0.00    -0.460 OA
BRANCH  24  25
ATOM     25  C   UNL A   1      35.250  31.630  27.887  1.00  0.00     0.338 C 
ATOM     26  O   UNL A   1      35.221  32.801  27.520  1.00  0.00    -0.246 OA
BRANCH  25  27
ATOM     27  C   UNL A   1      36.114  31.093  28.935  1.00  0.00     0.060 A 
ATOM     28  C   UNL A   1      37.146  31.947  29.311  1.00  0.00     0.016 A 
ATOM     29  C   UNL A   1      36.167  29.700  29.126  1.00  0.00     0.016 A 
ATOM     30  C   UNL A   1      38.366  31.376  29.548  1.00  0.00     0.010 A 
ATOM     31  C   UNL A   1      37.397  29.132  29.332  1.00  0.00     0.010 A 
ATOM     32  C   UNL A   1      38.490  29.984  29.437  1.00  0.00    -0.014 A 
BRANCH  32  33
ATOM     33  C   UNL A   1      39.821  29.448  29.534  1.00  0.00     0.031 A 
ATOM     34  C   UNL A   1      40.248  29.280  30.928  1.00  0.00     0.074 A 
ATOM     35  C   UNL A   1      40.566  29.095  28.476  1.00  0.00     0.049 A 
ATOM     36  N   UNL A   1      41.045  30.039  31.599  1.00  0.00    -0.248 NA
ATOM     37  C   UNL A   1      39.522  28.281  31.725  1.00  0.00     0.031 C 
ATOM     38  C   UNL A   1      40.140  28.922  27.087  1.00  0.00     0.029 A 
ATOM     39  N   UNL A   1      41.864  28.697  28.466  1.00  0.00    -0.354 N 
ATOM     40  C   UNL A   1      41.112  29.450  32.851  1.00  0.00     0.074 A 
ATOM     41  C   UNL A   1      39.985  28.556  32.941  1.00  0.00     0.031 C 
ATOM     42  C   UNL A   1      41.099  28.235  26.424  1.00  0.00     0.029 A 
ATOM     43  C   UNL A   1      42.237  28.033  27.311  1.00  0.00     0.049 A 
ATOM     44  H   UNL A   1      42.484  28.865  29.213  1.00  0.00     0.167 HD
ATOM     45  C   UNL A   1      42.262  29.473  33.576  1.00  0.00     0.031 A 
ATOM     46  C   UNL A   1      43.354  27.283  27.155  1.00  0.00     0.031 A 
ATOM     47  C   UNL A   1      43.185  30.474  33.096  1.00  0.00     0.049 A 
ATOM     48  C   UNL A   1      44.320  27.681  28.214  1.00  0.00     0.074 A 
ATOM     49  C   UNL A   1      43.126  31.838  32.893  1.00  0.00     0.029 A 
ATOM     50  N   UNL A   1      44.277  30.027  32.388  1.00  0.00    -0.354 N 
ATOM     51  N   UNL A   1      44.909  28.843  28.257  1.00  0.00    -0.248 NA
ATOM     52  C   UNL A   1      44.344  26.933  29.463  1.00  0.00     0.031 C 
ATOM     53  C   UNL A   1      43.937  32.088  31.747  1.00  0.00     0.029 A 
ATOM     54  C   UNL A   1      44.476  30.871  31.326  1.00  0.00     0.049 A 
ATOM     55  H   UNL A   1      44.822  29.236  32.607  1.00  0.00     0.167 HD
ATOM     56  C   UNL A   1      45.006  29.151  29.607  1.00  0.00     0.074 A 
ATOM     57  C   UNL A   1      44.763  27.890  30.298  1.00  0.00     0.031 C 
ATOM     58  C   UNL A   1      44.994  30.448  30.038  1.00  0.00     0.031 A 
BRANCH  45  59
ATOM     59  C   UNL A   1      42.713  28.276  34.378  1.00  0.00    -0.014 A 
ATOM     60  C   UNL A   1      42.855  28.415  35.770  1.00  0.00     0.010 A 
ATOM     61  C   UNL A   1      43.290  27.130  33.785  1.00  0.00     0.010 A 
ATOM     62  C   UNL A   1      43.625  27.508  36.508  1.00  0.00     0.020 A 
ATOM     63  C   UNL A   1      44.011  26.193  34.517  1.00  0.00     0.020 A 
ATOM     64  C   UNL A   1      44.217  26.417  35.868  1.00  0.00     0.054 A 
BRANCH  64  65
ATOM     65  S   UNL A   1      45.344  25.346  36.785  1.00  0.00     0.124 S 
ATOM     66  O   UNL A   1      44.429  24.680  37.706  1.00  0.00    -0.237 OA
ATOM     67  O   UNL A   1      45.907  24.512  35.728  1.00  0.00    -0.237 OA
ATOM     68  O   UNL A   1      46.282  26.286  37.398  1.00  0.00    -0.744 OA
ENDBRANCH  64  65
ENDBRANCH  45  59
BRANCH  46  69
ATOM     69  C   UNL A   1      43.501  26.046  26.350  1.00  0.00    -0.014 A 
ATOM     70  C   UNL A   1      44.604  25.871  25.495  1.00  0.00     0.010 A 
ATOM     71  C   UNL A   1      42.693  24.921  26.614  1.00  0.00     0.010 A 
ATOM     72  C   UNL A   1      44.919  24.606  24.974  1.00  0.00     0.020 A 
ATOM     73  C   UNL A   1      42.989  23.662  26.085  1.00  0.00     0.020 A 
ATOM     74  C   UNL A   1      44.118  23.505  25.287  1.00  0.00     0.054 A 
BRANCH  74  75
ATOM     75  S   UNL A   1      44.626  21.845  24.755  1.00  0.00     0.124 S 
ATOM     76  O   UNL A   1      45.944  21.712  25.369  1.00  0.00    -0.237 OA
ATOM     77  O   UNL A   1      43.577  20.997  25.316  1.00  0.00    -0.237 OA
ATOM     78  O   UNL A   1      44.628  21.936  23.296  1.00  0.00    -0.744 OA
ENDBRANCH  74  75
ENDBRANCH  46  69
BRANCH  58  79
ATOM     79  C   UNL A   1      45.288  31.539  29.035  1.00  0.00    -0.014 A 
ATOM     80  C   UNL A   1      46.523  32.210  28.949  1.00  0.00     0.010 A 
ATOM     81  C   UNL A   1      44.307  31.816  28.065  1.00  0.00     0.010 A 
ATOM     82  C   UNL A   1      46.752  33.164  27.945  1.00  0.00     0.020 A 
ATOM     83  C   UNL A   1      44.537  32.749  27.051  1.00  0.00     0.020 A 
ATOM     84  C   UNL A   1      45.754  33.429  27.004  1.00  0.00     0.054 A 
BRANCH  84  85
ATOM     85  S   UNL A   1      46.072  34.639  25.689  1.00  0.00     0.124 S 
ATOM     86  O   UNL A   1      45.841  35.911  26.366  1.00  0.00    -0.237 OA
ATOM     87  O   UNL A   1      47.460  34.363  25.323  1.00  0.00    -0.237 OA
ATOM     88  O   UNL A   1      45.091  34.299  24.658  1.00  0.00    -0.744 OA
ENDBRANCH  84  85
ENDBRANCH  58  79
ENDBRANCH  32  33
ENDBRANCH  25  27
ENDBRANCH  24  25
ENDBRANCH  23  24
ENDBRANCH  22  23
ENDBRANCH  21  22
ENDBRANCH   1  21
TORSDOF 21
ENDMDL
MODEL 2
REMARK VINA RESULT:     -10.3      3.477      5.088
REMARK SMILES O=C(Cn1cc(-c2ccccc2CO)cn1)OCCOCCOC(=O)c1ccc(-c2c3nc(c(-c4ccc(S(=O)(=O)[O-])cc4)c4ccc([nH]4)c(-c4ccc(S(=O)(=O)[O-])cc4)c4nc(c(-c5ccc(S(=O)(=O)[O-])cc5)c5ccc2[nH]5)C=C4)C=C3)cc1
REMARK SMILES IDX 19 1 18 2 17 3 2 4 1 5 3 6 4 7 5 8 16 9 6 10 15 11 7 12 8 13
REMARK SMILES IDX 12 14 9 15 11 16 10 17 13 18 14 19 20 21 21 22 22 23 23 24
REMARK SMILES IDX 24 25 25 26 26 27 27 28 85 29 28 30 84 31 29 32 30 33 31 34
REMARK SMILES IDX 78 35 32 36 83 37 77 38 79 39 33 40 82 41 76 42 75 43 34 45
REMARK SMILES IDX 64 46 45 47 63 48 46 49 49 50 62 51 80 52 47 53 48 54 61 56
REMARK SMILES IDX 81 57 50 58 35 59 36 60 44 61 37 62 43 63 38 64 39 65 40 66
REMARK SMILES IDX 41 67 42 68 65 69 66 70 74 71 67 72 73 73 68 74 69 75 70 76
REMARK SMILES IDX 71 77 72 78 51 79 52 80 60 81 53 82 59 83 54 84 55 85 56 86
REMARK SMILES IDX 57 87 58 88
REMARK H PARENT 14 20 79 44 49 55
REMARK Flexibility Score: inf
ROOT
ATOM      1  C   UNL A   1      34.496  33.380  28.150  1.00  0.00     0.202 C 
ENDROOT
BRANCH   1   2
ATOM      2  C   UNL A   1      34.258  31.883  28.231  1.00  0.00     0.261 C 
BRANCH   2   3
ATOM      3  O   UNL A   1      33.311  31.358  27.291  1.00  0.00    -0.462 OA
BRANCH   3   4
ATOM      4  C   UNL A   1      33.309  30.077  26.846  1.00  0.00     0.327 C 
ATOM      5  O   UNL A   1      33.940  29.223  27.468  1.00  0.00    -0.250 OA
BRANCH   4   6
ATOM      6  C   UNL A   1      32.630  29.728  25.549  1.00  0.00     0.266 C 
BRANCH   6   7
ATOM      7  N   UNL A   1      32.610  28.317  25.228  1.00  0.00    -0.261 N 
ATOM      8  C   UNL A   1      33.587  27.587  24.615  1.00  0.00     0.118 A 
ATOM      9  N   UNL A   1      31.592  27.558  25.688  1.00  0.00    -0.180 NA
ATOM     10  C   UNL A   1      33.266  26.268  24.854  1.00  0.00     0.020 A 
ATOM     11  C   UNL A   1      32.005  26.306  25.476  1.00  0.00     0.143 A 
BRANCH  10  12
ATOM     12  C   UNL A   1      34.128  25.170  24.499  1.00  0.00    -0.010 A 
ATOM     13  C   UNL A   1      35.070  24.758  25.451  1.00  0.00     0.009 A 
ATOM     14  C   UNL A   1      34.007  24.485  23.271  1.00  0.00    -0.015 A 
ATOM     15  C   UNL A   1      35.876  23.650  25.212  1.00  0.00     0.001 A 
ATOM     16  C   UNL A   1      34.817  23.356  23.060  1.00  0.00     0.007 A 
ATOM     17  C   UNL A   1      35.743  22.942  24.021  1.00  0.00     0.000 A 
BRANCH  14  18
ATOM     18  C   UNL A   1      32.991  24.854  22.217  1.00  0.00     0.192 C 
BRANCH  18  19
ATOM     19  O   UNL A   1      33.167  24.068  21.042  1.00  0.00    -0.392 OA
ATOM     20  H   UNL A   1      32.923  23.148  21.229  1.00  0.00     0.211 HD
ENDBRANCH  18  19
ENDBRANCH  14  18
ENDBRANCH  10  12
ENDBRANCH   6   7
ENDBRANCH   4   6
ENDBRANCH   3   4
ENDBRANCH   2   3
ENDBRANCH   1   2
BRANCH   1  21
ATOM     21  O   UNL A   1      34.091  34.162  29.265  1.00  0.00    -0.374 OA
BRANCH  21  22
ATOM     22  C   UNL A   1      32.943  35.004  29.135  1.00  0.00     0.202 C 
BRANCH  22  23
ATOM     23  C   UNL A   1      32.904  36.252  29.997  1.00  0.00     0.261 C 
BRANCH  23  24
ATOM     24  O   UNL A   1      33.637  36.025  31.188  1.00  0.00    -0.460 OA
BRANCH  24  25
ATOM     25  C   UNL A   1      32.987  35.381  32.176  1.00  0.00     0.338 C 
ATOM     26  O   UNL A   1      31.800  35.471  32.473  1.00  0.00    -0.246 OA
BRANCH  25  27
ATOM     27  C   UNL A   1      33.994  34.637  32.930  1.00  0.00     0.060 A 
ATOM     28  C   UNL A   1      35.122  35.382  33.256  1.00  0.00     0.016 A 
ATOM     29  C   UNL A   1      34.002  33.232  32.851  1.00  0.00     0.016 A 
ATOM     30  C   UNL A   1      36.332  34.750  33.154  1.00  0.00     0.010 A 
ATOM     31  C   UNL A   1      35.215  32.609  32.719  1.00  0.00     0.010 A 
ATOM     32  C   UNL A   1      36.356  33.403  32.770  1.00  0.00    -0.014 A 
BRANCH  32  33
ATOM     33  C   UNL A   1      37.650  32.830  32.519  1.00  0.00     0.031 A 
ATOM     34  C   UNL A   1      38.440  32.689  33.748  1.00  0.00     0.074 A 
ATOM     35  C   UNL A   1      38.068  32.423  31.312  1.00  0.00     0.049 A 
ATOM     36  N   UNL A   1      39.407  33.442  34.148  1.00  0.00    -0.248 NA
ATOM     37  C   UNL A   1      37.939  31.735  34.749  1.00  0.00     0.031 C 
ATOM     38  C   UNL A   1      37.274  32.223  30.099  1.00  0.00     0.029 A 
ATOM     39  N   UNL A   1      39.305  31.986  30.961  1.00  0.00    -0.354 N 
ATOM     40  C   UNL A   1      39.802  32.888  35.355  1.00  0.00     0.074 A 
ATOM     41  C   UNL A   1      38.724  32.031  35.781  1.00  0.00     0.031 C 
ATOM     42  C   UNL A   1      37.999  31.489  29.224  1.00  0.00     0.029 A 
ATOM     43  C   UNL A   1      39.332  31.277  29.773  1.00  0.00     0.049 A 
ATOM     44  H   UNL A   1      40.110  32.157  31.503  1.00  0.00     0.167 HD
ATOM     45  C   UNL A   1      41.107  32.897  35.735  1.00  0.00     0.031 A 
ATOM     46  C   UNL A   1      40.348  30.490  29.344  1.00  0.00     0.031 A 
ATOM     47  C   UNL A   1      41.884  33.855  34.986  1.00  0.00     0.049 A 
ATOM     48  C   UNL A   1      41.575  30.889  30.083  1.00  0.00     0.074 A 
ATOM     49  C   UNL A   1      41.801  35.214  34.757  1.00  0.00     0.029 A 
ATOM     50  N   UNL A   1      42.729  33.355  34.022  1.00  0.00    -0.354 N 
ATOM     51  N   UNL A   1      42.178  32.033  29.921  1.00  0.00    -0.248 NA
ATOM     52  C   UNL A   1      41.925  30.176  31.305  1.00  0.00     0.031 C 
ATOM     53  C   UNL A   1      42.271  35.405  33.425  1.00  0.00     0.029 A 
ATOM     54  C   UNL A   1      42.648  34.161  32.917  1.00  0.00     0.049 A 
ATOM     55  H   UNL A   1      43.297  32.554  34.112  1.00  0.00     0.167 HD
ATOM     56  C   UNL A   1      42.649  32.376  31.182  1.00  0.00     0.074 A 
ATOM     57  C   UNL A   1      42.577  31.144  31.958  1.00  0.00     0.031 C 
ATOM     58  C   UNL A   1      42.783  33.686  31.553  1.00  0.00     0.031 A 
BRANCH  45  59
ATOM     59  C   UNL A   1      41.735  31.710  36.426  1.00  0.00    -0.014 A 
ATOM     60  C   UNL A   1      42.680  31.946  37.441  1.00  0.00     0.010 A 
ATOM     61  C   UNL A   1      41.662  30.396  35.910  1.00  0.00     0.010 A 
ATOM     62  C   UNL A   1      43.573  30.944  37.838  1.00  0.00     0.020 A 
ATOM     63  C   UNL A   1      42.508  29.378  36.337  1.00  0.00     0.020 A 
ATOM     64  C   UNL A   1      43.493  29.674  37.263  1.00  0.00     0.054 A 
BRANCH  64  65
ATOM     65  S   UNL A   1      44.748  28.436  37.652  1.00  0.00     0.124 S 
ATOM     66  O   UNL A   1      43.985  27.198  37.532  1.00  0.00    -0.237 OA
ATOM     67  O   UNL A   1      45.749  28.674  36.616  1.00  0.00    -0.237 OA
ATOM     68  O   UNL A   1      45.164  28.790  39.008  1.00  0.00    -0.744 OA
ENDBRANCH  64  65
ENDBRANCH  45  59
BRANCH  46  69
ATOM     69  C   UNL A   1      40.242  29.226  28.575  1.00  0.00    -0.014 A 
ATOM     70  C   UNL A   1      41.106  28.966  27.496  1.00  0.00     0.010 A 
ATOM     71  C   UNL A   1      39.461  28.156  29.061  1.00  0.00     0.010 A 
ATOM     72  C   UNL A   1      41.227  27.672  26.966  1.00  0.00     0.020 A 
ATOM     73  C   UNL A   1      39.563  26.869  28.527  1.00  0.00     0.020 A 
ATOM     74  C   UNL A   1      40.467  26.627  27.497  1.00  0.00     0.054 A 
BRANCH  74  75
ATOM     75  S   UNL A   1      40.753  24.927  26.926  1.00  0.00     0.124 S 
ATOM     76  O   UNL A   1      39.407  24.485  26.579  1.00  0.00    -0.237 OA
ATOM     77  O   UNL A   1      41.667  25.119  25.803  1.00  0.00    -0.237 OA
ATOM     78  O   UNL A   1      41.341  24.268  28.092  1.00  0.00    -0.744 OA
ENDBRANCH  74  75
ENDBRANCH  46  69
BRANCH  58  79
ATOM     79  C   UNL A   1      42.814  34.737  30.468  1.00  0.00    -0.014 A 
ATOM     80  C   UNL A   1      41.808  34.886  29.494  1.00  0.00     0.010 A 
ATOM     81  C   UNL A   1      43.852  35.687  30.508  1.00  0.00     0.010 A 
ATOM     82  C   UNL A   1      41.863  35.931  28.559  1.00  0.00     0.020 A 
ATOM     83  C   UNL A   1      43.902  36.742  29.593  1.00  0.00     0.020 A 
ATOM     84  C   UNL A   1      42.914  36.850  28.614  1.00  0.00     0.054 A 
BRANCH  84  85
ATOM     85  S   UNL A   1      42.959  38.219  27.423  1.00  0.00     0.124 S 
ATOM     86  O   UNL A   1      41.672  38.092  26.745  1.00  0.00    -0.237 OA
ATOM     87  O   UNL A   1      43.106  39.392  28.282  1.00  0.00    -0.237 OA
ATOM     88  O   UNL A   1      44.127  37.920  26.593  1.00  0.00    -0.744 OA
ENDBRANCH  84  85
ENDBRANCH  58  79
ENDBRANCH  32  33
ENDBRANCH  25  27
ENDBRANCH  24  25
ENDBRANCH  23  24
ENDBRANCH  22  23
ENDBRANCH  21  22
ENDBRANCH   1  21
TORSDOF 21
ENDMDL
MODEL 3
REMARK VINA RESULT:     -10.2      2.939      9.510
REMARK SMILES O=C(Cn1cc(-c2ccccc2CO)cn1)OCCOCCOC(=O)c1ccc(-c2c3nc(c(-c4ccc(S(=O)(=O)[O-])cc4)c4ccc([nH]4)c(-c4ccc(S(=O)(=O)[O-])cc4)c4nc(c(-c5ccc(S(=O)(=O)[O-])cc5)c5ccc2[nH]5)C=C4)C=C3)cc1
REMARK SMILES IDX 19 1 18 2 17 3 2 4 1 5 3 6 4 7 5 8 16 9 6 10 15 11 7 12 8 13
REMARK SMILES IDX 12 14 9 15 11 16 10 17 13 18 14 19 20 21 21 22 22 23 23 24
REMARK SMILES IDX 24 25 25 26 26 27 27 28 85 29 28 30 84 31 29 32 30 33 31 34
REMARK SMILES IDX 78 35 32 36 83 37 77 38 79 39 33 40 82 41 76 42 75 43 34 45
REMARK SMILES IDX 64 46 45 47 63 48 46 49 49 50 62 51 80 52 47 53 48 54 61 56
REMARK SMILES IDX 81 57 50 58 35 59 36 60 44 61 37 62 43 63 38 64 39 65 40 66
REMARK SMILES IDX 41 67 42 68 65 69 66 70 74 71 67 72 73 73 68 74 69 75 70 76
REMARK SMILES IDX 71 77 72 78 51 79 52 80 60 81 53 82 59 83 54 84 55 85 56 86
REMARK SMILES IDX 57 87 58 88
REMARK H PARENT 14 20 79 44 49 55
REMARK Flexibility Score: inf
ROOT
ATOM      1  C   UNL A   1      36.540  22.608  23.681  1.00  0.00     0.202 C 
ENDROOT
BRANCH   1   2
ATOM      2  C   UNL A   1      35.159  23.230  23.792  1.00  0.00     0.261 C 
BRANCH   2   3
ATOM      3  O   UNL A   1      34.066  22.367  23.450  1.00  0.00    -0.462 OA
BRANCH   3   4
ATOM      4  C   UNL A   1      32.823  22.803  23.127  1.00  0.00     0.327 C 
ATOM      5  O   UNL A   1      31.859  22.413  23.786  1.00  0.00    -0.250 OA
BRANCH   4   6
ATOM      6  C   UNL A   1      32.616  23.668  21.914  1.00  0.00     0.266 C 
BRANCH   6   7
ATOM      7  N   UNL A   1      32.665  25.093  22.161  1.00  0.00    -0.261 N 
ATOM      8  C   UNL A   1      32.019  25.794  23.139  1.00  0.00     0.118 A 
ATOM      9  N   UNL A   1      33.543  25.845  21.464  1.00  0.00    -0.180 NA
ATOM     10  C   UNL A   1      32.648  27.019  23.190  1.00  0.00     0.020 A 
ATOM     11  C   UNL A   1      33.544  27.015  22.107  1.00  0.00     0.143 A 
BRANCH  10  12
ATOM     12  C   UNL A   1      32.362  28.009  24.196  1.00  0.00    -0.010 A 
ATOM     13  C   UNL A   1      33.139  27.986  25.361  1.00  0.00     0.009 A 
ATOM     14  C   UNL A   1      31.383  29.009  24.011  1.00  0.00    -0.015 A 
ATOM     15  C   UNL A   1      32.979  28.965  26.336  1.00  0.00     0.001 A 
ATOM     16  C   UNL A   1      31.252  29.999  25.000  1.00  0.00     0.007 A 
ATOM     17  C   UNL A   1      32.042  29.977  26.152  1.00  0.00     0.000 A 
BRANCH  14  18
ATOM     18  C   UNL A   1      30.535  29.113  22.767  1.00  0.00     0.192 C 
BRANCH  18  19
ATOM     19  O   UNL A   1      31.104  30.030  21.837  1.00  0.00    -0.392 OA
ATOM     20  H   UNL A   1      30.664  30.892  21.923  1.00  0.00     0.211 HD
ENDBRANCH  18  19
ENDBRANCH  14  18
ENDBRANCH  10  12
ENDBRANCH   6   7
ENDBRANCH   4   6
ENDBRANCH   3   4
ENDBRANCH   2   3
ENDBRANCH   1   2
BRANCH   1  21
ATOM     21  O   UNL A   1      37.252  22.388  24.891  1.00  0.00    -0.374 OA
BRANCH  21  22
ATOM     22  C   UNL A   1      37.958  21.157  25.061  1.00  0.00     0.202 C 
BRANCH  22  23
ATOM     23  C   UNL A   1      39.124  21.160  26.032  1.00  0.00     0.261 C 
BRANCH  23  24
ATOM     24  O   UNL A   1      39.267  22.455  26.592  1.00  0.00    -0.460 OA
BRANCH  24  25
ATOM     25  C   UNL A   1      40.368  22.666  27.337  1.00  0.00     0.338 C 
ATOM     26  O   UNL A   1      40.896  21.890  28.128  1.00  0.00    -0.246 OA
BRANCH  25  27
ATOM     27  C   UNL A   1      40.759  24.058  27.128  1.00  0.00     0.060 A 
ATOM     28  C   UNL A   1      41.998  24.384  27.669  1.00  0.00     0.016 A 
ATOM     29  C   UNL A   1      39.760  25.015  26.875  1.00  0.00     0.016 A 
ATOM     30  C   UNL A   1      42.105  25.603  28.282  1.00  0.00     0.010 A 
ATOM     31  C   UNL A   1      39.857  26.222  27.517  1.00  0.00     0.010 A 
ATOM     32  C   UNL A   1      40.988  26.449  28.294  1.00  0.00    -0.014 A 
BRANCH  32  33
ATOM     33  C   UNL A   1      41.095  27.644  29.087  1.00  0.00     0.031 A 
ATOM     34  C   UNL A   1      42.133  28.550  28.582  1.00  0.00     0.074 A 
ATOM     35  C   UNL A   1      40.306  27.921  30.135  1.00  0.00     0.049 A 
ATOM     36  N   UNL A   1      43.317  28.728  29.060  1.00  0.00    -0.248 NA
ATOM     37  C   UNL A   1      41.897  29.152  27.262  1.00  0.00     0.031 C 
ATOM     38  C   UNL A   1      39.060  27.261  30.529  1.00  0.00     0.029 A 
ATOM     39  N   UNL A   1      40.411  28.956  31.007  1.00  0.00    -0.354 N 
ATOM     40  C   UNL A   1      43.890  29.672  28.224  1.00  0.00     0.074 A 
ATOM     41  C   UNL A   1      43.089  29.694  27.025  1.00  0.00     0.031 C 
ATOM     42  C   UNL A   1      38.413  28.055  31.414  1.00  0.00     0.029 A 
ATOM     43  C   UNL A   1      39.254  29.203  31.725  1.00  0.00     0.049 A 
ATOM     44  H   UNL A   1      41.235  29.484  31.118  1.00  0.00     0.167 HD
ATOM     45  C   UNL A   1      44.754  30.603  28.707  1.00  0.00     0.031 A 
ATOM     46  C   UNL A   1      38.984  30.329  32.428  1.00  0.00     0.031 A 
ATOM     47  C   UNL A   1      45.278  30.237  30.001  1.00  0.00     0.049 A 
ATOM     48  C   UNL A   1      40.275  31.013  32.703  1.00  0.00     0.074 A 
ATOM     49  C   UNL A   1      45.957  29.147  30.506  1.00  0.00     0.029 A 
ATOM     50  N   UNL A   1      44.782  30.918  31.090  1.00  0.00    -0.354 N 
ATOM     51  N   UNL A   1      41.190  30.540  33.502  1.00  0.00    -0.248 NA
ATOM     52  C   UNL A   1      40.736  32.046  31.785  1.00  0.00     0.031 C 
ATOM     53  C   UNL A   1      45.495  28.997  31.846  1.00  0.00     0.029 A 
ATOM     54  C   UNL A   1      44.581  30.019  32.105  1.00  0.00     0.049 A 
ATOM     55  H   UNL A   1      44.604  31.886  31.132  1.00  0.00     0.167 HD
ATOM     56  C   UNL A   1      42.399  30.896  32.921  1.00  0.00     0.074 A 
ATOM     57  C   UNL A   1      42.057  31.926  31.945  1.00  0.00     0.031 C 
ATOM     58  C   UNL A   1      43.517  30.126  33.086  1.00  0.00     0.031 A 
BRANCH  45  59
ATOM     59  C   UNL A   1      44.726  32.033  28.222  1.00  0.00    -0.014 A 
ATOM     60  C   UNL A   1      45.918  32.601  27.738  1.00  0.00     0.010 A 
ATOM     61  C   UNL A   1      43.663  32.919  28.509  1.00  0.00     0.010 A 
ATOM     62  C   UNL A   1      46.067  33.991  27.648  1.00  0.00     0.020 A 
ATOM     63  C   UNL A   1      43.782  34.298  28.372  1.00  0.00     0.020 A 
ATOM     64  C   UNL A   1      45.002  34.828  27.991  1.00  0.00     0.054 A 
BRANCH  64  65
ATOM     65  S   UNL A   1      45.250  36.615  28.037  1.00  0.00     0.124 S 
ATOM     66  O   UNL A   1      45.508  36.911  26.632  1.00  0.00    -0.237 OA
ATOM     67  O   UNL A   1      43.975  37.090  28.567  1.00  0.00    -0.237 OA
ATOM     68  O   UNL A   1      46.392  36.776  28.935  1.00  0.00    -0.744 OA
ENDBRANCH  64  65
ENDBRANCH  45  59
BRANCH  46  69
ATOM     69  C   UNL A   1      37.667  30.991  32.594  1.00  0.00    -0.014 A 
ATOM     70  C   UNL A   1      37.407  31.807  33.710  1.00  0.00     0.010 A 
ATOM     71  C   UNL A   1      36.747  31.031  31.526  1.00  0.00     0.010 A 
ATOM     72  C   UNL A   1      36.304  32.674  33.728  1.00  0.00     0.020 A 
ATOM     73  C   UNL A   1      35.635  31.878  31.543  1.00  0.00     0.020 A 
ATOM     74  C   UNL A   1      35.433  32.716  32.636  1.00  0.00     0.054 A 
BRANCH  74  75
ATOM     75  S   UNL A   1      34.110  33.959  32.589  1.00  0.00     0.124 S 
ATOM     76  O   UNL A   1      34.708  35.075  33.316  1.00  0.00    -0.237 OA
ATOM     77  O   UNL A   1      33.919  34.166  31.156  1.00  0.00    -0.237 OA
ATOM     78  O   UNL A   1      32.996  33.302  33.270  1.00  0.00    -0.744 OA
ENDBRANCH  74  75
ENDBRANCH  46  69
BRANCH  58  79
ATOM     79  C   UNL A   1      43.537  29.128  34.220  1.00  0.00    -0.014 A 
ATOM     80  C   UNL A   1      43.995  29.427  35.517  1.00  0.00     0.010 A 
ATOM     81  C   UNL A   1      42.962  27.865  33.988  1.00  0.00     0.010 A 
ATOM     82  C   UNL A   1      43.919  28.473  36.543  1.00  0.00     0.020 A 
ATOM     83  C   UNL A   1      42.864  26.917  35.011  1.00  0.00     0.020 A 
ATOM     84  C   UNL A   1      43.356  27.221  36.280  1.00  0.00     0.054 A 
BRANCH  84  85
ATOM     85  S   UNL A   1      43.230  26.005  37.621  1.00  0.00     0.124 S 
ATOM     86  O   UNL A   1      41.787  25.829  37.755  1.00  0.00    -0.237 OA
ATOM     87  O   UNL A   1      43.957  24.855  37.086  1.00  0.00    -0.237 OA
ATOM     88  O   UNL A   1      43.880  26.665  38.753  1.00  0.00    -0.744 OA
ENDBRANCH  84  85
ENDBRANCH  58  79
ENDBRANCH  32  33
ENDBRANCH  25  27
ENDBRANCH  24  25
ENDBRANCH  23  24
ENDBRANCH  22  23
ENDBRANCH  21  22
ENDBRANCH   1  21
TORSDOF 21
ENDMDL
