MODEL 1
REMARK VINA RESULT:     -10.9      0.000      0.000
REMARK SMILES Cc1cccc(-n2c(C)cc(/C=N\c3ccc(O)c(C(=O)OCCOCCOC(=O)c4ccc(-c5c6nc(c(-c7ccc(S(=O)(=O)[O-])cc7)c7ccc([nH]7)c(-c7ccc(S(=O)(=O)[O-])cc7)c7nc(c(-c8ccc(S(=O)(=O)[O-])cc8)c8ccc5[nH]8)C=C7)C=C6)cc4)c3)c2C)c1
REMARK SMILES IDX 25 1 24 2 23 3 22 4 20 5 21 6 19 7 14 8 15 9 91 10 16 11
REMARK SMILES IDX 17 12 13 13 12 14 11 15 7 16 8 17 92 18 9 19 10 20 93 21
REMARK SMILES IDX 6 22 1 23 2 24 3 25 94 26 4 27 5 28 18 29 26 31 27 32 28 33
REMARK SMILES IDX 29 34 30 35 31 36 32 37 90 38 33 39 89 40 34 41 35 42 36 43
REMARK SMILES IDX 83 44 37 45 88 46 82 47 84 48 38 49 87 50 81 51 80 52 39 54
REMARK SMILES IDX 69 55 50 56 68 57 51 58 54 59 67 60 85 61 52 62 53 63 66 65
REMARK SMILES IDX 86 66 55 67 40 68 41 69 49 70 42 71 48 72 43 73 44 74 45 75
REMARK SMILES IDX 46 76 47 77 70 78 71 79 79 80 72 81 78 82 73 83 74 84 75 85
REMARK SMILES IDX 76 86 77 87 56 88 57 89 65 90 58 91 64 92 59 93 60 94 61 95
REMARK SMILES IDX 62 96 63 97
REMARK H PARENT 18 30 84 53 54 64
REMARK Flexibility Score: inf
ROOT
ATOM      1  O   UNL A   1      39.221  21.878  26.418  1.00  0.00    -0.374 OA
ENDROOT
BRANCH   1   2
ATOM      2  C   UNL A   1      39.865  20.641  26.488  1.00  0.00     0.202 C 
BRANCH   2   3
ATOM      3  C   UNL A   1      41.307  20.688  26.751  1.00  0.00     0.261 C 
BRANCH   3   4
ATOM      4  O   UNL A   1      42.030  20.580  25.551  1.00  0.00    -0.460 OA
BRANCH   4   5
ATOM      5  C   UNL A   1      42.841  19.519  25.658  1.00  0.00     0.342 C 
ATOM      6  O   UNL A   1      42.494  18.341  25.760  1.00  0.00    -0.246 OA
BRANCH   5   7
ATOM      7  C   UNL A   1      44.215  19.973  25.472  1.00  0.00     0.103 A 
ATOM      8  C   UNL A   1      45.474  21.749  24.486  1.00  0.00     0.064 A 
ATOM      9  C   UNL A   1      46.614  20.945  24.491  1.00  0.00     0.032 A 
ATOM     10  C   UNL A   1      44.324  21.315  25.117  1.00  0.00     0.048 A 
ATOM     11  C   UNL A   1      46.546  19.633  24.972  1.00  0.00     0.049 A 
ATOM     12  C   UNL A   1      45.326  19.124  25.400  1.00  0.00     0.130 A 
BRANCH   8  13
ATOM     13  N   UNL A   1      45.411  22.970  23.836  1.00  0.00    -0.256 NA
ATOM     14  C   UNL A   1      45.697  24.093  24.427  1.00  0.00     0.121 C 
BRANCH  14  15
ATOM     15  C   UNL A   1      45.984  24.478  25.817  1.00  0.00     0.014 A 
ATOM     16  N   UNL A   1      46.079  25.200  27.973  1.00  0.00    -0.318 N 
ATOM     17  C   UNL A   1      47.380  25.035  27.548  1.00  0.00     0.021 A 
ATOM     18  C   UNL A   1      45.225  24.784  26.951  1.00  0.00     0.029 A 
ATOM     19  C   UNL A   1      48.564  25.276  28.410  1.00  0.00     0.065 C 
ATOM     20  C   UNL A   1      47.341  24.564  26.255  1.00  0.00     0.033 A 
ATOM     21  C   UNL A   1      43.762  24.808  27.170  1.00  0.00     0.065 C 
BRANCH  16  22
ATOM     22  C   UNL A   1      45.663  25.823  29.185  1.00  0.00     0.046 A 
ATOM     23  C   UNL A   1      44.696  29.317  30.342  1.00  0.00     0.044 C 
ATOM     24  C   UNL A   1      44.889  27.831  30.300  1.00  0.00    -0.049 A 
ATOM     25  C   UNL A   1      44.393  27.039  31.346  1.00  0.00     0.003 A 
ATOM     26  C   UNL A   1      45.530  27.216  29.215  1.00  0.00     0.030 A 
ATOM     27  C   UNL A   1      44.565  25.656  31.332  1.00  0.00     0.002 A 
ATOM     28  C   UNL A   1      45.223  25.047  30.264  1.00  0.00     0.026 A 
ENDBRANCH  16  22
ENDBRANCH  14  15
ENDBRANCH   8  13
BRANCH  12  29
ATOM     29  O   UNL A   1      45.276  17.772  25.576  1.00  0.00    -0.507 OA
ATOM     30  H   UNL A   1      45.265  17.412  26.442  1.00  0.00     0.293 HD
ENDBRANCH  12  29
ENDBRANCH   5   7
ENDBRANCH   4   5
ENDBRANCH   3   4
ENDBRANCH   2   3
ENDBRANCH   1   2
BRANCH   1  31
ATOM     31  C   UNL A   1      40.007  22.855  27.119  1.00  0.00     0.202 C 
BRANCH  31  32
ATOM     32  C   UNL A   1      40.430  24.179  26.362  1.00  0.00     0.261 C 
BRANCH  32  33
ATOM     33  O   UNL A   1      39.641  25.324  26.820  1.00  0.00    -0.460 OA
BRANCH  33  34
ATOM     34  C   UNL A   1      40.272  26.509  27.150  1.00  0.00     0.338 C 
ATOM     35  O   UNL A   1      40.776  27.287  26.365  1.00  0.00    -0.246 OA
BRANCH  34  36
ATOM     36  C   UNL A   1      40.299  26.645  28.658  1.00  0.00     0.060 A 
ATOM     37  C   UNL A   1      39.162  26.432  29.467  1.00  0.00     0.016 A 
ATOM     38  C   UNL A   1      41.362  27.365  29.179  1.00  0.00     0.016 A 
ATOM     39  C   UNL A   1      39.011  27.124  30.695  1.00  0.00     0.010 A 
ATOM     40  C   UNL A   1      41.116  28.173  30.267  1.00  0.00     0.010 A 
ATOM     41  C   UNL A   1      39.945  28.099  31.037  1.00  0.00    -0.014 A 
BRANCH  41  42
ATOM     42  C   UNL A   1      39.767  29.206  32.013  1.00  0.00     0.031 A 
ATOM     43  C   UNL A   1      38.939  30.357  31.566  1.00  0.00     0.074 A 
ATOM     44  C   UNL A   1      40.200  29.136  33.307  1.00  0.00     0.049 A 
ATOM     45  N   UNL A   1      39.242  31.589  31.793  1.00  0.00    -0.248 NA
ATOM     46  C   UNL A   1      37.760  30.242  30.695  1.00  0.00     0.031 C 
ATOM     47  C   UNL A   1      39.842  29.959  34.464  1.00  0.00     0.029 A 
ATOM     48  N   UNL A   1      41.125  28.253  33.858  1.00  0.00    -0.354 N 
ATOM     49  C   UNL A   1      38.113  32.318  31.473  1.00  0.00     0.074 A 
ATOM     50  C   UNL A   1      37.388  31.509  30.545  1.00  0.00     0.031 C 
ATOM     51  C   UNL A   1      40.703  29.724  35.479  1.00  0.00     0.029 A 
ATOM     52  C   UNL A   1      41.677  28.744  35.036  1.00  0.00     0.049 A 
ATOM     53  H   UNL A   1      41.361  27.383  33.461  1.00  0.00     0.167 HD
ATOM     54  C   UNL A   1      37.720  33.359  32.260  1.00  0.00     0.031 A 
ATOM     55  C   UNL A   1      43.030  28.722  35.115  1.00  0.00     0.031 A 
ATOM     56  C   UNL A   1      38.620  33.477  33.420  1.00  0.00     0.049 A 
ATOM     57  C   UNL A   1      43.416  30.150  34.835  1.00  0.00     0.074 A 
ATOM     58  C   UNL A   1      38.454  33.242  34.775  1.00  0.00     0.029 A 
ATOM     59  N   UNL A   1      39.998  33.518  33.208  1.00  0.00    -0.354 N 
ATOM     60  N   UNL A   1      42.632  30.984  34.193  1.00  0.00    -0.248 NA
ATOM     61  C   UNL A   1      44.530  30.820  35.493  1.00  0.00     0.031 C 
ATOM     62  C   UNL A   1      39.754  33.097  35.358  1.00  0.00     0.029 A 
ATOM     63  C   UNL A   1      40.709  33.231  34.357  1.00  0.00     0.049 A 
ATOM     64  H   UNL A   1      40.417  33.728  32.341  1.00  0.00     0.167 HD
ATOM     65  C   UNL A   1      42.960  32.258  34.544  1.00  0.00     0.074 A 
ATOM     66  C   UNL A   1      44.204  32.110  35.292  1.00  0.00     0.031 C 
ATOM     67  C   UNL A   1      42.167  33.355  34.358  1.00  0.00     0.031 A 
BRANCH  54  68
ATOM     68  C   UNL A   1      36.365  34.049  32.138  1.00  0.00    -0.014 A 
ATOM     69  C   UNL A   1      35.917  34.905  33.160  1.00  0.00     0.010 A 
ATOM     70  C   UNL A   1      35.495  33.935  31.028  1.00  0.00     0.010 A 
ATOM     71  C   UNL A   1      34.685  35.586  33.085  1.00  0.00     0.020 A 
ATOM     72  C   UNL A   1      34.247  34.573  30.953  1.00  0.00     0.020 A 
ATOM     73  C   UNL A   1      33.856  35.415  31.978  1.00  0.00     0.054 A 
BRANCH  73  74
ATOM     74  S   UNL A   1      32.315  36.357  31.850  1.00  0.00     0.124 S 
ATOM     75  O   UNL A   1      32.645  37.602  32.536  1.00  0.00    -0.237 OA
ATOM     76  O   UNL A   1      32.131  36.461  30.405  1.00  0.00    -0.237 OA
ATOM     77  O   UNL A   1      31.333  35.517  32.536  1.00  0.00    -0.744 OA
ENDBRANCH  73  74
ENDBRANCH  54  68
BRANCH  55  78
ATOM     78  C   UNL A   1      43.564  27.365  34.683  1.00  0.00    -0.014 A 
ATOM     79  C   UNL A   1      44.964  27.191  34.861  1.00  0.00     0.010 A 
ATOM     80  C   UNL A   1      42.787  26.186  34.669  1.00  0.00     0.010 A 
ATOM     81  C   UNL A   1      45.537  25.940  35.164  1.00  0.00     0.020 A 
ATOM     82  C   UNL A   1      43.358  24.926  34.988  1.00  0.00     0.020 A 
ATOM     83  C   UNL A   1      44.722  24.819  35.275  1.00  0.00     0.054 A 
BRANCH  83  84
ATOM     84  S   UNL A   1      45.435  23.295  35.985  1.00  0.00     0.124 S 
ATOM     85  O   UNL A   1      44.537  22.259  35.488  1.00  0.00    -0.237 OA
ATOM     86  O   UNL A   1      46.783  23.289  35.418  1.00  0.00    -0.237 OA
ATOM     87  O   UNL A   1      45.391  23.543  37.421  1.00  0.00    -0.744 OA
ENDBRANCH  83  84
ENDBRANCH  55  78
BRANCH  67  88
ATOM     88  C   UNL A   1      42.746  34.729  34.149  1.00  0.00    -0.014 A 
ATOM     89  C   UNL A   1      42.968  35.279  32.881  1.00  0.00     0.010 A 
ATOM     90  C   UNL A   1      42.886  35.592  35.264  1.00  0.00     0.010 A 
ATOM     91  C   UNL A   1      43.377  36.601  32.733  1.00  0.00     0.020 A 
ATOM     92  C   UNL A   1      43.211  36.935  35.122  1.00  0.00     0.020 A 
ATOM     93  C   UNL A   1      43.489  37.422  33.854  1.00  0.00     0.054 A 
BRANCH  93  94
ATOM     94  S   UNL A   1      43.967  39.140  33.620  1.00  0.00     0.124 S 
ATOM     95  O   UNL A   1      44.617  39.439  34.892  1.00  0.00    -0.237 OA
ATOM     96  O   UNL A   1      44.856  39.067  32.462  1.00  0.00    -0.237 OA
ATOM     97  O   UNL A   1      42.699  39.825  33.384  1.00  0.00    -0.744 OA
ENDBRANCH  93  94
ENDBRANCH  67  88
ENDBRANCH  41  42
ENDBRANCH  34  36
ENDBRANCH  33  34
ENDBRANCH  32  33
ENDBRANCH  31  32
ENDBRANCH   1  31
TORSDOF 21
ENDMDL
MODEL 2
REMARK VINA RESULT:     -10.7      5.146     12.757
REMARK SMILES Cc1cccc(-n2c(C)cc(/C=N\c3ccc(O)c(C(=O)OCCOCCOC(=O)c4ccc(-c5c6nc(c(-c7ccc(S(=O)(=O)[O-])cc7)c7ccc([nH]7)c(-c7ccc(S(=O)(=O)[O-])cc7)c7nc(c(-c8ccc(S(=O)(=O)[O-])cc8)c8ccc5[nH]8)C=C7)C=C6)cc4)c3)c2C)c1
REMARK SMILES IDX 25 1 24 2 23 3 22 4 20 5 21 6 19 7 14 8 15 9 91 10 16 11
REMARK SMILES IDX 17 12 13 13 12 14 11 15 7 16 8 17 92 18 9 19 10 20 93 21
REMARK SMILES IDX 6 22 1 23 2 24 3 25 94 26 4 27 5 28 18 29 26 31 27 32 28 33
REMARK SMILES IDX 29 34 30 35 31 36 32 37 90 38 33 39 89 40 34 41 35 42 36 43
REMARK SMILES IDX 83 44 37 45 88 46 82 47 84 48 38 49 87 50 81 51 80 52 39 54
REMARK SMILES IDX 69 55 50 56 68 57 51 58 54 59 67 60 85 61 52 62 53 63 66 65
REMARK SMILES IDX 86 66 55 67 40 68 41 69 49 70 42 71 48 72 43 73 44 74 45 75
REMARK SMILES IDX 46 76 47 77 70 78 71 79 79 80 72 81 78 82 73 83 74 84 75 85
REMARK SMILES IDX 76 86 77 87 56 88 57 89 65 90 58 91 64 92 59 93 60 94 61 95
REMARK SMILES IDX 62 96 63 97
REMARK H PARENT 18 30 84 53 54 64
REMARK Flexibility Score: inf
ROOT
ATOM      1  O   UNL A   1      34.955  30.898  28.419  1.00  0.00    -0.374 OA
ENDROOT
BRANCH   1   2
ATOM      2  C   UNL A   1      34.722  30.225  27.218  1.00  0.00     0.202 C 
BRANCH   2   3
ATOM      3  C   UNL A   1      33.835  29.061  27.303  1.00  0.00     0.261 C 
BRANCH   3   4
ATOM      4  O   UNL A   1      33.785  28.388  26.070  1.00  0.00    -0.460 OA
BRANCH   4   5
ATOM      5  C   UNL A   1      32.526  28.452  25.621  1.00  0.00     0.342 C 
ATOM      6  O   UNL A   1      31.567  28.963  26.203  1.00  0.00    -0.246 OA
BRANCH   5   7
ATOM      7  C   UNL A   1      32.503  27.958  24.248  1.00  0.00     0.103 A 
ATOM      8  C   UNL A   1      31.711  26.119  22.943  1.00  0.00     0.064 A 
ATOM      9  C   UNL A   1      32.624  26.439  21.937  1.00  0.00     0.032 A 
ATOM     10  C   UNL A   1      31.549  26.970  24.019  1.00  0.00     0.048 A 
ATOM     11  C   UNL A   1      33.500  27.518  22.100  1.00  0.00     0.049 A 
ATOM     12  C   UNL A   1      33.485  28.236  23.290  1.00  0.00     0.130 A 
BRANCH   8  13
ATOM     13  N   UNL A   1      30.968  24.951  22.948  1.00  0.00    -0.256 NA
ATOM     14  C   UNL A   1      31.267  23.934  23.704  1.00  0.00     0.121 C 
BRANCH  14  15
ATOM     15  C   UNL A   1      32.403  23.602  24.575  1.00  0.00     0.014 A 
ATOM     16  N   UNL A   1      34.350  23.034  25.608  1.00  0.00    -0.318 N 
ATOM     17  C   UNL A   1      33.346  22.903  26.544  1.00  0.00     0.021 A 
ATOM     18  C   UNL A   1      33.792  23.537  24.432  1.00  0.00     0.029 A 
ATOM     19  C   UNL A   1      33.582  22.493  27.951  1.00  0.00     0.065 C 
ATOM     20  C   UNL A   1      32.165  23.277  25.946  1.00  0.00     0.033 A 
ATOM     21  C   UNL A   1      34.670  23.824  23.275  1.00  0.00     0.065 C 
BRANCH  16  22
ATOM     22  C   UNL A   1      35.698  22.597  25.754  1.00  0.00     0.046 A 
ATOM     23  C   UNL A   1      37.760  19.538  24.819  1.00  0.00     0.044 C 
ATOM     24  C   UNL A   1      37.375  20.917  25.266  1.00  0.00    -0.049 A 
ATOM     25  C   UNL A   1      38.376  21.857  25.551  1.00  0.00     0.003 A 
ATOM     26  C   UNL A   1      36.028  21.292  25.371  1.00  0.00     0.030 A 
ATOM     27  C   UNL A   1      38.043  23.143  25.974  1.00  0.00     0.002 A 
ATOM     28  C   UNL A   1      36.703  23.508  26.100  1.00  0.00     0.026 A 
ENDBRANCH  16  22
ENDBRANCH  14  15
ENDBRANCH   8  13
BRANCH  12  29
ATOM     29  O   UNL A   1      34.545  29.071  23.492  1.00  0.00    -0.507 OA
ATOM     30  H   UNL A   1      35.337  28.741  23.869  1.00  0.00     0.293 HD
ENDBRANCH  12  29
ENDBRANCH   5   7
ENDBRANCH   4   5
ENDBRANCH   3   4
ENDBRANCH   2   3
ENDBRANCH   1   2
BRANCH   1  31
ATOM     31  C   UNL A   1      36.068  31.792  28.245  1.00  0.00     0.202 C 
BRANCH  31  32
ATOM     32  C   UNL A   1      37.299  31.678  29.233  1.00  0.00     0.261 C 
BRANCH  32  33
ATOM     33  O   UNL A   1      37.141  30.543  30.145  1.00  0.00    -0.460 OA
BRANCH  33  34
ATOM     34  C   UNL A   1      37.922  29.414  29.981  1.00  0.00     0.338 C 
ATOM     35  O   UNL A   1      37.763  28.353  30.552  1.00  0.00    -0.246 OA
BRANCH  34  36
ATOM     36  C   UNL A   1      39.053  29.735  29.028  1.00  0.00     0.060 A 
ATOM     37  C   UNL A   1      39.087  29.271  27.695  1.00  0.00     0.016 A 
ATOM     38  C   UNL A   1      40.234  30.161  29.615  1.00  0.00     0.016 A 
ATOM     39  C   UNL A   1      40.325  29.031  27.046  1.00  0.00     0.010 A 
ATOM     40  C   UNL A   1      41.418  29.741  29.050  1.00  0.00     0.010 A 
ATOM     41  C   UNL A   1      41.503  29.152  27.779  1.00  0.00    -0.014 A 
BRANCH  41  42
ATOM     42  C   UNL A   1      42.826  28.558  27.453  1.00  0.00     0.031 A 
ATOM     43  C   UNL A   1      42.910  27.074  27.478  1.00  0.00     0.074 A 
ATOM     44  C   UNL A   1      43.884  29.296  27.004  1.00  0.00     0.049 A 
ATOM     45  N   UNL A   1      43.899  26.420  27.984  1.00  0.00    -0.248 NA
ATOM     46  C   UNL A   1      41.823  26.174  27.064  1.00  0.00     0.031 C 
ATOM     47  C   UNL A   1      45.118  28.865  26.344  1.00  0.00     0.029 A 
ATOM     48  N   UNL A   1      44.066  30.675  27.081  1.00  0.00    -0.354 N 
ATOM     49  C   UNL A   1      43.736  25.113  27.571  1.00  0.00     0.074 A 
ATOM     50  C   UNL A   1      42.340  24.972  27.297  1.00  0.00     0.031 C 
ATOM     51  C   UNL A   1      46.007  29.884  26.321  1.00  0.00     0.029 A 
ATOM     52  C   UNL A   1      45.406  31.031  26.976  1.00  0.00     0.049 A 
ATOM     53  H   UNL A   1      43.333  31.322  27.195  1.00  0.00     0.167 HD
ATOM     54  C   UNL A   1      44.811  24.377  27.171  1.00  0.00     0.031 A 
ATOM     55  C   UNL A   1      45.877  31.870  27.931  1.00  0.00     0.031 A 
ATOM     56  C   UNL A   1      46.027  25.207  27.211  1.00  0.00     0.049 A 
ATOM     57  C   UNL A   1      46.629  30.952  28.857  1.00  0.00     0.074 A 
ATOM     58  C   UNL A   1      46.846  25.735  26.227  1.00  0.00     0.029 A 
ATOM     59  N   UNL A   1      46.326  25.917  28.374  1.00  0.00    -0.354 N 
ATOM     60  N   UNL A   1      46.395  29.662  28.921  1.00  0.00    -0.248 NA
ATOM     61  C   UNL A   1      47.864  31.334  29.530  1.00  0.00     0.031 C 
ATOM     62  C   UNL A   1      47.604  26.801  26.809  1.00  0.00     0.029 A 
ATOM     63  C   UNL A   1      47.237  26.931  28.144  1.00  0.00     0.049 A 
ATOM     64  H   UNL A   1      45.935  25.720  29.256  1.00  0.00     0.167 HD
ATOM     65  C   UNL A   1      47.510  29.034  29.388  1.00  0.00     0.074 A 
ATOM     66  C   UNL A   1      48.370  30.125  29.834  1.00  0.00     0.031 C 
ATOM     67  C   UNL A   1      47.767  27.697  29.271  1.00  0.00     0.031 A 
BRANCH  54  68
ATOM     68  C   UNL A   1      44.701  23.031  26.462  1.00  0.00    -0.014 A 
ATOM     69  C   UNL A   1      45.808  22.508  25.770  1.00  0.00     0.010 A 
ATOM     70  C   UNL A   1      43.552  22.204  26.467  1.00  0.00     0.010 A 
ATOM     71  C   UNL A   1      45.766  21.258  25.119  1.00  0.00     0.020 A 
ATOM     72  C   UNL A   1      43.479  20.976  25.793  1.00  0.00     0.020 A 
ATOM     73  C   UNL A   1      44.598  20.498  25.136  1.00  0.00     0.054 A 
BRANCH  73  74
ATOM     74  S   UNL A   1      44.578  18.856  24.371  1.00  0.00     0.124 S 
ATOM     75  O   UNL A   1      45.881  18.315  24.745  1.00  0.00    -0.237 OA
ATOM     76  O   UNL A   1      43.425  18.228  25.009  1.00  0.00    -0.237 OA
ATOM     77  O   UNL A   1      44.414  19.138  22.945  1.00  0.00    -0.744 OA
ENDBRANCH  73  74
ENDBRANCH  54  68
BRANCH  55  78
ATOM     78  C   UNL A   1      44.924  33.039  28.125  1.00  0.00    -0.014 A 
ATOM     79  C   UNL A   1      45.204  33.856  29.255  1.00  0.00     0.010 A 
ATOM     80  C   UNL A   1      44.217  33.658  27.070  1.00  0.00     0.010 A 
ATOM     81  C   UNL A   1      44.941  35.240  29.271  1.00  0.00     0.020 A 
ATOM     82  C   UNL A   1      43.963  35.054  27.076  1.00  0.00     0.020 A 
ATOM     83  C   UNL A   1      44.365  35.842  28.158  1.00  0.00     0.054 A 
BRANCH  83  84
ATOM     84  S   UNL A   1      44.339  37.667  28.077  1.00  0.00     0.124 S 
ATOM     85  O   UNL A   1      45.654  37.983  27.532  1.00  0.00    -0.237 OA
ATOM     86  O   UNL A   1      43.208  37.922  27.187  1.00  0.00    -0.237 OA
ATOM     87  O   UNL A   1      44.111  38.060  29.462  1.00  0.00    -0.744 OA
ENDBRANCH  83  84
ENDBRANCH  55  78
BRANCH  67  88
ATOM     88  C   UNL A   1      48.602  26.956  30.282  1.00  0.00    -0.014 A 
ATOM     89  C   UNL A   1      48.247  26.845  31.631  1.00  0.00     0.010 A 
ATOM     90  C   UNL A   1      49.685  26.163  29.830  1.00  0.00     0.010 A 
ATOM     91  C   UNL A   1      48.974  26.039  32.502  1.00  0.00     0.020 A 
ATOM     92  C   UNL A   1      50.364  25.291  30.671  1.00  0.00     0.020 A 
ATOM     93  C   UNL A   1      50.023  25.262  32.014  1.00  0.00     0.054 A 
BRANCH  93  94
ATOM     94  S   UNL A   1      50.906  24.191  33.159  1.00  0.00     0.124 S 
ATOM     95  O   UNL A   1      51.064  22.979  32.362  1.00  0.00    -0.237 OA
ATOM     96  O   UNL A   1      52.135  24.941  33.412  1.00  0.00    -0.237 OA
ATOM     97  O   UNL A   1      50.003  24.082  34.300  1.00  0.00    -0.744 OA
ENDBRANCH  93  94
ENDBRANCH  67  88
ENDBRANCH  41  42
ENDBRANCH  34  36
ENDBRANCH  33  34
ENDBRANCH  32  33
ENDBRANCH  31  32
ENDBRANCH   1  31
TORSDOF 21
ENDMDL
MODEL 3
REMARK VINA RESULT:     -10.3      5.161     11.960
REMARK SMILES Cc1cccc(-n2c(C)cc(/C=N\c3ccc(O)c(C(=O)OCCOCCOC(=O)c4ccc(-c5c6nc(c(-c7ccc(S(=O)(=O)[O-])cc7)c7ccc([nH]7)c(-c7ccc(S(=O)(=O)[O-])cc7)c7nc(c(-c8ccc(S(=O)(=O)[O-])cc8)c8ccc5[nH]8)C=C7)C=C6)cc4)c3)c2C)c1
REMARK SMILES IDX 25 1 24 2 23 3 22 4 20 5 21 6 19 7 14 8 15 9 91 10 16 11
REMARK SMILES IDX 17 12 13 13 12 14 11 15 7 16 8 17 92 18 9 19 10 20 93 21
REMARK SMILES IDX 6 22 1 23 2 24 3 25 94 26 4 27 5 28 18 29 26 31 27 32 28 33
REMARK SMILES IDX 29 34 30 35 31 36 32 37 90 38 33 39 89 40 34 41 35 42 36 43
REMARK SMILES IDX 83 44 37 45 88 46 82 47 84 48 38 49 87 50 81 51 80 52 39 54
REMARK SMILES IDX 69 55 50 56 68 57 51 58 54 59 67 60 85 61 52 62 53 63 66 65
REMARK SMILES IDX 86 66 55 67 40 68 41 69 49 70 42 71 48 72 43 73 44 74 45 75
REMARK SMILES IDX 46 76 47 77 70 78 71 79 79 80 72 81 78 82 73 83 74 84 75 85
REMARK SMILES IDX 76 86 77 87 56 88 57 89 65 90 58 91 64 92 59 93 60 94 61 95
REMARK SMILES IDX 62 96 63 97
REMARK H PARENT 18 30 84 53 54 64
REMARK Flexibility Score: inf
ROOT
ATOM      1  O   UNL A   1      35.383  30.082  28.184  1.00  0.00    -0.374 OA
ENDROOT
BRANCH   1   2
ATOM      2  C   UNL A   1      34.960  29.209  27.180  1.00  0.00     0.202 C 
BRANCH   2   3
ATOM      3  C   UNL A   1      33.528  28.892  27.173  1.00  0.00     0.261 C 
BRANCH   3   4
ATOM      4  O   UNL A   1      33.248  27.897  26.221  1.00  0.00    -0.460 OA
BRANCH   4   5
ATOM      5  C   UNL A   1      32.696  28.494  25.158  1.00  0.00     0.342 C 
ATOM      6  O   UNL A   1      33.204  29.383  24.471  1.00  0.00    -0.246 OA
BRANCH   5   7
ATOM      7  C   UNL A   1      31.448  27.806  24.843  1.00  0.00     0.103 A 
ATOM      8  C   UNL A   1      30.107  25.961  25.555  1.00  0.00     0.064 A 
ATOM      9  C   UNL A   1      29.460  25.953  24.319  1.00  0.00     0.032 A 
ATOM     10  C   UNL A   1      30.984  26.982  25.865  1.00  0.00     0.048 A 
ATOM     11  C   UNL A   1      29.829  26.868  23.327  1.00  0.00     0.049 A 
ATOM     12  C   UNL A   1      30.874  27.753  23.568  1.00  0.00     0.130 A 
BRANCH   8  13
ATOM     13  N   UNL A   1      29.949  24.960  26.499  1.00  0.00    -0.256 NA
ATOM     14  C   UNL A   1      30.829  24.017  26.673  1.00  0.00     0.121 C 
BRANCH  14  15
ATOM     15  C   UNL A   1      32.044  23.602  25.957  1.00  0.00     0.014 A 
ATOM     16  N   UNL A   1      34.091  22.981  25.181  1.00  0.00    -0.318 N 
ATOM     17  C   UNL A   1      33.349  23.370  24.086  1.00  0.00     0.021 A 
ATOM     18  C   UNL A   1      33.276  23.042  26.312  1.00  0.00     0.029 A 
ATOM     19  C   UNL A   1      33.856  23.331  22.693  1.00  0.00     0.065 C 
ATOM     20  C   UNL A   1      32.094  23.715  24.533  1.00  0.00     0.033 A 
ATOM     21  C   UNL A   1      33.817  22.622  27.623  1.00  0.00     0.065 C 
BRANCH  16  22
ATOM     22  C   UNL A   1      35.489  22.704  25.194  1.00  0.00     0.046 A 
ATOM     23  C   UNL A   1      38.656  24.368  26.492  1.00  0.00     0.044 C 
ATOM     24  C   UNL A   1      37.703  23.352  25.936  1.00  0.00    -0.049 A 
ATOM     25  C   UNL A   1      38.147  22.042  25.701  1.00  0.00     0.003 A 
ATOM     26  C   UNL A   1      36.365  23.682  25.678  1.00  0.00     0.030 A 
ATOM     27  C   UNL A   1      37.282  21.082  25.179  1.00  0.00     0.002 A 
ATOM     28  C   UNL A   1      35.958  21.418  24.901  1.00  0.00     0.026 A 
ENDBRANCH  16  22
ENDBRANCH  14  15
ENDBRANCH   8  13
BRANCH  12  29
ATOM     29  O   UNL A   1      31.363  28.404  22.473  1.00  0.00    -0.507 OA
ATOM     30  H   UNL A   1      31.030  28.203  21.620  1.00  0.00     0.293 HD
ENDBRANCH  12  29
ENDBRANCH   5   7
ENDBRANCH   4   5
ENDBRANCH   3   4
ENDBRANCH   2   3
ENDBRANCH   1   2
BRANCH   1  31
ATOM     31  C   UNL A   1      34.623  31.299  28.096  1.00  0.00     0.202 C 
BRANCH  31  32
ATOM     32  C   UNL A   1      34.903  32.450  29.145  1.00  0.00     0.261 C 
BRANCH  32  33
ATOM     33  O   UNL A   1      35.151  31.900  30.479  1.00  0.00    -0.460 OA
BRANCH  33  34
ATOM     34  C   UNL A   1      36.408  32.003  31.045  1.00  0.00     0.338 C 
ATOM     35  O   UNL A   1      36.791  32.905  31.763  1.00  0.00    -0.246 OA
BRANCH  34  36
ATOM     36  C   UNL A   1      37.256  30.844  30.566  1.00  0.00     0.060 A 
ATOM     37  C   UNL A   1      37.324  29.610  31.249  1.00  0.00     0.016 A 
ATOM     38  C   UNL A   1      38.260  31.164  29.666  1.00  0.00     0.016 A 
ATOM     39  C   UNL A   1      38.499  28.818  31.191  1.00  0.00     0.010 A 
ATOM     40  C   UNL A   1      39.456  30.489  29.775  1.00  0.00     0.010 A 
ATOM     41  C   UNL A   1      39.623  29.327  30.544  1.00  0.00    -0.014 A 
BRANCH  41  42
ATOM     42  C   UNL A   1      41.033  28.891  30.721  1.00  0.00     0.031 A 
ATOM     43  C   UNL A   1      41.465  27.709  29.930  1.00  0.00     0.074 A 
ATOM     44  C   UNL A   1      41.947  29.601  31.446  1.00  0.00     0.049 A 
ATOM     45  N   UNL A   1      42.198  26.760  30.402  1.00  0.00    -0.248 NA
ATOM     46  C   UNL A   1      40.998  27.406  28.569  1.00  0.00     0.031 C 
ATOM     47  C   UNL A   1      43.408  29.509  31.466  1.00  0.00     0.029 A 
ATOM     48  N   UNL A   1      41.711  30.604  32.384  1.00  0.00    -0.354 N 
ATOM     49  C   UNL A   1      42.599  26.016  29.309  1.00  0.00     0.074 A 
ATOM     50  C   UNL A   1      41.615  26.259  28.302  1.00  0.00     0.031 C 
ATOM     51  C   UNL A   1      43.899  30.198  32.520  1.00  0.00     0.029 A 
ATOM     52  C   UNL A   1      42.784  30.769  33.252  1.00  0.00     0.049 A 
ATOM     53  H   UNL A   1      40.882  31.134  32.427  1.00  0.00     0.167 HD
ATOM     54  C   UNL A   1      43.876  25.547  29.227  1.00  0.00     0.031 A 
ATOM     55  C   UNL A   1      42.486  30.774  34.575  1.00  0.00     0.031 A 
ATOM     56  C   UNL A   1      44.654  26.009  30.389  1.00  0.00     0.049 A 
ATOM     57  C   UNL A   1      42.880  29.392  35.023  1.00  0.00     0.074 A 
ATOM     58  C   UNL A   1      45.691  26.916  30.535  1.00  0.00     0.029 A 
ATOM     59  N   UNL A   1      44.143  25.808  31.671  1.00  0.00    -0.354 N 
ATOM     60  N   UNL A   1      42.980  28.379  34.195  1.00  0.00    -0.248 NA
ATOM     61  C   UNL A   1      43.470  29.113  36.326  1.00  0.00     0.031 C 
ATOM     62  C   UNL A   1      45.759  27.288  31.915  1.00  0.00     0.029 A 
ATOM     63  C   UNL A   1      44.756  26.619  32.608  1.00  0.00     0.049 A 
ATOM     64  H   UNL A   1      43.428  25.165  31.885  1.00  0.00     0.167 HD
ATOM     65  C   UNL A   1      43.829  27.457  34.726  1.00  0.00     0.074 A 
ATOM     66  C   UNL A   1      44.045  27.919  36.092  1.00  0.00     0.031 C 
ATOM     67  C   UNL A   1      44.440  26.454  34.026  1.00  0.00     0.031 A 
BRANCH  54  68
ATOM     68  C   UNL A   1      44.479  24.950  27.959  1.00  0.00    -0.014 A 
ATOM     69  C   UNL A   1      44.763  23.574  27.897  1.00  0.00     0.010 A 
ATOM     70  C   UNL A   1      44.754  25.672  26.774  1.00  0.00     0.010 A 
ATOM     71  C   UNL A   1      45.297  22.967  26.742  1.00  0.00     0.020 A 
ATOM     72  C   UNL A   1      45.322  25.094  25.628  1.00  0.00     0.020 A 
ATOM     73  C   UNL A   1      45.572  23.734  25.611  1.00  0.00     0.054 A 
BRANCH  73  74
ATOM     74  S   UNL A   1      46.178  22.934  24.103  1.00  0.00     0.124 S 
ATOM     75  O   UNL A   1      46.732  21.682  24.608  1.00  0.00    -0.237 OA
ATOM     76  O   UNL A   1      44.961  22.812  23.305  1.00  0.00    -0.237 OA
ATOM     77  O   UNL A   1      47.165  23.878  23.579  1.00  0.00    -0.744 OA
ENDBRANCH  73  74
ENDBRANCH  54  68
BRANCH  55  78
ATOM     78  C   UNL A   1      41.303  31.691  34.847  1.00  0.00    -0.014 A 
ATOM     79  C   UNL A   1      40.168  31.048  35.414  1.00  0.00     0.010 A 
ATOM     80  C   UNL A   1      41.427  33.074  35.102  1.00  0.00     0.010 A 
ATOM     81  C   UNL A   1      39.298  31.701  36.308  1.00  0.00     0.020 A 
ATOM     82  C   UNL A   1      40.560  33.734  36.014  1.00  0.00     0.020 A 
ATOM     83  C   UNL A   1      39.528  33.031  36.643  1.00  0.00     0.054 A 
BRANCH  83  84
ATOM     84  S   UNL A   1      38.594  33.748  38.039  1.00  0.00     0.124 S 
ATOM     85  O   UNL A   1      37.221  33.359  37.740  1.00  0.00    -0.237 OA
ATOM     86  O   UNL A   1      39.201  33.087  39.193  1.00  0.00    -0.237 OA
ATOM     87  O   UNL A   1      38.889  35.173  37.941  1.00  0.00    -0.744 OA
ENDBRANCH  83  84
ENDBRANCH  55  78
BRANCH  67  88
ATOM     88  C   UNL A   1      44.815  25.147  34.673  1.00  0.00    -0.014 A 
ATOM     89  C   UNL A   1      43.870  24.199  35.081  1.00  0.00     0.010 A 
ATOM     90  C   UNL A   1      46.176  24.755  34.691  1.00  0.00     0.010 A 
ATOM     91  C   UNL A   1      44.263  22.948  35.549  1.00  0.00     0.020 A 
ATOM     92  C   UNL A   1      46.573  23.481  35.076  1.00  0.00     0.020 A 
ATOM     93  C   UNL A   1      45.612  22.596  35.537  1.00  0.00     0.054 A 
BRANCH  93  94
ATOM     94  S   UNL A   1      46.077  20.952  36.099  1.00  0.00     0.124 S 
ATOM     95  O   UNL A   1      47.520  20.964  35.876  1.00  0.00    -0.237 OA
ATOM     96  O   UNL A   1      45.658  20.964  37.499  1.00  0.00    -0.237 OA
ATOM     97  O   UNL A   1      45.313  20.058  35.232  1.00  0.00    -0.744 OA
ENDBRANCH  93  94
ENDBRANCH  67  88
ENDBRANCH  41  42
ENDBRANCH  34  36
ENDBRANCH  33  34
ENDBRANCH  32  33
ENDBRANCH  31  32
ENDBRANCH   1  31
TORSDOF 21
ENDMDL
