MODEL 1
REMARK VINA RESULT:      -8.6      0.000      0.000
REMARK SMILES NS(=O)(=O)c1ccc(C#Cc2cc(Cl)cc3c2O[C@H](C(F)(F)F)C(C(=O)OCCOCCOC(=O)c2ccc(-c4c5nc(c(-c6ccc(S(=O)(=O)[O-])cc6)c6ccc([nH]6)c(-c6ccc(S(=O)(=O)[O-])cc6)c6nc(c(-c7ccc(S(=O)(=O)[O-])cc7)c7ccc4[nH]7)C=C6)C=C5)cc2)=C3)cc1
REMARK SMILES IDX 29 1 28 2 27 3 25 4 26 5 24 6 11 7 12 8 17 9 13 10 16 11
REMARK SMILES IDX 18 12 14 13 15 14 96 15 19 16 10 17 9 18 8 19 5 20 6 21
REMARK SMILES IDX 98 22 7 23 97 24 2 25 3 26 4 27 1 28 20 31 21 32 22 33 23 34
REMARK SMILES IDX 30 35 31 36 32 37 33 38 34 39 35 40 36 41 37 42 95 43 38 44
REMARK SMILES IDX 94 45 39 46 40 47 41 48 88 49 42 50 93 51 87 52 89 53 43 54
REMARK SMILES IDX 92 55 86 56 85 57 44 59 74 60 55 61 73 62 56 63 59 64 72 65
REMARK SMILES IDX 90 66 57 67 58 68 71 70 91 71 60 72 45 73 46 74 54 75 47 76
REMARK SMILES IDX 53 77 48 78 49 79 50 80 51 81 52 82 75 83 76 84 84 85 77 86
REMARK SMILES IDX 83 87 78 88 79 89 80 90 81 91 82 92 61 93 62 94 70 95 63 96
REMARK SMILES IDX 69 97 64 98 65 99 66 100 67 101 68 102
REMARK H PARENT 1 29 1 30 89 58 59 69
REMARK Flexibility Score: inf
ROOT
ATOM      1  C   UNL A   1      50.501  22.053  36.402  1.00  0.00     0.202 C 
ENDROOT
BRANCH   1   2
ATOM      2  C   UNL A   1      49.637  21.079  37.211  1.00  0.00     0.261 C 
BRANCH   2   3
ATOM      3  O   UNL A   1      48.535  21.727  37.861  1.00  0.00    -0.460 OA
BRANCH   3   4
ATOM      4  C   UNL A   1      47.325  21.209  37.547  1.00  0.00     0.338 C 
ATOM      5  O   UNL A   1      46.829  20.184  37.989  1.00  0.00    -0.246 OA
BRANCH   4   6
ATOM      6  C   UNL A   1      46.590  22.145  36.675  1.00  0.00     0.087 C 
ATOM      7  C   UNL A   1      44.011  24.368  34.272  1.00  0.00     0.069 A 
ATOM      8  C   UNL A   1      42.926  25.028  34.863  1.00  0.00     0.041 A 
ATOM      9  C   UNL A   1      44.958  23.716  35.075  1.00  0.00     0.143 A 
ATOM     10  C   UNL A   1      42.796  25.044  36.248  1.00  0.00     0.043 A 
ATOM     11  C   UNL A   1      44.790  23.701  36.463  1.00  0.00     0.020 A 
ATOM     12  O   UNL A   1      46.028  23.126  34.457  1.00  0.00    -0.474 OA
ATOM     13  Cl  UNL A   1      41.461  25.851  36.973  1.00  0.00    -0.084 Cl
ATOM     14  C   UNL A   1      43.721  24.385  37.052  1.00  0.00     0.032 A 
ATOM     15  C   UNL A   1      45.670  22.899  37.291  1.00  0.00     0.027 C 
ATOM     16  C   UNL A   1      46.851  22.180  35.196  1.00  0.00     0.316 C 
BRANCH   7  17
ATOM     17  C   UNL A   1      44.096  24.344  32.844  1.00  0.00    -0.058 C 
ATOM     18  C   UNL A   1      44.151  24.336  31.641  1.00  0.00    -0.062 C 
BRANCH  18  19
ATOM     19  C   UNL A   1      44.226  24.400  30.217  1.00  0.00     0.025 A 
ATOM     20  C   UNL A   1      44.598  24.549  27.459  1.00  0.00     0.082 A 
ATOM     21  C   UNL A   1      44.300  25.710  28.178  1.00  0.00     0.023 A 
ATOM     22  C   UNL A   1      44.660  23.308  28.101  1.00  0.00     0.023 A 
ATOM     23  C   UNL A   1      44.113  25.632  29.561  1.00  0.00     0.018 A 
ATOM     24  C   UNL A   1      44.476  23.238  29.483  1.00  0.00     0.018 A 
BRANCH  20  25
ATOM     25  S   UNL A   1      44.931  24.604  25.725  1.00  0.00     0.238 S 
ATOM     26  O   UNL A   1      45.836  23.532  25.388  1.00  0.00    -0.207 OA
ATOM     27  O   UNL A   1      45.165  25.978  25.353  1.00  0.00    -0.207 OA
BRANCH  25  28
ATOM     28  N   UNL A   1      43.474  24.184  24.993  1.00  0.00    -0.225 NA
ATOM     29  H   UNL A   1      43.223  23.231  25.259  1.00  0.00     0.137 HD
ATOM     30  H   UNL A   1      43.574  24.240  23.979  1.00  0.00     0.137 HD
ENDBRANCH  25  28
ENDBRANCH  20  25
ENDBRANCH  18  19
ENDBRANCH   7  17
BRANCH  16  31
ATOM     31  C   UNL A   1      46.710  20.801  34.537  1.00  0.00     0.430 C 
ATOM     32  F   UNL A   1      46.869  20.881  33.195  1.00  0.00    -0.167 F 
ATOM     33  F   UNL A   1      47.638  19.929  34.991  1.00  0.00    -0.167 F 
ATOM     34  F   UNL A   1      45.492  20.260  34.773  1.00  0.00    -0.167 F 
ENDBRANCH  16  31
ENDBRANCH   4   6
ENDBRANCH   3   4
ENDBRANCH   2   3
ENDBRANCH   1   2
BRANCH   1  35
ATOM     35  O   UNL A   1      50.044  23.389  36.219  1.00  0.00    -0.374 OA
BRANCH  35  36
ATOM     36  C   UNL A   1      50.131  23.981  34.926  1.00  0.00     0.202 C 
BRANCH  36  37
ATOM     37  C   UNL A   1      49.024  24.930  34.446  1.00  0.00     0.261 C 
BRANCH  37  38
ATOM     38  O   UNL A   1      48.270  25.532  35.508  1.00  0.00    -0.460 OA
BRANCH  38  39
ATOM     39  C   UNL A   1      48.518  26.855  35.696  1.00  0.00     0.338 C 
ATOM     40  O   UNL A   1      49.607  27.394  35.797  1.00  0.00    -0.246 OA
BRANCH  39  41
ATOM     41  C   UNL A   1      47.255  27.603  35.553  1.00  0.00     0.060 A 
ATOM     42  C   UNL A   1      47.187  28.745  34.757  1.00  0.00     0.016 A 
ATOM     43  C   UNL A   1      46.116  27.120  36.210  1.00  0.00     0.016 A 
ATOM     44  C   UNL A   1      45.962  29.398  34.607  1.00  0.00     0.010 A 
ATOM     45  C   UNL A   1      44.893  27.773  36.056  1.00  0.00     0.010 A 
ATOM     46  C   UNL A   1      44.802  28.908  35.239  1.00  0.00    -0.014 A 
BRANCH  46  47
ATOM     47  C   UNL A   1      43.479  29.517  34.944  1.00  0.00     0.031 A 
ATOM     48  C   UNL A   1      42.882  30.565  35.836  1.00  0.00     0.074 A 
ATOM     49  C   UNL A   1      42.814  29.103  33.847  1.00  0.00     0.049 A 
ATOM     50  N   UNL A   1      41.778  31.247  35.667  1.00  0.00    -0.248 NA
ATOM     51  C   UNL A   1      43.606  30.890  37.074  1.00  0.00     0.031 C 
ATOM     52  C   UNL A   1      43.288  28.069  32.926  1.00  0.00     0.029 A 
ATOM     53  N   UNL A   1      41.616  29.505  33.310  1.00  0.00    -0.354 N 
ATOM     54  C   UNL A   1      41.681  32.095  36.762  1.00  0.00     0.074 A 
ATOM     55  C   UNL A   1      42.810  31.803  37.620  1.00  0.00     0.031 C 
ATOM     56  C   UNL A   1      42.420  27.955  31.911  1.00  0.00     0.029 A 
ATOM     57  C   UNL A   1      41.299  28.867  32.132  1.00  0.00     0.049 A 
ATOM     58  H   UNL A   1      41.039  30.184  33.726  1.00  0.00     0.167 HD
ATOM     59  C   UNL A   1      40.748  33.045  37.012  1.00  0.00     0.031 A 
ATOM     60  C   UNL A   1      40.236  28.999  31.313  1.00  0.00     0.031 A 
ATOM     61  C   UNL A   1      39.623  33.314  36.148  1.00  0.00     0.049 A 
ATOM     62  C   UNL A   1      39.188  30.028  31.637  1.00  0.00     0.074 A 
ATOM     63  C   UNL A   1      38.649  34.287  36.298  1.00  0.00     0.029 A 
ATOM     64  N   UNL A   1      39.313  32.619  34.988  1.00  0.00    -0.354 N 
ATOM     65  N   UNL A   1      39.159  30.883  32.631  1.00  0.00    -0.248 NA
ATOM     66  C   UNL A   1      38.040  30.128  30.724  1.00  0.00     0.031 C 
ATOM     67  C   UNL A   1      37.702  34.118  35.288  1.00  0.00     0.029 A 
ATOM     68  C   UNL A   1      38.138  33.111  34.440  1.00  0.00     0.049 A 
ATOM     69  H   UNL A   1      39.848  31.884  34.610  1.00  0.00     0.167 HD
ATOM     70  C   UNL A   1      38.004  31.638  32.452  1.00  0.00     0.074 A 
ATOM     71  C   UNL A   1      37.375  31.155  31.240  1.00  0.00     0.031 C 
ATOM     72  C   UNL A   1      37.513  32.636  33.228  1.00  0.00     0.031 A 
BRANCH  59  73
ATOM     73  C   UNL A   1      40.893  33.896  38.250  1.00  0.00    -0.014 A 
ATOM     74  C   UNL A   1      40.234  33.526  39.439  1.00  0.00     0.010 A 
ATOM     75  C   UNL A   1      41.546  35.142  38.196  1.00  0.00     0.010 A 
ATOM     76  C   UNL A   1      40.180  34.403  40.527  1.00  0.00     0.020 A 
ATOM     77  C   UNL A   1      41.526  36.006  39.295  1.00  0.00     0.020 A 
ATOM     78  C   UNL A   1      40.817  35.643  40.443  1.00  0.00     0.054 A 
BRANCH  78  79
ATOM     79  S   UNL A   1      40.679  36.792  41.840  1.00  0.00     0.124 S 
ATOM     80  O   UNL A   1      40.997  35.935  42.977  1.00  0.00    -0.237 OA
ATOM     81  O   UNL A   1      41.680  37.806  41.514  1.00  0.00    -0.237 OA
ATOM     82  O   UNL A   1      39.294  37.252  41.772  1.00  0.00    -0.744 OA
ENDBRANCH  78  79
ENDBRANCH  59  73
BRANCH  60  83
ATOM     83  C   UNL A   1      40.159  28.160  30.081  1.00  0.00    -0.014 A 
ATOM     84  C   UNL A   1      39.313  27.035  30.037  1.00  0.00     0.010 A 
ATOM     85  C   UNL A   1      40.999  28.422  28.984  1.00  0.00     0.010 A 
ATOM     86  C   UNL A   1      39.365  26.147  28.959  1.00  0.00     0.020 A 
ATOM     87  C   UNL A   1      41.023  27.559  27.883  1.00  0.00     0.020 A 
ATOM     88  C   UNL A   1      40.232  26.407  27.896  1.00  0.00     0.054 A 
BRANCH  88  89
ATOM     89  S   UNL A   1      40.341  25.195  26.551  1.00  0.00     0.124 S 
ATOM     90  O   UNL A   1      40.878  26.005  25.461  1.00  0.00    -0.237 OA
ATOM     91  O   UNL A   1      41.254  24.195  27.101  1.00  0.00    -0.237 OA
ATOM     92  O   UNL A   1      38.962  24.748  26.376  1.00  0.00    -0.744 OA
ENDBRANCH  88  89
ENDBRANCH  60  83
BRANCH  72  93
ATOM     93  C   UNL A   1      36.221  33.301  32.816  1.00  0.00    -0.014 A 
ATOM     94  C   UNL A   1      36.231  34.286  31.808  1.00  0.00     0.010 A 
ATOM     95  C   UNL A   1      35.029  33.073  33.529  1.00  0.00     0.010 A 
ATOM     96  C   UNL A   1      35.100  35.068  31.564  1.00  0.00     0.020 A 
ATOM     97  C   UNL A   1      33.882  33.825  33.257  1.00  0.00     0.020 A 
ATOM     98  C   UNL A   1      33.935  34.841  32.300  1.00  0.00     0.054 A 
BRANCH  98  99
ATOM     99  S   UNL A   1      32.502  35.917  32.018  1.00  0.00     0.124 S 
ATOM    100  O   UNL A   1      31.399  35.093  32.502  1.00  0.00    -0.237 OA
ATOM    101  O   UNL A   1      32.817  37.088  32.833  1.00  0.00    -0.237 OA
ATOM    102  O   UNL A   1      32.523  36.148  30.575  1.00  0.00    -0.744 OA
ENDBRANCH  98  99
ENDBRANCH  72  93
ENDBRANCH  46  47
ENDBRANCH  39  41
ENDBRANCH  38  39
ENDBRANCH  37  38
ENDBRANCH  36  37
ENDBRANCH  35  36
ENDBRANCH   1  35
TORSDOF 22
ENDMDL
MODEL 2
REMARK VINA RESULT:      -8.0      3.793     10.203
REMARK SMILES NS(=O)(=O)c1ccc(C#Cc2cc(Cl)cc3c2O[C@H](C(F)(F)F)C(C(=O)OCCOCCOC(=O)c2ccc(-c4c5nc(c(-c6ccc(S(=O)(=O)[O-])cc6)c6ccc([nH]6)c(-c6ccc(S(=O)(=O)[O-])cc6)c6nc(c(-c7ccc(S(=O)(=O)[O-])cc7)c7ccc4[nH]7)C=C6)C=C5)cc2)=C3)cc1
REMARK SMILES IDX 29 1 28 2 27 3 25 4 26 5 24 6 11 7 12 8 17 9 13 10 16 11
REMARK SMILES IDX 18 12 14 13 15 14 96 15 19 16 10 17 9 18 8 19 5 20 6 21
REMARK SMILES IDX 98 22 7 23 97 24 2 25 3 26 4 27 1 28 20 31 21 32 22 33 23 34
REMARK SMILES IDX 30 35 31 36 32 37 33 38 34 39 35 40 36 41 37 42 95 43 38 44
REMARK SMILES IDX 94 45 39 46 40 47 41 48 88 49 42 50 93 51 87 52 89 53 43 54
REMARK SMILES IDX 92 55 86 56 85 57 44 59 74 60 55 61 73 62 56 63 59 64 72 65
REMARK SMILES IDX 90 66 57 67 58 68 71 70 91 71 60 72 45 73 46 74 54 75 47 76
REMARK SMILES IDX 53 77 48 78 49 79 50 80 51 81 52 82 75 83 76 84 84 85 77 86
REMARK SMILES IDX 83 87 78 88 79 89 80 90 81 91 82 92 61 93 62 94 70 95 63 96
REMARK SMILES IDX 69 97 64 98 65 99 66 100 67 101 68 102
REMARK H PARENT 1 29 1 30 89 58 59 69
REMARK Flexibility Score: inf
ROOT
ATOM      1  C   UNL A   1      46.751  24.873  24.682  1.00  0.00     0.202 C 
ENDROOT
BRANCH   1   2
ATOM      2  C   UNL A   1      48.193  25.390  24.644  1.00  0.00     0.261 C 
BRANCH   2   3
ATOM      3  O   UNL A   1      48.518  26.204  25.779  1.00  0.00    -0.460 OA
BRANCH   3   4
ATOM      4  C   UNL A   1      48.308  25.600  26.972  1.00  0.00     0.338 C 
ATOM      5  O   UNL A   1      48.691  24.491  27.310  1.00  0.00    -0.246 OA
BRANCH   4   6
ATOM      6  C   UNL A   1      47.652  26.540  27.901  1.00  0.00     0.087 C 
ATOM      7  C   UNL A   1      45.995  29.663  30.108  1.00  0.00     0.069 A 
ATOM      8  C   UNL A   1      44.871  30.330  29.608  1.00  0.00     0.041 A 
ATOM      9  C   UNL A   1      46.495  28.534  29.443  1.00  0.00     0.143 A 
ATOM     10  C   UNL A   1      44.244  29.866  28.455  1.00  0.00     0.043 A 
ATOM     11  C   UNL A   1      45.883  28.104  28.261  1.00  0.00     0.020 A 
ATOM     12  O   UNL A   1      47.565  27.883  29.995  1.00  0.00    -0.474 OA
ATOM     13  Cl  UNL A   1      42.865  30.689  27.839  1.00  0.00    -0.084 Cl
ATOM     14  C   UNL A   1      44.743  28.757  27.780  1.00  0.00     0.032 A 
ATOM     15  C   UNL A   1      46.483  27.040  27.480  1.00  0.00     0.027 C 
ATOM     16  C   UNL A   1      48.310  26.921  29.196  1.00  0.00     0.316 C 
BRANCH   7  17
ATOM     17  C   UNL A   1      46.634  30.187  31.277  1.00  0.00    -0.058 C 
ATOM     18  C   UNL A   1      47.158  30.645  32.258  1.00  0.00    -0.062 C 
BRANCH  18  19
ATOM     19  C   UNL A   1      47.715  31.186  33.457  1.00  0.00     0.025 A 
ATOM     20  C   UNL A   1      48.699  32.075  35.908  1.00  0.00     0.082 A 
ATOM     21  C   UNL A   1      47.507  32.610  35.408  1.00  0.00     0.023 A 
ATOM     22  C   UNL A   1      49.426  31.138  35.167  1.00  0.00     0.023 A 
ATOM     23  C   UNL A   1      47.018  32.163  34.177  1.00  0.00     0.018 A 
ATOM     24  C   UNL A   1      48.929  30.693  33.941  1.00  0.00     0.018 A 
BRANCH  20  25
ATOM     25  S   UNL A   1      49.316  32.538  37.497  1.00  0.00     0.238 S 
ATOM     26  O   UNL A   1      50.483  33.368  37.321  1.00  0.00    -0.207 OA
ATOM     27  O   UNL A   1      49.300  31.372  38.347  1.00  0.00    -0.207 OA
BRANCH  25  28
ATOM     28  N   UNL A   1      48.145  33.570  38.129  1.00  0.00    -0.225 NA
ATOM     29  H   UNL A   1      48.516  34.520  38.173  1.00  0.00     0.137 HD
ATOM     30  H   UNL A   1      47.891  33.260  39.068  1.00  0.00     0.137 HD
ENDBRANCH  25  28
ENDBRANCH  20  25
ENDBRANCH  18  19
ENDBRANCH   7  17
BRANCH  16  31
ATOM     31  C   UNL A   1      49.735  27.457  29.000  1.00  0.00     0.430 C 
ATOM     32  F   UNL A   1      50.196  28.045  30.130  1.00  0.00    -0.167 F 
ATOM     33  F   UNL A   1      50.606  26.470  28.689  1.00  0.00    -0.167 F 
ATOM     34  F   UNL A   1      49.788  28.376  28.009  1.00  0.00    -0.167 F 
ENDBRANCH  16  31
ENDBRANCH   4   6
ENDBRANCH   3   4
ENDBRANCH   2   3
ENDBRANCH   1   2
BRANCH   1  35
ATOM     35  O   UNL A   1      46.437  23.662  24.001  1.00  0.00    -0.374 OA
BRANCH  35  36
ATOM     36  C   UNL A   1      46.014  22.531  24.757  1.00  0.00     0.202 C 
BRANCH  36  37
ATOM     37  C   UNL A   1      44.780  21.735  24.311  1.00  0.00     0.261 C 
BRANCH  37  38
ATOM     38  O   UNL A   1      43.548  22.464  24.413  1.00  0.00    -0.460 OA
BRANCH  38  39
ATOM     39  C   UNL A   1      42.736  22.060  25.426  1.00  0.00     0.338 C 
ATOM     40  O   UNL A   1      42.331  20.930  25.639  1.00  0.00    -0.246 OA
BRANCH  39  41
ATOM     41  C   UNL A   1      42.569  23.174  26.378  1.00  0.00     0.060 A 
ATOM     42  C   UNL A   1      41.847  23.003  27.558  1.00  0.00     0.016 A 
ATOM     43  C   UNL A   1      43.184  24.399  26.087  1.00  0.00     0.016 A 
ATOM     44  C   UNL A   1      41.754  24.066  28.458  1.00  0.00     0.010 A 
ATOM     45  C   UNL A   1      43.090  25.458  26.989  1.00  0.00     0.010 A 
ATOM     46  C   UNL A   1      42.388  25.295  28.191  1.00  0.00    -0.014 A 
BRANCH  46  47
ATOM     47  C   UNL A   1      42.414  26.361  29.226  1.00  0.00     0.031 A 
ATOM     48  C   UNL A   1      41.387  27.454  29.253  1.00  0.00     0.074 A 
ATOM     49  C   UNL A   1      43.392  26.330  30.153  1.00  0.00     0.049 A 
ATOM     50  N   UNL A   1      41.230  28.404  30.137  1.00  0.00    -0.248 NA
ATOM     51  C   UNL A   1      40.416  27.493  28.149  1.00  0.00     0.031 C 
ATOM     52  C   UNL A   1      44.460  25.329  30.204  1.00  0.00     0.029 A 
ATOM     53  N   UNL A   1      43.642  27.140  31.233  1.00  0.00    -0.354 N 
ATOM     54  C   UNL A   1      40.134  29.144  29.714  1.00  0.00     0.074 A 
ATOM     55  C   UNL A   1      39.697  28.566  28.461  1.00  0.00     0.031 C 
ATOM     56  C   UNL A   1      45.217  25.552  31.287  1.00  0.00     0.029 A 
ATOM     57  C   UNL A   1      44.726  26.741  31.982  1.00  0.00     0.049 A 
ATOM     58  H   UNL A   1      43.100  27.931  31.450  1.00  0.00     0.167 HD
ATOM     59  C   UNL A   1      39.536  30.191  30.330  1.00  0.00     0.031 A 
ATOM     60  C   UNL A   1      45.266  27.261  33.103  1.00  0.00     0.031 A 
ATOM     61  C   UNL A   1      39.992  30.759  31.576  1.00  0.00     0.049 A 
ATOM     62  C   UNL A   1      44.611  28.455  33.743  1.00  0.00     0.074 A 
ATOM     63  C   UNL A   1      39.425  31.796  32.298  1.00  0.00     0.029 A 
ATOM     64  N   UNL A   1      41.118  30.356  32.282  1.00  0.00    -0.354 N 
ATOM     65  N   UNL A   1      43.522  29.087  33.376  1.00  0.00    -0.248 NA
ATOM     66  C   UNL A   1      45.241  28.996  34.955  1.00  0.00     0.031 C 
ATOM     67  C   UNL A   1      40.255  32.081  33.382  1.00  0.00     0.029 A 
ATOM     68  C   UNL A   1      41.285  31.154  33.403  1.00  0.00     0.049 A 
ATOM     69  H   UNL A   1      41.710  29.613  32.023  1.00  0.00     0.167 HD
ATOM     70  C   UNL A   1      43.323  30.085  34.324  1.00  0.00     0.074 A 
ATOM     71  C   UNL A   1      44.390  29.957  35.294  1.00  0.00     0.031 C 
ATOM     72  C   UNL A   1      42.345  31.022  34.376  1.00  0.00     0.031 A 
BRANCH  59  73
ATOM     73  C   UNL A   1      38.303  30.796  29.702  1.00  0.00    -0.014 A 
ATOM     74  C   UNL A   1      38.346  32.107  29.189  1.00  0.00     0.010 A 
ATOM     75  C   UNL A   1      37.063  30.131  29.762  1.00  0.00     0.010 A 
ATOM     76  C   UNL A   1      37.173  32.759  28.799  1.00  0.00     0.020 A 
ATOM     77  C   UNL A   1      35.892  30.767  29.339  1.00  0.00     0.020 A 
ATOM     78  C   UNL A   1      35.951  32.088  28.889  1.00  0.00     0.054 A 
BRANCH  78  79
ATOM     79  S   UNL A   1      34.433  32.974  28.440  1.00  0.00     0.124 S 
ATOM     80  O   UNL A   1      33.944  33.428  29.738  1.00  0.00    -0.237 OA
ATOM     81  O   UNL A   1      34.930  34.022  27.550  1.00  0.00    -0.237 OA
ATOM     82  O   UNL A   1      33.618  31.951  27.788  1.00  0.00    -0.744 OA
ENDBRANCH  78  79
ENDBRANCH  59  73
BRANCH  60  83
ATOM     83  C   UNL A   1      46.462  26.603  33.706  1.00  0.00    -0.014 A 
ATOM     84  C   UNL A   1      47.759  26.978  33.304  1.00  0.00     0.010 A 
ATOM     85  C   UNL A   1      46.312  25.536  34.609  1.00  0.00     0.010 A 
ATOM     86  C   UNL A   1      48.874  26.251  33.731  1.00  0.00     0.020 A 
ATOM     87  C   UNL A   1      47.429  24.832  35.072  1.00  0.00     0.020 A 
ATOM     88  C   UNL A   1      48.699  25.172  34.600  1.00  0.00     0.054 A 
BRANCH  88  89
ATOM     89  S   UNL A   1      50.153  24.194  35.069  1.00  0.00     0.124 S 
ATOM     90  O   UNL A   1      50.962  25.182  35.779  1.00  0.00    -0.237 OA
ATOM     91  O   UNL A   1      49.572  23.142  35.899  1.00  0.00    -0.237 OA
ATOM     92  O   UNL A   1      50.696  23.747  33.789  1.00  0.00    -0.744 OA
ENDBRANCH  88  89
ENDBRANCH  60  83
BRANCH  72  93
ATOM     93  C   UNL A   1      42.353  32.011  35.519  1.00  0.00    -0.014 A 
ATOM     94  C   UNL A   1      41.545  31.779  36.650  1.00  0.00     0.010 A 
ATOM     95  C   UNL A   1      43.029  33.240  35.408  1.00  0.00     0.010 A 
ATOM     96  C   UNL A   1      41.364  32.775  37.613  1.00  0.00     0.020 A 
ATOM     97  C   UNL A   1      42.885  34.223  36.393  1.00  0.00     0.020 A 
ATOM     98  C   UNL A   1      42.026  33.997  37.471  1.00  0.00     0.054 A 
BRANCH  98  99
ATOM     99  S   UNL A   1      41.720  35.302  38.694  1.00  0.00     0.124 S 
ATOM    100  O   UNL A   1      42.696  36.317  38.312  1.00  0.00    -0.237 OA
ATOM    101  O   UNL A   1      40.321  35.647  38.449  1.00  0.00    -0.237 OA
ATOM    102  O   UNL A   1      41.975  34.642  39.973  1.00  0.00    -0.744 OA
ENDBRANCH  98  99
ENDBRANCH  72  93
ENDBRANCH  46  47
ENDBRANCH  39  41
ENDBRANCH  38  39
ENDBRANCH  37  38
ENDBRANCH  36  37
ENDBRANCH  35  36
ENDBRANCH   1  35
TORSDOF 22
ENDMDL
MODEL 3
REMARK VINA RESULT:      -7.9      4.969     13.186
REMARK SMILES NS(=O)(=O)c1ccc(C#Cc2cc(Cl)cc3c2O[C@H](C(F)(F)F)C(C(=O)OCCOCCOC(=O)c2ccc(-c4c5nc(c(-c6ccc(S(=O)(=O)[O-])cc6)c6ccc([nH]6)c(-c6ccc(S(=O)(=O)[O-])cc6)c6nc(c(-c7ccc(S(=O)(=O)[O-])cc7)c7ccc4[nH]7)C=C6)C=C5)cc2)=C3)cc1
REMARK SMILES IDX 29 1 28 2 27 3 25 4 26 5 24 6 11 7 12 8 17 9 13 10 16 11
REMARK SMILES IDX 18 12 14 13 15 14 96 15 19 16 10 17 9 18 8 19 5 20 6 21
REMARK SMILES IDX 98 22 7 23 97 24 2 25 3 26 4 27 1 28 20 31 21 32 22 33 23 34
REMARK SMILES IDX 30 35 31 36 32 37 33 38 34 39 35 40 36 41 37 42 95 43 38 44
REMARK SMILES IDX 94 45 39 46 40 47 41 48 88 49 42 50 93 51 87 52 89 53 43 54
REMARK SMILES IDX 92 55 86 56 85 57 44 59 74 60 55 61 73 62 56 63 59 64 72 65
REMARK SMILES IDX 90 66 57 67 58 68 71 70 91 71 60 72 45 73 46 74 54 75 47 76
REMARK SMILES IDX 53 77 48 78 49 79 50 80 51 81 52 82 75 83 76 84 84 85 77 86
REMARK SMILES IDX 83 87 78 88 79 89 80 90 81 91 82 92 61 93 62 94 70 95 63 96
REMARK SMILES IDX 69 97 64 98 65 99 66 100 67 101 68 102
REMARK H PARENT 1 29 1 30 89 58 59 69
REMARK Flexibility Score: inf
ROOT
ATOM      1  C   UNL A   1      34.840  33.737  32.190  1.00  0.00     0.202 C 
ENDROOT
BRANCH   1   2
ATOM      2  C   UNL A   1      35.475  32.375  32.490  1.00  0.00     0.261 C 
BRANCH   2   3
ATOM      3  O   UNL A   1      36.908  32.416  32.468  1.00  0.00    -0.460 OA
BRANCH   3   4
ATOM      4  C   UNL A   1      37.501  31.478  33.243  1.00  0.00     0.338 C 
ATOM      5  O   UNL A   1      37.262  30.280  33.255  1.00  0.00    -0.246 OA
BRANCH   4   6
ATOM      6  C   UNL A   1      38.612  32.082  34.002  1.00  0.00     0.087 C 
ATOM      7  C   UNL A   1      41.597  33.358  36.616  1.00  0.00     0.069 A 
ATOM      8  C   UNL A   1      42.694  32.524  36.858  1.00  0.00     0.041 A 
ATOM      9  C   UNL A   1      40.643  33.003  35.651  1.00  0.00     0.143 A 
ATOM     10  C   UNL A   1      42.845  31.347  36.130  1.00  0.00     0.043 A 
ATOM     11  C   UNL A   1      40.782  31.795  34.959  1.00  0.00     0.020 A 
ATOM     12  O   UNL A   1      39.613  33.872  35.413  1.00  0.00    -0.474 OA
ATOM     13  Cl  UNL A   1      44.192  30.320  36.431  1.00  0.00    -0.084 Cl
ATOM     14  C   UNL A   1      41.895  30.978  35.183  1.00  0.00     0.032 A 
ATOM     15  C   UNL A   1      39.725  31.340  34.076  1.00  0.00     0.027 C 
ATOM     16  C   UNL A   1      38.446  33.417  34.671  1.00  0.00     0.316 C 
BRANCH   7  17
ATOM     17  C   UNL A   1      41.456  34.545  37.405  1.00  0.00    -0.058 C 
ATOM     18  C   UNL A   1      41.317  35.541  38.065  1.00  0.00    -0.062 C 
BRANCH  18  19
ATOM     19  C   UNL A   1      41.115  36.682  38.900  1.00  0.00     0.025 A 
ATOM     20  C   UNL A   1      40.700  39.032  40.339  1.00  0.00     0.082 A 
ATOM     21  C   UNL A   1      42.005  38.622  40.050  1.00  0.00     0.023 A 
ATOM     22  C   UNL A   1      39.606  38.249  39.958  1.00  0.00     0.023 A 
ATOM     23  C   UNL A   1      42.210  37.442  39.329  1.00  0.00     0.018 A 
ATOM     24  C   UNL A   1      39.817  37.074  39.235  1.00  0.00     0.018 A 
BRANCH  20  25
ATOM     25  S   UNL A   1      40.381  40.559  41.169  1.00  0.00     0.238 S 
ATOM     26  O   UNL A   1      39.585  41.401  40.309  1.00  0.00    -0.207 OA
ATOM     27  O   UNL A   1      41.607  41.001  41.789  1.00  0.00    -0.207 OA
BRANCH  25  28
ATOM     28  N   UNL A   1      39.357  40.151  42.441  1.00  0.00    -0.225 NA
ATOM     29  H   UNL A   1      39.833  39.499  43.065  1.00  0.00     0.137 HD
ATOM     30  H   UNL A   1      38.513  39.712  42.070  1.00  0.00     0.137 HD
ENDBRANCH  25  28
ENDBRANCH  20  25
ENDBRANCH  18  19
ENDBRANCH   7  17
BRANCH  16  31
ATOM     31  C   UNL A   1      37.231  33.462  35.608  1.00  0.00     0.430 C 
ATOM     32  F   UNL A   1      36.175  34.063  35.011  1.00  0.00    -0.167 F 
ATOM     33  F   UNL A   1      36.826  32.223  35.966  1.00  0.00    -0.167 F 
ATOM     34  F   UNL A   1      37.504  34.146  36.743  1.00  0.00    -0.167 F 
ENDBRANCH  16  31
ENDBRANCH   4   6
ENDBRANCH   3   4
ENDBRANCH   2   3
ENDBRANCH   1   2
BRANCH   1  35
ATOM     35  O   UNL A   1      33.945  33.851  31.089  1.00  0.00    -0.374 OA
BRANCH  35  36
ATOM     36  C   UNL A   1      34.471  34.115  29.792  1.00  0.00     0.202 C 
BRANCH  36  37
ATOM     37  C   UNL A   1      35.052  32.965  28.957  1.00  0.00     0.261 C 
BRANCH  37  38
ATOM     38  O   UNL A   1      34.411  31.700  29.180  1.00  0.00    -0.460 OA
BRANCH  38  39
ATOM     39  C   UNL A   1      34.627  30.778  28.205  1.00  0.00     0.338 C 
ATOM     40  O   UNL A   1      33.912  30.535  27.249  1.00  0.00    -0.246 OA
BRANCH  39  41
ATOM     41  C   UNL A   1      35.990  30.233  28.356  1.00  0.00     0.060 A 
ATOM     42  C   UNL A   1      36.874  30.211  27.279  1.00  0.00     0.016 A 
ATOM     43  C   UNL A   1      36.387  29.771  29.617  1.00  0.00     0.016 A 
ATOM     44  C   UNL A   1      38.171  29.734  27.473  1.00  0.00     0.010 A 
ATOM     45  C   UNL A   1      37.685  29.296  29.808  1.00  0.00     0.010 A 
ATOM     46  C   UNL A   1      38.594  29.290  28.742  1.00  0.00    -0.014 A 
BRANCH  46  47
ATOM     47  C   UNL A   1      40.018  28.935  28.970  1.00  0.00     0.031 A 
ATOM     48  C   UNL A   1      40.973  29.899  29.610  1.00  0.00     0.074 A 
ATOM     49  C   UNL A   1      40.445  27.717  28.583  1.00  0.00     0.049 A 
ATOM     50  N   UNL A   1      42.222  29.706  29.948  1.00  0.00    -0.248 NA
ATOM     51  C   UNL A   1      40.472  31.249  29.905  1.00  0.00     0.031 C 
ATOM     52  C   UNL A   1      39.609  26.711  27.924  1.00  0.00     0.029 A 
ATOM     53  N   UNL A   1      41.670  27.108  28.698  1.00  0.00    -0.354 N 
ATOM     54  C   UNL A   1      42.654  30.898  30.514  1.00  0.00     0.074 A 
ATOM     55  C   UNL A   1      41.550  31.829  30.422  1.00  0.00     0.031 C 
ATOM     56  C   UNL A   1      40.328  25.595  27.742  1.00  0.00     0.029 A 
ATOM     57  C   UNL A   1      41.691  25.817  28.221  1.00  0.00     0.049 A 
ATOM     58  H   UNL A   1      42.458  27.551  29.085  1.00  0.00     0.167 HD
ATOM     59  C   UNL A   1      43.853  31.177  31.078  1.00  0.00     0.031 A 
ATOM     60  C   UNL A   1      42.685  24.907  28.175  1.00  0.00     0.031 A 
ATOM     61  C   UNL A   1      44.946  30.237  31.151  1.00  0.00     0.049 A 
ATOM     62  C   UNL A   1      44.023  25.257  28.766  1.00  0.00     0.074 A 
ATOM     63  C   UNL A   1      46.185  30.416  31.742  1.00  0.00     0.029 A 
ATOM     64  N   UNL A   1      44.944  28.955  30.618  1.00  0.00    -0.354 N 
ATOM     65  N   UNL A   1      44.386  26.360  29.376  1.00  0.00    -0.248 NA
ATOM     66  C   UNL A   1      45.081  24.240  28.682  1.00  0.00     0.031 C 
ATOM     67  C   UNL A   1      46.961  29.287  31.485  1.00  0.00     0.029 A 
ATOM     68  C   UNL A   1      46.175  28.353  30.828  1.00  0.00     0.049 A 
ATOM     69  H   UNL A   1      44.180  28.536  30.160  1.00  0.00     0.167 HD
ATOM     70  C   UNL A   1      45.706  26.161  29.770  1.00  0.00     0.074 A 
ATOM     71  C   UNL A   1      46.069  24.823  29.350  1.00  0.00     0.031 C 
ATOM     72  C   UNL A   1      46.537  27.016  30.416  1.00  0.00     0.031 A 
BRANCH  59  73
ATOM     73  C   UNL A   1      44.067  32.539  31.693  1.00  0.00    -0.014 A 
ATOM     74  C   UNL A   1      44.646  33.572  30.931  1.00  0.00     0.010 A 
ATOM     75  C   UNL A   1      43.844  32.753  33.067  1.00  0.00     0.010 A 
ATOM     76  C   UNL A   1      45.046  34.767  31.537  1.00  0.00     0.020 A 
ATOM     77  C   UNL A   1      44.209  33.961  33.669  1.00  0.00     0.020 A 
ATOM     78  C   UNL A   1      44.835  34.948  32.905  1.00  0.00     0.054 A 
BRANCH  78  79
ATOM     79  S   UNL A   1      45.420  36.479  33.683  1.00  0.00     0.124 S 
ATOM     80  O   UNL A   1      46.340  35.978  34.700  1.00  0.00    -0.237 OA
ATOM     81  O   UNL A   1      46.040  37.185  32.564  1.00  0.00    -0.237 OA
ATOM     82  O   UNL A   1      44.198  37.093  34.196  1.00  0.00    -0.744 OA
ENDBRANCH  78  79
ENDBRANCH  59  73
BRANCH  60  83
ATOM     83  C   UNL A   1      42.412  23.561  27.591  1.00  0.00    -0.014 A 
ATOM     84  C   UNL A   1      41.879  22.532  28.392  1.00  0.00     0.010 A 
ATOM     85  C   UNL A   1      42.770  23.271  26.263  1.00  0.00     0.010 A 
ATOM     86  C   UNL A   1      41.784  21.226  27.903  1.00  0.00     0.020 A 
ATOM     87  C   UNL A   1      42.637  21.974  25.755  1.00  0.00     0.020 A 
ATOM     88  C   UNL A   1      42.179  20.953  26.592  1.00  0.00     0.054 A 
BRANCH  88  89
ATOM     89  S   UNL A   1      42.126  19.235  26.011  1.00  0.00     0.124 S 
ATOM     90  O   UNL A   1      43.009  19.285  24.849  1.00  0.00    -0.237 OA
ATOM     91  O   UNL A   1      42.640  18.497  27.162  1.00  0.00    -0.237 OA
ATOM     92  O   UNL A   1      40.714  19.016  25.712  1.00  0.00    -0.744 OA
ENDBRANCH  88  89
ENDBRANCH  60  83
BRANCH  72  93
ATOM     93  C   UNL A   1      47.943  26.560  30.727  1.00  0.00    -0.014 A 
ATOM     94  C   UNL A   1      48.247  26.053  32.006  1.00  0.00     0.010 A 
ATOM     95  C   UNL A   1      48.993  26.778  29.816  1.00  0.00     0.010 A 
ATOM     96  C   UNL A   1      49.572  25.832  32.390  1.00  0.00     0.020 A 
ATOM     97  C   UNL A   1      50.318  26.518  30.183  1.00  0.00     0.020 A 
ATOM     98  C   UNL A   1      50.601  26.080  31.478  1.00  0.00     0.054 A 
BRANCH  98  99
ATOM     99  S   UNL A   1      52.318  25.858  32.021  1.00  0.00     0.124 S 
ATOM    100  O   UNL A   1      53.069  26.435  30.910  1.00  0.00    -0.237 OA
ATOM    101  O   UNL A   1      52.358  26.615  33.270  1.00  0.00    -0.237 OA
ATOM    102  O   UNL A   1      52.446  24.410  32.175  1.00  0.00    -0.744 OA
ENDBRANCH  98  99
ENDBRANCH  72  93
ENDBRANCH  46  47
ENDBRANCH  39  41
ENDBRANCH  38  39
ENDBRANCH  37  38
ENDBRANCH  36  37
ENDBRANCH  35  36
ENDBRANCH   1  35
TORSDOF 22
ENDMDL
