MODEL 1
REMARK VINA RESULT:     -11.6      0.000      0.000
REMARK SMILES O=C(CCCN1C(=O)c2ccc3c4c(ccc(c24)C1=O)C(=O)NC3=O)OCCOCCOC(=O)c1ccc(-c2c3nc(c(-c4ccc(S(=O)(=O)[O-])cc4)c4ccc([nH]4)c(-c4ccc(S(=O)(=O)[O-])cc4)c4nc(c(-c5ccc(S(=O)(=O)[O-])cc5)c5ccc2[nH]5)C=C4)C=C3)cc1
REMARK SMILES IDX 29 1 28 2 27 3 26 4 2 5 1 6 3 7 4 8 5 9 6 10 19 11 7 12
REMARK SMILES IDX 20 13 17 14 9 15 8 16 16 17 18 18 10 19 15 20 13 21 11 22
REMARK SMILES IDX 14 23 12 24 21 25 24 26 23 27 22 28 25 29 30 31 31 32 32 33
REMARK SMILES IDX 33 34 34 35 35 36 36 37 94 38 37 39 93 40 38 41 39 42 40 43
REMARK SMILES IDX 87 44 41 45 92 46 86 47 88 48 42 49 91 50 85 51 84 52 43 54
REMARK SMILES IDX 73 55 54 56 72 57 55 58 58 59 71 60 89 61 56 62 57 63 70 65
REMARK SMILES IDX 90 66 59 67 44 68 45 69 53 70 46 71 52 72 47 73 48 74 49 75
REMARK SMILES IDX 50 76 51 77 74 78 75 79 83 80 76 81 82 82 77 83 78 84 79 85
REMARK SMILES IDX 80 86 81 87 60 88 61 89 69 90 62 91 68 92 63 93 64 94 65 95
REMARK SMILES IDX 66 96 67 97
REMARK H PARENT 23 30 88 53 58 64
REMARK Flexibility Score: inf
ROOT
ATOM      1  O   UNL A   1      41.471  21.064  25.804  1.00  0.00    -0.374 OA
ENDROOT
BRANCH   1   2
ATOM      2  C   UNL A   1      40.223  21.125  26.496  1.00  0.00     0.202 C 
BRANCH   2   3
ATOM      3  C   UNL A   1      39.039  20.634  25.680  1.00  0.00     0.261 C 
BRANCH   3   4
ATOM      4  O   UNL A   1      37.918  21.517  25.754  1.00  0.00    -0.463 OA
BRANCH   4   5
ATOM      5  C   UNL A   1      36.997  21.666  24.782  1.00  0.00     0.305 C 
ATOM      6  O   UNL A   1      37.306  22.281  23.760  1.00  0.00    -0.252 OA
BRANCH   5   7
ATOM      7  C   UNL A   1      35.581  21.152  24.959  1.00  0.00     0.124 C 
BRANCH   7   8
ATOM      8  C   UNL A   1      34.430  21.976  24.392  1.00  0.00     0.034 C 
BRANCH   8   9
ATOM      9  C   UNL A   1      34.726  23.124  23.400  1.00  0.00     0.130 C 
BRANCH   9  10
ATOM     10  N   UNL A   1      34.080  24.436  23.576  1.00  0.00    -0.274 N 
ATOM     11  C   UNL A   1      33.047  24.809  22.719  1.00  0.00     0.261 C 
ATOM     12  C   UNL A   1      34.404  25.145  24.742  1.00  0.00     0.261 C 
ATOM     13  O   UNL A   1      32.632  24.107  21.801  1.00  0.00    -0.269 OA
ATOM     14  C   UNL A   1      32.393  26.121  22.967  1.00  0.00     0.049 A 
ATOM     15  C   UNL A   1      33.666  26.399  25.022  1.00  0.00     0.049 A 
ATOM     16  O   UNL A   1      35.265  24.788  25.543  1.00  0.00    -0.269 OA
ATOM     17  C   UNL A   1      31.417  26.586  22.076  1.00  0.00     0.015 A 
ATOM     18  C   UNL A   1      32.714  26.859  24.111  1.00  0.00     0.009 A 
ATOM     19  C   UNL A   1      33.938  27.119  26.195  1.00  0.00     0.015 A 
ATOM     20  C   UNL A   1      30.754  27.788  22.325  1.00  0.00     0.015 A 
ATOM     21  C   UNL A   1      32.048  28.088  24.365  1.00  0.00     0.009 A 
ATOM     22  C   UNL A   1      33.301  28.336  26.438  1.00  0.00     0.015 A 
ATOM     23  C   UNL A   1      31.069  28.534  23.465  1.00  0.00     0.048 A 
ATOM     24  C   UNL A   1      32.368  28.822  25.519  1.00  0.00     0.048 A 
ATOM     25  C   UNL A   1      30.341  29.795  23.743  1.00  0.00     0.258 C 
ATOM     26  C   UNL A   1      31.697  30.118  25.768  1.00  0.00     0.258 C 
ATOM     27  N   UNL A   1      30.741  30.494  24.856  1.00  0.00    -0.288 N 
ATOM     28  O   UNL A   1      29.419  30.172  23.029  1.00  0.00    -0.269 OA
ATOM     29  O   UNL A   1      31.968  30.805  26.745  1.00  0.00    -0.269 OA
ATOM     30  H   UNL A   1      30.295  31.357  25.017  1.00  0.00     0.173 HD
ENDBRANCH   9  10
ENDBRANCH   8   9
ENDBRANCH   7   8
ENDBRANCH   5   7
ENDBRANCH   4   5
ENDBRANCH   3   4
ENDBRANCH   2   3
ENDBRANCH   1   2
BRANCH   1  31
ATOM     31  C   UNL A   1      42.327  22.184  26.068  1.00  0.00     0.202 C 
BRANCH  31  32
ATOM     32  C   UNL A   1      41.667  23.243  26.962  1.00  0.00     0.261 C 
BRANCH  32  33
ATOM     33  O   UNL A   1      41.293  24.410  26.207  1.00  0.00    -0.460 OA
BRANCH  33  34
ATOM     34  C   UNL A   1      40.086  24.935  26.541  1.00  0.00     0.338 C 
ATOM     35  O   UNL A   1      38.989  24.546  26.166  1.00  0.00    -0.246 OA
BRANCH  34  36
ATOM     36  C   UNL A   1      40.256  25.915  27.640  1.00  0.00     0.060 A 
ATOM     37  C   UNL A   1      39.360  25.814  28.711  1.00  0.00     0.016 A 
ATOM     38  C   UNL A   1      41.266  26.876  27.673  1.00  0.00     0.016 A 
ATOM     39  C   UNL A   1      39.441  26.670  29.803  1.00  0.00     0.010 A 
ATOM     40  C   UNL A   1      41.338  27.757  28.761  1.00  0.00     0.010 A 
ATOM     41  C   UNL A   1      40.409  27.675  29.817  1.00  0.00    -0.014 A 
BRANCH  41  42
ATOM     42  C   UNL A   1      40.319  28.751  30.834  1.00  0.00     0.031 A 
ATOM     43  C   UNL A   1      41.263  28.697  32.003  1.00  0.00     0.074 A 
ATOM     44  C   UNL A   1      39.462  29.781  30.698  1.00  0.00     0.049 A 
ATOM     45  N   UNL A   1      41.315  29.462  33.061  1.00  0.00    -0.248 NA
ATOM     46  C   UNL A   1      42.289  27.639  31.971  1.00  0.00     0.031 C 
ATOM     47  C   UNL A   1      38.565  29.998  29.564  1.00  0.00     0.029 A 
ATOM     48  N   UNL A   1      39.210  30.842  31.532  1.00  0.00    -0.354 N 
ATOM     49  C   UNL A   1      42.355  28.960  33.835  1.00  0.00     0.074 A 
ATOM     50  C   UNL A   1      42.900  27.820  33.131  1.00  0.00     0.031 C 
ATOM     51  C   UNL A   1      37.850  31.117  29.780  1.00  0.00     0.029 A 
ATOM     52  C   UNL A   1      38.204  31.667  31.088  1.00  0.00     0.049 A 
ATOM     53  H   UNL A   1      39.703  30.997  32.370  1.00  0.00     0.167 HD
ATOM     54  C   UNL A   1      42.815  29.408  35.026  1.00  0.00     0.031 A 
ATOM     55  C   UNL A   1      37.613  32.722  31.685  1.00  0.00     0.031 A 
ATOM     56  C   UNL A   1      42.273  30.546  35.718  1.00  0.00     0.049 A 
ATOM     57  C   UNL A   1      38.081  33.147  33.054  1.00  0.00     0.074 A 
ATOM     58  C   UNL A   1      42.666  31.080  36.932  1.00  0.00     0.029 A 
ATOM     59  N   UNL A   1      41.223  31.325  35.257  1.00  0.00    -0.354 N 
ATOM     60  N   UNL A   1      39.053  32.652  33.785  1.00  0.00    -0.248 NA
ATOM     61  C   UNL A   1      37.374  34.274  33.680  1.00  0.00     0.031 C 
ATOM     62  C   UNL A   1      41.815  32.147  37.234  1.00  0.00     0.029 A 
ATOM     63  C   UNL A   1      40.935  32.319  36.175  1.00  0.00     0.049 A 
ATOM     64  H   UNL A   1      40.751  31.189  34.403  1.00  0.00     0.167 HD
ATOM     65  C   UNL A   1      39.091  33.426  34.942  1.00  0.00     0.074 A 
ATOM     66  C   UNL A   1      38.056  34.430  34.807  1.00  0.00     0.031 C 
ATOM     67  C   UNL A   1      39.907  33.315  36.020  1.00  0.00     0.031 A 
BRANCH  54  68
ATOM     68  C   UNL A   1      43.927  28.634  35.682  1.00  0.00    -0.014 A 
ATOM     69  C   UNL A   1      45.278  28.927  35.425  1.00  0.00     0.010 A 
ATOM     70  C   UNL A   1      43.609  27.624  36.607  1.00  0.00     0.010 A 
ATOM     71  C   UNL A   1      46.290  28.205  36.064  1.00  0.00     0.020 A 
ATOM     72  C   UNL A   1      44.616  26.918  37.268  1.00  0.00     0.020 A 
ATOM     73  C   UNL A   1      45.952  27.205  36.983  1.00  0.00     0.054 A 
BRANCH  73  74
ATOM     74  S   UNL A   1      47.285  26.313  37.828  1.00  0.00     0.124 S 
ATOM     75  O   UNL A   1      46.590  25.126  38.318  1.00  0.00    -0.237 OA
ATOM     76  O   UNL A   1      48.246  26.079  36.753  1.00  0.00    -0.237 OA
ATOM     77  O   UNL A   1      47.727  27.246  38.862  1.00  0.00    -0.744 OA
ENDBRANCH  73  74
ENDBRANCH  54  68
BRANCH  55  78
ATOM     78  C   UNL A   1      36.475  33.422  31.023  1.00  0.00    -0.014 A 
ATOM     79  C   UNL A   1      36.601  33.937  29.720  1.00  0.00     0.010 A 
ATOM     80  C   UNL A   1      35.260  33.605  31.711  1.00  0.00     0.010 A 
ATOM     81  C   UNL A   1      35.545  34.640  29.129  1.00  0.00     0.020 A 
ATOM     82  C   UNL A   1      34.192  34.278  31.112  1.00  0.00     0.020 A 
ATOM     83  C   UNL A   1      34.347  34.805  29.829  1.00  0.00     0.054 A 
BRANCH  83  84
ATOM     84  S   UNL A   1      32.979  35.691  29.031  1.00  0.00     0.124 S 
ATOM     85  O   UNL A   1      33.679  36.759  28.326  1.00  0.00    -0.237 OA
ATOM     86  O   UNL A   1      32.385  34.656  28.187  1.00  0.00    -0.237 OA
ATOM     87  O   UNL A   1      32.148  36.120  30.154  1.00  0.00    -0.744 OA
ENDBRANCH  83  84
ENDBRANCH  55  78
BRANCH  67  88
ATOM     88  C   UNL A   1      39.749  34.332  37.121  1.00  0.00    -0.014 A 
ATOM     89  C   UNL A   1      38.859  34.124  38.189  1.00  0.00     0.010 A 
ATOM     90  C   UNL A   1      40.557  35.484  37.115  1.00  0.00     0.010 A 
ATOM     91  C   UNL A   1      38.755  35.066  39.215  1.00  0.00     0.020 A 
ATOM     92  C   UNL A   1      40.477  36.415  38.155  1.00  0.00     0.020 A 
ATOM     93  C   UNL A   1      39.566  36.207  39.191  1.00  0.00     0.054 A 
BRANCH  93  94
ATOM     94  S   UNL A   1      39.443  37.394  40.556  1.00  0.00     0.124 S 
ATOM     95  O   UNL A   1      39.007  36.544  41.660  1.00  0.00    -0.237 OA
ATOM     96  O   UNL A   1      40.807  37.908  40.658  1.00  0.00    -0.237 OA
ATOM     97  O   UNL A   1      38.454  38.362  40.087  1.00  0.00    -0.744 OA
ENDBRANCH  93  94
ENDBRANCH  67  88
ENDBRANCH  41  42
ENDBRANCH  34  36
ENDBRANCH  33  34
ENDBRANCH  32  33
ENDBRANCH  31  32
ENDBRANCH   1  31
TORSDOF 20
ENDMDL
MODEL 2
REMARK VINA RESULT:     -11.3      3.651      4.529
REMARK SMILES O=C(CCCN1C(=O)c2ccc3c4c(ccc(c24)C1=O)C(=O)NC3=O)OCCOCCOC(=O)c1ccc(-c2c3nc(c(-c4ccc(S(=O)(=O)[O-])cc4)c4ccc([nH]4)c(-c4ccc(S(=O)(=O)[O-])cc4)c4nc(c(-c5ccc(S(=O)(=O)[O-])cc5)c5ccc2[nH]5)C=C4)C=C3)cc1
REMARK SMILES IDX 29 1 28 2 27 3 26 4 2 5 1 6 3 7 4 8 5 9 6 10 19 11 7 12
REMARK SMILES IDX 20 13 17 14 9 15 8 16 16 17 18 18 10 19 15 20 13 21 11 22
REMARK SMILES IDX 14 23 12 24 21 25 24 26 23 27 22 28 25 29 30 31 31 32 32 33
REMARK SMILES IDX 33 34 34 35 35 36 36 37 94 38 37 39 93 40 38 41 39 42 40 43
REMARK SMILES IDX 87 44 41 45 92 46 86 47 88 48 42 49 91 50 85 51 84 52 43 54
REMARK SMILES IDX 73 55 54 56 72 57 55 58 58 59 71 60 89 61 56 62 57 63 70 65
REMARK SMILES IDX 90 66 59 67 44 68 45 69 53 70 46 71 52 72 47 73 48 74 49 75
REMARK SMILES IDX 50 76 51 77 74 78 75 79 83 80 76 81 82 82 77 83 78 84 79 85
REMARK SMILES IDX 80 86 81 87 60 88 61 89 69 90 62 91 68 92 63 93 64 94 65 95
REMARK SMILES IDX 66 96 67 97
REMARK H PARENT 23 30 88 53 58 64
REMARK Flexibility Score: inf
ROOT
ATOM      1  O   UNL A   1      35.755  21.672  24.177  1.00  0.00    -0.374 OA
ENDROOT
BRANCH   1   2
ATOM      2  C   UNL A   1      35.219  20.917  25.265  1.00  0.00     0.202 C 
BRANCH   2   3
ATOM      3  C   UNL A   1      35.112  19.427  24.989  1.00  0.00     0.261 C 
BRANCH   3   4
ATOM      4  O   UNL A   1      34.007  19.104  24.143  1.00  0.00    -0.463 OA
BRANCH   4   5
ATOM      5  C   UNL A   1      32.789  19.674  24.224  1.00  0.00     0.305 C 
ATOM      6  O   UNL A   1      32.072  19.408  25.191  1.00  0.00    -0.252 OA
BRANCH   5   7
ATOM      7  C   UNL A   1      32.268  20.573  23.119  1.00  0.00     0.124 C 
BRANCH   7   8
ATOM      8  C   UNL A   1      32.414  22.083  23.278  1.00  0.00     0.034 C 
BRANCH   8   9
ATOM      9  C   UNL A   1      31.836  22.780  24.530  1.00  0.00     0.130 C 
BRANCH   9  10
ATOM     10  N   UNL A   1      31.727  24.249  24.572  1.00  0.00    -0.274 N 
ATOM     11  C   UNL A   1      30.771  24.885  23.784  1.00  0.00     0.261 C 
ATOM     12  C   UNL A   1      32.457  24.906  25.574  1.00  0.00     0.261 C 
ATOM     13  O   UNL A   1      29.998  24.294  23.034  1.00  0.00    -0.269 OA
ATOM     14  C   UNL A   1      30.665  26.364  23.897  1.00  0.00     0.049 A 
ATOM     15  C   UNL A   1      32.258  26.365  25.736  1.00  0.00     0.049 A 
ATOM     16  O   UNL A   1      33.251  24.342  26.323  1.00  0.00    -0.269 OA
ATOM     17  C   UNL A   1      29.789  27.061  23.055  1.00  0.00     0.015 A 
ATOM     18  C   UNL A   1      31.399  27.047  24.873  1.00  0.00     0.009 A 
ATOM     19  C   UNL A   1      32.945  27.052  26.749  1.00  0.00     0.015 A 
ATOM     20  C   UNL A   1      29.636  28.441  23.187  1.00  0.00     0.015 A 
ATOM     21  C   UNL A   1      31.254  28.453  25.006  1.00  0.00     0.009 A 
ATOM     22  C   UNL A   1      32.822  28.436  26.869  1.00  0.00     0.015 A 
ATOM     23  C   UNL A   1      30.366  29.133  24.158  1.00  0.00     0.048 A 
ATOM     24  C   UNL A   1      31.987  29.133  25.992  1.00  0.00     0.048 A 
ATOM     25  C   UNL A   1      30.180  30.595  24.316  1.00  0.00     0.258 C 
ATOM     26  C   UNL A   1      31.861  30.604  26.111  1.00  0.00     0.258 C 
ATOM     27  N   UNL A   1      30.968  31.209  25.259  1.00  0.00    -0.288 N 
ATOM     28  O   UNL A   1      29.350  31.209  23.656  1.00  0.00    -0.269 OA
ATOM     29  O   UNL A   1      32.504  31.240  26.936  1.00  0.00    -0.269 OA
ATOM     30  H   UNL A   1      30.883  32.187  25.334  1.00  0.00     0.173 HD
ENDBRANCH   9  10
ENDBRANCH   8   9
ENDBRANCH   7   8
ENDBRANCH   5   7
ENDBRANCH   4   5
ENDBRANCH   3   4
ENDBRANCH   2   3
ENDBRANCH   1   2
BRANCH   1  31
ATOM     31  C   UNL A   1      36.144  23.003  24.541  1.00  0.00     0.202 C 
BRANCH  31  32
ATOM     32  C   UNL A   1      37.046  23.044  25.784  1.00  0.00     0.261 C 
BRANCH  32  33
ATOM     33  O   UNL A   1      38.435  22.921  25.432  1.00  0.00    -0.460 OA
BRANCH  33  34
ATOM     34  C   UNL A   1      39.278  22.809  26.490  1.00  0.00     0.338 C 
ATOM     35  O   UNL A   1      39.937  21.827  26.801  1.00  0.00    -0.246 OA
BRANCH  34  36
ATOM     36  C   UNL A   1      39.492  24.143  27.100  1.00  0.00     0.060 A 
ATOM     37  C   UNL A   1      40.147  25.094  26.308  1.00  0.00     0.016 A 
ATOM     38  C   UNL A   1      39.045  24.495  28.373  1.00  0.00     0.016 A 
ATOM     39  C   UNL A   1      40.384  26.383  26.774  1.00  0.00     0.010 A 
ATOM     40  C   UNL A   1      39.300  25.786  28.856  1.00  0.00     0.010 A 
ATOM     41  C   UNL A   1      39.994  26.726  28.070  1.00  0.00    -0.014 A 
BRANCH  41  42
ATOM     42  C   UNL A   1      40.490  27.992  28.660  1.00  0.00     0.031 A 
ATOM     43  C   UNL A   1      41.940  28.068  29.052  1.00  0.00     0.074 A 
ATOM     44  C   UNL A   1      39.692  29.068  28.795  1.00  0.00     0.049 A 
ATOM     45  N   UNL A   1      42.582  29.024  29.669  1.00  0.00    -0.248 NA
ATOM     46  C   UNL A   1      42.778  26.909  28.697  1.00  0.00     0.031 C 
ATOM     47  C   UNL A   1      38.297  29.153  28.365  1.00  0.00     0.029 A 
ATOM     48  N   UNL A   1      39.950  30.303  29.338  1.00  0.00    -0.354 N 
ATOM     49  C   UNL A   1      43.889  28.571  29.803  1.00  0.00     0.074 A 
ATOM     50  C   UNL A   1      43.947  27.251  29.214  1.00  0.00     0.031 C 
ATOM     51  C   UNL A   1      37.817  30.371  28.673  1.00  0.00     0.029 A 
ATOM     52  C   UNL A   1      38.855  31.134  29.366  1.00  0.00     0.049 A 
ATOM     53  H   UNL A   1      40.835  30.568  29.677  1.00  0.00     0.167 HD
ATOM     54  C   UNL A   1      44.947  29.197  30.368  1.00  0.00     0.031 A 
ATOM     55  C   UNL A   1      38.700  32.355  29.918  1.00  0.00     0.031 A 
ATOM     56  C   UNL A   1      44.885  30.512  30.947  1.00  0.00     0.049 A 
ATOM     57  C   UNL A   1      39.869  32.996  30.622  1.00  0.00     0.074 A 
ATOM     58  C   UNL A   1      45.900  31.235  31.547  1.00  0.00     0.029 A 
ATOM     59  N   UNL A   1      43.746  31.300  30.997  1.00  0.00    -0.354 N 
ATOM     60  N   UNL A   1      41.095  32.548  30.761  1.00  0.00    -0.248 NA
ATOM     61  C   UNL A   1      39.635  34.306  31.246  1.00  0.00     0.031 C 
ATOM     62  C   UNL A   1      45.361  32.438  32.013  1.00  0.00     0.029 A 
ATOM     63  C   UNL A   1      44.026  32.492  31.642  1.00  0.00     0.049 A 
ATOM     64  H   UNL A   1      42.868  31.049  30.629  1.00  0.00     0.167 HD
ATOM     65  C   UNL A   1      41.784  33.535  31.461  1.00  0.00     0.074 A 
ATOM     66  C   UNL A   1      40.842  34.608  31.704  1.00  0.00     0.031 C 
ATOM     67  C   UNL A   1      43.077  33.553  31.868  1.00  0.00     0.031 A 
BRANCH  54  68
ATOM     68  C   UNL A   1      46.250  28.447  30.434  1.00  0.00    -0.014 A 
ATOM     69  C   UNL A   1      46.511  27.513  31.453  1.00  0.00     0.010 A 
ATOM     70  C   UNL A   1      47.213  28.651  29.429  1.00  0.00     0.010 A 
ATOM     71  C   UNL A   1      47.723  26.816  31.478  1.00  0.00     0.020 A 
ATOM     72  C   UNL A   1      48.412  27.937  29.434  1.00  0.00     0.020 A 
ATOM     73  C   UNL A   1      48.665  27.032  30.466  1.00  0.00     0.054 A 
BRANCH  73  74
ATOM     74  S   UNL A   1      50.210  26.083  30.500  1.00  0.00     0.124 S 
ATOM     75  O   UNL A   1      51.126  27.021  31.145  1.00  0.00    -0.237 OA
ATOM     76  O   UNL A   1      49.849  24.912  31.294  1.00  0.00    -0.237 OA
ATOM     77  O   UNL A   1      50.485  25.816  29.090  1.00  0.00    -0.744 OA
ENDBRANCH  73  74
ENDBRANCH  54  68
BRANCH  55  78
ATOM     78  C   UNL A   1      37.374  33.036  29.879  1.00  0.00    -0.014 A 
ATOM     79  C   UNL A   1      36.551  33.087  31.019  1.00  0.00     0.010 A 
ATOM     80  C   UNL A   1      36.911  33.614  28.681  1.00  0.00     0.010 A 
ATOM     81  C   UNL A   1      35.286  33.680  30.956  1.00  0.00     0.020 A 
ATOM     82  C   UNL A   1      35.661  34.236  28.622  1.00  0.00     0.020 A 
ATOM     83  C   UNL A   1      34.849  34.252  29.757  1.00  0.00     0.054 A 
BRANCH  83  84
ATOM     84  S   UNL A   1      33.218  35.046  29.707  1.00  0.00     0.124 S 
ATOM     85  O   UNL A   1      32.509  34.222  28.734  1.00  0.00    -0.237 OA
ATOM     86  O   UNL A   1      32.766  34.925  31.091  1.00  0.00    -0.237 OA
ATOM     87  O   UNL A   1      33.516  36.410  29.275  1.00  0.00    -0.744 OA
ENDBRANCH  83  84
ENDBRANCH  55  78
BRANCH  67  88
ATOM     88  C   UNL A   1      43.569  34.787  32.577  1.00  0.00    -0.014 A 
ATOM     89  C   UNL A   1      43.550  34.884  33.979  1.00  0.00     0.010 A 
ATOM     90  C   UNL A   1      44.119  35.842  31.825  1.00  0.00     0.010 A 
ATOM     91  C   UNL A   1      44.042  36.027  34.615  1.00  0.00     0.020 A 
ATOM     92  C   UNL A   1      44.639  36.974  32.458  1.00  0.00     0.020 A 
ATOM     93  C   UNL A   1      44.584  37.066  33.849  1.00  0.00     0.054 A 
BRANCH  93  94
ATOM     94  S   UNL A   1      45.254  38.519  34.700  1.00  0.00     0.124 S 
ATOM     95  O   UNL A   1      44.040  39.203  35.136  1.00  0.00    -0.237 OA
ATOM     96  O   UNL A   1      46.059  37.925  35.765  1.00  0.00    -0.237 OA
ATOM     97  O   UNL A   1      46.018  39.208  33.662  1.00  0.00    -0.744 OA
ENDBRANCH  93  94
ENDBRANCH  67  88
ENDBRANCH  41  42
ENDBRANCH  34  36
ENDBRANCH  33  34
ENDBRANCH  32  33
ENDBRANCH  31  32
ENDBRANCH   1  31
TORSDOF 20
ENDMDL
MODEL 3
REMARK VINA RESULT:     -11.2      5.598      9.648
REMARK SMILES O=C(CCCN1C(=O)c2ccc3c4c(ccc(c24)C1=O)C(=O)NC3=O)OCCOCCOC(=O)c1ccc(-c2c3nc(c(-c4ccc(S(=O)(=O)[O-])cc4)c4ccc([nH]4)c(-c4ccc(S(=O)(=O)[O-])cc4)c4nc(c(-c5ccc(S(=O)(=O)[O-])cc5)c5ccc2[nH]5)C=C4)C=C3)cc1
REMARK SMILES IDX 29 1 28 2 27 3 26 4 2 5 1 6 3 7 4 8 5 9 6 10 19 11 7 12
REMARK SMILES IDX 20 13 17 14 9 15 8 16 16 17 18 18 10 19 15 20 13 21 11 22
REMARK SMILES IDX 14 23 12 24 21 25 24 26 23 27 22 28 25 29 30 31 31 32 32 33
REMARK SMILES IDX 33 34 34 35 35 36 36 37 94 38 37 39 93 40 38 41 39 42 40 43
REMARK SMILES IDX 87 44 41 45 92 46 86 47 88 48 42 49 91 50 85 51 84 52 43 54
REMARK SMILES IDX 73 55 54 56 72 57 55 58 58 59 71 60 89 61 56 62 57 63 70 65
REMARK SMILES IDX 90 66 59 67 44 68 45 69 53 70 46 71 52 72 47 73 48 74 49 75
REMARK SMILES IDX 50 76 51 77 74 78 75 79 83 80 76 81 82 82 77 83 78 84 79 85
REMARK SMILES IDX 80 86 81 87 60 88 61 89 69 90 62 91 68 92 63 93 64 94 65 95
REMARK SMILES IDX 66 96 67 97
REMARK H PARENT 23 30 88 53 58 64
REMARK Flexibility Score: inf
ROOT
ATOM      1  O   UNL A   1      42.720  20.337  25.286  1.00  0.00    -0.374 OA
ENDROOT
BRANCH   1   2
ATOM      2  C   UNL A   1      44.070  19.875  25.209  1.00  0.00     0.202 C 
BRANCH   2   3
ATOM      3  C   UNL A   1      44.952  20.699  24.287  1.00  0.00     0.261 C 
BRANCH   3   4
ATOM      4  O   UNL A   1      44.389  21.978  23.986  1.00  0.00    -0.463 OA
BRANCH   4   5
ATOM      5  C   UNL A   1      44.923  23.156  24.362  1.00  0.00     0.305 C 
ATOM      6  O   UNL A   1      45.988  23.515  23.856  1.00  0.00    -0.252 OA
BRANCH   5   7
ATOM      7  C   UNL A   1      44.272  24.004  25.439  1.00  0.00     0.124 C 
BRANCH   7   8
ATOM      8  C   UNL A   1      44.140  25.505  25.205  1.00  0.00     0.034 C 
BRANCH   8   9
ATOM      9  C   UNL A   1      45.145  26.475  25.866  1.00  0.00     0.130 C 
BRANCH   9  10
ATOM     10  N   UNL A   1      46.584  26.359  25.574  1.00  0.00    -0.274 N 
ATOM     11  C   UNL A   1      47.115  27.037  24.479  1.00  0.00     0.261 C 
ATOM     12  C   UNL A   1      47.376  25.738  26.550  1.00  0.00     0.261 C 
ATOM     13  O   UNL A   1      46.450  27.736  23.719  1.00  0.00    -0.269 OA
ATOM     14  C   UNL A   1      48.580  26.930  24.253  1.00  0.00     0.049 A 
ATOM     15  C   UNL A   1      48.845  25.734  26.355  1.00  0.00     0.049 A 
ATOM     16  O   UNL A   1      46.924  25.198  27.557  1.00  0.00    -0.269 OA
ATOM     17  C   UNL A   1      49.149  27.511  23.112  1.00  0.00     0.015 A 
ATOM     18  C   UNL A   1      49.392  26.297  25.201  1.00  0.00     0.009 A 
ATOM     19  C   UNL A   1      49.674  25.152  27.327  1.00  0.00     0.015 A 
ATOM     20  C   UNL A   1      50.529  27.468  22.914  1.00  0.00     0.015 A 
ATOM     21  C   UNL A   1      50.797  26.242  25.000  1.00  0.00     0.009 A 
ATOM     22  C   UNL A   1      51.052  25.078  27.124  1.00  0.00     0.015 A 
ATOM     23  C   UNL A   1      51.347  26.836  23.855  1.00  0.00     0.048 A 
ATOM     24  C   UNL A   1      51.608  25.613  25.958  1.00  0.00     0.048 A 
ATOM     25  C   UNL A   1      52.817  26.819  23.657  1.00  0.00     0.258 C 
ATOM     26  C   UNL A   1      53.069  25.528  25.735  1.00  0.00     0.258 C 
ATOM     27  N   UNL A   1      53.548  26.137  24.600  1.00  0.00    -0.288 N 
ATOM     28  O   UNL A   1      53.343  27.402  22.717  1.00  0.00    -0.269 OA
ATOM     29  O   UNL A   1      53.809  24.961  26.528  1.00  0.00    -0.269 OA
ATOM     30  H   UNL A   1      54.519  26.080  24.447  1.00  0.00     0.173 HD
ENDBRANCH   9  10
ENDBRANCH   8   9
ENDBRANCH   7   8
ENDBRANCH   5   7
ENDBRANCH   4   5
ENDBRANCH   3   4
ENDBRANCH   2   3
ENDBRANCH   1   2
BRANCH   1  31
ATOM     31  C   UNL A   1      42.332  20.751  26.603  1.00  0.00     0.202 C 
BRANCH  31  32
ATOM     32  C   UNL A   1      40.833  20.554  26.874  1.00  0.00     0.261 C 
BRANCH  32  33
ATOM     33  O   UNL A   1      40.264  21.697  27.539  1.00  0.00    -0.460 OA
BRANCH  33  34
ATOM     34  C   UNL A   1      39.652  22.583  26.712  1.00  0.00     0.338 C 
ATOM     35  O   UNL A   1      38.911  22.320  25.776  1.00  0.00    -0.246 OA
BRANCH  34  36
ATOM     36  C   UNL A   1      39.804  23.955  27.253  1.00  0.00     0.060 A 
ATOM     37  C   UNL A   1      40.672  24.808  26.559  1.00  0.00     0.016 A 
ATOM     38  C   UNL A   1      39.108  24.433  28.363  1.00  0.00     0.016 A 
ATOM     39  C   UNL A   1      40.874  26.121  26.968  1.00  0.00     0.010 A 
ATOM     40  C   UNL A   1      39.326  25.749  28.793  1.00  0.00     0.010 A 
ATOM     41  C   UNL A   1      40.230  26.589  28.114  1.00  0.00    -0.014 A 
BRANCH  41  42
ATOM     42  C   UNL A   1      40.656  27.881  28.704  1.00  0.00     0.031 A 
ATOM     43  C   UNL A   1      42.079  28.007  29.174  1.00  0.00     0.074 A 
ATOM     44  C   UNL A   1      39.822  28.936  28.772  1.00  0.00     0.049 A 
ATOM     45  N   UNL A   1      42.659  28.993  29.805  1.00  0.00    -0.248 NA
ATOM     46  C   UNL A   1      42.967  26.866  28.890  1.00  0.00     0.031 C 
ATOM     47  C   UNL A   1      38.451  28.971  28.263  1.00  0.00     0.029 A 
ATOM     48  N   UNL A   1      40.015  30.188  29.302  1.00  0.00    -0.354 N 
ATOM     49  C   UNL A   1      43.969  28.580  30.021  1.00  0.00     0.074 A 
ATOM     50  C   UNL A   1      44.096  27.252  29.465  1.00  0.00     0.031 C 
ATOM     51  C   UNL A   1      37.922  30.181  28.518  1.00  0.00     0.029 A 
ATOM     52  C   UNL A   1      38.897  30.988  29.251  1.00  0.00     0.049 A 
ATOM     53  H   UNL A   1      40.872  30.485  29.683  1.00  0.00     0.167 HD
ATOM     54  C   UNL A   1      44.975  29.249  30.630  1.00  0.00     0.031 A 
ATOM     55  C   UNL A   1      38.677  32.214  29.768  1.00  0.00     0.031 A 
ATOM     56  C   UNL A   1      44.845  30.572  31.176  1.00  0.00     0.049 A 
ATOM     57  C   UNL A   1      39.787  32.902  30.522  1.00  0.00     0.074 A 
ATOM     58  C   UNL A   1      45.804  31.336  31.816  1.00  0.00     0.029 A 
ATOM     59  N   UNL A   1      43.683  31.328  31.147  1.00  0.00    -0.354 N 
ATOM     60  N   UNL A   1      41.016  32.493  30.737  1.00  0.00    -0.248 NA
ATOM     61  C   UNL A   1      39.482  34.217  31.104  1.00  0.00     0.031 C 
ATOM     62  C   UNL A   1      45.206  32.532  32.226  1.00  0.00     0.029 A 
ATOM     63  C   UNL A   1      43.892  32.540  31.781  1.00  0.00     0.049 A 
ATOM     64  H   UNL A   1      42.834  31.044  30.736  1.00  0.00     0.167 HD
ATOM     65  C   UNL A   1      41.636  33.513  31.454  1.00  0.00     0.074 A 
ATOM     66  C   UNL A   1      40.653  34.563  31.621  1.00  0.00     0.031 C 
ATOM     67  C   UNL A   1      42.904  33.577  31.931  1.00  0.00     0.031 A 
BRANCH  54  68
ATOM     68  C   UNL A   1      46.293  28.538  30.785  1.00  0.00    -0.014 A 
ATOM     69  C   UNL A   1      46.564  27.724  31.898  1.00  0.00     0.010 A 
ATOM     70  C   UNL A   1      47.260  28.655  29.769  1.00  0.00     0.010 A 
ATOM     71  C   UNL A   1      47.790  27.060  32.005  1.00  0.00     0.020 A 
ATOM     72  C   UNL A   1      48.474  27.972  29.858  1.00  0.00     0.020 A 
ATOM     73  C   UNL A   1      48.736  27.187  30.983  1.00  0.00     0.054 A 
BRANCH  73  74
ATOM     74  S   UNL A   1      50.300  26.281  31.127  1.00  0.00     0.124 S 
ATOM     75  O   UNL A   1      50.656  26.515  32.525  1.00  0.00    -0.237 OA
ATOM     76  O   UNL A   1      49.909  24.912  30.800  1.00  0.00    -0.237 OA
ATOM     77  O   UNL A   1      51.170  26.928  30.148  1.00  0.00    -0.744 OA
ENDBRANCH  73  74
ENDBRANCH  54  68
BRANCH  55  78
ATOM     78  C   UNL A   1      37.337  32.855  29.640  1.00  0.00    -0.014 A 
ATOM     79  C   UNL A   1      36.981  33.567  28.481  1.00  0.00     0.010 A 
ATOM     80  C   UNL A   1      36.414  32.782  30.702  1.00  0.00     0.010 A 
ATOM     81  C   UNL A   1      35.742  34.211  28.394  1.00  0.00     0.020 A 
ATOM     82  C   UNL A   1      35.163  33.396  30.607  1.00  0.00     0.020 A 
ATOM     83  C   UNL A   1      34.840  34.120  29.459  1.00  0.00     0.054 A 
BRANCH  83  84
ATOM     84  S   UNL A   1      33.225  34.934  29.312  1.00  0.00     0.124 S 
ATOM     85  O   UNL A   1      32.553  34.099  28.322  1.00  0.00    -0.237 OA
ATOM     86  O   UNL A   1      32.704  34.846  30.674  1.00  0.00    -0.237 OA
ATOM     87  O   UNL A   1      33.562  36.285  28.868  1.00  0.00    -0.744 OA
ENDBRANCH  83  84
ENDBRANCH  55  78
BRANCH  67  88
ATOM     88  C   UNL A   1      43.320  34.839  32.640  1.00  0.00    -0.014 A 
ATOM     89  C   UNL A   1      43.315  34.928  34.043  1.00  0.00     0.010 A 
ATOM     90  C   UNL A   1      43.786  35.931  31.885  1.00  0.00     0.010 A 
ATOM     91  C   UNL A   1      43.737  36.099  34.677  1.00  0.00     0.020 A 
ATOM     92  C   UNL A   1      44.237  37.094  32.517  1.00  0.00     0.020 A 
ATOM     93  C   UNL A   1      44.196  37.175  33.910  1.00  0.00     0.054 A 
BRANCH  93  94
ATOM     94  S   UNL A   1      44.778  38.668  34.759  1.00  0.00     0.124 S 
ATOM     95  O   UNL A   1      44.575  38.318  36.162  1.00  0.00    -0.237 OA
ATOM     96  O   UNL A   1      46.171  38.759  34.328  1.00  0.00    -0.237 OA
ATOM     97  O   UNL A   1      43.905  39.722  34.247  1.00  0.00    -0.744 OA
ENDBRANCH  93  94
ENDBRANCH  67  88
ENDBRANCH  41  42
ENDBRANCH  34  36
ENDBRANCH  33  34
ENDBRANCH  32  33
ENDBRANCH  31  32
ENDBRANCH   1  31
TORSDOF 20
ENDMDL
