MODEL 1
REMARK VINA RESULT:     -11.0      0.000      0.000
REMARK SMILES O=C(CN1CC2(CCC1=O)CC[NH+](Cc1ccc(Cl)c(F)c1)CC2)OCCOCCOC(=O)c1ccc(-c2c3nc(c(-c4ccc(S(=O)(=O)[O-])cc4)c4ccc([nH]4)c(-c4ccc(S(=O)(=O)[O-])cc4)c4nc(c(-c5ccc(S(=O)(=O)[O-])cc5)c5ccc2[nH]5)C=C4)C=C3)cc1
REMARK SMILES IDX 28 1 27 2 26 3 25 4 2 5 1 6 3 7 4 8 5 9 9 10 6 11 8 12 10 13
REMARK SMILES IDX 7 14 11 15 24 16 12 17 23 18 13 19 14 21 15 22 16 23 22 24
REMARK SMILES IDX 17 25 20 26 18 27 21 28 19 29 29 30 30 31 31 32 32 33 33 34
REMARK SMILES IDX 34 35 35 36 93 37 36 38 92 39 37 40 38 41 39 42 86 43 40 44
REMARK SMILES IDX 91 45 85 46 87 47 41 48 90 49 84 50 83 51 42 53 72 54 53 55
REMARK SMILES IDX 71 56 54 57 57 58 70 59 88 60 55 61 56 62 69 64 89 65 58 66
REMARK SMILES IDX 43 67 44 68 52 69 45 70 51 71 46 72 47 73 48 74 49 75 50 76
REMARK SMILES IDX 73 77 74 78 82 79 75 80 81 81 76 82 77 83 78 84 79 85 80 86
REMARK SMILES IDX 59 87 60 88 68 89 61 90 67 91 62 92 63 93 64 94 65 95 66 96
REMARK H PARENT 13 20 87 52 57 63
REMARK Flexibility Score: inf
ROOT
ATOM      1  O   UNL A   1      34.703  32.251  27.597  1.00  0.00    -0.374 OA
ENDROOT
BRANCH   1   2
ATOM      2  C   UNL A   1      33.919  31.063  27.721  1.00  0.00     0.202 C 
BRANCH   2   3
ATOM      3  C   UNL A   1      32.881  30.689  26.661  1.00  0.00     0.261 C 
BRANCH   3   4
ATOM      4  O   UNL A   1      31.767  29.956  27.172  1.00  0.00    -0.462 OA
BRANCH   4   5
ATOM      5  C   UNL A   1      31.726  28.611  27.057  1.00  0.00     0.325 C 
ATOM      6  O   UNL A   1      31.148  27.934  27.909  1.00  0.00    -0.250 OA
BRANCH   5   7
ATOM      7  C   UNL A   1      32.468  27.945  25.910  1.00  0.00     0.242 C 
BRANCH   7   8
ATOM      8  N   UNL A   1      31.811  27.774  24.623  1.00  0.00    -0.331 N 
ATOM      9  C   UNL A   1      30.898  26.662  24.527  1.00  0.00     0.127 C 
ATOM     10  C   UNL A   1      32.360  28.369  23.487  1.00  0.00     0.223 C 
ATOM     11  C   UNL A   1      31.499  25.611  23.591  1.00  0.00    -0.001 C 
ATOM     12  C   UNL A   1      32.367  27.555  22.206  1.00  0.00     0.101 C 
ATOM     13  O   UNL A   1      32.987  29.426  23.506  1.00  0.00    -0.275 OA
ATOM     14  C   UNL A   1      31.500  26.310  22.210  1.00  0.00     0.019 C 
ATOM     15  C   UNL A   1      32.963  25.245  23.994  1.00  0.00     0.070 C 
ATOM     16  C   UNL A   1      30.566  24.387  23.554  1.00  0.00     0.070 C 
ATOM     17  C   UNL A   1      33.109  24.125  25.011  1.00  0.00     0.263 C 
ATOM     18  C   UNL A   1      30.892  23.305  24.584  1.00  0.00     0.263 C 
ATOM     19  N   UNL A   1      32.303  22.959  24.700  1.00  0.00    -0.331 N 
ATOM     20  H   UNL A   1      32.349  22.345  25.513  1.00  0.00     0.348 HD
BRANCH  19  21
ATOM     21  C   UNL A   1      32.868  22.007  23.730  1.00  0.00     0.299 C 
BRANCH  21  22
ATOM     22  C   UNL A   1      32.628  20.527  23.957  1.00  0.00     0.009 A 
ATOM     23  C   UNL A   1      32.434  19.661  22.871  1.00  0.00     0.011 A 
ATOM     24  C   UNL A   1      32.678  19.975  25.248  1.00  0.00     0.050 A 
ATOM     25  C   UNL A   1      32.453  18.274  23.048  1.00  0.00     0.024 A 
ATOM     26  C   UNL A   1      32.719  18.591  25.420  1.00  0.00     0.142 A 
ATOM     27  C   UNL A   1      32.634  17.739  24.323  1.00  0.00     0.076 A 
ATOM     28  F   UNL A   1      32.926  18.104  26.652  1.00  0.00    -0.205 F 
ATOM     29  Cl  UNL A   1      32.818  16.038  24.511  1.00  0.00    -0.081 Cl
ENDBRANCH  21  22
ENDBRANCH  19  21
ENDBRANCH   7   8
ENDBRANCH   5   7
ENDBRANCH   4   5
ENDBRANCH   3   4
ENDBRANCH   2   3
ENDBRANCH   1   2
BRANCH   1  30
ATOM     30  C   UNL A   1      35.225  32.829  28.793  1.00  0.00     0.202 C 
BRANCH  30  31
ATOM     31  C   UNL A   1      35.181  31.951  30.047  1.00  0.00     0.261 C 
BRANCH  31  32
ATOM     32  O   UNL A   1      35.916  30.736  29.869  1.00  0.00    -0.460 OA
BRANCH  32  33
ATOM     33  C   UNL A   1      36.695  30.396  30.929  1.00  0.00     0.338 C 
ATOM     34  O   UNL A   1      36.314  30.042  32.034  1.00  0.00    -0.246 OA
BRANCH  33  35
ATOM     35  C   UNL A   1      38.099  30.276  30.475  1.00  0.00     0.060 A 
ATOM     36  C   UNL A   1      38.339  30.364  29.096  1.00  0.00     0.016 A 
ATOM     37  C   UNL A   1      39.163  30.164  31.373  1.00  0.00     0.016 A 
ATOM     38  C   UNL A   1      39.634  30.248  28.605  1.00  0.00     0.010 A 
ATOM     39  C   UNL A   1      40.463  30.034  30.880  1.00  0.00     0.010 A 
ATOM     40  C   UNL A   1      40.690  30.014  29.494  1.00  0.00    -0.014 A 
BRANCH  40  41
ATOM     41  C   UNL A   1      41.964  29.490  28.954  1.00  0.00     0.031 A 
ATOM     42  C   UNL A   1      43.128  30.442  28.867  1.00  0.00     0.074 A 
ATOM     43  C   UNL A   1      42.104  28.195  28.625  1.00  0.00     0.049 A 
ATOM     44  N   UNL A   1      44.350  30.222  28.459  1.00  0.00    -0.248 NA
ATOM     45  C   UNL A   1      42.880  31.830  29.298  1.00  0.00     0.031 C 
ATOM     46  C   UNL A   1      41.054  27.181  28.709  1.00  0.00     0.029 A 
ATOM     47  N   UNL A   1      43.197  27.513  28.159  1.00  0.00    -0.354 N 
ATOM     48  C   UNL A   1      45.012  31.438  28.591  1.00  0.00     0.074 A 
ATOM     49  C   UNL A   1      44.048  32.404  29.065  1.00  0.00     0.031 C 
ATOM     50  C   UNL A   1      41.555  26.002  28.300  1.00  0.00     0.029 A 
ATOM     51  C   UNL A   1      42.950  26.185  27.904  1.00  0.00     0.049 A 
ATOM     52  H   UNL A   1      44.076  27.933  28.018  1.00  0.00     0.167 HD
ATOM     53  C   UNL A   1      46.315  31.721  28.358  1.00  0.00     0.031 A 
ATOM     54  C   UNL A   1      43.759  25.235  27.395  1.00  0.00     0.031 A 
ATOM     55  C   UNL A   1      47.263  30.758  27.870  1.00  0.00     0.049 A 
ATOM     56  C   UNL A   1      45.188  25.591  27.075  1.00  0.00     0.074 A 
ATOM     57  C   UNL A   1      48.605  30.937  27.586  1.00  0.00     0.029 A 
ATOM     58  N   UNL A   1      46.967  29.432  27.590  1.00  0.00    -0.354 N 
ATOM     59  N   UNL A   1      45.805  26.742  27.219  1.00  0.00    -0.248 NA
ATOM     60  C   UNL A   1      46.035  24.516  26.544  1.00  0.00     0.031 C 
ATOM     61  C   UNL A   1      49.107  29.733  27.082  1.00  0.00     0.029 A 
ATOM     62  C   UNL A   1      48.095  28.785  27.118  1.00  0.00     0.049 A 
ATOM     63  H   UNL A   1      46.084  29.014  27.710  1.00  0.00     0.167 HD
ATOM     64  C   UNL A   1      47.119  26.520  26.817  1.00  0.00     0.074 A 
ATOM     65  C   UNL A   1      47.211  25.120  26.456  1.00  0.00     0.031 C 
ATOM     66  C   UNL A   1      48.158  27.392  26.753  1.00  0.00     0.031 A 
BRANCH  53  67
ATOM     67  C   UNL A   1      46.775  33.133  28.610  1.00  0.00    -0.014 A 
ATOM     68  C   UNL A   1      47.258  33.527  29.873  1.00  0.00     0.010 A 
ATOM     69  C   UNL A   1      46.758  34.073  27.564  1.00  0.00     0.010 A 
ATOM     70  C   UNL A   1      47.686  34.839  30.091  1.00  0.00     0.020 A 
ATOM     71  C   UNL A   1      47.214  35.378  27.769  1.00  0.00     0.020 A 
ATOM     72  C   UNL A   1      47.665  35.756  29.036  1.00  0.00     0.054 A 
BRANCH  72  73
ATOM     73  S   UNL A   1      48.267  37.440  29.338  1.00  0.00     0.124 S 
ATOM     74  O   UNL A   1      49.656  37.350  28.894  1.00  0.00    -0.237 OA
ATOM     75  O   UNL A   1      47.390  38.248  28.495  1.00  0.00    -0.237 OA
ATOM     76  O   UNL A   1      48.085  37.621  30.776  1.00  0.00    -0.744 OA
ENDBRANCH  72  73
ENDBRANCH  53  67
BRANCH  54  77
ATOM     77  C   UNL A   1      43.229  23.867  27.133  1.00  0.00    -0.014 A 
ATOM     78  C   UNL A   1      42.649  23.533  25.898  1.00  0.00     0.010 A 
ATOM     79  C   UNL A   1      43.295  22.886  28.141  1.00  0.00     0.010 A 
ATOM     80  C   UNL A   1      42.122  22.254  25.683  1.00  0.00     0.020 A 
ATOM     81  C   UNL A   1      42.801  21.598  27.920  1.00  0.00     0.020 A 
ATOM     82  C   UNL A   1      42.203  21.295  26.696  1.00  0.00     0.054 A 
BRANCH  82  83
ATOM     83  S   UNL A   1      41.546  19.632  26.385  1.00  0.00     0.124 S 
ATOM     84  O   UNL A   1      42.354  19.193  25.253  1.00  0.00    -0.237 OA
ATOM     85  O   UNL A   1      41.804  18.951  27.652  1.00  0.00    -0.237 OA
ATOM     86  O   UNL A   1      40.134  19.871  26.092  1.00  0.00    -0.744 OA
ENDBRANCH  82  83
ENDBRANCH  54  77
BRANCH  66  87
ATOM     87  C   UNL A   1      49.487  26.843  26.301  1.00  0.00    -0.014 A 
ATOM     88  C   UNL A   1      50.314  26.113  27.174  1.00  0.00     0.010 A 
ATOM     89  C   UNL A   1      49.904  27.045  24.972  1.00  0.00     0.010 A 
ATOM     90  C   UNL A   1      51.557  25.646  26.743  1.00  0.00     0.020 A 
ATOM     91  C   UNL A   1      51.131  26.547  24.526  1.00  0.00     0.020 A 
ATOM     92  C   UNL A   1      51.961  25.872  25.423  1.00  0.00     0.054 A 
BRANCH  92  93
ATOM     93  S   UNL A   1      53.578  25.253  24.887  1.00  0.00     0.124 S 
ATOM     94  O   UNL A   1      53.451  23.819  25.131  1.00  0.00    -0.237 OA
ATOM     95  O   UNL A   1      53.623  25.650  23.482  1.00  0.00    -0.237 OA
ATOM     96  O   UNL A   1      54.522  25.952  25.757  1.00  0.00    -0.744 OA
ENDBRANCH  92  93
ENDBRANCH  66  87
ENDBRANCH  40  41
ENDBRANCH  33  35
ENDBRANCH  32  33
ENDBRANCH  31  32
ENDBRANCH  30  31
ENDBRANCH   1  30
TORSDOF 20
ENDMDL
MODEL 2
REMARK VINA RESULT:     -10.8      1.682      2.229
REMARK SMILES O=C(CN1CC2(CCC1=O)CC[NH+](Cc1ccc(Cl)c(F)c1)CC2)OCCOCCOC(=O)c1ccc(-c2c3nc(c(-c4ccc(S(=O)(=O)[O-])cc4)c4ccc([nH]4)c(-c4ccc(S(=O)(=O)[O-])cc4)c4nc(c(-c5ccc(S(=O)(=O)[O-])cc5)c5ccc2[nH]5)C=C4)C=C3)cc1
REMARK SMILES IDX 28 1 27 2 26 3 25 4 2 5 1 6 3 7 4 8 5 9 9 10 6 11 8 12 10 13
REMARK SMILES IDX 7 14 11 15 24 16 12 17 23 18 13 19 14 21 15 22 16 23 22 24
REMARK SMILES IDX 17 25 20 26 18 27 21 28 19 29 29 30 30 31 31 32 32 33 33 34
REMARK SMILES IDX 34 35 35 36 93 37 36 38 92 39 37 40 38 41 39 42 86 43 40 44
REMARK SMILES IDX 91 45 85 46 87 47 41 48 90 49 84 50 83 51 42 53 72 54 53 55
REMARK SMILES IDX 71 56 54 57 57 58 70 59 88 60 55 61 56 62 69 64 89 65 58 66
REMARK SMILES IDX 43 67 44 68 52 69 45 70 51 71 46 72 47 73 48 74 49 75 50 76
REMARK SMILES IDX 73 77 74 78 82 79 75 80 81 81 76 82 77 83 78 84 79 85 80 86
REMARK SMILES IDX 59 87 60 88 68 89 61 90 67 91 62 92 63 93 64 94 65 95 66 96
REMARK H PARENT 13 20 87 52 57 63
REMARK Flexibility Score: inf
ROOT
ATOM      1  O   UNL A   1      34.658  31.823  28.169  1.00  0.00    -0.374 OA
ENDROOT
BRANCH   1   2
ATOM      2  C   UNL A   1      34.603  30.503  27.627  1.00  0.00     0.202 C 
BRANCH   2   3
ATOM      3  C   UNL A   1      33.386  30.026  26.831  1.00  0.00     0.261 C 
BRANCH   3   4
ATOM      4  O   UNL A   1      33.035  28.663  27.068  1.00  0.00    -0.462 OA
BRANCH   4   5
ATOM      5  C   UNL A   1      31.810  28.206  26.732  1.00  0.00     0.325 C 
ATOM      6  O   UNL A   1      31.087  27.686  27.583  1.00  0.00    -0.250 OA
BRANCH   5   7
ATOM      7  C   UNL A   1      31.371  28.272  25.278  1.00  0.00     0.242 C 
BRANCH   7   8
ATOM      8  N   UNL A   1      30.640  27.161  24.689  1.00  0.00    -0.331 N 
ATOM      9  C   UNL A   1      30.469  26.004  25.532  1.00  0.00     0.127 C 
ATOM     10  C   UNL A   1      30.513  27.080  23.302  1.00  0.00     0.223 C 
ATOM     11  C   UNL A   1      31.311  24.857  24.970  1.00  0.00    -0.001 C 
ATOM     12  C   UNL A   1      30.667  25.711  22.665  1.00  0.00     0.101 C 
ATOM     13  O   UNL A   1      30.463  28.061  22.563  1.00  0.00    -0.275 OA
ATOM     14  C   UNL A   1      30.627  24.531  23.619  1.00  0.00     0.019 C 
ATOM     15  C   UNL A   1      32.789  25.291  24.717  1.00  0.00     0.070 C 
ATOM     16  C   UNL A   1      31.196  23.647  25.914  1.00  0.00     0.070 C 
ATOM     17  C   UNL A   1      33.735  25.135  25.896  1.00  0.00     0.263 C 
ATOM     18  C   UNL A   1      32.272  23.582  27.000  1.00  0.00     0.263 C 
ATOM     19  N   UNL A   1      33.633  23.841  26.546  1.00  0.00    -0.331 N 
ATOM     20  H   UNL A   1      34.181  23.899  27.404  1.00  0.00     0.348 HD
BRANCH  19  21
ATOM     21  C   UNL A   1      34.385  22.735  25.933  1.00  0.00     0.299 C 
BRANCH  21  22
ATOM     22  C   UNL A   1      33.602  21.629  25.252  1.00  0.00     0.009 A 
ATOM     23  C   UNL A   1      33.189  21.764  23.918  1.00  0.00     0.011 A 
ATOM     24  C   UNL A   1      33.345  20.413  25.908  1.00  0.00     0.050 A 
ATOM     25  C   UNL A   1      32.685  20.668  23.210  1.00  0.00     0.024 A 
ATOM     26  C   UNL A   1      32.863  19.316  25.193  1.00  0.00     0.142 A 
ATOM     27  C   UNL A   1      32.557  19.432  23.841  1.00  0.00     0.076 A 
ATOM     28  F   UNL A   1      32.781  18.131  25.816  1.00  0.00    -0.205 F 
ATOM     29  Cl  UNL A   1      32.090  18.055  22.921  1.00  0.00    -0.081 Cl
ENDBRANCH  21  22
ENDBRANCH  19  21
ENDBRANCH   7   8
ENDBRANCH   5   7
ENDBRANCH   4   5
ENDBRANCH   3   4
ENDBRANCH   2   3
ENDBRANCH   1   2
BRANCH   1  30
ATOM     30  C   UNL A   1      35.898  32.263  28.720  1.00  0.00     0.202 C 
BRANCH  30  31
ATOM     31  C   UNL A   1      36.175  31.865  30.173  1.00  0.00     0.261 C 
BRANCH  31  32
ATOM     32  O   UNL A   1      37.442  31.212  30.312  1.00  0.00    -0.460 OA
BRANCH  32  33
ATOM     33  C   UNL A   1      37.387  29.860  30.191  1.00  0.00     0.338 C 
ATOM     34  O   UNL A   1      36.414  29.146  30.377  1.00  0.00    -0.246 OA
BRANCH  33  35
ATOM     35  C   UNL A   1      38.635  29.385  29.550  1.00  0.00     0.060 A 
ATOM     36  C   UNL A   1      39.548  28.690  30.356  1.00  0.00     0.016 A 
ATOM     37  C   UNL A   1      38.872  29.540  28.182  1.00  0.00     0.016 A 
ATOM     38  C   UNL A   1      40.743  28.228  29.816  1.00  0.00     0.010 A 
ATOM     39  C   UNL A   1      40.079  29.089  27.642  1.00  0.00     0.010 A 
ATOM     40  C   UNL A   1      41.039  28.488  28.473  1.00  0.00    -0.014 A 
BRANCH  40  41
ATOM     41  C   UNL A   1      42.444  28.368  28.024  1.00  0.00     0.031 A 
ATOM     42  C   UNL A   1      43.343  29.560  28.223  1.00  0.00     0.074 A 
ATOM     43  C   UNL A   1      42.924  27.216  27.530  1.00  0.00     0.049 A 
ATOM     44  N   UNL A   1      44.612  29.698  27.943  1.00  0.00    -0.248 NA
ATOM     45  C   UNL A   1      42.726  30.760  28.819  1.00  0.00     0.031 C 
ATOM     46  C   UNL A   1      42.151  25.990  27.333  1.00  0.00     0.029 A 
ATOM     47  N   UNL A   1      44.187  26.890  27.108  1.00  0.00    -0.354 N 
ATOM     48  C   UNL A   1      44.942  30.992  28.333  1.00  0.00     0.074 A 
ATOM     49  C   UNL A   1      43.734  31.616  28.820  1.00  0.00     0.031 C 
ATOM     50  C   UNL A   1      42.959  25.045  26.822  1.00  0.00     0.029 A 
ATOM     51  C   UNL A   1      44.296  25.605  26.633  1.00  0.00     0.049 A 
ATOM     52  H   UNL A   1      44.945  27.518  27.141  1.00  0.00     0.167 HD
ATOM     53  C   UNL A   1      46.151  31.600  28.307  1.00  0.00     0.031 A 
ATOM     54  C   UNL A   1      45.353  24.966  26.095  1.00  0.00     0.031 A 
ATOM     55  C   UNL A   1      47.345  30.976  27.805  1.00  0.00     0.049 A 
ATOM     56  C   UNL A   1      46.674  25.688  26.011  1.00  0.00     0.074 A 
ATOM     57  C   UNL A   1      48.621  31.502  27.720  1.00  0.00     0.029 A 
ATOM     58  N   UNL A   1      47.407  29.686  27.300  1.00  0.00    -0.354 N 
ATOM     59  N   UNL A   1      46.976  26.906  26.397  1.00  0.00    -0.248 NA
ATOM     60  C   UNL A   1      47.800  24.941  25.438  1.00  0.00     0.031 C 
ATOM     61  C   UNL A   1      49.444  30.549  27.111  1.00  0.00     0.029 A 
ATOM     62  C   UNL A   1      48.696  29.403  26.882  1.00  0.00     0.049 A 
ATOM     63  H   UNL A   1      46.646  29.063  27.246  1.00  0.00     0.167 HD
ATOM     64  C   UNL A   1      48.333  27.062  26.134  1.00  0.00     0.074 A 
ATOM     65  C   UNL A   1      48.796  25.803  25.586  1.00  0.00     0.031 C 
ATOM     66  C   UNL A   1      49.129  28.145  26.328  1.00  0.00     0.031 A 
BRANCH  53  67
ATOM     67  C   UNL A   1      46.229  33.014  28.819  1.00  0.00    -0.014 A 
ATOM     68  C   UNL A   1      46.021  34.111  27.960  1.00  0.00     0.010 A 
ATOM     69  C   UNL A   1      46.479  33.254  30.182  1.00  0.00     0.010 A 
ATOM     70  C   UNL A   1      46.091  35.418  28.450  1.00  0.00     0.020 A 
ATOM     71  C   UNL A   1      46.520  34.559  30.682  1.00  0.00     0.020 A 
ATOM     72  C   UNL A   1      46.337  35.633  29.809  1.00  0.00     0.054 A 
BRANCH  72  73
ATOM     73  S   UNL A   1      46.380  37.340  30.423  1.00  0.00     0.124 S 
ATOM     74  O   UNL A   1      45.581  37.243  31.643  1.00  0.00    -0.237 OA
ATOM     75  O   UNL A   1      47.808  37.570  30.625  1.00  0.00    -0.237 OA
ATOM     76  O   UNL A   1      45.773  38.113  29.343  1.00  0.00    -0.744 OA
ENDBRANCH  72  73
ENDBRANCH  53  67
BRANCH  54  77
ATOM     77  C   UNL A   1      45.199  23.579  25.572  1.00  0.00    -0.014 A 
ATOM     78  C   UNL A   1      44.861  23.340  24.229  1.00  0.00     0.010 A 
ATOM     79  C   UNL A   1      45.381  22.482  26.434  1.00  0.00     0.010 A 
ATOM     80  C   UNL A   1      44.682  22.031  23.765  1.00  0.00     0.020 A 
ATOM     81  C   UNL A   1      45.237  21.172  25.967  1.00  0.00     0.020 A 
ATOM     82  C   UNL A   1      44.873  20.957  24.638  1.00  0.00     0.054 A 
BRANCH  82  83
ATOM     83  S   UNL A   1      44.672  19.267  24.007  1.00  0.00     0.124 S 
ATOM     84  O   UNL A   1      44.573  19.489  22.569  1.00  0.00    -0.237 OA
ATOM     85  O   UNL A   1      45.895  18.613  24.466  1.00  0.00    -0.237 OA
ATOM     86  O   UNL A   1      43.447  18.803  24.655  1.00  0.00    -0.744 OA
ENDBRANCH  82  83
ENDBRANCH  54  77
BRANCH  66  87
ATOM     87  C   UNL A   1      50.585  28.000  25.970  1.00  0.00    -0.014 A 
ATOM     88  C   UNL A   1      51.509  27.437  26.870  1.00  0.00     0.010 A 
ATOM     89  C   UNL A   1      51.032  28.414  24.701  1.00  0.00     0.010 A 
ATOM     90  C   UNL A   1      52.860  27.346  26.529  1.00  0.00     0.020 A 
ATOM     91  C   UNL A   1      52.375  28.290  24.342  1.00  0.00     0.020 A 
ATOM     92  C   UNL A   1      53.286  27.779  25.268  1.00  0.00     0.054 A 
BRANCH  92  93
ATOM     93  S   UNL A   1      55.045  27.648  24.850  1.00  0.00     0.124 S 
ATOM     94  O   UNL A   1      55.681  27.829  26.152  1.00  0.00    -0.237 OA
ATOM     95  O   UNL A   1      55.140  26.304  24.285  1.00  0.00    -0.237 OA
ATOM     96  O   UNL A   1      55.257  28.735  23.896  1.00  0.00    -0.744 OA
ENDBRANCH  92  93
ENDBRANCH  66  87
ENDBRANCH  40  41
ENDBRANCH  33  35
ENDBRANCH  32  33
ENDBRANCH  31  32
ENDBRANCH  30  31
ENDBRANCH   1  30
TORSDOF 20
ENDMDL
MODEL 3
REMARK VINA RESULT:     -10.5      2.216      2.844
REMARK SMILES O=C(CN1CC2(CCC1=O)CC[NH+](Cc1ccc(Cl)c(F)c1)CC2)OCCOCCOC(=O)c1ccc(-c2c3nc(c(-c4ccc(S(=O)(=O)[O-])cc4)c4ccc([nH]4)c(-c4ccc(S(=O)(=O)[O-])cc4)c4nc(c(-c5ccc(S(=O)(=O)[O-])cc5)c5ccc2[nH]5)C=C4)C=C3)cc1
REMARK SMILES IDX 28 1 27 2 26 3 25 4 2 5 1 6 3 7 4 8 5 9 9 10 6 11 8 12 10 13
REMARK SMILES IDX 7 14 11 15 24 16 12 17 23 18 13 19 14 21 15 22 16 23 22 24
REMARK SMILES IDX 17 25 20 26 18 27 21 28 19 29 29 30 30 31 31 32 32 33 33 34
REMARK SMILES IDX 34 35 35 36 93 37 36 38 92 39 37 40 38 41 39 42 86 43 40 44
REMARK SMILES IDX 91 45 85 46 87 47 41 48 90 49 84 50 83 51 42 53 72 54 53 55
REMARK SMILES IDX 71 56 54 57 57 58 70 59 88 60 55 61 56 62 69 64 89 65 58 66
REMARK SMILES IDX 43 67 44 68 52 69 45 70 51 71 46 72 47 73 48 74 49 75 50 76
REMARK SMILES IDX 73 77 74 78 82 79 75 80 81 81 76 82 77 83 78 84 79 85 80 86
REMARK SMILES IDX 59 87 60 88 68 89 61 90 67 91 62 92 63 93 64 94 65 95 66 96
REMARK H PARENT 13 20 87 52 57 63
REMARK Flexibility Score: inf
ROOT
ATOM      1  O   UNL A   1      34.356  31.727  28.286  1.00  0.00    -0.374 OA
ENDROOT
BRANCH   1   2
ATOM      2  C   UNL A   1      34.236  30.487  27.588  1.00  0.00     0.202 C 
BRANCH   2   3
ATOM      3  C   UNL A   1      32.893  30.031  27.015  1.00  0.00     0.261 C 
BRANCH   3   4
ATOM      4  O   UNL A   1      32.793  28.619  26.822  1.00  0.00    -0.462 OA
BRANCH   4   5
ATOM      5  C   UNL A   1      31.589  28.010  26.858  1.00  0.00     0.325 C 
ATOM      6  O   UNL A   1      31.094  27.678  27.935  1.00  0.00    -0.250 OA
BRANCH   5   7
ATOM      7  C   UNL A   1      30.895  27.670  25.549  1.00  0.00     0.242 C 
BRANCH   7   8
ATOM      8  N   UNL A   1      30.500  26.298  25.271  1.00  0.00    -0.331 N 
ATOM      9  C   UNL A   1      31.189  25.281  26.026  1.00  0.00     0.127 C 
ATOM     10  C   UNL A   1      29.840  26.000  24.078  1.00  0.00     0.223 C 
ATOM     11  C   UNL A   1      32.094  24.492  25.079  1.00  0.00    -0.001 C 
ATOM     12  C   UNL A   1      30.247  24.732  23.352  1.00  0.00     0.101 C 
ATOM     13  O   UNL A   1      29.089  26.784  23.501  1.00  0.00    -0.275 OA
ATOM     14  C   UNL A   1      31.097  23.759  24.147  1.00  0.00     0.019 C 
ATOM     15  C   UNL A   1      33.008  25.433  24.231  1.00  0.00     0.070 C 
ATOM     16  C   UNL A   1      32.893  23.462  25.897  1.00  0.00     0.070 C 
ATOM     17  C   UNL A   1      34.339  25.807  24.862  1.00  0.00     0.263 C 
ATOM     18  C   UNL A   1      34.252  23.957  26.393  1.00  0.00     0.263 C 
ATOM     19  N   UNL A   1      35.056  24.667  25.406  1.00  0.00    -0.331 N 
ATOM     20  H   UNL A   1      35.841  25.041  25.938  1.00  0.00     0.348 HD
BRANCH  19  21
ATOM     21  C   UNL A   1      35.850  23.874  24.455  1.00  0.00     0.299 C 
BRANCH  21  22
ATOM     22  C   UNL A   1      36.754  22.789  25.009  1.00  0.00     0.009 A 
ATOM     23  C   UNL A   1      36.542  21.443  24.672  1.00  0.00     0.011 A 
ATOM     24  C   UNL A   1      37.870  23.109  25.798  1.00  0.00     0.050 A 
ATOM     25  C   UNL A   1      37.499  20.470  24.974  1.00  0.00     0.024 A 
ATOM     26  C   UNL A   1      38.835  22.140  26.079  1.00  0.00     0.142 A 
ATOM     27  C   UNL A   1      38.666  20.828  25.647  1.00  0.00     0.076 A 
ATOM     28  F   UNL A   1      39.962  22.519  26.699  1.00  0.00    -0.205 F 
ATOM     29  Cl  UNL A   1      39.909  19.659  25.872  1.00  0.00    -0.081 Cl
ENDBRANCH  21  22
ENDBRANCH  19  21
ENDBRANCH   7   8
ENDBRANCH   5   7
ENDBRANCH   4   5
ENDBRANCH   3   4
ENDBRANCH   2   3
ENDBRANCH   1   2
BRANCH   1  30
ATOM     30  C   UNL A   1      35.620  32.040  28.870  1.00  0.00     0.202 C 
BRANCH  30  31
ATOM     31  C   UNL A   1      35.792  31.681  30.350  1.00  0.00     0.261 C 
BRANCH  31  32
ATOM     32  O   UNL A   1      37.104  31.179  30.625  1.00  0.00    -0.460 OA
BRANCH  32  33
ATOM     33  C   UNL A   1      37.160  29.834  30.800  1.00  0.00     0.338 C 
ATOM     34  O   UNL A   1      36.284  29.117  31.258  1.00  0.00    -0.246 OA
BRANCH  33  35
ATOM     35  C   UNL A   1      38.366  29.311  30.118  1.00  0.00     0.060 A 
ATOM     36  C   UNL A   1      39.339  28.690  30.914  1.00  0.00     0.016 A 
ATOM     37  C   UNL A   1      38.508  29.350  28.728  1.00  0.00     0.016 A 
ATOM     38  C   UNL A   1      40.499  28.189  30.336  1.00  0.00     0.010 A 
ATOM     39  C   UNL A   1      39.679  28.858  28.147  1.00  0.00     0.010 A 
ATOM     40  C   UNL A   1      40.700  28.334  28.957  1.00  0.00    -0.014 A 
BRANCH  40  41
ATOM     41  C   UNL A   1      42.072  28.182  28.425  1.00  0.00     0.031 A 
ATOM     42  C   UNL A   1      42.972  29.389  28.465  1.00  0.00     0.074 A 
ATOM     43  C   UNL A   1      42.527  26.995  27.994  1.00  0.00     0.049 A 
ATOM     44  N   UNL A   1      44.218  29.507  28.089  1.00  0.00    -0.248 NA
ATOM     45  C   UNL A   1      42.388  30.631  29.003  1.00  0.00     0.031 C 
ATOM     46  C   UNL A   1      41.752  25.755  27.950  1.00  0.00     0.029 A 
ATOM     47  N   UNL A   1      43.761  26.639  27.515  1.00  0.00    -0.354 N 
ATOM     48  C   UNL A   1      44.564  30.829  28.350  1.00  0.00     0.074 A 
ATOM     49  C   UNL A   1      43.387  31.487  28.865  1.00  0.00     0.031 C 
ATOM     50  C   UNL A   1      42.532  24.773  27.463  1.00  0.00     0.029 A 
ATOM     51  C   UNL A   1      43.847  25.320  27.139  1.00  0.00     0.049 A 
ATOM     52  H   UNL A   1      44.514  27.269  27.445  1.00  0.00     0.167 HD
ATOM     53  C   UNL A   1      45.763  31.436  28.192  1.00  0.00     0.031 A 
ATOM     54  C   UNL A   1      44.871  24.642  26.584  1.00  0.00     0.031 A 
ATOM     55  C   UNL A   1      46.925  30.777  27.662  1.00  0.00     0.049 A 
ATOM     56  C   UNL A   1      46.177  25.359  26.351  1.00  0.00     0.074 A 
ATOM     57  C   UNL A   1      48.188  31.297  27.447  1.00  0.00     0.029 A 
ATOM     58  N   UNL A   1      46.963  29.450  27.259  1.00  0.00    -0.354 N 
ATOM     59  N   UNL A   1      46.494  26.605  26.616  1.00  0.00    -0.248 NA
ATOM     60  C   UNL A   1      47.268  24.571  25.765  1.00  0.00     0.031 C 
ATOM     61  C   UNL A   1      48.975  30.300  26.863  1.00  0.00     0.029 A 
ATOM     62  C   UNL A   1      48.223  29.138  26.779  1.00  0.00     0.049 A 
ATOM     63  H   UNL A   1      46.206  28.823  27.308  1.00  0.00     0.167 HD
ATOM     64  C   UNL A   1      47.830  26.743  26.249  1.00  0.00     0.074 A 
ATOM     65  C   UNL A   1      48.264  25.445  25.774  1.00  0.00     0.031 C 
ATOM     66  C   UNL A   1      48.628  27.840  26.300  1.00  0.00     0.031 A 
BRANCH  53  67
ATOM     67  C   UNL A   1      45.864  32.887  28.581  1.00  0.00    -0.014 A 
ATOM     68  C   UNL A   1      46.216  33.268  29.891  1.00  0.00     0.010 A 
ATOM     69  C   UNL A   1      45.636  33.888  27.619  1.00  0.00     0.010 A 
ATOM     70  C   UNL A   1      46.310  34.618  30.235  1.00  0.00     0.020 A 
ATOM     71  C   UNL A   1      45.759  35.240  27.952  1.00  0.00     0.020 A 
ATOM     72  C   UNL A   1      46.084  35.596  29.263  1.00  0.00     0.054 A 
BRANCH  72  73
ATOM     73  S   UNL A   1      46.255  37.341  29.730  1.00  0.00     0.124 S 
ATOM     74  O   UNL A   1      45.295  37.457  30.825  1.00  0.00    -0.237 OA
ATOM     75  O   UNL A   1      47.660  37.431  30.116  1.00  0.00    -0.237 OA
ATOM     76  O   UNL A   1      45.898  38.063  28.512  1.00  0.00    -0.744 OA
ENDBRANCH  72  73
ENDBRANCH  53  67
BRANCH  54  77
ATOM     77  C   UNL A   1      44.693  23.217  26.186  1.00  0.00    -0.014 A 
ATOM     78  C   UNL A   1      45.798  22.376  25.973  1.00  0.00     0.010 A 
ATOM     79  C   UNL A   1      43.397  22.698  26.005  1.00  0.00     0.010 A 
ATOM     80  C   UNL A   1      45.612  21.050  25.562  1.00  0.00     0.020 A 
ATOM     81  C   UNL A   1      43.206  21.366  25.627  1.00  0.00     0.020 A 
ATOM     82  C   UNL A   1      44.316  20.555  25.393  1.00  0.00     0.054 A 
BRANCH  82  83
ATOM     83  S   UNL A   1      44.096  18.824  24.895  1.00  0.00     0.124 S 
ATOM     84  O   UNL A   1      44.244  18.903  23.445  1.00  0.00    -0.237 OA
ATOM     85  O   UNL A   1      45.180  18.152  25.608  1.00  0.00    -0.237 OA
ATOM     86  O   UNL A   1      42.753  18.499  25.370  1.00  0.00    -0.744 OA
ENDBRANCH  82  83
ENDBRANCH  54  77
BRANCH  66  87
ATOM     87  C   UNL A   1      50.058  27.670  25.856  1.00  0.00    -0.014 A 
ATOM     88  C   UNL A   1      51.075  27.338  26.770  1.00  0.00     0.010 A 
ATOM     89  C   UNL A   1      50.384  27.822  24.495  1.00  0.00     0.010 A 
ATOM     90  C   UNL A   1      52.399  27.222  26.341  1.00  0.00     0.020 A 
ATOM     91  C   UNL A   1      51.700  27.669  24.056  1.00  0.00     0.020 A 
ATOM     92  C   UNL A   1      52.704  27.394  24.986  1.00  0.00     0.054 A 
BRANCH  92  93
ATOM     93  S   UNL A   1      54.430  27.235  24.454  1.00  0.00     0.124 S 
ATOM     94  O   UNL A   1      54.703  28.563  23.910  1.00  0.00    -0.237 OA
ATOM     95  O   UNL A   1      55.120  26.913  25.701  1.00  0.00    -0.237 OA
ATOM     96  O   UNL A   1      54.392  26.154  23.471  1.00  0.00    -0.744 OA
ENDBRANCH  92  93
ENDBRANCH  66  87
ENDBRANCH  40  41
ENDBRANCH  33  35
ENDBRANCH  32  33
ENDBRANCH  31  32
ENDBRANCH  30  31
ENDBRANCH   1  30
TORSDOF 20
ENDMDL
