MODEL 1
REMARK VINA RESULT:     -11.8      0.000      0.000
REMARK SMILES O=C(Cn1c2ccccc2c(=O)c2ccccc21)N[C@@H](Cc1ccccc1)C(=O)OCCOCCOC(=O)c1ccc(-c2c3nc(c(-c4ccc(S(=O)(=O)[O-])cc4)c4ccc([nH]4)c(-c4ccc(S(=O)(=O)[O-])cc4)c4nc(c(-c5ccc(S(=O)(=O)[O-])cc5)c5ccc2[nH]5)C=C4)C=C3)cc1
REMARK SMILES IDX 33 1 32 2 31 3 30 4 28 5 29 6 20 7 19 8 1 9 2 10 3 12 4 13
REMARK SMILES IDX 5 14 18 15 6 16 10 17 13 18 17 19 7 20 9 21 11 22 14 23
REMARK SMILES IDX 16 24 8 25 12 26 15 27 21 28 22 29 23 30 27 31 24 32 26 33
REMARK SMILES IDX 25 34 34 35 35 36 36 37 37 38 38 39 39 40 40 41 98 42 41 43
REMARK SMILES IDX 97 44 42 45 43 46 44 47 91 48 45 49 96 50 90 51 92 52 46 53
REMARK SMILES IDX 95 54 89 55 88 56 47 58 77 59 58 60 76 61 59 62 62 63 75 64
REMARK SMILES IDX 93 65 60 66 61 67 74 69 94 70 63 71 48 72 49 73 57 74 50 75
REMARK SMILES IDX 56 76 51 77 52 78 53 79 54 80 55 81 78 82 79 83 87 84 80 85
REMARK SMILES IDX 86 86 81 87 82 88 83 89 84 90 85 91 64 92 65 93 73 94 66 95
REMARK SMILES IDX 72 96 67 97 68 98 69 99 70 100 71 101
REMARK H PARENT 19 11 92 57 62 68
REMARK Flexibility Score: inf
ROOT
ATOM      1  O   UNL A   1      32.723  29.795  27.505  1.00  0.00    -0.374 OA
ENDROOT
BRANCH   1   2
ATOM      2  C   UNL A   1      32.937  28.611  26.753  1.00  0.00     0.202 C 
BRANCH   2   3
ATOM      3  C   UNL A   1      31.719  27.852  26.215  1.00  0.00     0.261 C 
BRANCH   3   4
ATOM      4  O   UNL A   1      31.373  26.659  26.952  1.00  0.00    -0.462 OA
BRANCH   4   5
ATOM      5  C   UNL A   1      30.995  25.590  26.198  1.00  0.00     0.329 C 
ATOM      6  O   UNL A   1      30.429  24.597  26.647  1.00  0.00    -0.250 OA
BRANCH   5   7
ATOM      7  C   UNL A   1      31.501  25.643  24.747  1.00  0.00     0.196 C 
BRANCH   7   8
ATOM      8  N   UNL A   1      32.518  24.671  24.263  1.00  0.00    -0.341 N 
ATOM      9  O   UNL A   1      34.245  25.786  25.252  1.00  0.00    -0.273 OA
ATOM     10  C   UNL A   1      33.868  24.862  24.523  1.00  0.00     0.240 C 
ATOM     11  H   UNL A   1      32.230  23.882  23.749  1.00  0.00     0.164 HD
BRANCH  10  12
ATOM     12  C   UNL A   1      34.911  24.001  23.771  1.00  0.00     0.222 C 
BRANCH  12  13
ATOM     13  N   UNL A   1      35.415  22.751  24.398  1.00  0.00    -0.331 N 
ATOM     14  C   UNL A   1      36.676  22.841  25.059  1.00  0.00     0.053 A 
ATOM     15  C   UNL A   1      34.661  21.572  24.544  1.00  0.00     0.053 A 
ATOM     16  C   UNL A   1      37.213  24.033  25.569  1.00  0.00     0.027 A 
ATOM     17  C   UNL A   1      37.401  21.661  25.323  1.00  0.00     0.046 A 
ATOM     18  C   UNL A   1      35.338  20.349  24.770  1.00  0.00     0.046 A 
ATOM     19  C   UNL A   1      33.264  21.510  24.514  1.00  0.00     0.027 A 
ATOM     20  C   UNL A   1      38.410  24.035  26.304  1.00  0.00     0.002 A 
ATOM     21  C   UNL A   1      38.613  21.657  26.024  1.00  0.00     0.014 A 
ATOM     22  C   UNL A   1      36.806  20.377  24.919  1.00  0.00     0.197 A 
ATOM     23  C   UNL A   1      34.673  19.120  24.862  1.00  0.00     0.014 A 
ATOM     24  C   UNL A   1      32.584  20.282  24.601  1.00  0.00     0.002 A 
ATOM     25  C   UNL A   1      39.112  22.851  26.526  1.00  0.00     0.001 A 
ATOM     26  O   UNL A   1      37.493  19.373  24.777  1.00  0.00    -0.288 OA
ATOM     27  C   UNL A   1      33.286  19.088  24.760  1.00  0.00     0.001 A 
ENDBRANCH  12  13
ENDBRANCH  10  12
ENDBRANCH   7   8
BRANCH   7  28
ATOM     28  C   UNL A   1      30.246  25.680  23.839  1.00  0.00     0.072 C 
BRANCH  28  29
ATOM     29  C   UNL A   1      29.870  27.072  23.380  1.00  0.00    -0.045 A 
ATOM     30  C   UNL A   1      30.822  27.893  22.768  1.00  0.00     0.004 A 
ATOM     31  C   UNL A   1      28.554  27.545  23.511  1.00  0.00     0.004 A 
ATOM     32  C   UNL A   1      30.451  29.131  22.242  1.00  0.00     0.000 A 
ATOM     33  C   UNL A   1      28.176  28.766  22.954  1.00  0.00     0.000 A 
ATOM     34  C   UNL A   1      29.125  29.556  22.312  1.00  0.00     0.000 A 
ENDBRANCH  28  29
ENDBRANCH   7  28
ENDBRANCH   5   7
ENDBRANCH   4   5
ENDBRANCH   3   4
ENDBRANCH   2   3
ENDBRANCH   1   2
BRANCH   1  35
ATOM     35  C   UNL A   1      33.575  30.897  27.268  1.00  0.00     0.202 C 
BRANCH  35  36
ATOM     36  C   UNL A   1      34.566  31.359  28.339  1.00  0.00     0.261 C 
BRANCH  36  37
ATOM     37  O   UNL A   1      35.946  31.045  28.231  1.00  0.00    -0.460 OA
BRANCH  37  38
ATOM     38  C   UNL A   1      36.513  30.641  29.398  1.00  0.00     0.338 C 
ATOM     39  O   UNL A   1      35.995  30.536  30.490  1.00  0.00    -0.246 OA
BRANCH  38  40
ATOM     40  C   UNL A   1      37.873  30.211  29.067  1.00  0.00     0.060 A 
ATOM     41  C   UNL A   1      38.213  29.915  27.745  1.00  0.00     0.016 A 
ATOM     42  C   UNL A   1      38.789  30.076  30.110  1.00  0.00     0.016 A 
ATOM     43  C   UNL A   1      39.493  29.447  27.470  1.00  0.00     0.010 A 
ATOM     44  C   UNL A   1      40.072  29.626  29.829  1.00  0.00     0.010 A 
ATOM     45  C   UNL A   1      40.427  29.304  28.510  1.00  0.00    -0.014 A 
BRANCH  45  46
ATOM     46  C   UNL A   1      41.809  28.872  28.222  1.00  0.00     0.031 A 
ATOM     47  C   UNL A   1      42.931  29.862  28.265  1.00  0.00     0.074 A 
ATOM     48  C   UNL A   1      42.016  27.586  27.883  1.00  0.00     0.049 A 
ATOM     49  N   UNL A   1      44.200  29.670  28.021  1.00  0.00    -0.248 NA
ATOM     50  C   UNL A   1      42.590  31.251  28.619  1.00  0.00     0.031 C 
ATOM     51  C   UNL A   1      40.969  26.564  27.810  1.00  0.00     0.029 A 
ATOM     52  N   UNL A   1      43.162  26.917  27.543  1.00  0.00    -0.354 N 
ATOM     53  C   UNL A   1      44.808  30.907  28.192  1.00  0.00     0.074 A 
ATOM     54  C   UNL A   1      43.766  31.855  28.516  1.00  0.00     0.031 C 
ATOM     55  C   UNL A   1      41.526  25.390  27.481  1.00  0.00     0.029 A 
ATOM     56  C   UNL A   1      42.957  25.585  27.270  1.00  0.00     0.049 A 
ATOM     57  H   UNL A   1      44.046  27.347  27.500  1.00  0.00     0.167 HD
ATOM     58  C   UNL A   1      46.125  31.205  28.102  1.00  0.00     0.031 A 
ATOM     59  C   UNL A   1      43.826  24.628  26.889  1.00  0.00     0.031 A 
ATOM     60  C   UNL A   1      47.136  30.232  27.771  1.00  0.00     0.049 A 
ATOM     61  C   UNL A   1      45.277  24.997  26.760  1.00  0.00     0.074 A 
ATOM     62  C   UNL A   1      48.503  30.417  27.680  1.00  0.00     0.029 A 
ATOM     63  N   UNL A   1      46.891  28.897  27.476  1.00  0.00    -0.354 N 
ATOM     64  N   UNL A   1      45.850  26.158  26.980  1.00  0.00    -0.248 NA
ATOM     65  C   UNL A   1      46.203  23.936  26.347  1.00  0.00     0.031 C 
ATOM     66  C   UNL A   1      49.076  29.217  27.255  1.00  0.00     0.029 A 
ATOM     67  C   UNL A   1      48.079  28.256  27.170  1.00  0.00     0.049 A 
ATOM     68  H   UNL A   1      46.004  28.470  27.484  1.00  0.00     0.167 HD
ATOM     69  C   UNL A   1      47.206  25.962  26.753  1.00  0.00     0.074 A 
ATOM     70  C   UNL A   1      47.371  24.567  26.400  1.00  0.00     0.031 C 
ATOM     71  C   UNL A   1      48.220  26.859  26.824  1.00  0.00     0.031 A 
BRANCH  58  72
ATOM     72  C   UNL A   1      46.568  32.621  28.378  1.00  0.00    -0.014 A 
ATOM     73  C   UNL A   1      46.814  33.036  29.700  1.00  0.00     0.010 A 
ATOM     74  C   UNL A   1      46.608  33.577  27.346  1.00  0.00     0.010 A 
ATOM     75  C   UNL A   1      47.044  34.384  29.992  1.00  0.00     0.020 A 
ATOM     76  C   UNL A   1      46.871  34.921  27.630  1.00  0.00     0.020 A 
ATOM     77  C   UNL A   1      47.057  35.321  28.955  1.00  0.00     0.054 A 
BRANCH  77  78
ATOM     78  S   UNL A   1      47.296  37.072  29.361  1.00  0.00     0.124 S 
ATOM     79  O   UNL A   1      48.547  37.046  30.111  1.00  0.00    -0.237 OA
ATOM     80  O   UNL A   1      47.361  37.697  28.042  1.00  0.00    -0.237 OA
ATOM     81  O   UNL A   1      46.107  37.408  30.142  1.00  0.00    -0.744 OA
ENDBRANCH  77  78
ENDBRANCH  58  72
BRANCH  59  82
ATOM     82  C   UNL A   1      43.327  23.241  26.668  1.00  0.00    -0.014 A 
ATOM     83  C   UNL A   1      42.789  22.494  27.734  1.00  0.00     0.010 A 
ATOM     84  C   UNL A   1      43.494  22.618  25.419  1.00  0.00     0.010 A 
ATOM     85  C   UNL A   1      42.495  21.137  27.575  1.00  0.00     0.020 A 
ATOM     86  C   UNL A   1      43.165  21.268  25.246  1.00  0.00     0.020 A 
ATOM     87  C   UNL A   1      42.699  20.529  26.335  1.00  0.00     0.054 A 
BRANCH  87  88
ATOM     88  S   UNL A   1      42.378  18.750  26.174  1.00  0.00     0.124 S 
ATOM     89  O   UNL A   1      40.978  18.733  25.760  1.00  0.00    -0.237 OA
ATOM     90  O   UNL A   1      43.340  18.345  25.153  1.00  0.00    -0.237 OA
ATOM     91  O   UNL A   1      42.639  18.231  27.515  1.00  0.00    -0.744 OA
ENDBRANCH  87  88
ENDBRANCH  59  82
BRANCH  71  92
ATOM     92  C   UNL A   1      49.615  26.379  26.513  1.00  0.00    -0.014 A 
ATOM     93  C   UNL A   1      50.435  25.902  27.553  1.00  0.00     0.010 A 
ATOM     94  C   UNL A   1      50.163  26.548  25.229  1.00  0.00     0.010 A 
ATOM     95  C   UNL A   1      51.791  25.656  27.330  1.00  0.00     0.020 A 
ATOM     96  C   UNL A   1      51.511  26.265  24.993  1.00  0.00     0.020 A 
ATOM     97  C   UNL A   1      52.323  25.854  26.053  1.00  0.00     0.054 A 
BRANCH  97  98
ATOM     98  S   UNL A   1      54.098  25.592  25.800  1.00  0.00     0.124 S 
ATOM     99  O   UNL A   1      54.556  25.268  27.148  1.00  0.00    -0.237 OA
ATOM    100  O   UNL A   1      54.126  24.489  24.843  1.00  0.00    -0.237 OA
ATOM    101  O   UNL A   1      54.564  26.875  25.276  1.00  0.00    -0.744 OA
ENDBRANCH  97  98
ENDBRANCH  71  92
ENDBRANCH  45  46
ENDBRANCH  38  40
ENDBRANCH  37  38
ENDBRANCH  36  37
ENDBRANCH  35  36
ENDBRANCH   1  35
TORSDOF 22
ENDMDL
MODEL 2
REMARK VINA RESULT:     -11.1      3.724     10.235
REMARK SMILES O=C(Cn1c2ccccc2c(=O)c2ccccc21)N[C@@H](Cc1ccccc1)C(=O)OCCOCCOC(=O)c1ccc(-c2c3nc(c(-c4ccc(S(=O)(=O)[O-])cc4)c4ccc([nH]4)c(-c4ccc(S(=O)(=O)[O-])cc4)c4nc(c(-c5ccc(S(=O)(=O)[O-])cc5)c5ccc2[nH]5)C=C4)C=C3)cc1
REMARK SMILES IDX 33 1 32 2 31 3 30 4 28 5 29 6 20 7 19 8 1 9 2 10 3 12 4 13
REMARK SMILES IDX 5 14 18 15 6 16 10 17 13 18 17 19 7 20 9 21 11 22 14 23
REMARK SMILES IDX 16 24 8 25 12 26 15 27 21 28 22 29 23 30 27 31 24 32 26 33
REMARK SMILES IDX 25 34 34 35 35 36 36 37 37 38 38 39 39 40 40 41 98 42 41 43
REMARK SMILES IDX 97 44 42 45 43 46 44 47 91 48 45 49 96 50 90 51 92 52 46 53
REMARK SMILES IDX 95 54 89 55 88 56 47 58 77 59 58 60 76 61 59 62 62 63 75 64
REMARK SMILES IDX 93 65 60 66 61 67 74 69 94 70 63 71 48 72 49 73 57 74 50 75
REMARK SMILES IDX 56 76 51 77 52 78 53 79 54 80 55 81 78 82 79 83 87 84 80 85
REMARK SMILES IDX 86 86 81 87 82 88 83 89 84 90 85 91 64 92 65 93 73 94 66 95
REMARK SMILES IDX 72 96 67 97 68 98 69 99 70 100 71 101
REMARK H PARENT 19 11 92 57 62 68
REMARK Flexibility Score: inf
ROOT
ATOM      1  O   UNL A   1      43.834  21.773  24.638  1.00  0.00    -0.374 OA
ENDROOT
BRANCH   1   2
ATOM      2  C   UNL A   1      43.607  21.624  26.029  1.00  0.00     0.202 C 
BRANCH   2   3
ATOM      3  C   UNL A   1      42.167  21.456  26.525  1.00  0.00     0.261 C 
BRANCH   3   4
ATOM      4  O   UNL A   1      41.346  22.639  26.420  1.00  0.00    -0.462 OA
BRANCH   4   5
ATOM      5  C   UNL A   1      40.002  22.434  26.501  1.00  0.00     0.329 C 
ATOM      6  O   UNL A   1      39.462  21.342  26.347  1.00  0.00    -0.250 OA
BRANCH   5   7
ATOM      7  C   UNL A   1      39.183  23.730  26.624  1.00  0.00     0.196 C 
BRANCH   7   8
ATOM      8  N   UNL A   1      37.717  23.679  26.874  1.00  0.00    -0.341 N 
ATOM      9  O   UNL A   1      37.214  23.497  24.657  1.00  0.00    -0.273 OA
ATOM     10  C   UNL A   1      36.815  23.617  25.821  1.00  0.00     0.240 C 
ATOM     11  H   UNL A   1      37.382  23.690  27.800  1.00  0.00     0.164 HD
BRANCH  10  12
ATOM     12  C   UNL A   1      35.312  23.854  26.099  1.00  0.00     0.222 C 
BRANCH  12  13
ATOM     13  N   UNL A   1      34.402  24.177  24.968  1.00  0.00    -0.331 N 
ATOM     14  C   UNL A   1      33.766  23.068  24.333  1.00  0.00     0.053 A 
ATOM     15  C   UNL A   1      33.991  25.477  24.623  1.00  0.00     0.053 A 
ATOM     16  C   UNL A   1      33.545  21.829  24.953  1.00  0.00     0.027 A 
ATOM     17  C   UNL A   1      33.223  23.233  23.043  1.00  0.00     0.046 A 
ATOM     18  C   UNL A   1      33.476  25.711  23.326  1.00  0.00     0.046 A 
ATOM     19  C   UNL A   1      34.021  26.579  25.485  1.00  0.00     0.027 A 
ATOM     20  C   UNL A   1      32.817  20.815  24.308  1.00  0.00     0.002 A 
ATOM     21  C   UNL A   1      32.528  22.216  22.378  1.00  0.00     0.014 A 
ATOM     22  C   UNL A   1      33.321  24.560  22.415  1.00  0.00     0.197 A 
ATOM     23  C   UNL A   1      33.104  26.984  22.875  1.00  0.00     0.014 A 
ATOM     24  C   UNL A   1      33.655  27.863  25.044  1.00  0.00     0.002 A 
ATOM     25  C   UNL A   1      32.315  21.005  23.022  1.00  0.00     0.001 A 
ATOM     26  O   UNL A   1      33.214  24.700  21.203  1.00  0.00    -0.288 OA
ATOM     27  C   UNL A   1      33.211  28.069  23.738  1.00  0.00     0.001 A 
ENDBRANCH  12  13
ENDBRANCH  10  12
ENDBRANCH   7   8
BRANCH   7  28
ATOM     28  C   UNL A   1      39.921  24.627  27.649  1.00  0.00     0.072 C 
BRANCH  28  29
ATOM     29  C   UNL A   1      40.264  26.002  27.116  1.00  0.00    -0.045 A 
ATOM     30  C   UNL A   1      39.633  27.136  27.638  1.00  0.00     0.004 A 
ATOM     31  C   UNL A   1      41.250  26.170  26.132  1.00  0.00     0.004 A 
ATOM     32  C   UNL A   1      40.027  28.411  27.230  1.00  0.00     0.000 A 
ATOM     33  C   UNL A   1      41.668  27.445  25.751  1.00  0.00     0.000 A 
ATOM     34  C   UNL A   1      41.060  28.566  26.307  1.00  0.00     0.000 A 
ENDBRANCH  28  29
ENDBRANCH   7  28
ENDBRANCH   5   7
ENDBRANCH   4   5
ENDBRANCH   3   4
ENDBRANCH   2   3
ENDBRANCH   1   2
BRANCH   1  35
ATOM     35  C   UNL A   1      44.383  22.993  24.180  1.00  0.00     0.202 C 
BRANCH  35  36
ATOM     36  C   UNL A   1      45.891  23.244  24.253  1.00  0.00     0.261 C 
BRANCH  36  37
ATOM     37  O   UNL A   1      46.395  24.501  24.678  1.00  0.00    -0.460 OA
BRANCH  37  38
ATOM     38  C   UNL A   1      46.671  24.564  26.007  1.00  0.00     0.338 C 
ATOM     39  O   UNL A   1      47.150  23.705  26.717  1.00  0.00    -0.246 OA
BRANCH  38  40
ATOM     40  C   UNL A   1      46.403  25.943  26.418  1.00  0.00     0.060 A 
ATOM     41  C   UNL A   1      45.687  26.799  25.578  1.00  0.00     0.016 A 
ATOM     42  C   UNL A   1      46.914  26.372  27.643  1.00  0.00     0.016 A 
ATOM     43  C   UNL A   1      45.503  28.122  25.966  1.00  0.00     0.010 A 
ATOM     44  C   UNL A   1      46.713  27.689  28.035  1.00  0.00     0.010 A 
ATOM     45  C   UNL A   1      46.013  28.570  27.195  1.00  0.00    -0.014 A 
BRANCH  45  46
ATOM     46  C   UNL A   1      45.768  29.954  27.649  1.00  0.00     0.031 A 
ATOM     47  C   UNL A   1      46.791  31.019  27.402  1.00  0.00     0.074 A 
ATOM     48  C   UNL A   1      44.631  30.210  28.322  1.00  0.00     0.049 A 
ATOM     49  N   UNL A   1      46.758  32.278  27.746  1.00  0.00    -0.248 NA
ATOM     50  C   UNL A   1      48.014  30.623  26.682  1.00  0.00     0.031 C 
ATOM     51  C   UNL A   1      43.591  29.219  28.610  1.00  0.00     0.029 A 
ATOM     52  N   UNL A   1      44.154  31.368  28.877  1.00  0.00    -0.354 N 
ATOM     53  C   UNL A   1      47.948  32.826  27.287  1.00  0.00     0.074 A 
ATOM     54  C   UNL A   1      48.705  31.755  26.678  1.00  0.00     0.031 C 
ATOM     55  C   UNL A   1      42.584  29.820  29.260  1.00  0.00     0.029 A 
ATOM     56  C   UNL A   1      42.926  31.221  29.478  1.00  0.00     0.049 A 
ATOM     57  H   UNL A   1      44.642  32.222  28.847  1.00  0.00     0.167 HD
ATOM     58  C   UNL A   1      48.352  34.116  27.356  1.00  0.00     0.031 A 
ATOM     59  C   UNL A   1      42.163  32.116  30.136  1.00  0.00     0.031 A 
ATOM     60  C   UNL A   1      47.571  35.156  27.977  1.00  0.00     0.049 A 
ATOM     61  C   UNL A   1      42.654  33.534  30.231  1.00  0.00     0.074 A 
ATOM     62  C   UNL A   1      47.868  36.503  28.079  1.00  0.00     0.029 A 
ATOM     63  N   UNL A   1      46.343  34.969  28.598  1.00  0.00    -0.354 N 
ATOM     64  N   UNL A   1      43.757  34.053  29.742  1.00  0.00    -0.248 NA
ATOM     65  C   UNL A   1      41.803  34.490  30.950  1.00  0.00     0.031 C 
ATOM     66  C   UNL A   1      46.862  37.114  28.829  1.00  0.00     0.029 A 
ATOM     67  C   UNL A   1      45.887  36.170  29.115  1.00  0.00     0.049 A 
ATOM     68  H   UNL A   1      45.866  34.109  28.660  1.00  0.00     0.167 HD
ATOM     69  C   UNL A   1      43.723  35.401  30.075  1.00  0.00     0.074 A 
ATOM     70  C   UNL A   1      42.480  35.621  30.788  1.00  0.00     0.031 C 
ATOM     71  C   UNL A   1      44.640  36.366  29.819  1.00  0.00     0.031 A 
BRANCH  58  72
ATOM     72  C   UNL A   1      49.677  34.495  26.741  1.00  0.00    -0.014 A 
ATOM     73  C   UNL A   1      49.749  34.824  25.374  1.00  0.00     0.010 A 
ATOM     74  C   UNL A   1      50.869  34.394  27.481  1.00  0.00     0.010 A 
ATOM     75  C   UNL A   1      50.987  34.996  24.749  1.00  0.00     0.020 A 
ATOM     76  C   UNL A   1      52.109  34.600  26.866  1.00  0.00     0.020 A 
ATOM     77  C   UNL A   1      52.161  34.869  25.497  1.00  0.00     0.054 A 
BRANCH  77  78
ATOM     78  S   UNL A   1      53.758  35.036  24.654  1.00  0.00     0.124 S 
ATOM     79  O   UNL A   1      53.546  36.216  23.823  1.00  0.00    -0.237 OA
ATOM     80  O   UNL A   1      54.688  35.207  25.769  1.00  0.00    -0.237 OA
ATOM     81  O   UNL A   1      53.895  33.776  23.927  1.00  0.00    -0.744 OA
ENDBRANCH  77  78
ENDBRANCH  58  72
BRANCH  59  82
ATOM     82  C   UNL A   1      40.849  31.683  30.688  1.00  0.00    -0.014 A 
ATOM     83  C   UNL A   1      40.737  31.263  32.028  1.00  0.00     0.010 A 
ATOM     84  C   UNL A   1      39.726  31.578  29.848  1.00  0.00     0.010 A 
ATOM     85  C   UNL A   1      39.555  30.683  32.496  1.00  0.00     0.020 A 
ATOM     86  C   UNL A   1      38.529  31.031  30.324  1.00  0.00     0.020 A 
ATOM     87  C   UNL A   1      38.463  30.557  31.636  1.00  0.00     0.054 A 
BRANCH  87  88
ATOM     88  S   UNL A   1      36.964  29.735  32.246  1.00  0.00     0.124 S 
ATOM     89  O   UNL A   1      36.316  29.328  31.002  1.00  0.00    -0.237 OA
ATOM     90  O   UNL A   1      37.507  28.648  33.056  1.00  0.00    -0.237 OA
ATOM     91  O   UNL A   1      36.277  30.785  32.994  1.00  0.00    -0.744 OA
ENDBRANCH  87  88
ENDBRANCH  59  82
BRANCH  71  92
ATOM     92  C   UNL A   1      44.356  37.763  30.310  1.00  0.00    -0.014 A 
ATOM     93  C   UNL A   1      44.613  38.095  31.654  1.00  0.00     0.010 A 
ATOM     94  C   UNL A   1      43.692  38.692  29.489  1.00  0.00     0.010 A 
ATOM     95  C   UNL A   1      44.162  39.305  32.184  1.00  0.00     0.020 A 
ATOM     96  C   UNL A   1      43.273  39.920  30.006  1.00  0.00     0.020 A 
ATOM     97  C   UNL A   1      43.482  40.204  31.358  1.00  0.00     0.054 A 
BRANCH  97  98
ATOM     98  S   UNL A   1      42.847  41.740  32.081  1.00  0.00     0.124 S 
ATOM     99  O   UNL A   1      42.230  41.265  33.317  1.00  0.00    -0.237 OA
ATOM    100  O   UNL A   1      44.058  42.539  32.248  1.00  0.00    -0.237 OA
ATOM    101  O   UNL A   1      41.915  42.237  31.070  1.00  0.00    -0.744 OA
ENDBRANCH  97  98
ENDBRANCH  71  92
ENDBRANCH  45  46
ENDBRANCH  38  40
ENDBRANCH  37  38
ENDBRANCH  36  37
ENDBRANCH  35  36
ENDBRANCH   1  35
TORSDOF 22
ENDMDL
MODEL 3
REMARK VINA RESULT:     -10.9      1.960      8.927
REMARK SMILES O=C(Cn1c2ccccc2c(=O)c2ccccc21)N[C@@H](Cc1ccccc1)C(=O)OCCOCCOC(=O)c1ccc(-c2c3nc(c(-c4ccc(S(=O)(=O)[O-])cc4)c4ccc([nH]4)c(-c4ccc(S(=O)(=O)[O-])cc4)c4nc(c(-c5ccc(S(=O)(=O)[O-])cc5)c5ccc2[nH]5)C=C4)C=C3)cc1
REMARK SMILES IDX 33 1 32 2 31 3 30 4 28 5 29 6 20 7 19 8 1 9 2 10 3 12 4 13
REMARK SMILES IDX 5 14 18 15 6 16 10 17 13 18 17 19 7 20 9 21 11 22 14 23
REMARK SMILES IDX 16 24 8 25 12 26 15 27 21 28 22 29 23 30 27 31 24 32 26 33
REMARK SMILES IDX 25 34 34 35 35 36 36 37 37 38 38 39 39 40 40 41 98 42 41 43
REMARK SMILES IDX 97 44 42 45 43 46 44 47 91 48 45 49 96 50 90 51 92 52 46 53
REMARK SMILES IDX 95 54 89 55 88 56 47 58 77 59 58 60 76 61 59 62 62 63 75 64
REMARK SMILES IDX 93 65 60 66 61 67 74 69 94 70 63 71 48 72 49 73 57 74 50 75
REMARK SMILES IDX 56 76 51 77 52 78 53 79 54 80 55 81 78 82 79 83 87 84 80 85
REMARK SMILES IDX 86 86 81 87 82 88 83 89 84 90 85 91 64 92 65 93 73 94 66 95
REMARK SMILES IDX 72 96 67 97 68 98 69 99 70 100 71 101
REMARK H PARENT 19 11 92 57 62 68
REMARK Flexibility Score: inf
ROOT
ATOM      1  O   UNL A   1      38.174  21.534  25.217  1.00  0.00    -0.374 OA
ENDROOT
BRANCH   1   2
ATOM      2  C   UNL A   1      37.544  22.790  25.407  1.00  0.00     0.202 C 
BRANCH   2   3
ATOM      3  C   UNL A   1      36.145  22.824  26.030  1.00  0.00     0.261 C 
BRANCH   3   4
ATOM      4  O   UNL A   1      35.553  21.527  26.266  1.00  0.00    -0.462 OA
BRANCH   4   5
ATOM      5  C   UNL A   1      34.298  21.539  26.794  1.00  0.00     0.329 C 
ATOM      6  O   UNL A   1      34.058  21.508  27.998  1.00  0.00    -0.250 OA
BRANCH   5   7
ATOM      7  C   UNL A   1      33.182  21.409  25.745  1.00  0.00     0.196 C 
BRANCH   7   8
ATOM      8  N   UNL A   1      32.458  22.614  25.255  1.00  0.00    -0.341 N 
ATOM      9  O   UNL A   1      31.418  22.962  27.255  1.00  0.00    -0.273 OA
ATOM     10  C   UNL A   1      31.558  23.286  26.071  1.00  0.00     0.240 C 
ATOM     11  H   UNL A   1      32.618  22.938  24.339  1.00  0.00     0.164 HD
BRANCH  10  12
ATOM     12  C   UNL A   1      30.620  24.346  25.446  1.00  0.00     0.222 C 
BRANCH  12  13
ATOM     13  N   UNL A   1      31.208  25.517  24.741  1.00  0.00    -0.331 N 
ATOM     14  C   UNL A   1      31.338  26.714  25.505  1.00  0.00     0.053 A 
ATOM     15  C   UNL A   1      31.803  25.462  23.468  1.00  0.00     0.053 A 
ATOM     16  C   UNL A   1      31.422  26.748  26.905  1.00  0.00     0.027 A 
ATOM     17  C   UNL A   1      31.500  27.944  24.835  1.00  0.00     0.046 A 
ATOM     18  C   UNL A   1      31.955  26.661  22.730  1.00  0.00     0.046 A 
ATOM     19  C   UNL A   1      32.298  24.299  22.867  1.00  0.00     0.027 A 
ATOM     20  C   UNL A   1      31.657  27.951  27.590  1.00  0.00     0.002 A 
ATOM     21  C   UNL A   1      31.699  29.154  25.510  1.00  0.00     0.014 A 
ATOM     22  C   UNL A   1      31.549  27.930  23.364  1.00  0.00     0.197 A 
ATOM     23  C   UNL A   1      32.477  26.691  21.431  1.00  0.00     0.014 A 
ATOM     24  C   UNL A   1      32.820  24.315  21.561  1.00  0.00     0.002 A 
ATOM     25  C   UNL A   1      31.789  29.153  26.896  1.00  0.00     0.001 A 
ATOM     26  O   UNL A   1      31.326  28.941  22.710  1.00  0.00    -0.288 OA
ATOM     27  C   UNL A   1      32.896  25.505  20.838  1.00  0.00     0.001 A 
ENDBRANCH  12  13
ENDBRANCH  10  12
ENDBRANCH   7   8
BRANCH   7  28
ATOM     28  C   UNL A   1      33.758  20.560  24.584  1.00  0.00     0.072 C 
BRANCH  28  29
ATOM     29  C   UNL A   1      33.680  19.068  24.826  1.00  0.00    -0.045 A 
ATOM     30  C   UNL A   1      32.658  18.536  25.619  1.00  0.00     0.004 A 
ATOM     31  C   UNL A   1      34.594  18.189  24.222  1.00  0.00     0.004 A 
ATOM     32  C   UNL A   1      32.517  17.154  25.752  1.00  0.00     0.000 A 
ATOM     33  C   UNL A   1      34.430  16.809  24.326  1.00  0.00     0.000 A 
ATOM     34  C   UNL A   1      33.385  16.291  25.085  1.00  0.00     0.000 A 
ENDBRANCH  28  29
ENDBRANCH   7  28
ENDBRANCH   5   7
ENDBRANCH   4   5
ENDBRANCH   3   4
ENDBRANCH   2   3
ENDBRANCH   1   2
BRANCH   1  35
ATOM     35  C   UNL A   1      39.341  21.255  25.964  1.00  0.00     0.202 C 
BRANCH  35  36
ATOM     36  C   UNL A   1      39.866  19.822  26.080  1.00  0.00     0.261 C 
BRANCH  36  37
ATOM     37  O   UNL A   1      41.066  19.436  25.425  1.00  0.00    -0.460 OA
BRANCH  37  38
ATOM     38  C   UNL A   1      42.135  19.321  26.254  1.00  0.00     0.338 C 
ATOM     39  O   UNL A   1      42.675  18.310  26.651  1.00  0.00    -0.246 OA
BRANCH  38  40
ATOM     40  C   UNL A   1      42.623  20.682  26.486  1.00  0.00     0.060 A 
ATOM     41  C   UNL A   1      42.652  21.206  27.780  1.00  0.00     0.016 A 
ATOM     42  C   UNL A   1      43.016  21.434  25.378  1.00  0.00     0.016 A 
ATOM     43  C   UNL A   1      43.059  22.524  27.962  1.00  0.00     0.010 A 
ATOM     44  C   UNL A   1      43.438  22.743  25.566  1.00  0.00     0.010 A 
ATOM     45  C   UNL A   1      43.455  23.295  26.856  1.00  0.00    -0.014 A 
BRANCH  45  46
ATOM     46  C   UNL A   1      43.953  24.673  27.042  1.00  0.00     0.031 A 
ATOM     47  C   UNL A   1      43.005  25.771  27.410  1.00  0.00     0.074 A 
ATOM     48  C   UNL A   1      45.260  24.910  26.831  1.00  0.00     0.049 A 
ATOM     49  N   UNL A   1      43.256  27.040  27.593  1.00  0.00    -0.248 NA
ATOM     50  C   UNL A   1      41.589  25.406  27.589  1.00  0.00     0.031 C 
ATOM     51  C   UNL A   1      46.244  23.890  26.460  1.00  0.00     0.029 A 
ATOM     52  N   UNL A   1      45.988  26.069  26.899  1.00  0.00    -0.354 N 
ATOM     53  C   UNL A   1      42.037  27.624  27.908  1.00  0.00     0.074 A 
ATOM     54  C   UNL A   1      41.036  26.583  27.849  1.00  0.00     0.031 C 
ATOM     55  C   UNL A   1      47.453  24.462  26.367  1.00  0.00     0.029 A 
ATOM     56  C   UNL A   1      47.323  25.894  26.620  1.00  0.00     0.049 A 
ATOM     57  H   UNL A   1      45.594  26.941  27.128  1.00  0.00     0.167 HD
ATOM     58  C   UNL A   1      41.793  28.915  28.236  1.00  0.00     0.031 A 
ATOM     59  C   UNL A   1      48.330  26.788  26.570  1.00  0.00     0.031 A 
ATOM     60  C   UNL A   1      42.818  29.927  28.279  1.00  0.00     0.049 A 
ATOM     61  C   UNL A   1      48.023  28.222  26.901  1.00  0.00     0.074 A 
ATOM     62  C   UNL A   1      42.690  31.259  28.627  1.00  0.00     0.029 A 
ATOM     63  N   UNL A   1      44.156  29.721  27.967  1.00  0.00    -0.354 N 
ATOM     64  N   UNL A   1      46.875  28.753  27.255  1.00  0.00    -0.248 NA
ATOM     65  C   UNL A   1      49.137  29.176  26.843  1.00  0.00     0.031 C 
ATOM     66  C   UNL A   1      43.930  31.875  28.448  1.00  0.00     0.029 A 
ATOM     67  C   UNL A   1      44.856  30.910  28.080  1.00  0.00     0.049 A 
ATOM     68  H   UNL A   1      44.549  28.857  27.704  1.00  0.00     0.167 HD
ATOM     69  C   UNL A   1      47.132  30.098  27.482  1.00  0.00     0.074 A 
ATOM     70  C   UNL A   1      48.549  30.296  27.247  1.00  0.00     0.031 C 
ATOM     71  C   UNL A   1      46.272  31.082  27.845  1.00  0.00     0.031 A 
BRANCH  58  72
ATOM     72  C   UNL A   1      40.383  29.318  28.591  1.00  0.00    -0.014 A 
ATOM     73  C   UNL A   1      39.385  29.334  27.599  1.00  0.00     0.010 A 
ATOM     74  C   UNL A   1      40.077  29.812  29.873  1.00  0.00     0.010 A 
ATOM     75  C   UNL A   1      38.125  29.878  27.865  1.00  0.00     0.020 A 
ATOM     76  C   UNL A   1      38.807  30.325  30.154  1.00  0.00     0.020 A 
ATOM     77  C   UNL A   1      37.849  30.384  29.139  1.00  0.00     0.054 A 
BRANCH  77  78
ATOM     78  S   UNL A   1      36.230  31.140  29.447  1.00  0.00     0.124 S 
ATOM     79  O   UNL A   1      35.326  30.225  28.759  1.00  0.00    -0.237 OA
ATOM     80  O   UNL A   1      36.149  31.133  30.906  1.00  0.00    -0.237 OA
ATOM     81  O   UNL A   1      36.352  32.467  28.846  1.00  0.00    -0.744 OA
ENDBRANCH  77  78
ENDBRANCH  58  72
BRANCH  59  82
ATOM     82  C   UNL A   1      49.706  26.316  26.247  1.00  0.00    -0.014 A 
ATOM     83  C   UNL A   1      50.556  25.837  27.263  1.00  0.00     0.010 A 
ATOM     84  C   UNL A   1      50.215  26.451  24.944  1.00  0.00     0.010 A 
ATOM     85  C   UNL A   1      51.902  25.570  26.998  1.00  0.00     0.020 A 
ATOM     86  C   UNL A   1      51.553  26.149  24.666  1.00  0.00     0.020 A 
ATOM     87  C   UNL A   1      52.396  25.743  25.703  1.00  0.00     0.054 A 
BRANCH  87  88
ATOM     88  S   UNL A   1      54.162  25.459  25.400  1.00  0.00     0.124 S 
ATOM     89  O   UNL A   1      54.314  25.939  24.029  1.00  0.00    -0.237 OA
ATOM     90  O   UNL A   1      54.796  26.281  26.428  1.00  0.00    -0.237 OA
ATOM     91  O   UNL A   1      54.314  24.017  25.578  1.00  0.00    -0.744 OA
ENDBRANCH  87  88
ENDBRANCH  59  82
BRANCH  71  92
ATOM     92  C   UNL A   1      46.819  32.477  28.014  1.00  0.00    -0.014 A 
ATOM     93  C   UNL A   1      47.186  32.930  29.296  1.00  0.00     0.010 A 
ATOM     94  C   UNL A   1      46.820  33.383  26.939  1.00  0.00     0.010 A 
ATOM     95  C   UNL A   1      47.488  34.275  29.512  1.00  0.00     0.020 A 
ATOM     96  C   UNL A   1      47.161  34.723  27.145  1.00  0.00     0.020 A 
ATOM     97  C   UNL A   1      47.460  35.166  28.436  1.00  0.00     0.054 A 
BRANCH  97  98
ATOM     98  S   UNL A   1      47.792  36.920  28.749  1.00  0.00     0.124 S 
ATOM     99  O   UNL A   1      46.597  37.560  28.205  1.00  0.00    -0.237 OA
ATOM    100  O   UNL A   1      47.924  36.965  30.204  1.00  0.00    -0.237 OA
ATOM    101  O   UNL A   1      49.027  37.174  28.010  1.00  0.00    -0.744 OA
ENDBRANCH  97  98
ENDBRANCH  71  92
ENDBRANCH  45  46
ENDBRANCH  38  40
ENDBRANCH  37  38
ENDBRANCH  36  37
ENDBRANCH  35  36
ENDBRANCH   1  35
TORSDOF 22
ENDMDL
