MODEL 1
REMARK VINA RESULT:     -10.7      0.000      0.000
REMARK SMILES CCn1ccc([C@@H](C)NC(=O)c2cnn([C@H](C)C(=O)OCCOCCOC(=O)c3ccc(-c4c5nc(c(-c6ccc(S(=O)(=O)[O-])cc6)c6ccc([nH]6)c(-c6ccc(S(=O)(=O)[O-])cc6)c6nc(c(-c7ccc(S(=O)(=O)[O-])cc7)c7ccc4[nH]7)C=C6)C=C5)cc3)c2)n1
REMARK SMILES IDX 22 1 21 2 20 3 18 4 19 5 16 6 17 7 15 8 12 9 13 10 89 11
REMARK SMILES IDX 14 12 10 13 9 14 11 16 7 17 8 18 6 19 3 20 4 21 90 22 5 23
REMARK SMILES IDX 2 24 1 25 23 26 24 27 25 28 26 29 27 30 28 31 29 32 30 33
REMARK SMILES IDX 88 34 31 35 87 36 32 37 33 38 34 39 81 40 35 41 86 42 80 43
REMARK SMILES IDX 82 44 36 45 85 46 79 47 78 48 37 50 67 51 48 52 66 53 49 54
REMARK SMILES IDX 52 55 65 56 83 57 50 58 51 59 64 61 84 62 53 63 38 64 39 65
REMARK SMILES IDX 47 66 40 67 46 68 41 69 42 70 43 71 44 72 45 73 68 74 69 75
REMARK SMILES IDX 77 76 70 77 76 78 71 79 72 80 73 81 74 82 75 83 54 84 55 85
REMARK SMILES IDX 63 86 56 87 62 88 57 89 58 90 59 91 60 92 61 93
REMARK H PARENT 9 15 82 49 52 60
REMARK Flexibility Score: inf
ROOT
ATOM      1  C   UNL A   1      40.481  20.645  26.732  1.00  0.00     0.202 C 
ENDROOT
BRANCH   1   2
ATOM      2  C   UNL A   1      39.523  21.719  26.221  1.00  0.00     0.261 C 
BRANCH   2   3
ATOM      3  O   UNL A   1      38.516  21.172  25.357  1.00  0.00    -0.462 OA
BRANCH   3   4
ATOM      4  C   UNL A   1      37.526  22.034  24.996  1.00  0.00     0.330 C 
ATOM      5  O   UNL A   1      36.909  21.981  23.936  1.00  0.00    -0.250 OA
BRANCH   4   6
ATOM      6  C   UNL A   1      37.208  23.053  26.070  1.00  0.00     0.213 C 
ATOM      7  C   UNL A   1      38.049  24.322  26.085  1.00  0.00     0.046 C 
BRANCH   6   8
ATOM      8  N   UNL A   1      35.788  23.338  26.027  1.00  0.00    -0.258 N 
ATOM      9  C   UNL A   1      33.617  23.059  25.983  1.00  0.00     0.077 A 
ATOM     10  C   UNL A   1      34.015  24.276  25.386  1.00  0.00     0.149 A 
ATOM     11  C   UNL A   1      34.790  22.523  26.471  1.00  0.00     0.123 A 
ATOM     12  N   UNL A   1      35.336  24.457  25.428  1.00  0.00    -0.180 NA
BRANCH   9  13
ATOM     13  C   UNL A   1      32.314  22.456  26.080  1.00  0.00     0.254 C 
ATOM     14  N   UNL A   1      31.902  21.635  25.067  1.00  0.00    -0.344 N 
ATOM     15  H   UNL A   1      30.958  21.357  25.098  1.00  0.00     0.164 HD
ATOM     16  O   UNL A   1      31.582  22.623  27.055  1.00  0.00    -0.269 OA
BRANCH  14  17
ATOM     17  C   UNL A   1      32.682  21.116  23.945  1.00  0.00     0.130 C 
ATOM     18  C   UNL A   1      32.134  21.667  22.634  1.00  0.00     0.038 C 
BRANCH  17  19
ATOM     19  C   UNL A   1      32.661  19.610  23.987  1.00  0.00     0.084 A 
ATOM     20  N   UNL A   1      32.809  17.664  24.827  1.00  0.00    -0.273 N 
ATOM     21  C   UNL A   1      32.519  17.450  23.509  1.00  0.00     0.109 A 
ATOM     22  N   UNL A   1      32.916  18.966  25.135  1.00  0.00    -0.176 NA
ATOM     23  C   UNL A   1      32.414  18.694  22.933  1.00  0.00     0.047 A 
BRANCH  20  24
ATOM     24  C   UNL A   1      33.040  16.629  25.819  1.00  0.00     0.141 C 
ATOM     25  C   UNL A   1      32.379  15.286  25.544  1.00  0.00     0.029 C 
ENDBRANCH  20  24
ENDBRANCH  17  19
ENDBRANCH  14  17
ENDBRANCH   9  13
ENDBRANCH   6   8
ENDBRANCH   4   6
ENDBRANCH   3   4
ENDBRANCH   2   3
ENDBRANCH   1   2
BRANCH   1  26
ATOM     26  O   UNL A   1      40.635  19.465  25.944  1.00  0.00    -0.374 OA
BRANCH  26  27
ATOM     27  C   UNL A   1      41.881  18.776  25.925  1.00  0.00     0.202 C 
BRANCH  27  28
ATOM     28  C   UNL A   1      43.158  19.599  26.008  1.00  0.00     0.261 C 
BRANCH  28  29
ATOM     29  O   UNL A   1      43.429  20.276  24.788  1.00  0.00    -0.460 OA
BRANCH  29  30
ATOM     30  C   UNL A   1      44.726  20.620  24.627  1.00  0.00     0.338 C 
ATOM     31  O   UNL A   1      45.673  19.864  24.485  1.00  0.00    -0.246 OA
BRANCH  30  32
ATOM     32  C   UNL A   1      44.856  22.068  24.806  1.00  0.00     0.060 A 
ATOM     33  C   UNL A   1      45.742  22.472  25.805  1.00  0.00     0.016 A 
ATOM     34  C   UNL A   1      43.904  22.939  24.252  1.00  0.00     0.016 A 
ATOM     35  C   UNL A   1      45.497  23.665  26.436  1.00  0.00     0.010 A 
ATOM     36  C   UNL A   1      43.655  24.128  24.891  1.00  0.00     0.010 A 
ATOM     37  C   UNL A   1      44.391  24.424  26.034  1.00  0.00    -0.014 A 
BRANCH  37  38
ATOM     38  C   UNL A   1      44.092  25.611  26.798  1.00  0.00     0.031 A 
ATOM     39  C   UNL A   1      45.123  26.646  26.615  1.00  0.00     0.074 A 
ATOM     40  C   UNL A   1      42.975  25.751  27.534  1.00  0.00     0.049 A 
ATOM     41  N   UNL A   1      46.091  26.933  27.416  1.00  0.00    -0.248 NA
ATOM     42  C   UNL A   1      45.235  27.256  25.280  1.00  0.00     0.031 C 
ATOM     43  C   UNL A   1      41.783  24.896  27.528  1.00  0.00     0.029 A 
ATOM     44  N   UNL A   1      42.626  26.762  28.373  1.00  0.00    -0.354 N 
ATOM     45  C   UNL A   1      46.775  27.965  26.789  1.00  0.00     0.074 A 
ATOM     46  C   UNL A   1      46.380  27.927  25.404  1.00  0.00     0.031 C 
ATOM     47  C   UNL A   1      40.765  25.553  28.133  1.00  0.00     0.029 A 
ATOM     48  C   UNL A   1      41.276  26.791  28.698  1.00  0.00     0.049 A 
ATOM     49  H   UNL A   1      43.275  27.415  28.722  1.00  0.00     0.167 HD
ATOM     50  C   UNL A   1      47.304  28.985  27.516  1.00  0.00     0.031 A 
ATOM     51  C   UNL A   1      40.629  27.801  29.331  1.00  0.00     0.031 A 
ATOM     52  C   UNL A   1      47.342  28.662  28.918  1.00  0.00     0.049 A 
ATOM     53  C   UNL A   1      41.651  28.581  30.070  1.00  0.00     0.074 A 
ATOM     54  C   UNL A   1      48.078  27.834  29.735  1.00  0.00     0.029 A 
ATOM     55  N   UNL A   1      46.191  28.993  29.592  1.00  0.00    -0.354 N 
ATOM     56  N   UNL A   1      42.341  28.092  31.064  1.00  0.00    -0.248 NA
ATOM     57  C   UNL A   1      42.192  29.799  29.477  1.00  0.00     0.031 C 
ATOM     58  C   UNL A   1      47.230  27.517  30.838  1.00  0.00     0.029 A 
ATOM     59  C   UNL A   1      46.018  28.193  30.689  1.00  0.00     0.049 A 
ATOM     60  H   UNL A   1      45.573  29.710  29.322  1.00  0.00     0.167 HD
ATOM     61  C   UNL A   1      43.589  28.677  30.943  1.00  0.00     0.074 A 
ATOM     62  C   UNL A   1      43.390  29.826  30.069  1.00  0.00     0.031 C 
ATOM     63  C   UNL A   1      44.719  28.006  31.305  1.00  0.00     0.031 A 
BRANCH  50  64
ATOM     64  C   UNL A   1      47.263  30.425  27.053  1.00  0.00    -0.014 A 
ATOM     65  C   UNL A   1      48.434  31.201  27.163  1.00  0.00     0.010 A 
ATOM     66  C   UNL A   1      46.062  31.118  26.790  1.00  0.00     0.010 A 
ATOM     67  C   UNL A   1      48.391  32.599  27.061  1.00  0.00     0.020 A 
ATOM     68  C   UNL A   1      46.014  32.504  26.647  1.00  0.00     0.020 A 
ATOM     69  C   UNL A   1      47.177  33.239  26.810  1.00  0.00     0.054 A 
BRANCH  69  70
ATOM     70  S   UNL A   1      47.114  35.045  26.749  1.00  0.00     0.124 S 
ATOM     71  O   UNL A   1      48.463  35.407  27.170  1.00  0.00    -0.237 OA
ATOM     72  O   UNL A   1      46.795  35.294  25.347  1.00  0.00    -0.237 OA
ATOM     73  O   UNL A   1      46.050  35.381  27.694  1.00  0.00    -0.744 OA
ENDBRANCH  69  70
ENDBRANCH  50  64
BRANCH  51  74
ATOM     74  C   UNL A   1      39.264  28.321  29.071  1.00  0.00    -0.014 A 
ATOM     75  C   UNL A   1      38.344  28.492  30.124  1.00  0.00     0.010 A 
ATOM     76  C   UNL A   1      38.970  28.936  27.837  1.00  0.00     0.010 A 
ATOM     77  C   UNL A   1      37.211  29.311  29.969  1.00  0.00     0.020 A 
ATOM     78  C   UNL A   1      37.840  29.748  27.674  1.00  0.00     0.020 A 
ATOM     79  C   UNL A   1      36.980  29.954  28.751  1.00  0.00     0.054 A 
BRANCH  79  80
ATOM     80  S   UNL A   1      35.625  31.159  28.618  1.00  0.00     0.124 S 
ATOM     81  O   UNL A   1      36.231  32.222  27.822  1.00  0.00    -0.237 OA
ATOM     82  O   UNL A   1      34.579  30.389  27.951  1.00  0.00    -0.237 OA
ATOM     83  O   UNL A   1      35.341  31.511  30.008  1.00  0.00    -0.744 OA
ENDBRANCH  79  80
ENDBRANCH  51  74
BRANCH  63  84
ATOM     84  C   UNL A   1      44.588  26.900  32.317  1.00  0.00    -0.014 A 
ATOM     85  C   UNL A   1      44.680  25.527  32.024  1.00  0.00     0.010 A 
ATOM     86  C   UNL A   1      44.469  27.298  33.661  1.00  0.00     0.010 A 
ATOM     87  C   UNL A   1      44.643  24.578  33.058  1.00  0.00     0.020 A 
ATOM     88  C   UNL A   1      44.451  26.361  34.692  1.00  0.00     0.020 A 
ATOM     89  C   UNL A   1      44.532  25.004  34.387  1.00  0.00     0.054 A 
BRANCH  89  90
ATOM     90  S   UNL A   1      44.536  23.781  35.728  1.00  0.00     0.124 S 
ATOM     91  O   UNL A   1      44.240  24.597  36.903  1.00  0.00    -0.237 OA
ATOM     92  O   UNL A   1      43.482  22.853  35.324  1.00  0.00    -0.237 OA
ATOM     93  O   UNL A   1      45.887  23.223  35.687  1.00  0.00    -0.744 OA
ENDBRANCH  89  90
ENDBRANCH  63  84
ENDBRANCH  37  38
ENDBRANCH  30  32
ENDBRANCH  29  30
ENDBRANCH  28  29
ENDBRANCH  27  28
ENDBRANCH  26  27
ENDBRANCH   1  26
TORSDOF 22
ENDMDL
MODEL 2
REMARK VINA RESULT:     -10.6      2.630      9.543
REMARK SMILES CCn1ccc([C@@H](C)NC(=O)c2cnn([C@H](C)C(=O)OCCOCCOC(=O)c3ccc(-c4c5nc(c(-c6ccc(S(=O)(=O)[O-])cc6)c6ccc([nH]6)c(-c6ccc(S(=O)(=O)[O-])cc6)c6nc(c(-c7ccc(S(=O)(=O)[O-])cc7)c7ccc4[nH]7)C=C6)C=C5)cc3)c2)n1
REMARK SMILES IDX 22 1 21 2 20 3 18 4 19 5 16 6 17 7 15 8 12 9 13 10 89 11
REMARK SMILES IDX 14 12 10 13 9 14 11 16 7 17 8 18 6 19 3 20 4 21 90 22 5 23
REMARK SMILES IDX 2 24 1 25 23 26 24 27 25 28 26 29 27 30 28 31 29 32 30 33
REMARK SMILES IDX 88 34 31 35 87 36 32 37 33 38 34 39 81 40 35 41 86 42 80 43
REMARK SMILES IDX 82 44 36 45 85 46 79 47 78 48 37 50 67 51 48 52 66 53 49 54
REMARK SMILES IDX 52 55 65 56 83 57 50 58 51 59 64 61 84 62 53 63 38 64 39 65
REMARK SMILES IDX 47 66 40 67 46 68 41 69 42 70 43 71 44 72 45 73 68 74 69 75
REMARK SMILES IDX 77 76 70 77 76 78 71 79 72 80 73 81 74 82 75 83 54 84 55 85
REMARK SMILES IDX 63 86 56 87 62 88 57 89 58 90 59 91 60 92 61 93
REMARK H PARENT 9 15 82 49 52 60
REMARK Flexibility Score: inf
ROOT
ATOM      1  C   UNL A   1      32.051  27.934  26.711  1.00  0.00     0.202 C 
ENDROOT
BRANCH   1   2
ATOM      2  C   UNL A   1      31.197  28.023  25.447  1.00  0.00     0.261 C 
BRANCH   2   3
ATOM      3  O   UNL A   1      31.051  26.746  24.808  1.00  0.00    -0.462 OA
BRANCH   3   4
ATOM      4  C   UNL A   1      31.461  26.693  23.511  1.00  0.00     0.330 C 
ATOM      5  O   UNL A   1      31.333  27.607  22.702  1.00  0.00    -0.250 OA
BRANCH   4   6
ATOM      6  C   UNL A   1      32.159  25.394  23.164  1.00  0.00     0.213 C 
ATOM      7  C   UNL A   1      33.636  25.482  22.806  1.00  0.00     0.046 C 
BRANCH   6   8
ATOM      8  N   UNL A   1      31.908  24.440  24.225  1.00  0.00    -0.258 N 
ATOM      9  C   UNL A   1      32.237  23.040  25.876  1.00  0.00     0.077 A 
ATOM     10  C   UNL A   1      31.049  22.762  25.164  1.00  0.00     0.149 A 
ATOM     11  C   UNL A   1      32.717  24.194  25.294  1.00  0.00     0.123 A 
ATOM     12  N   UNL A   1      30.836  23.625  24.168  1.00  0.00    -0.180 NA
BRANCH   9  13
ATOM     13  C   UNL A   1      32.861  22.321  26.955  1.00  0.00     0.254 C 
ATOM     14  N   UNL A   1      33.836  21.412  26.649  1.00  0.00    -0.344 N 
ATOM     15  H   UNL A   1      34.138  20.841  27.392  1.00  0.00     0.164 HD
ATOM     16  O   UNL A   1      32.576  22.524  28.134  1.00  0.00    -0.269 OA
BRANCH  14  17
ATOM     17  C   UNL A   1      34.490  21.180  25.362  1.00  0.00     0.130 C 
ATOM     18  C   UNL A   1      34.364  19.711  24.975  1.00  0.00     0.038 C 
BRANCH  17  19
ATOM     19  C   UNL A   1      35.926  21.627  25.453  1.00  0.00     0.084 A 
ATOM     20  N   UNL A   1      37.566  22.889  25.938  1.00  0.00    -0.273 N 
ATOM     21  C   UNL A   1      38.132  21.807  25.325  1.00  0.00     0.109 A 
ATOM     22  N   UNL A   1      36.228  22.808  26.012  1.00  0.00    -0.176 NA
ATOM     23  C   UNL A   1      37.095  20.965  24.998  1.00  0.00     0.047 A 
BRANCH  20  24
ATOM     24  C   UNL A   1      38.283  24.051  26.428  1.00  0.00     0.141 C 
ATOM     25  C   UNL A   1      39.681  23.790  26.972  1.00  0.00     0.029 C 
ENDBRANCH  20  24
ENDBRANCH  17  19
ENDBRANCH  14  17
ENDBRANCH   9  13
ENDBRANCH   6   8
ENDBRANCH   4   6
ENDBRANCH   3   4
ENDBRANCH   2   3
ENDBRANCH   1   2
BRANCH   1  26
ATOM     26  O   UNL A   1      32.229  29.126  27.475  1.00  0.00    -0.374 OA
BRANCH  26  27
ATOM     27  C   UNL A   1      32.260  30.393  26.826  1.00  0.00     0.202 C 
BRANCH  27  28
ATOM     28  C   UNL A   1      33.081  31.506  27.462  1.00  0.00     0.261 C 
BRANCH  28  29
ATOM     29  O   UNL A   1      34.475  31.310  27.265  1.00  0.00    -0.460 OA
BRANCH  29  30
ATOM     30  C   UNL A   1      35.251  32.231  27.881  1.00  0.00     0.338 C 
ATOM     31  O   UNL A   1      35.258  33.434  27.684  1.00  0.00    -0.246 OA
BRANCH  30  32
ATOM     32  C   UNL A   1      36.218  31.536  28.735  1.00  0.00     0.060 A 
ATOM     33  C   UNL A   1      37.295  32.309  29.170  1.00  0.00     0.016 A 
ATOM     34  C   UNL A   1      36.224  30.135  28.805  1.00  0.00     0.016 A 
ATOM     35  C   UNL A   1      38.482  31.668  29.426  1.00  0.00     0.010 A 
ATOM     36  C   UNL A   1      37.414  29.497  29.051  1.00  0.00     0.010 A 
ATOM     37  C   UNL A   1      38.546  30.280  29.259  1.00  0.00    -0.014 A 
BRANCH  37  38
ATOM     38  C   UNL A   1      39.836  29.654  29.417  1.00  0.00     0.031 A 
ATOM     39  C   UNL A   1      40.264  29.644  30.826  1.00  0.00     0.074 A 
ATOM     40  C   UNL A   1      40.520  29.106  28.397  1.00  0.00     0.049 A 
ATOM     41  N   UNL A   1      41.097  30.447  31.395  1.00  0.00    -0.248 NA
ATOM     42  C   UNL A   1      39.489  28.809  31.759  1.00  0.00     0.031 C 
ATOM     43  C   UNL A   1      40.034  28.821  27.042  1.00  0.00     0.029 A 
ATOM     44  N   UNL A   1      41.775  28.586  28.390  1.00  0.00    -0.354 N 
ATOM     45  C   UNL A   1      41.149  30.025  32.715  1.00  0.00     0.074 A 
ATOM     46  C   UNL A   1      39.972  29.223  32.930  1.00  0.00     0.031 C 
ATOM     47  C   UNL A   1      40.893  27.969  26.434  1.00  0.00     0.029 A 
ATOM     48  C   UNL A   1      42.052  27.783  27.292  1.00  0.00     0.049 A 
ATOM     49  H   UNL A   1      42.431  28.766  29.102  1.00  0.00     0.167 HD
ATOM     50  C   UNL A   1      42.323  30.050  33.401  1.00  0.00     0.031 A 
ATOM     51  C   UNL A   1      43.134  26.978  27.145  1.00  0.00     0.031 A 
ATOM     52  C   UNL A   1      43.313  30.838  32.716  1.00  0.00     0.049 A 
ATOM     53  C   UNL A   1      44.189  27.489  28.053  1.00  0.00     0.074 A 
ATOM     54  C   UNL A   1      43.540  32.175  32.480  1.00  0.00     0.029 A 
ATOM     55  N   UNL A   1      44.049  30.125  31.801  1.00  0.00    -0.354 N 
ATOM     56  N   UNL A   1      44.750  28.658  27.907  1.00  0.00    -0.248 NA
ATOM     57  C   UNL A   1      44.372  26.869  29.361  1.00  0.00     0.031 C 
ATOM     58  C   UNL A   1      44.278  32.239  31.261  1.00  0.00     0.029 A 
ATOM     59  C   UNL A   1      44.519  30.940  30.808  1.00  0.00     0.049 A 
ATOM     60  H   UNL A   1      44.217  29.156  31.853  1.00  0.00     0.167 HD
ATOM     61  C   UNL A   1      44.982  29.097  29.199  1.00  0.00     0.074 A 
ATOM     62  C   UNL A   1      44.888  27.904  30.031  1.00  0.00     0.031 C 
ATOM     63  C   UNL A   1      44.920  30.422  29.514  1.00  0.00     0.031 A 
BRANCH  50  64
ATOM     64  C   UNL A   1      42.733  28.951  34.358  1.00  0.00    -0.014 A 
ATOM     65  C   UNL A   1      43.101  27.699  33.826  1.00  0.00     0.010 A 
ATOM     66  C   UNL A   1      42.495  29.008  35.748  1.00  0.00     0.010 A 
ATOM     67  C   UNL A   1      43.179  26.559  34.640  1.00  0.00     0.020 A 
ATOM     68  C   UNL A   1      42.608  27.889  36.572  1.00  0.00     0.020 A 
ATOM     69  C   UNL A   1      42.925  26.664  36.008  1.00  0.00     0.054 A 
BRANCH  69  70
ATOM     70  S   UNL A   1      42.957  25.181  37.040  1.00  0.00     0.124 S 
ATOM     71  O   UNL A   1      43.764  24.271  36.234  1.00  0.00    -0.237 OA
ATOM     72  O   UNL A   1      43.581  25.672  38.264  1.00  0.00    -0.237 OA
ATOM     73  O   UNL A   1      41.545  24.823  37.167  1.00  0.00    -0.744 OA
ENDBRANCH  69  70
ENDBRANCH  50  64
BRANCH  51  74
ATOM     74  C   UNL A   1      43.196  25.627  26.533  1.00  0.00    -0.014 A 
ATOM     75  C   UNL A   1      43.640  25.455  25.208  1.00  0.00     0.010 A 
ATOM     76  C   UNL A   1      43.110  24.482  27.350  1.00  0.00     0.010 A 
ATOM     77  C   UNL A   1      44.056  24.194  24.742  1.00  0.00     0.020 A 
ATOM     78  C   UNL A   1      43.516  23.222  26.891  1.00  0.00     0.020 A 
ATOM     79  C   UNL A   1      44.014  23.090  25.597  1.00  0.00     0.054 A 
BRANCH  79  80
ATOM     80  S   UNL A   1      44.731  21.510  25.052  1.00  0.00     0.124 S 
ATOM     81  O   UNL A   1      43.848  20.534  25.684  1.00  0.00    -0.237 OA
ATOM     82  O   UNL A   1      44.633  21.601  23.597  1.00  0.00    -0.237 OA
ATOM     83  O   UNL A   1      46.093  21.550  25.582  1.00  0.00    -0.744 OA
ENDBRANCH  79  80
ENDBRANCH  51  74
BRANCH  63  84
ATOM     84  C   UNL A   1      45.151  31.420  28.412  1.00  0.00    -0.014 A 
ATOM     85  C   UNL A   1      44.136  32.016  27.642  1.00  0.00     0.010 A 
ATOM     86  C   UNL A   1      46.479  31.847  28.228  1.00  0.00     0.010 A 
ATOM     87  C   UNL A   1      44.450  33.012  26.703  1.00  0.00     0.020 A 
ATOM     88  C   UNL A   1      46.794  32.848  27.311  1.00  0.00     0.020 A 
ATOM     89  C   UNL A   1      45.779  33.423  26.547  1.00  0.00     0.054 A 
BRANCH  89  90
ATOM     90  S   UNL A   1      46.181  34.745  25.371  1.00  0.00     0.124 S 
ATOM     91  O   UNL A   1      47.610  34.545  25.144  1.00  0.00    -0.237 OA
ATOM     92  O   UNL A   1      45.314  34.443  24.234  1.00  0.00    -0.237 OA
ATOM     93  O   UNL A   1      45.836  35.970  26.092  1.00  0.00    -0.744 OA
ENDBRANCH  89  90
ENDBRANCH  63  84
ENDBRANCH  37  38
ENDBRANCH  30  32
ENDBRANCH  29  30
ENDBRANCH  28  29
ENDBRANCH  27  28
ENDBRANCH  26  27
ENDBRANCH   1  26
TORSDOF 22
ENDMDL
MODEL 3
REMARK VINA RESULT:     -10.5      3.460      9.854
REMARK SMILES CCn1ccc([C@@H](C)NC(=O)c2cnn([C@H](C)C(=O)OCCOCCOC(=O)c3ccc(-c4c5nc(c(-c6ccc(S(=O)(=O)[O-])cc6)c6ccc([nH]6)c(-c6ccc(S(=O)(=O)[O-])cc6)c6nc(c(-c7ccc(S(=O)(=O)[O-])cc7)c7ccc4[nH]7)C=C6)C=C5)cc3)c2)n1
REMARK SMILES IDX 22 1 21 2 20 3 18 4 19 5 16 6 17 7 15 8 12 9 13 10 89 11
REMARK SMILES IDX 14 12 10 13 9 14 11 16 7 17 8 18 6 19 3 20 4 21 90 22 5 23
REMARK SMILES IDX 2 24 1 25 23 26 24 27 25 28 26 29 27 30 28 31 29 32 30 33
REMARK SMILES IDX 88 34 31 35 87 36 32 37 33 38 34 39 81 40 35 41 86 42 80 43
REMARK SMILES IDX 82 44 36 45 85 46 79 47 78 48 37 50 67 51 48 52 66 53 49 54
REMARK SMILES IDX 52 55 65 56 83 57 50 58 51 59 64 61 84 62 53 63 38 64 39 65
REMARK SMILES IDX 47 66 40 67 46 68 41 69 42 70 43 71 44 72 45 73 68 74 69 75
REMARK SMILES IDX 77 76 70 77 76 78 71 79 72 80 73 81 74 82 75 83 54 84 55 85
REMARK SMILES IDX 63 86 56 87 62 88 57 89 58 90 59 91 60 92 61 93
REMARK H PARENT 9 15 82 49 52 60
REMARK Flexibility Score: inf
ROOT
ATOM      1  C   UNL A   1      31.958  26.941  26.238  1.00  0.00     0.202 C 
ENDROOT
BRANCH   1   2
ATOM      2  C   UNL A   1      32.168  25.562  26.860  1.00  0.00     0.261 C 
BRANCH   2   3
ATOM      3  O   UNL A   1      32.667  24.613  25.906  1.00  0.00    -0.462 OA
BRANCH   3   4
ATOM      4  C   UNL A   1      33.881  24.073  26.201  1.00  0.00     0.330 C 
ATOM      5  O   UNL A   1      34.093  23.306  27.136  1.00  0.00    -0.250 OA
BRANCH   4   6
ATOM      6  C   UNL A   1      34.960  24.465  25.213  1.00  0.00     0.213 C 
ATOM      7  C   UNL A   1      36.296  23.747  25.332  1.00  0.00     0.046 C 
BRANCH   6   8
ATOM      8  N   UNL A   1      34.410  24.381  23.875  1.00  0.00    -0.258 N 
ATOM      9  C   UNL A   1      33.321  24.885  22.044  1.00  0.00     0.077 A 
ATOM     10  C   UNL A   1      33.462  23.491  22.218  1.00  0.00     0.149 A 
ATOM     11  C   UNL A   1      34.033  25.431  23.092  1.00  0.00     0.123 A 
ATOM     12  N   UNL A   1      34.141  23.180  23.324  1.00  0.00    -0.180 NA
BRANCH   9  13
ATOM     13  C   UNL A   1      32.606  25.627  21.039  1.00  0.00     0.254 C 
ATOM     14  N   UNL A   1      31.465  26.284  21.408  1.00  0.00    -0.344 N 
ATOM     15  H   UNL A   1      30.929  26.658  20.672  1.00  0.00     0.164 HD
ATOM     16  O   UNL A   1      33.006  25.720  19.879  1.00  0.00    -0.269 OA
BRANCH  14  17
ATOM     17  C   UNL A   1      30.938  26.503  22.754  1.00  0.00     0.130 C 
ATOM     18  C   UNL A   1      30.335  25.210  23.292  1.00  0.00     0.038 C 
BRANCH  17  19
ATOM     19  C   UNL A   1      29.935  27.628  22.713  1.00  0.00     0.084 A 
ATOM     20  N   UNL A   1      29.124  29.520  22.185  1.00  0.00    -0.273 N 
ATOM     21  C   UNL A   1      28.174  28.946  22.983  1.00  0.00     0.109 A 
ATOM     22  N   UNL A   1      30.207  28.744  22.021  1.00  0.00    -0.176 NA
ATOM     23  C   UNL A   1      28.668  27.714  23.343  1.00  0.00     0.047 A 
BRANCH  20  24
ATOM     24  C   UNL A   1      29.044  30.843  21.597  1.00  0.00     0.141 C 
ATOM     25  C   UNL A   1      28.525  31.946  22.509  1.00  0.00     0.029 C 
ENDBRANCH  20  24
ENDBRANCH  17  19
ENDBRANCH  14  17
ENDBRANCH   9  13
ENDBRANCH   6   8
ENDBRANCH   4   6
ENDBRANCH   3   4
ENDBRANCH   2   3
ENDBRANCH   1   2
BRANCH   1  26
ATOM     26  O   UNL A   1      32.961  27.929  26.465  1.00  0.00    -0.374 OA
BRANCH  26  27
ATOM     27  C   UNL A   1      32.745  29.275  26.052  1.00  0.00     0.202 C 
BRANCH  27  28
ATOM     28  C   UNL A   1      33.182  30.393  26.989  1.00  0.00     0.261 C 
BRANCH  28  29
ATOM     29  O   UNL A   1      34.593  30.566  26.978  1.00  0.00    -0.460 OA
BRANCH  29  30
ATOM     30  C   UNL A   1      35.025  31.592  27.746  1.00  0.00     0.338 C 
ATOM     31  O   UNL A   1      34.695  32.763  27.660  1.00  0.00    -0.246 OA
BRANCH  30  32
ATOM     32  C   UNL A   1      36.094  31.105  28.622  1.00  0.00     0.060 A 
ATOM     33  C   UNL A   1      37.184  31.964  28.770  1.00  0.00     0.016 A 
ATOM     34  C   UNL A   1      36.153  29.751  28.985  1.00  0.00     0.016 A 
ATOM     35  C   UNL A   1      38.410  31.405  29.030  1.00  0.00     0.010 A 
ATOM     36  C   UNL A   1      37.382  29.193  29.235  1.00  0.00     0.010 A 
ATOM     37  C   UNL A   1      38.502  30.014  29.155  1.00  0.00    -0.014 A 
BRANCH  37  38
ATOM     38  C   UNL A   1      39.822  29.451  29.306  1.00  0.00     0.031 A 
ATOM     39  C   UNL A   1      40.201  29.335  30.724  1.00  0.00     0.074 A 
ATOM     40  C   UNL A   1      40.570  29.039  28.268  1.00  0.00     0.049 A 
ATOM     41  N   UNL A   1      40.965  30.128  31.395  1.00  0.00    -0.248 NA
ATOM     42  C   UNL A   1      39.447  28.375  31.547  1.00  0.00     0.031 C 
ATOM     43  C   UNL A   1      40.148  28.852  26.875  1.00  0.00     0.029 A 
ATOM     44  N   UNL A   1      41.854  28.593  28.264  1.00  0.00    -0.354 N 
ATOM     45  C   UNL A   1      40.998  29.589  32.673  1.00  0.00     0.074 A 
ATOM     46  C   UNL A   1      39.864  28.706  32.768  1.00  0.00     0.031 C 
ATOM     47  C   UNL A   1      41.077  28.110  26.227  1.00  0.00     0.029 A 
ATOM     48  C   UNL A   1      42.216  27.911  27.109  1.00  0.00     0.049 A 
ATOM     49  H   UNL A   1      42.474  28.743  29.013  1.00  0.00     0.167 HD
ATOM     50  C   UNL A   1      42.145  29.617  33.404  1.00  0.00     0.031 A 
ATOM     51  C   UNL A   1      43.348  27.185  26.932  1.00  0.00     0.031 A 
ATOM     52  C   UNL A   1      43.109  30.519  32.831  1.00  0.00     0.049 A 
ATOM     53  C   UNL A   1      44.339  27.669  27.924  1.00  0.00     0.074 A 
ATOM     54  C   UNL A   1      43.263  31.883  32.726  1.00  0.00     0.029 A 
ATOM     55  N   UNL A   1      43.916  29.936  31.885  1.00  0.00    -0.354 N 
ATOM     56  N   UNL A   1      44.834  28.876  27.906  1.00  0.00    -0.248 NA
ATOM     57  C   UNL A   1      44.515  26.943  29.176  1.00  0.00     0.031 C 
ATOM     58  C   UNL A   1      44.036  32.100  31.547  1.00  0.00     0.029 A 
ATOM     59  C   UNL A   1      44.370  30.865  30.988  1.00  0.00     0.049 A 
ATOM     60  H   UNL A   1      44.140  28.978  31.856  1.00  0.00     0.167 HD
ATOM     61  C   UNL A   1      44.996  29.206  29.240  1.00  0.00     0.074 A 
ATOM     62  C   UNL A   1      44.945  27.939  29.957  1.00  0.00     0.031 C 
ATOM     63  C   UNL A   1      44.845  30.491  29.670  1.00  0.00     0.031 A 
BRANCH  50  64
ATOM     64  C   UNL A   1      42.587  28.459  34.272  1.00  0.00    -0.014 A 
ATOM     65  C   UNL A   1      43.033  27.279  33.645  1.00  0.00     0.010 A 
ATOM     66  C   UNL A   1      42.311  28.381  35.654  1.00  0.00     0.010 A 
ATOM     67  C   UNL A   1      43.150  26.077  34.359  1.00  0.00     0.020 A 
ATOM     68  C   UNL A   1      42.462  27.201  36.381  1.00  0.00     0.020 A 
ATOM     69  C   UNL A   1      42.855  26.048  35.722  1.00  0.00     0.054 A 
BRANCH  69  70
ATOM     70  S   UNL A   1      42.939  24.483  36.622  1.00  0.00     0.124 S 
ATOM     71  O   UNL A   1      41.538  24.256  36.961  1.00  0.00    -0.237 OA
ATOM     72  O   UNL A   1      43.505  23.584  35.622  1.00  0.00    -0.237 OA
ATOM     73  O   UNL A   1      43.817  24.784  37.751  1.00  0.00    -0.744 OA
ENDBRANCH  69  70
ENDBRANCH  50  64
BRANCH  51  74
ATOM     74  C   UNL A   1      43.511  25.902  26.204  1.00  0.00    -0.014 A 
ATOM     75  C   UNL A   1      44.644  25.666  25.402  1.00  0.00     0.010 A 
ATOM     76  C   UNL A   1      42.704  24.797  26.542  1.00  0.00     0.010 A 
ATOM     77  C   UNL A   1      44.998  24.361  25.016  1.00  0.00     0.020 A 
ATOM     78  C   UNL A   1      43.048  23.494  26.156  1.00  0.00     0.020 A 
ATOM     79  C   UNL A   1      44.210  23.280  25.418  1.00  0.00     0.054 A 
BRANCH  79  80
ATOM     80  S   UNL A   1      44.777  21.585  25.081  1.00  0.00     0.124 S 
ATOM     81  O   UNL A   1      43.745  20.778  25.725  1.00  0.00    -0.237 OA
ATOM     82  O   UNL A   1      44.795  21.541  23.621  1.00  0.00    -0.237 OA
ATOM     83  O   UNL A   1      46.093  21.531  25.715  1.00  0.00    -0.744 OA
ENDBRANCH  79  80
ENDBRANCH  51  74
BRANCH  63  84
ATOM     84  C   UNL A   1      45.053  31.598  28.672  1.00  0.00    -0.014 A 
ATOM     85  C   UNL A   1      46.197  32.413  28.603  1.00  0.00     0.010 A 
ATOM     86  C   UNL A   1      44.061  31.739  27.684  1.00  0.00     0.010 A 
ATOM     87  C   UNL A   1      46.336  33.354  27.569  1.00  0.00     0.020 A 
ATOM     88  C   UNL A   1      44.202  32.659  26.647  1.00  0.00     0.020 A 
ATOM     89  C   UNL A   1      45.336  33.467  26.596  1.00  0.00     0.054 A 
BRANCH  89  90
ATOM     90  S   UNL A   1      45.537  34.647  25.231  1.00  0.00     0.124 S 
ATOM     91  O   UNL A   1      44.719  34.054  24.176  1.00  0.00    -0.237 OA
ATOM     92  O   UNL A   1      45.025  35.891  25.801  1.00  0.00    -0.237 OA
ATOM     93  O   UNL A   1      46.976  34.640  24.975  1.00  0.00    -0.744 OA
ENDBRANCH  89  90
ENDBRANCH  63  84
ENDBRANCH  37  38
ENDBRANCH  30  32
ENDBRANCH  29  30
ENDBRANCH  28  29
ENDBRANCH  27  28
ENDBRANCH  26  27
ENDBRANCH   1  26
TORSDOF 22
ENDMDL
