MODEL 1
REMARK VINA RESULT:      -9.3      0.000      0.000
REMARK SMILES CSCC[C@H](NC(=O)c1nc(C(C)C)n[nH]1)C(=O)OCCOCCOC(=O)c1ccc(-c2c3nc(c(-c4ccc(S(=O)(=O)[O-])cc4)c4ccc([nH]4)c(-c4ccc(S(=O)(=O)[O-])cc4)c4nc(c(-c5ccc(S(=O)(=O)[O-])cc5)c5ccc2[nH]5)C=C4)C=C3)cc1
REMARK SMILES IDX 22 1 21 2 20 3 19 4 17 5 18 6 5 7 4 8 3 9 2 10 1 11 6 12
REMARK SMILES IDX 7 13 8 15 9 16 10 17 16 18 11 19 15 20 12 22 13 23 14 24
REMARK SMILES IDX 23 25 24 26 25 27 26 28 27 29 28 30 29 31 87 32 30 33 86 34
REMARK SMILES IDX 31 35 32 36 33 37 80 38 34 39 85 40 79 41 81 42 35 43 84 44
REMARK SMILES IDX 78 45 77 46 36 48 66 49 47 50 65 51 48 52 51 53 64 54 82 55
REMARK SMILES IDX 49 56 50 57 63 59 83 60 52 61 37 62 38 63 46 64 39 65 45 66
REMARK SMILES IDX 40 67 41 68 42 69 43 70 44 71 67 72 68 73 76 74 69 75 75 76
REMARK SMILES IDX 70 77 71 78 72 79 73 80 74 81 53 82 54 83 62 84 55 85 61 86
REMARK SMILES IDX 56 87 57 88 58 89 59 90 60 91
REMARK H PARENT 6 14 16 21 81 47 51 58
REMARK Flexibility Score: inf
ROOT
ATOM      1  O   UNL A   1      31.546  28.878  25.891  1.00  0.00    -0.374 OA
ENDROOT
BRANCH   1   2
ATOM      2  C   UNL A   1      31.957  27.562  25.520  1.00  0.00     0.202 C 
BRANCH   2   3
ATOM      3  C   UNL A   1      31.594  26.424  26.481  1.00  0.00     0.261 C 
BRANCH   3   4
ATOM      4  O   UNL A   1      30.572  25.575  25.934  1.00  0.00    -0.462 OA
BRANCH   4   5
ATOM      5  C   UNL A   1      30.710  24.245  26.203  1.00  0.00     0.328 C 
ATOM      6  O   UNL A   1      30.203  23.673  27.162  1.00  0.00    -0.250 OA
BRANCH   5   7
ATOM      7  C   UNL A   1      31.406  23.490  25.047  1.00  0.00     0.193 C 
BRANCH   7   8
ATOM      8  C   UNL A   1      31.118  24.162  23.695  1.00  0.00     0.048 C 
BRANCH   8   9
ATOM      9  C   UNL A   1      32.274  24.079  22.692  1.00  0.00     0.072 C 
BRANCH   9  10
ATOM     10  S   UNL A   1      32.801  25.697  22.035  1.00  0.00    -0.165 SA
ATOM     11  C   UNL A   1      31.244  26.601  22.142  1.00  0.00     0.085 C 
ENDBRANCH   9  10
ENDBRANCH   8   9
ENDBRANCH   7   8
BRANCH   7  12
ATOM     12  N   UNL A   1      31.314  22.012  25.104  1.00  0.00    -0.336 N 
ATOM     13  C   UNL A   1      32.298  21.046  25.186  1.00  0.00     0.289 C 
ATOM     14  H   UNL A   1      30.397  21.658  25.079  1.00  0.00     0.164 HD
ATOM     15  O   UNL A   1      31.983  19.886  24.940  1.00  0.00    -0.266 OA
BRANCH  13  16
ATOM     16  C   UNL A   1      33.639  21.440  25.507  1.00  0.00     0.214 A 
ATOM     17  N   UNL A   1      34.451  22.074  24.698  1.00  0.00    -0.207 NA
ATOM     18  N   UNL A   1      34.286  21.228  26.689  1.00  0.00    -0.255 N 
ATOM     19  C   UNL A   1      35.636  22.102  25.363  1.00  0.00     0.153 A 
ATOM     20  N   UNL A   1      35.582  21.599  26.602  1.00  0.00    -0.158 NA
ATOM     21  H   UNL A   1      33.865  20.854  27.497  1.00  0.00     0.192 HD
BRANCH  19  22
ATOM     22  C   UNL A   1      36.874  22.509  24.636  1.00  0.00     0.053 C 
ATOM     23  C   UNL A   1      36.610  22.944  23.202  1.00  0.00     0.016 C 
ATOM     24  C   UNL A   1      37.650  23.560  25.426  1.00  0.00     0.016 C 
ENDBRANCH  19  22
ENDBRANCH  13  16
ENDBRANCH   7  12
ENDBRANCH   5   7
ENDBRANCH   4   5
ENDBRANCH   3   4
ENDBRANCH   2   3
ENDBRANCH   1   2
BRANCH   1  25
ATOM     25  C   UNL A   1      31.991  29.395  27.144  1.00  0.00     0.202 C 
BRANCH  25  26
ATOM     26  C   UNL A   1      32.857  30.661  27.141  1.00  0.00     0.261 C 
BRANCH  26  27
ATOM     27  O   UNL A   1      34.266  30.375  27.114  1.00  0.00    -0.460 OA
BRANCH  27  28
ATOM     28  C   UNL A   1      34.945  30.828  28.195  1.00  0.00     0.338 C 
ATOM     29  O   UNL A   1      34.526  31.589  29.060  1.00  0.00    -0.246 OA
BRANCH  28  30
ATOM     30  C   UNL A   1      36.235  30.131  28.334  1.00  0.00     0.060 A 
ATOM     31  C   UNL A   1      36.583  29.682  29.614  1.00  0.00     0.016 A 
ATOM     32  C   UNL A   1      37.137  30.027  27.273  1.00  0.00     0.016 A 
ATOM     33  C   UNL A   1      37.862  29.190  29.855  1.00  0.00     0.010 A 
ATOM     34  C   UNL A   1      38.427  29.540  27.521  1.00  0.00     0.010 A 
ATOM     35  C   UNL A   1      38.808  29.164  28.823  1.00  0.00    -0.014 A 
BRANCH  35  36
ATOM     36  C   UNL A   1      40.229  28.910  29.166  1.00  0.00     0.031 A 
ATOM     37  C   UNL A   1      40.839  27.579  28.809  1.00  0.00     0.074 A 
ATOM     38  C   UNL A   1      40.989  29.876  29.714  1.00  0.00     0.049 A 
ATOM     39  N   UNL A   1      42.072  27.166  28.958  1.00  0.00    -0.248 NA
ATOM     40  C   UNL A   1      39.942  26.585  28.197  1.00  0.00     0.031 C 
ATOM     41  C   UNL A   1      40.527  31.218  30.063  1.00  0.00     0.029 A 
ATOM     42  N   UNL A   1      42.316  29.874  30.060  1.00  0.00    -0.354 N 
ATOM     43  C   UNL A   1      42.098  25.866  28.464  1.00  0.00     0.074 A 
ATOM     44  C   UNL A   1      40.752  25.548  28.041  1.00  0.00     0.031 C 
ATOM     45  C   UNL A   1      41.558  31.915  30.571  1.00  0.00     0.029 A 
ATOM     46  C   UNL A   1      42.744  31.061  30.604  1.00  0.00     0.049 A 
ATOM     47  H   UNL A   1      42.906  29.097  29.931  1.00  0.00     0.167 HD
ATOM     48  C   UNL A   1      43.148  25.018  28.361  1.00  0.00     0.031 A 
ATOM     49  C   UNL A   1      43.954  31.417  31.080  1.00  0.00     0.031 A 
ATOM     50  C   UNL A   1      44.485  25.330  28.793  1.00  0.00     0.049 A 
ATOM     51  C   UNL A   1      45.094  30.435  31.009  1.00  0.00     0.074 A 
ATOM     52  C   UNL A   1      45.619  24.539  28.724  1.00  0.00     0.029 A 
ATOM     53  N   UNL A   1      44.868  26.527  29.379  1.00  0.00    -0.354 N 
ATOM     54  N   UNL A   1      45.106  29.218  30.517  1.00  0.00    -0.248 NA
ATOM     55  C   UNL A   1      46.388  30.882  31.544  1.00  0.00     0.031 C 
ATOM     56  C   UNL A   1      46.676  25.239  29.316  1.00  0.00     0.029 A 
ATOM     57  C   UNL A   1      46.214  26.489  29.698  1.00  0.00     0.049 A 
ATOM     58  H   UNL A   1      44.269  27.291  29.544  1.00  0.00     0.167 HD
ATOM     59  C   UNL A   1      46.416  28.767  30.658  1.00  0.00     0.074 A 
ATOM     60  C   UNL A   1      47.166  29.845  31.267  1.00  0.00     0.031 C 
ATOM     61  C   UNL A   1      46.948  27.568  30.310  1.00  0.00     0.031 A 
BRANCH  48  62
ATOM     62  C   UNL A   1      42.882  23.651  27.786  1.00  0.00    -0.014 A 
ATOM     63  C   UNL A   1      43.104  23.376  26.425  1.00  0.00     0.010 A 
ATOM     64  C   UNL A   1      42.429  22.618  28.628  1.00  0.00     0.010 A 
ATOM     65  C   UNL A   1      42.839  22.105  25.908  1.00  0.00     0.020 A 
ATOM     66  C   UNL A   1      42.187  21.339  28.120  1.00  0.00     0.020 A 
ATOM     67  C   UNL A   1      42.377  21.095  26.758  1.00  0.00     0.054 A 
BRANCH  67  68
ATOM     68  S   UNL A   1      42.055  19.451  26.065  1.00  0.00     0.124 S 
ATOM     69  O   UNL A   1      40.605  19.478  25.888  1.00  0.00    -0.237 OA
ATOM     70  O   UNL A   1      42.838  19.462  24.832  1.00  0.00    -0.237 OA
ATOM     71  O   UNL A   1      42.539  18.537  27.097  1.00  0.00    -0.744 OA
ENDBRANCH  67  68
ENDBRANCH  48  62
BRANCH  49  72
ATOM     72  C   UNL A   1      44.150  32.769  31.671  1.00  0.00    -0.014 A 
ATOM     73  C   UNL A   1      44.454  33.875  30.857  1.00  0.00     0.010 A 
ATOM     74  C   UNL A   1      44.033  32.955  33.061  1.00  0.00     0.010 A 
ATOM     75  C   UNL A   1      44.652  35.137  31.425  1.00  0.00     0.020 A 
ATOM     76  C   UNL A   1      44.205  34.220  33.628  1.00  0.00     0.020 A 
ATOM     77  C   UNL A   1      44.525  35.302  32.807  1.00  0.00     0.054 A 
BRANCH  77  78
ATOM     78  S   UNL A   1      44.736  36.959  33.516  1.00  0.00     0.124 S 
ATOM     79  O   UNL A   1      46.165  37.191  33.325  1.00  0.00    -0.237 OA
ATOM     80  O   UNL A   1      43.847  37.771  32.689  1.00  0.00    -0.237 OA
ATOM     81  O   UNL A   1      44.308  36.795  34.902  1.00  0.00    -0.744 OA
ENDBRANCH  77  78
ENDBRANCH  49  72
BRANCH  61  82
ATOM     82  C   UNL A   1      48.423  27.373  30.546  1.00  0.00    -0.014 A 
ATOM     83  C   UNL A   1      49.376  27.752  29.584  1.00  0.00     0.010 A 
ATOM     84  C   UNL A   1      48.863  26.834  31.770  1.00  0.00     0.010 A 
ATOM     85  C   UNL A   1      50.738  27.552  29.822  1.00  0.00     0.020 A 
ATOM     86  C   UNL A   1      50.226  26.660  32.022  1.00  0.00     0.020 A 
ATOM     87  C   UNL A   1      51.155  27.002  31.039  1.00  0.00     0.054 A 
BRANCH  87  88
ATOM     88  S   UNL A   1      52.930  26.770  31.334  1.00  0.00     0.124 S 
ATOM     89  O   UNL A   1      53.375  28.138  31.584  1.00  0.00    -0.237 OA
ATOM     90  O   UNL A   1      52.951  25.880  32.492  1.00  0.00    -0.237 OA
ATOM     91  O   UNL A   1      53.412  26.175  30.090  1.00  0.00    -0.744 OA
ENDBRANCH  87  88
ENDBRANCH  61  82
ENDBRANCH  35  36
ENDBRANCH  28  30
ENDBRANCH  27  28
ENDBRANCH  26  27
ENDBRANCH  25  26
ENDBRANCH   1  25
TORSDOF 23
ENDMDL
MODEL 2
REMARK VINA RESULT:      -9.0      1.615      2.137
REMARK SMILES CSCC[C@H](NC(=O)c1nc(C(C)C)n[nH]1)C(=O)OCCOCCOC(=O)c1ccc(-c2c3nc(c(-c4ccc(S(=O)(=O)[O-])cc4)c4ccc([nH]4)c(-c4ccc(S(=O)(=O)[O-])cc4)c4nc(c(-c5ccc(S(=O)(=O)[O-])cc5)c5ccc2[nH]5)C=C4)C=C3)cc1
REMARK SMILES IDX 22 1 21 2 20 3 19 4 17 5 18 6 5 7 4 8 3 9 2 10 1 11 6 12
REMARK SMILES IDX 7 13 8 15 9 16 10 17 16 18 11 19 15 20 12 22 13 23 14 24
REMARK SMILES IDX 23 25 24 26 25 27 26 28 27 29 28 30 29 31 87 32 30 33 86 34
REMARK SMILES IDX 31 35 32 36 33 37 80 38 34 39 85 40 79 41 81 42 35 43 84 44
REMARK SMILES IDX 78 45 77 46 36 48 66 49 47 50 65 51 48 52 51 53 64 54 82 55
REMARK SMILES IDX 49 56 50 57 63 59 83 60 52 61 37 62 38 63 46 64 39 65 45 66
REMARK SMILES IDX 40 67 41 68 42 69 43 70 44 71 67 72 68 73 76 74 69 75 75 76
REMARK SMILES IDX 70 77 71 78 72 79 73 80 74 81 53 82 54 83 62 84 55 85 61 86
REMARK SMILES IDX 56 87 57 88 58 89 59 90 60 91
REMARK H PARENT 6 14 16 21 81 47 51 58
REMARK Flexibility Score: inf
ROOT
ATOM      1  O   UNL A   1      31.432  29.248  25.436  1.00  0.00    -0.374 OA
ENDROOT
BRANCH   1   2
ATOM      2  C   UNL A   1      30.758  29.561  24.217  1.00  0.00     0.202 C 
BRANCH   2   3
ATOM      3  C   UNL A   1      30.396  28.386  23.301  1.00  0.00     0.261 C 
BRANCH   3   4
ATOM      4  O   UNL A   1      30.868  27.137  23.832  1.00  0.00    -0.462 OA
BRANCH   4   5
ATOM      5  C   UNL A   1      29.986  26.099  23.757  1.00  0.00     0.328 C 
ATOM      6  O   UNL A   1      28.791  26.181  24.016  1.00  0.00    -0.250 OA
BRANCH   5   7
ATOM      7  C   UNL A   1      30.619  24.847  23.106  1.00  0.00     0.193 C 
BRANCH   7   8
ATOM      8  C   UNL A   1      31.067  23.836  24.175  1.00  0.00     0.048 C 
BRANCH   8   9
ATOM      9  C   UNL A   1      30.786  24.278  25.615  1.00  0.00     0.072 C 
BRANCH   9  10
ATOM     10  S   UNL A   1      31.009  22.955  26.851  1.00  0.00    -0.165 SA
ATOM     11  C   UNL A   1      29.293  22.690  27.341  1.00  0.00     0.085 C 
ENDBRANCH   9  10
ENDBRANCH   8   9
ENDBRANCH   7   8
BRANCH   7  12
ATOM     12  N   UNL A   1      31.555  25.113  21.988  1.00  0.00    -0.336 N 
ATOM     13  C   UNL A   1      32.889  25.471  21.991  1.00  0.00     0.289 C 
ATOM     14  H   UNL A   1      31.160  25.018  21.093  1.00  0.00     0.164 HD
ATOM     15  O   UNL A   1      33.367  25.902  20.946  1.00  0.00    -0.266 OA
BRANCH  13  16
ATOM     16  C   UNL A   1      33.639  25.367  23.209  1.00  0.00     0.214 A 
ATOM     17  N   UNL A   1      34.473  24.400  23.497  1.00  0.00    -0.207 NA
ATOM     18  N   UNL A   1      33.614  26.242  24.254  1.00  0.00    -0.255 N 
ATOM     19  C   UNL A   1      34.828  24.635  24.788  1.00  0.00     0.153 A 
ATOM     20  N   UNL A   1      34.330  25.767  25.297  1.00  0.00    -0.158 NA
ATOM     21  H   UNL A   1      33.139  27.105  24.250  1.00  0.00     0.192 HD
BRANCH  19  22
ATOM     22  C   UNL A   1      35.561  23.580  25.549  1.00  0.00     0.053 C 
ATOM     23  C   UNL A   1      34.763  23.017  26.715  1.00  0.00     0.016 C 
ATOM     24  C   UNL A   1      36.067  22.485  24.612  1.00  0.00     0.016 C 
ENDBRANCH  19  22
ENDBRANCH  13  16
ENDBRANCH   7  12
ENDBRANCH   5   7
ENDBRANCH   4   5
ENDBRANCH   3   4
ENDBRANCH   2   3
ENDBRANCH   1   2
BRANCH   1  25
ATOM     25  C   UNL A   1      32.734  29.793  25.646  1.00  0.00     0.202 C 
BRANCH  25  26
ATOM     26  C   UNL A   1      33.036  30.453  26.997  1.00  0.00     0.261 C 
BRANCH  26  27
ATOM     27  O   UNL A   1      34.036  29.749  27.753  1.00  0.00    -0.460 OA
BRANCH  27  28
ATOM     28  C   UNL A   1      34.947  30.552  28.351  1.00  0.00     0.338 C 
ATOM     29  O   UNL A   1      34.730  31.621  28.910  1.00  0.00    -0.246 OA
BRANCH  28  30
ATOM     30  C   UNL A   1      36.260  29.889  28.429  1.00  0.00     0.060 A 
ATOM     31  C   UNL A   1      36.640  29.373  29.675  1.00  0.00     0.016 A 
ATOM     32  C   UNL A   1      37.149  29.878  27.353  1.00  0.00     0.016 A 
ATOM     33  C   UNL A   1      37.937  28.907  29.869  1.00  0.00     0.010 A 
ATOM     34  C   UNL A   1      38.456  29.417  27.554  1.00  0.00     0.010 A 
ATOM     35  C   UNL A   1      38.868  28.974  28.825  1.00  0.00    -0.014 A 
BRANCH  35  36
ATOM     36  C   UNL A   1      40.301  28.743  29.133  1.00  0.00     0.031 A 
ATOM     37  C   UNL A   1      40.923  27.421  28.764  1.00  0.00     0.074 A 
ATOM     38  C   UNL A   1      41.059  29.722  29.659  1.00  0.00     0.049 A 
ATOM     39  N   UNL A   1      42.165  27.028  28.884  1.00  0.00    -0.248 NA
ATOM     40  C   UNL A   1      40.027  26.411  28.177  1.00  0.00     0.031 C 
ATOM     41  C   UNL A   1      40.584  31.058  30.017  1.00  0.00     0.029 A 
ATOM     42  N   UNL A   1      42.394  29.743  29.972  1.00  0.00    -0.354 N 
ATOM     43  C   UNL A   1      42.200  25.727  28.393  1.00  0.00     0.074 A 
ATOM     44  C   UNL A   1      40.849  25.387  28.003  1.00  0.00     0.031 C 
ATOM     45  C   UNL A   1      41.617  31.772  30.497  1.00  0.00     0.029 A 
ATOM     46  C   UNL A   1      42.817  30.938  30.503  1.00  0.00     0.049 A 
ATOM     47  H   UNL A   1      42.993  28.975  29.831  1.00  0.00     0.167 HD
ATOM     48  C   UNL A   1      43.261  24.895  28.266  1.00  0.00     0.031 A 
ATOM     49  C   UNL A   1      44.032  31.314  30.948  1.00  0.00     0.031 A 
ATOM     50  C   UNL A   1      44.603  25.230  28.663  1.00  0.00     0.049 A 
ATOM     51  C   UNL A   1      45.185  30.350  30.851  1.00  0.00     0.074 A 
ATOM     52  C   UNL A   1      45.747  24.457  28.568  1.00  0.00     0.029 A 
ATOM     53  N   UNL A   1      44.981  26.435  29.237  1.00  0.00    -0.354 N 
ATOM     54  N   UNL A   1      45.205  29.132  30.361  1.00  0.00    -0.248 NA
ATOM     55  C   UNL A   1      46.485  30.819  31.353  1.00  0.00     0.031 C 
ATOM     56  C   UNL A   1      46.808  25.175  29.132  1.00  0.00     0.029 A 
ATOM     57  C   UNL A   1      46.335  26.419  29.523  1.00  0.00     0.049 A 
ATOM     58  H   UNL A   1      44.375  27.189  29.415  1.00  0.00     0.167 HD
ATOM     59  C   UNL A   1      46.524  28.702  30.471  1.00  0.00     0.074 A 
ATOM     60  C   UNL A   1      47.272  29.794  31.059  1.00  0.00     0.031 C 
ATOM     61  C   UNL A   1      47.066  27.511  30.113  1.00  0.00     0.031 A 
BRANCH  48  62
ATOM     62  C   UNL A   1      43.002  23.522  27.701  1.00  0.00    -0.014 A 
ATOM     63  C   UNL A   1      43.632  23.089  26.521  1.00  0.00     0.010 A 
ATOM     64  C   UNL A   1      42.136  22.643  28.377  1.00  0.00     0.010 A 
ATOM     65  C   UNL A   1      43.370  21.816  26.006  1.00  0.00     0.020 A 
ATOM     66  C   UNL A   1      41.891  21.361  27.879  1.00  0.00     0.020 A 
ATOM     67  C   UNL A   1      42.496  20.961  26.686  1.00  0.00     0.054 A 
BRANCH  67  68
ATOM     68  S   UNL A   1      42.185  19.310  26.004  1.00  0.00     0.124 S 
ATOM     69  O   UNL A   1      42.670  18.446  27.079  1.00  0.00    -0.237 OA
ATOM     70  O   UNL A   1      40.738  19.312  25.806  1.00  0.00    -0.237 OA
ATOM     71  O   UNL A   1      42.978  19.284  24.778  1.00  0.00    -0.744 OA
ENDBRANCH  67  68
ENDBRANCH  48  62
BRANCH  49  72
ATOM     72  C   UNL A   1      44.221  32.671  31.530  1.00  0.00    -0.014 A 
ATOM     73  C   UNL A   1      44.577  33.762  30.718  1.00  0.00     0.010 A 
ATOM     74  C   UNL A   1      44.045  32.876  32.911  1.00  0.00     0.010 A 
ATOM     75  C   UNL A   1      44.768  35.028  31.278  1.00  0.00     0.020 A 
ATOM     76  C   UNL A   1      44.210  34.145  33.470  1.00  0.00     0.020 A 
ATOM     77  C   UNL A   1      44.581  35.213  32.651  1.00  0.00     0.054 A 
BRANCH  77  78
ATOM     78  S   UNL A   1      44.785  36.875  33.348  1.00  0.00     0.124 S 
ATOM     79  O   UNL A   1      46.126  37.234  32.894  1.00  0.00    -0.237 OA
ATOM     80  O   UNL A   1      43.688  37.614  32.727  1.00  0.00    -0.237 OA
ATOM     81  O   UNL A   1      44.646  36.662  34.786  1.00  0.00    -0.744 OA
ENDBRANCH  77  78
ENDBRANCH  49  72
BRANCH  61  82
ATOM     82  C   UNL A   1      48.550  27.339  30.313  1.00  0.00    -0.014 A 
ATOM     83  C   UNL A   1      49.471  27.713  29.319  1.00  0.00     0.010 A 
ATOM     84  C   UNL A   1      49.029  26.829  31.534  1.00  0.00     0.010 A 
ATOM     85  C   UNL A   1      50.842  27.536  29.524  1.00  0.00     0.020 A 
ATOM     86  C   UNL A   1      50.401  26.678  31.753  1.00  0.00     0.020 A 
ATOM     87  C   UNL A   1      51.299  27.014  30.739  1.00  0.00     0.054 A 
BRANCH  87  88
ATOM     88  S   UNL A   1      53.084  26.812  30.991  1.00  0.00     0.124 S 
ATOM     89  O   UNL A   1      53.419  28.010  31.756  1.00  0.00    -0.237 OA
ATOM     90  O   UNL A   1      53.165  25.552  31.726  1.00  0.00    -0.237 OA
ATOM     91  O   UNL A   1      53.621  26.769  29.632  1.00  0.00    -0.744 OA
ENDBRANCH  87  88
ENDBRANCH  61  82
ENDBRANCH  35  36
ENDBRANCH  28  30
ENDBRANCH  27  28
ENDBRANCH  26  27
ENDBRANCH  25  26
ENDBRANCH   1  25
TORSDOF 23
ENDMDL
MODEL 3
REMARK VINA RESULT:      -8.9      2.956      8.939
REMARK SMILES CSCC[C@H](NC(=O)c1nc(C(C)C)n[nH]1)C(=O)OCCOCCOC(=O)c1ccc(-c2c3nc(c(-c4ccc(S(=O)(=O)[O-])cc4)c4ccc([nH]4)c(-c4ccc(S(=O)(=O)[O-])cc4)c4nc(c(-c5ccc(S(=O)(=O)[O-])cc5)c5ccc2[nH]5)C=C4)C=C3)cc1
REMARK SMILES IDX 22 1 21 2 20 3 19 4 17 5 18 6 5 7 4 8 3 9 2 10 1 11 6 12
REMARK SMILES IDX 7 13 8 15 9 16 10 17 16 18 11 19 15 20 12 22 13 23 14 24
REMARK SMILES IDX 23 25 24 26 25 27 26 28 27 29 28 30 29 31 87 32 30 33 86 34
REMARK SMILES IDX 31 35 32 36 33 37 80 38 34 39 85 40 79 41 81 42 35 43 84 44
REMARK SMILES IDX 78 45 77 46 36 48 66 49 47 50 65 51 48 52 51 53 64 54 82 55
REMARK SMILES IDX 49 56 50 57 63 59 83 60 52 61 37 62 38 63 46 64 39 65 45 66
REMARK SMILES IDX 40 67 41 68 42 69 43 70 44 71 67 72 68 73 76 74 69 75 75 76
REMARK SMILES IDX 70 77 71 78 72 79 73 80 74 81 53 82 54 83 62 84 55 85 61 86
REMARK SMILES IDX 56 87 57 88 58 89 59 90 60 91
REMARK H PARENT 6 14 16 21 81 47 51 58
REMARK Flexibility Score: inf
ROOT
ATOM      1  O   UNL A   1      34.673  29.949  26.888  1.00  0.00    -0.374 OA
ENDROOT
BRANCH   1   2
ATOM      2  C   UNL A   1      34.079  28.668  27.105  1.00  0.00     0.202 C 
BRANCH   2   3
ATOM      3  C   UNL A   1      32.547  28.607  27.121  1.00  0.00     0.261 C 
BRANCH   3   4
ATOM      4  O   UNL A   1      32.068  27.275  26.873  1.00  0.00    -0.462 OA
BRANCH   4   5
ATOM      5  C   UNL A   1      31.386  27.107  25.705  1.00  0.00     0.328 C 
ATOM      6  O   UNL A   1      31.139  28.005  24.907  1.00  0.00    -0.250 OA
BRANCH   5   7
ATOM      7  C   UNL A   1      31.135  25.613  25.390  1.00  0.00     0.193 C 
BRANCH   7   8
ATOM      8  C   UNL A   1      30.637  25.429  23.947  1.00  0.00     0.048 C 
BRANCH   8   9
ATOM      9  C   UNL A   1      30.768  23.997  23.415  1.00  0.00     0.072 C 
BRANCH   9  10
ATOM     10  S   UNL A   1      32.410  23.615  22.718  1.00  0.00    -0.165 SA
ATOM     11  C   UNL A   1      32.197  21.861  22.357  1.00  0.00     0.085 C 
ENDBRANCH   9  10
ENDBRANCH   8   9
ENDBRANCH   7   8
BRANCH   7  12
ATOM     12  N   UNL A   1      30.442  24.845  26.450  1.00  0.00    -0.336 N 
ATOM     13  C   UNL A   1      30.679  23.582  26.955  1.00  0.00     0.289 C 
ATOM     14  H   UNL A   1      29.684  25.315  26.866  1.00  0.00     0.164 HD
ATOM     15  O   UNL A   1      29.798  23.062  27.634  1.00  0.00    -0.266 OA
BRANCH  13  16
ATOM     16  C   UNL A   1      31.909  22.919  26.632  1.00  0.00     0.214 A 
ATOM     17  N   UNL A   1      33.102  23.436  26.783  1.00  0.00    -0.207 NA
ATOM     18  N   UNL A   1      32.044  21.661  26.125  1.00  0.00    -0.255 N 
ATOM     19  C   UNL A   1      33.938  22.525  26.219  1.00  0.00     0.153 A 
ATOM     20  N   UNL A   1      33.333  21.406  25.806  1.00  0.00    -0.158 NA
ATOM     21  H   UNL A   1      31.303  21.023  26.007  1.00  0.00     0.192 HD
BRANCH  19  22
ATOM     22  C   UNL A   1      35.360  22.898  25.960  1.00  0.00     0.053 C 
ATOM     23  C   UNL A   1      36.264  21.695  25.736  1.00  0.00     0.016 C 
ATOM     24  C   UNL A   1      35.459  23.916  24.826  1.00  0.00     0.016 C 
ENDBRANCH  19  22
ENDBRANCH  13  16
ENDBRANCH   7  12
ENDBRANCH   5   7
ENDBRANCH   4   5
ENDBRANCH   3   4
ENDBRANCH   2   3
ENDBRANCH   1   2
BRANCH   1  25
ATOM     25  C   UNL A   1      34.331  31.010  27.779  1.00  0.00     0.202 C 
BRANCH  25  26
ATOM     26  C   UNL A   1      35.384  31.477  28.791  1.00  0.00     0.261 C 
BRANCH  26  27
ATOM     27  O   UNL A   1      36.702  30.985  28.494  1.00  0.00    -0.460 OA
BRANCH  27  28
ATOM     28  C   UNL A   1      37.117  29.985  29.307  1.00  0.00     0.338 C 
ATOM     29  O   UNL A   1      36.497  29.491  30.241  1.00  0.00    -0.246 OA
BRANCH  28  30
ATOM     30  C   UNL A   1      38.372  29.394  28.811  1.00  0.00     0.060 A 
ATOM     31  C   UNL A   1      39.315  29.001  29.770  1.00  0.00     0.016 A 
ATOM     32  C   UNL A   1      38.677  29.339  27.450  1.00  0.00     0.016 A 
ATOM     33  C   UNL A   1      40.592  28.615  29.374  1.00  0.00     0.010 A 
ATOM     34  C   UNL A   1      39.966  28.960  27.055  1.00  0.00     0.010 A 
ATOM     35  C   UNL A   1      40.942  28.642  28.018  1.00  0.00    -0.014 A 
BRANCH  35  36
ATOM     36  C   UNL A   1      42.373  28.507  27.650  1.00  0.00     0.031 A 
ATOM     37  C   UNL A   1      43.296  29.680  27.864  1.00  0.00     0.074 A 
ATOM     38  C   UNL A   1      42.863  27.335  27.207  1.00  0.00     0.049 A 
ATOM     39  N   UNL A   1      44.587  29.763  27.671  1.00  0.00    -0.248 NA
ATOM     40  C   UNL A   1      42.681  30.919  28.367  1.00  0.00     0.031 C 
ATOM     41  C   UNL A   1      42.081  26.117  27.002  1.00  0.00     0.029 A 
ATOM     42  N   UNL A   1      44.141  26.978  26.863  1.00  0.00    -0.354 N 
ATOM     43  C   UNL A   1      44.939  31.062  28.025  1.00  0.00     0.074 A 
ATOM     44  C   UNL A   1      43.721  31.739  28.413  1.00  0.00     0.031 C 
ATOM     45  C   UNL A   1      42.900  25.142  26.571  1.00  0.00     0.029 A 
ATOM     46  C   UNL A   1      44.256  25.674  26.447  1.00  0.00     0.049 A 
ATOM     47  H   UNL A   1      44.905  27.598  26.909  1.00  0.00     0.167 HD
ATOM     48  C   UNL A   1      46.165  31.635  28.037  1.00  0.00     0.031 A 
ATOM     49  C   UNL A   1      45.331  24.988  26.011  1.00  0.00     0.031 A 
ATOM     50  C   UNL A   1      47.376  30.965  27.641  1.00  0.00     0.049 A 
ATOM     51  C   UNL A   1      46.676  25.666  25.977  1.00  0.00     0.074 A 
ATOM     52  C   UNL A   1      48.668  31.460  27.625  1.00  0.00     0.029 A 
ATOM     53  N   UNL A   1      47.442  29.657  27.184  1.00  0.00    -0.354 N 
ATOM     54  N   UNL A   1      46.995  26.887  26.338  1.00  0.00    -0.248 NA
ATOM     55  C   UNL A   1      47.809  24.865  25.493  1.00  0.00     0.031 C 
ATOM     56  C   UNL A   1      49.510  30.467  27.110  1.00  0.00     0.029 A 
ATOM     57  C   UNL A   1      48.750  29.334  26.863  1.00  0.00     0.049 A 
ATOM     58  H   UNL A   1      46.673  29.049  27.102  1.00  0.00     0.167 HD
ATOM     59  C   UNL A   1      48.370  26.990  26.150  1.00  0.00     0.074 A 
ATOM     60  C   UNL A   1      48.822  25.704  25.659  1.00  0.00     0.031 C 
ATOM     61  C   UNL A   1      49.185  28.052  26.369  1.00  0.00     0.031 A 
BRANCH  48  62
ATOM     62  C   UNL A   1      46.252  33.078  28.464  1.00  0.00    -0.014 A 
ATOM     63  C   UNL A   1      46.478  33.428  29.808  1.00  0.00     0.010 A 
ATOM     64  C   UNL A   1      46.133  34.097  27.502  1.00  0.00     0.010 A 
ATOM     65  C   UNL A   1      46.543  34.772  30.186  1.00  0.00     0.020 A 
ATOM     66  C   UNL A   1      46.223  35.441  27.872  1.00  0.00     0.020 A 
ATOM     67  C   UNL A   1      46.410  35.771  29.216  1.00  0.00     0.054 A 
BRANCH  67  68
ATOM     68  S   UNL A   1      46.513  37.507  29.731  1.00  0.00     0.124 S 
ATOM     69  O   UNL A   1      45.599  37.536  30.872  1.00  0.00    -0.237 OA
ATOM     70  O   UNL A   1      47.928  37.662  30.057  1.00  0.00    -0.237 OA
ATOM     71  O   UNL A   1      46.063  38.246  28.555  1.00  0.00    -0.744 OA
ENDBRANCH  67  68
ENDBRANCH  48  62
BRANCH  49  72
ATOM     72  C   UNL A   1      45.180  23.575  25.567  1.00  0.00    -0.014 A 
ATOM     73  C   UNL A   1      45.061  23.257  24.202  1.00  0.00     0.010 A 
ATOM     74  C   UNL A   1      45.153  22.536  26.515  1.00  0.00     0.010 A 
ATOM     75  C   UNL A   1      44.902  21.928  23.797  1.00  0.00     0.020 A 
ATOM     76  C   UNL A   1      45.021  21.206  26.113  1.00  0.00     0.020 A 
ATOM     77  C   UNL A   1      44.885  20.911  24.755  1.00  0.00     0.054 A 
BRANCH  77  78
ATOM     78  S   UNL A   1      44.730  19.189  24.203  1.00  0.00     0.124 S 
ATOM     79  O   UNL A   1      44.500  19.349  22.770  1.00  0.00    -0.237 OA
ATOM     80  O   UNL A   1      46.022  18.620  24.577  1.00  0.00    -0.237 OA
ATOM     81  O   UNL A   1      43.592  18.687  24.968  1.00  0.00    -0.744 OA
ENDBRANCH  77  78
ENDBRANCH  49  72
BRANCH  61  82
ATOM     82  C   UNL A   1      50.657  27.858  26.113  1.00  0.00    -0.014 A 
ATOM     83  C   UNL A   1      51.528  27.431  27.131  1.00  0.00     0.010 A 
ATOM     84  C   UNL A   1      51.169  28.072  24.819  1.00  0.00     0.010 A 
ATOM     85  C   UNL A   1      52.891  27.268  26.872  1.00  0.00     0.020 A 
ATOM     86  C   UNL A   1      52.526  27.880  24.550  1.00  0.00     0.020 A 
ATOM     87  C   UNL A   1      53.383  27.498  25.583  1.00  0.00     0.054 A 
BRANCH  87  88
ATOM     88  S   UNL A   1      55.153  27.260  25.265  1.00  0.00     0.124 S 
ATOM     89  O   UNL A   1      55.158  26.881  23.855  1.00  0.00    -0.237 OA
ATOM     90  O   UNL A   1      55.715  28.574  25.565  1.00  0.00    -0.237 OA
ATOM     91  O   UNL A   1      55.532  26.200  26.197  1.00  0.00    -0.744 OA
ENDBRANCH  87  88
ENDBRANCH  61  82
ENDBRANCH  35  36
ENDBRANCH  28  30
ENDBRANCH  27  28
ENDBRANCH  26  27
ENDBRANCH  25  26
ENDBRANCH   1  25
TORSDOF 23
ENDMDL
