MODEL 1
REMARK VINA RESULT:     -11.2      0.000      0.000
REMARK SMILES CCn1cc(C)c(C(=O)OCCOCCOC(=O)c2ccc(-c3c4nc(c(-c5ccc(S(=O)(=O)[O-])cc5)c5ccc([nH]5)c(-c5ccc(S(=O)(=O)[O-])cc5)c5nc(c(-c6ccc(S(=O)(=O)[O-])cc6)c6ccc3[nH]6)C=C5)C=C4)cc2)c1CC(=O)N1CC[NH+](C)CC1
REMARK SMILES IDX 14 1 13 2 12 3 11 4 10 5 8 6 9 7 7 8 3 9 4 10 79 11 5 12
REMARK SMILES IDX 6 13 2 14 1 15 80 16 81 17 82 18 83 19 84 20 89 21 85 22
REMARK SMILES IDX 88 23 86 24 87 25 15 27 16 28 17 29 18 30 19 31 20 32 78 33
REMARK SMILES IDX 21 34 77 35 22 36 23 37 24 38 71 39 25 40 76 41 70 42 72 43
REMARK SMILES IDX 26 44 75 45 69 46 68 47 27 49 57 50 38 51 56 52 39 53 42 54
REMARK SMILES IDX 55 55 73 56 40 57 41 58 54 60 74 61 43 62 28 63 29 64 37 65
REMARK SMILES IDX 30 66 36 67 31 68 32 69 33 70 34 71 35 72 58 73 59 74 67 75
REMARK SMILES IDX 60 76 66 77 61 78 62 79 63 80 64 81 65 82 44 83 45 84 53 85
REMARK SMILES IDX 46 86 52 87 47 88 48 89 49 90 50 91 51 92
REMARK H PARENT 86 26 72 48 42 59
REMARK Flexibility Score: inf
ROOT
ATOM      1  C   UNL A   1      37.083  21.179  25.122  1.00  0.00     0.202 C 
ENDROOT
BRANCH   1   2
ATOM      2  O   UNL A   1      36.769  21.912  23.938  1.00  0.00    -0.374 OA
BRANCH   2   3
ATOM      3  C   UNL A   1      36.522  23.311  24.114  1.00  0.00     0.202 C 
BRANCH   3   4
ATOM      4  C   UNL A   1      35.074  23.723  23.822  1.00  0.00     0.261 C 
BRANCH   4   5
ATOM      5  O   UNL A   1      34.761  23.552  22.428  1.00  0.00    -0.460 OA
BRANCH   5   6
ATOM      6  C   UNL A   1      33.443  23.634  22.092  1.00  0.00     0.340 C 
ATOM      7  O   UNL A   1      32.901  22.918  21.258  1.00  0.00    -0.246 OA
BRANCH   6   8
ATOM      8  C   UNL A   1      32.699  24.598  22.917  1.00  0.00     0.084 A 
ATOM      9  N   UNL A   1      31.393  25.538  24.476  1.00  0.00    -0.350 N 
ATOM     10  C   UNL A   1      31.942  26.562  23.744  1.00  0.00     0.090 A 
ATOM     11  C   UNL A   1      31.740  24.331  23.903  1.00  0.00     0.042 A 
ATOM     12  C   UNL A   1      32.735  26.027  22.754  1.00  0.00    -0.019 A 
ATOM     13  C   UNL A   1      33.410  26.800  21.674  1.00  0.00     0.047 C 
BRANCH   9  14
ATOM     14  C   UNL A   1      30.524  25.782  25.620  1.00  0.00     0.118 C 
ATOM     15  C   UNL A   1      31.089  26.764  26.639  1.00  0.00     0.027 C 
ENDBRANCH   9  14
BRANCH  11  16
ATOM     16  C   UNL A   1      31.127  23.009  24.300  1.00  0.00     0.155 C 
BRANCH  16  17
ATOM     17  C   UNL A   1      32.037  22.265  25.276  1.00  0.00     0.228 C 
ATOM     18  O   UNL A   1      32.424  22.797  26.320  1.00  0.00    -0.274 OA
ATOM     19  N   UNL A   1      32.405  20.962  24.949  1.00  0.00    -0.331 N 
ATOM     20  C   UNL A   1      33.092  20.195  25.974  1.00  0.00     0.181 C 
ATOM     21  C   UNL A   1      32.494  20.411  23.598  1.00  0.00     0.181 C 
ATOM     22  C   UNL A   1      32.841  18.684  25.899  1.00  0.00     0.283 C 
ATOM     23  C   UNL A   1      32.288  18.879  23.568  1.00  0.00     0.283 C 
ATOM     24  N   UNL A   1      33.053  18.102  24.564  1.00  0.00    -0.334 N 
ATOM     25  C   UNL A   1      34.481  18.038  24.250  1.00  0.00     0.332 C 
ATOM     26  H   UNL A   1      32.710  17.143  24.543  1.00  0.00     0.347 HD
ENDBRANCH  16  17
ENDBRANCH  11  16
ENDBRANCH   6   8
ENDBRANCH   5   6
ENDBRANCH   4   5
ENDBRANCH   3   4
ENDBRANCH   2   3
ENDBRANCH   1   2
BRANCH   1  27
ATOM     27  C   UNL A   1      38.563  20.986  25.372  1.00  0.00     0.261 C 
BRANCH  27  28
ATOM     28  O   UNL A   1      38.978  21.940  26.325  1.00  0.00    -0.460 OA
BRANCH  28  29
ATOM     29  C   UNL A   1      40.269  22.286  26.426  1.00  0.00     0.338 C 
ATOM     30  O   UNL A   1      41.254  21.670  26.060  1.00  0.00    -0.246 OA
BRANCH  29  31
ATOM     31  C   UNL A   1      40.231  23.564  27.149  1.00  0.00     0.060 A 
ATOM     32  C   UNL A   1      39.192  24.475  26.959  1.00  0.00     0.016 A 
ATOM     33  C   UNL A   1      41.316  23.859  27.999  1.00  0.00     0.016 A 
ATOM     34  C   UNL A   1      39.333  25.740  27.508  1.00  0.00     0.010 A 
ATOM     35  C   UNL A   1      41.383  25.046  28.647  1.00  0.00     0.010 A 
ATOM     36  C   UNL A   1      40.478  26.015  28.270  1.00  0.00    -0.014 A 
BRANCH  36  37
ATOM     37  C   UNL A   1      40.851  27.348  28.661  1.00  0.00     0.031 A 
ATOM     38  C   UNL A   1      42.071  27.839  28.002  1.00  0.00     0.074 A 
ATOM     39  C   UNL A   1      40.003  28.094  29.403  1.00  0.00     0.049 A 
ATOM     40  N   UNL A   1      43.265  27.795  28.486  1.00  0.00    -0.248 NA
ATOM     41  C   UNL A   1      42.017  28.202  26.578  1.00  0.00     0.031 C 
ATOM     42  C   UNL A   1      38.632  27.787  29.852  1.00  0.00     0.029 A 
ATOM     43  N   UNL A   1      40.174  29.357  29.850  1.00  0.00    -0.354 N 
ATOM     44  C   UNL A   1      44.060  28.435  27.551  1.00  0.00     0.074 A 
ATOM     45  C   UNL A   1      43.309  28.421  26.320  1.00  0.00     0.031 C 
ATOM     46  C   UNL A   1      38.036  28.913  30.312  1.00  0.00     0.029 A 
ATOM     47  C   UNL A   1      39.038  29.956  30.378  1.00  0.00     0.049 A 
ATOM     48  H   UNL A   1      41.042  29.819  29.805  1.00  0.00     0.167 HD
ATOM     49  C   UNL A   1      45.107  29.205  27.957  1.00  0.00     0.031 A 
ATOM     50  C   UNL A   1      38.950  31.215  30.876  1.00  0.00     0.031 A 
ATOM     51  C   UNL A   1      45.368  29.021  29.368  1.00  0.00     0.049 A 
ATOM     52  C   UNL A   1      40.336  31.594  31.254  1.00  0.00     0.074 A 
ATOM     53  C   UNL A   1      45.738  27.957  30.163  1.00  0.00     0.029 A 
ATOM     54  N   UNL A   1      44.795  29.950  30.210  1.00  0.00    -0.354 N 
ATOM     55  N   UNL A   1      41.011  30.969  32.183  1.00  0.00    -0.248 NA
ATOM     56  C   UNL A   1      41.146  32.299  30.272  1.00  0.00     0.031 C 
ATOM     57  C   UNL A   1      44.970  28.102  31.358  1.00  0.00     0.029 A 
ATOM     58  C   UNL A   1      44.241  29.295  31.280  1.00  0.00     0.049 A 
ATOM     59  H   UNL A   1      44.786  30.924  30.067  1.00  0.00     0.167 HD
ATOM     60  C   UNL A   1      42.291  30.826  31.666  1.00  0.00     0.074 A 
ATOM     61  C   UNL A   1      42.338  31.753  30.533  1.00  0.00     0.031 C 
ATOM     62  C   UNL A   1      43.087  29.771  32.023  1.00  0.00     0.031 A 
BRANCH  49  63
ATOM     63  C   UNL A   1      45.576  30.440  27.228  1.00  0.00    -0.014 A 
ATOM     64  C   UNL A   1      46.962  30.683  27.152  1.00  0.00     0.010 A 
ATOM     65  C   UNL A   1      44.719  31.496  26.857  1.00  0.00     0.010 A 
ATOM     66  C   UNL A   1      47.461  31.940  26.791  1.00  0.00     0.020 A 
ATOM     67  C   UNL A   1      45.207  32.742  26.458  1.00  0.00     0.020 A 
ATOM     68  C   UNL A   1      46.577  32.964  26.457  1.00  0.00     0.054 A 
BRANCH  68  69
ATOM     69  S   UNL A   1      47.231  34.607  26.077  1.00  0.00     0.124 S 
ATOM     70  O   UNL A   1      47.575  35.107  27.405  1.00  0.00    -0.237 OA
ATOM     71  O   UNL A   1      48.358  34.293  25.204  1.00  0.00    -0.237 OA
ATOM     72  O   UNL A   1      46.110  35.278  25.424  1.00  0.00    -0.744 OA
ENDBRANCH  68  69
ENDBRANCH  49  63
BRANCH  50  73
ATOM     73  C   UNL A   1      37.881  32.209  30.595  1.00  0.00    -0.014 A 
ATOM     74  C   UNL A   1      37.897  32.984  29.421  1.00  0.00     0.010 A 
ATOM     75  C   UNL A   1      36.686  32.185  31.345  1.00  0.00     0.010 A 
ATOM     76  C   UNL A   1      36.744  33.662  28.982  1.00  0.00     0.020 A 
ATOM     77  C   UNL A   1      35.533  32.853  30.913  1.00  0.00     0.020 A 
ATOM     78  C   UNL A   1      35.560  33.575  29.721  1.00  0.00     0.054 A 
BRANCH  78  79
ATOM     79  S   UNL A   1      34.033  34.313  29.062  1.00  0.00     0.124 S 
ATOM     80  O   UNL A   1      34.534  35.488  28.355  1.00  0.00    -0.237 OA
ATOM     81  O   UNL A   1      33.502  33.247  28.217  1.00  0.00    -0.237 OA
ATOM     82  O   UNL A   1      33.243  34.601  30.259  1.00  0.00    -0.744 OA
ENDBRANCH  78  79
ENDBRANCH  50  73
BRANCH  62  83
ATOM     83  C   UNL A   1      42.651  28.921  33.203  1.00  0.00    -0.014 A 
ATOM     84  C   UNL A   1      41.625  27.953  33.160  1.00  0.00     0.010 A 
ATOM     85  C   UNL A   1      43.418  29.021  34.377  1.00  0.00     0.010 A 
ATOM     86  C   UNL A   1      41.361  27.132  34.272  1.00  0.00     0.020 A 
ATOM     87  C   UNL A   1      43.170  28.200  35.479  1.00  0.00     0.020 A 
ATOM     88  C   UNL A   1      42.135  27.267  35.429  1.00  0.00     0.054 A 
BRANCH  88  89
ATOM     89  S   UNL A   1      41.808  26.204  36.867  1.00  0.00     0.124 S 
ATOM     90  O   UNL A   1      40.520  26.700  37.343  1.00  0.00    -0.237 OA
ATOM     91  O   UNL A   1      41.791  24.864  36.285  1.00  0.00    -0.237 OA
ATOM     92  O   UNL A   1      42.938  26.468  37.758  1.00  0.00    -0.744 OA
ENDBRANCH  88  89
ENDBRANCH  62  83
ENDBRANCH  36  37
ENDBRANCH  29  31
ENDBRANCH  28  29
ENDBRANCH  27  28
ENDBRANCH   1  27
TORSDOF 20
ENDMDL
MODEL 2
REMARK VINA RESULT:     -11.1      1.942      3.648
REMARK SMILES CCn1cc(C)c(C(=O)OCCOCCOC(=O)c2ccc(-c3c4nc(c(-c5ccc(S(=O)(=O)[O-])cc5)c5ccc([nH]5)c(-c5ccc(S(=O)(=O)[O-])cc5)c5nc(c(-c6ccc(S(=O)(=O)[O-])cc6)c6ccc3[nH]6)C=C5)C=C4)cc2)c1CC(=O)N1CC[NH+](C)CC1
REMARK SMILES IDX 14 1 13 2 12 3 11 4 10 5 8 6 9 7 7 8 3 9 4 10 79 11 5 12
REMARK SMILES IDX 6 13 2 14 1 15 80 16 81 17 82 18 83 19 84 20 89 21 85 22
REMARK SMILES IDX 88 23 86 24 87 25 15 27 16 28 17 29 18 30 19 31 20 32 78 33
REMARK SMILES IDX 21 34 77 35 22 36 23 37 24 38 71 39 25 40 76 41 70 42 72 43
REMARK SMILES IDX 26 44 75 45 69 46 68 47 27 49 57 50 38 51 56 52 39 53 42 54
REMARK SMILES IDX 55 55 73 56 40 57 41 58 54 60 74 61 43 62 28 63 29 64 37 65
REMARK SMILES IDX 30 66 36 67 31 68 32 69 33 70 34 71 35 72 58 73 59 74 67 75
REMARK SMILES IDX 60 76 66 77 61 78 62 79 63 80 64 81 65 82 44 83 45 84 53 85
REMARK SMILES IDX 46 86 52 87 47 88 48 89 49 90 50 91 51 92
REMARK H PARENT 86 26 72 48 42 59
REMARK Flexibility Score: inf
ROOT
ATOM      1  C   UNL A   1      40.106  21.646  26.870  1.00  0.00     0.202 C 
ENDROOT
BRANCH   1   2
ATOM      2  O   UNL A   1      39.135  22.147  25.952  1.00  0.00    -0.374 OA
BRANCH   2   3
ATOM      3  C   UNL A   1      38.472  23.356  26.339  1.00  0.00     0.202 C 
BRANCH   3   4
ATOM      4  C   UNL A   1      37.334  23.764  25.396  1.00  0.00     0.261 C 
BRANCH   4   5
ATOM      5  O   UNL A   1      36.454  22.654  25.141  1.00  0.00    -0.460 OA
BRANCH   5   6
ATOM      6  C   UNL A   1      35.300  22.941  24.475  1.00  0.00     0.340 C 
ATOM      7  O   UNL A   1      35.112  22.693  23.290  1.00  0.00    -0.246 OA
BRANCH   6   8
ATOM      8  C   UNL A   1      34.249  23.479  25.352  1.00  0.00     0.084 A 
ATOM      9  N   UNL A   1      32.653  24.764  26.258  1.00  0.00    -0.350 N 
ATOM     10  C   UNL A   1      32.738  23.630  27.027  1.00  0.00     0.090 A 
ATOM     11  C   UNL A   1      33.656  24.748  25.309  1.00  0.00     0.042 A 
ATOM     12  C   UNL A   1      33.729  22.820  26.519  1.00  0.00    -0.019 A 
ATOM     13  C   UNL A   1      34.215  21.556  27.139  1.00  0.00     0.047 C 
BRANCH   9  14
ATOM     14  C   UNL A   1      31.672  25.809  26.523  1.00  0.00     0.118 C 
ATOM     15  C   UNL A   1      30.306  25.562  25.895  1.00  0.00     0.027 C 
ENDBRANCH   9  14
BRANCH  11  16
ATOM     16  C   UNL A   1      34.010  25.935  24.446  1.00  0.00     0.155 C 
BRANCH  16  17
ATOM     17  C   UNL A   1      33.054  26.044  23.260  1.00  0.00     0.228 C 
ATOM     18  O   UNL A   1      33.088  25.225  22.336  1.00  0.00    -0.274 OA
ATOM     19  N   UNL A   1      32.137  27.091  23.263  1.00  0.00    -0.331 N 
ATOM     20  C   UNL A   1      31.101  27.064  22.244  1.00  0.00     0.181 C 
ATOM     21  C   UNL A   1      32.308  28.376  23.940  1.00  0.00     0.181 C 
ATOM     22  C   UNL A   1      29.785  27.724  22.672  1.00  0.00     0.283 C 
ATOM     23  C   UNL A   1      30.960  29.036  24.308  1.00  0.00     0.283 C 
ATOM     24  N   UNL A   1      29.942  29.073  23.238  1.00  0.00    -0.334 N 
ATOM     25  C   UNL A   1      30.265  30.039  22.188  1.00  0.00     0.332 C 
ATOM     26  H   UNL A   1      29.063  29.382  23.653  1.00  0.00     0.347 HD
ENDBRANCH  16  17
ENDBRANCH  11  16
ENDBRANCH   6   8
ENDBRANCH   5   6
ENDBRANCH   4   5
ENDBRANCH   3   4
ENDBRANCH   2   3
ENDBRANCH   1   2
BRANCH   1  27
ATOM     27  C   UNL A   1      41.471  21.389  26.269  1.00  0.00     0.261 C 
BRANCH  27  28
ATOM     28  O   UNL A   1      41.959  22.605  25.746  1.00  0.00    -0.460 OA
BRANCH  28  29
ATOM     29  C   UNL A   1      42.969  23.249  26.348  1.00  0.00     0.338 C 
ATOM     30  O   UNL A   1      44.134  22.908  26.455  1.00  0.00    -0.246 OA
BRANCH  29  31
ATOM     31  C   UNL A   1      42.330  24.442  26.919  1.00  0.00     0.060 A 
ATOM     32  C   UNL A   1      41.434  25.211  26.176  1.00  0.00     0.016 A 
ATOM     33  C   UNL A   1      42.702  24.812  28.227  1.00  0.00     0.016 A 
ATOM     34  C   UNL A   1      41.039  26.431  26.702  1.00  0.00     0.010 A 
ATOM     35  C   UNL A   1      42.204  25.937  28.794  1.00  0.00     0.010 A 
ATOM     36  C   UNL A   1      41.512  26.798  27.970  1.00  0.00    -0.014 A 
BRANCH  36  37
ATOM     37  C   UNL A   1      41.383  28.131  28.493  1.00  0.00     0.031 A 
ATOM     38  C   UNL A   1      42.447  29.046  28.051  1.00  0.00     0.074 A 
ATOM     39  C   UNL A   1      40.258  28.492  29.149  1.00  0.00     0.049 A 
ATOM     40  N   UNL A   1      43.524  29.327  28.700  1.00  0.00    -0.248 NA
ATOM     41  C   UNL A   1      42.446  29.522  26.659  1.00  0.00     0.031 C 
ATOM     42  C   UNL A   1      39.018  27.724  29.373  1.00  0.00     0.029 A 
ATOM     43  N   UNL A   1      39.955  29.690  29.694  1.00  0.00    -0.354 N 
ATOM     44  C   UNL A   1      44.173  30.280  27.932  1.00  0.00     0.074 A 
ATOM     45  C   UNL A   1      43.618  30.161  26.606  1.00  0.00     0.031 C 
ATOM     46  C   UNL A   1      38.039  28.552  29.811  1.00  0.00     0.029 A 
ATOM     47  C   UNL A   1      38.632  29.844  30.086  1.00  0.00     0.049 A 
ATOM     48  H   UNL A   1      40.625  30.402  29.804  1.00  0.00     0.167 HD
ATOM     49  C   UNL A   1      44.857  31.292  28.534  1.00  0.00     0.031 A 
ATOM     50  C   UNL A   1      38.083  30.952  30.644  1.00  0.00     0.031 A 
ATOM     51  C   UNL A   1      44.995  31.051  29.953  1.00  0.00     0.049 A 
ATOM     52  C   UNL A   1      39.216  31.704  31.243  1.00  0.00     0.074 A 
ATOM     53  C   UNL A   1      45.595  30.078  30.726  1.00  0.00     0.029 A 
ATOM     54  N   UNL A   1      44.057  31.659  30.759  1.00  0.00    -0.354 N 
ATOM     55  N   UNL A   1      39.941  31.227  32.220  1.00  0.00    -0.248 NA
ATOM     56  C   UNL A   1      39.862  32.726  30.435  1.00  0.00     0.031 C 
ATOM     57  C   UNL A   1      44.685  29.849  31.804  1.00  0.00     0.029 A 
ATOM     58  C   UNL A   1      43.623  30.754  31.695  1.00  0.00     0.049 A 
ATOM     59  H   UNL A   1      43.749  32.591  30.677  1.00  0.00     0.167 HD
ATOM     60  C   UNL A   1      41.251  31.547  31.886  1.00  0.00     0.074 A 
ATOM     61  C   UNL A   1      41.128  32.557  30.832  1.00  0.00     0.031 C 
ATOM     62  C   UNL A   1      42.298  30.763  32.290  1.00  0.00     0.031 A 
BRANCH  49  63
ATOM     63  C   UNL A   1      44.982  32.680  27.959  1.00  0.00    -0.014 A 
ATOM     64  C   UNL A   1      46.061  32.948  27.092  1.00  0.00     0.010 A 
ATOM     65  C   UNL A   1      44.256  33.789  28.439  1.00  0.00     0.010 A 
ATOM     66  C   UNL A   1      46.435  34.260  26.780  1.00  0.00     0.020 A 
ATOM     67  C   UNL A   1      44.596  35.101  28.103  1.00  0.00     0.020 A 
ATOM     68  C   UNL A   1      45.705  35.329  27.299  1.00  0.00     0.054 A 
BRANCH  68  69
ATOM     69  S   UNL A   1      46.250  37.020  26.960  1.00  0.00     0.124 S 
ATOM     70  O   UNL A   1      46.919  37.375  28.208  1.00  0.00    -0.237 OA
ATOM     71  O   UNL A   1      47.120  36.834  25.803  1.00  0.00    -0.237 OA
ATOM     72  O   UNL A   1      45.004  37.732  26.689  1.00  0.00    -0.744 OA
ENDBRANCH  68  69
ENDBRANCH  49  63
BRANCH  50  73
ATOM     73  C   UNL A   1      36.790  31.585  30.272  1.00  0.00    -0.014 A 
ATOM     74  C   UNL A   1      35.922  32.099  31.252  1.00  0.00     0.010 A 
ATOM     75  C   UNL A   1      36.546  31.946  28.930  1.00  0.00     0.010 A 
ATOM     76  C   UNL A   1      34.885  32.988  30.910  1.00  0.00     0.020 A 
ATOM     77  C   UNL A   1      35.518  32.833  28.581  1.00  0.00     0.020 A 
ATOM     78  C   UNL A   1      34.702  33.367  29.577  1.00  0.00     0.054 A 
BRANCH  78  79
ATOM     79  S   UNL A   1      33.471  34.642  29.165  1.00  0.00     0.124 S 
ATOM     80  O   UNL A   1      32.874  34.931  30.466  1.00  0.00    -0.237 OA
ATOM     81  O   UNL A   1      34.293  35.708  28.598  1.00  0.00    -0.237 OA
ATOM     82  O   UNL A   1      32.586  33.973  28.212  1.00  0.00    -0.744 OA
ENDBRANCH  78  79
ENDBRANCH  50  73
BRANCH  62  83
ATOM     83  C   UNL A   1      42.026  29.700  33.338  1.00  0.00    -0.014 A 
ATOM     84  C   UNL A   1      41.600  28.384  33.056  1.00  0.00     0.010 A 
ATOM     85  C   UNL A   1      42.351  30.020  34.667  1.00  0.00     0.010 A 
ATOM     86  C   UNL A   1      41.477  27.430  34.084  1.00  0.00     0.020 A 
ATOM     87  C   UNL A   1      42.245  29.074  35.689  1.00  0.00     0.020 A 
ATOM     88  C   UNL A   1      41.797  27.786  35.398  1.00  0.00     0.054 A 
BRANCH  88  89
ATOM     89  S   UNL A   1      41.653  26.557  36.729  1.00  0.00     0.124 S 
ATOM     90  O   UNL A   1      41.570  25.299  35.994  1.00  0.00    -0.237 OA
ATOM     91  O   UNL A   1      42.880  26.761  37.495  1.00  0.00    -0.237 OA
ATOM     92  O   UNL A   1      40.427  26.945  37.427  1.00  0.00    -0.744 OA
ENDBRANCH  88  89
ENDBRANCH  62  83
ENDBRANCH  36  37
ENDBRANCH  29  31
ENDBRANCH  28  29
ENDBRANCH  27  28
ENDBRANCH   1  27
TORSDOF 20
ENDMDL
MODEL 3
REMARK VINA RESULT:     -11.1      1.717      3.545
REMARK SMILES CCn1cc(C)c(C(=O)OCCOCCOC(=O)c2ccc(-c3c4nc(c(-c5ccc(S(=O)(=O)[O-])cc5)c5ccc([nH]5)c(-c5ccc(S(=O)(=O)[O-])cc5)c5nc(c(-c6ccc(S(=O)(=O)[O-])cc6)c6ccc3[nH]6)C=C5)C=C4)cc2)c1CC(=O)N1CC[NH+](C)CC1
REMARK SMILES IDX 14 1 13 2 12 3 11 4 10 5 8 6 9 7 7 8 3 9 4 10 79 11 5 12
REMARK SMILES IDX 6 13 2 14 1 15 80 16 81 17 82 18 83 19 84 20 89 21 85 22
REMARK SMILES IDX 88 23 86 24 87 25 15 27 16 28 17 29 18 30 19 31 20 32 78 33
REMARK SMILES IDX 21 34 77 35 22 36 23 37 24 38 71 39 25 40 76 41 70 42 72 43
REMARK SMILES IDX 26 44 75 45 69 46 68 47 27 49 57 50 38 51 56 52 39 53 42 54
REMARK SMILES IDX 55 55 73 56 40 57 41 58 54 60 74 61 43 62 28 63 29 64 37 65
REMARK SMILES IDX 30 66 36 67 31 68 32 69 33 70 34 71 35 72 58 73 59 74 67 75
REMARK SMILES IDX 60 76 66 77 61 78 62 79 63 80 64 81 65 82 44 83 45 84 53 85
REMARK SMILES IDX 46 86 52 87 47 88 48 89 49 90 50 91 51 92
REMARK H PARENT 86 26 72 48 42 59
REMARK Flexibility Score: inf
ROOT
ATOM      1  C   UNL A   1      36.768  21.570  25.765  1.00  0.00     0.202 C 
ENDROOT
BRANCH   1   2
ATOM      2  O   UNL A   1      35.472  22.169  25.772  1.00  0.00    -0.374 OA
BRANCH   2   3
ATOM      3  C   UNL A   1      34.751  22.089  27.007  1.00  0.00     0.202 C 
BRANCH   3   4
ATOM      4  C   UNL A   1      33.353  21.476  26.865  1.00  0.00     0.261 C 
BRANCH   4   5
ATOM      5  O   UNL A   1      32.346  22.501  26.800  1.00  0.00    -0.460 OA
BRANCH   5   6
ATOM      6  C   UNL A   1      31.473  22.423  25.756  1.00  0.00     0.340 C 
ATOM      7  O   UNL A   1      30.356  21.925  25.833  1.00  0.00    -0.246 OA
BRANCH   6   8
ATOM      8  C   UNL A   1      31.961  23.101  24.546  1.00  0.00     0.084 A 
ATOM      9  N   UNL A   1      32.460  24.640  22.997  1.00  0.00    -0.350 N 
ATOM     10  C   UNL A   1      32.993  23.451  22.565  1.00  0.00     0.090 A 
ATOM     11  C   UNL A   1      31.716  24.419  24.138  1.00  0.00     0.042 A 
ATOM     12  C   UNL A   1      32.687  22.468  23.479  1.00  0.00    -0.019 A 
ATOM     13  C   UNL A   1      32.978  21.016  23.317  1.00  0.00     0.047 C 
BRANCH   9  14
ATOM     14  C   UNL A   1      32.639  25.884  22.258  1.00  0.00     0.118 C 
ATOM     15  C   UNL A   1      31.864  25.953  20.948  1.00  0.00     0.027 C 
ENDBRANCH   9  14
BRANCH  11  16
ATOM     16  C   UNL A   1      30.800  25.451  24.753  1.00  0.00     0.155 C 
BRANCH  16  17
ATOM     17  C   UNL A   1      31.430  26.050  26.009  1.00  0.00     0.228 C 
ATOM     18  O   UNL A   1      31.403  25.446  27.086  1.00  0.00    -0.274 OA
ATOM     19  N   UNL A   1      32.043  27.295  25.893  1.00  0.00    -0.331 N 
ATOM     20  C   UNL A   1      32.817  27.757  27.033  1.00  0.00     0.181 C 
ATOM     21  C   UNL A   1      31.710  28.325  24.911  1.00  0.00     0.181 C 
ATOM     22  C   UNL A   1      33.991  28.670  26.664  1.00  0.00     0.283 C 
ATOM     23  C   UNL A   1      32.902  29.259  24.603  1.00  0.00     0.283 C 
ATOM     24  N   UNL A   1      33.632  29.786  25.774  1.00  0.00    -0.334 N 
ATOM     25  C   UNL A   1      32.870  30.801  26.501  1.00  0.00     0.332 C 
ATOM     26  H   UNL A   1      34.475  30.247  25.434  1.00  0.00     0.347 HD
ENDBRANCH  16  17
ENDBRANCH  11  16
ENDBRANCH   6   8
ENDBRANCH   5   6
ENDBRANCH   4   5
ENDBRANCH   3   4
ENDBRANCH   2   3
ENDBRANCH   1   2
BRANCH   1  27
ATOM     27  C   UNL A   1      37.894  22.502  25.373  1.00  0.00     0.261 C 
BRANCH  27  28
ATOM     28  O   UNL A   1      38.461  23.030  26.552  1.00  0.00    -0.460 OA
BRANCH  28  29
ATOM     29  C   UNL A   1      39.736  22.765  26.871  1.00  0.00     0.338 C 
ATOM     30  O   UNL A   1      40.310  21.691  26.892  1.00  0.00    -0.246 OA
BRANCH  29  31
ATOM     31  C   UNL A   1      40.275  24.075  27.263  1.00  0.00     0.060 A 
ATOM     32  C   UNL A   1      41.190  24.201  28.308  1.00  0.00     0.016 A 
ATOM     33  C   UNL A   1      39.785  25.206  26.580  1.00  0.00     0.016 A 
ATOM     34  C   UNL A   1      41.487  25.478  28.758  1.00  0.00     0.010 A 
ATOM     35  C   UNL A   1      40.186  26.451  26.931  1.00  0.00     0.010 A 
ATOM     36  C   UNL A   1      40.900  26.570  28.103  1.00  0.00    -0.014 A 
BRANCH  36  37
ATOM     37  C   UNL A   1      40.927  27.905  28.639  1.00  0.00     0.031 A 
ATOM     38  C   UNL A   1      42.024  28.731  28.113  1.00  0.00     0.074 A 
ATOM     39  C   UNL A   1      39.894  28.351  29.387  1.00  0.00     0.049 A 
ATOM     40  N   UNL A   1      43.171  28.916  28.672  1.00  0.00    -0.248 NA
ATOM     41  C   UNL A   1      41.949  29.220  26.728  1.00  0.00     0.031 C 
ATOM     42  C   UNL A   1      38.617  27.689  29.711  1.00  0.00     0.029 A 
ATOM     43  N   UNL A   1      39.739  29.565  29.958  1.00  0.00    -0.354 N 
ATOM     44  C   UNL A   1      43.832  29.817  27.856  1.00  0.00     0.074 A 
ATOM     45  C   UNL A   1      43.163  29.759  26.580  1.00  0.00     0.031 C 
ATOM     46  C   UNL A   1      37.750  28.591  30.230  1.00  0.00     0.029 A 
ATOM     47  C   UNL A   1      38.471  29.826  30.459  1.00  0.00     0.049 A 
ATOM     48  H   UNL A   1      40.474  30.218  30.015  1.00  0.00     0.167 HD
ATOM     49  C   UNL A   1      44.647  30.763  28.402  1.00  0.00     0.031 A 
ATOM     50  C   UNL A   1      38.064  30.970  31.064  1.00  0.00     0.031 A 
ATOM     51  C   UNL A   1      44.880  30.497  29.804  1.00  0.00     0.049 A 
ATOM     52  C   UNL A   1      39.301  31.619  31.569  1.00  0.00     0.074 A 
ATOM     53  C   UNL A   1      45.457  29.470  30.522  1.00  0.00     0.029 A 
ATOM     54  N   UNL A   1      44.066  31.174  30.687  1.00  0.00    -0.354 N 
ATOM     55  N   UNL A   1      40.062  31.073  32.481  1.00  0.00    -0.248 NA
ATOM     56  C   UNL A   1      39.963  32.591  30.713  1.00  0.00     0.031 C 
ATOM     57  C   UNL A   1      44.623  29.307  31.670  1.00  0.00     0.029 A 
ATOM     58  C   UNL A   1      43.636  30.299  31.652  1.00  0.00     0.049 A 
ATOM     59  H   UNL A   1      43.832  32.129  30.633  1.00  0.00     0.167 HD
ATOM     60  C   UNL A   1      41.363  31.286  32.041  1.00  0.00     0.074 A 
ATOM     61  C   UNL A   1      41.239  32.313  31.004  1.00  0.00     0.031 C 
ATOM     62  C   UNL A   1      42.370  30.413  32.355  1.00  0.00     0.031 A 
BRANCH  49  63
ATOM     63  C   UNL A   1      44.841  32.142  27.822  1.00  0.00    -0.014 A 
ATOM     64  C   UNL A   1      46.120  32.727  27.908  1.00  0.00     0.010 A 
ATOM     65  C   UNL A   1      43.774  32.985  27.448  1.00  0.00     0.010 A 
ATOM     66  C   UNL A   1      46.308  34.098  27.699  1.00  0.00     0.020 A 
ATOM     67  C   UNL A   1      43.958  34.347  27.199  1.00  0.00     0.020 A 
ATOM     68  C   UNL A   1      45.220  34.900  27.356  1.00  0.00     0.054 A 
BRANCH  68  69
ATOM     69  S   UNL A   1      45.460  36.684  27.174  1.00  0.00     0.124 S 
ATOM     70  O   UNL A   1      45.990  37.050  28.484  1.00  0.00    -0.237 OA
ATOM     71  O   UNL A   1      46.406  36.753  26.064  1.00  0.00    -0.237 OA
ATOM     72  O   UNL A   1      44.119  37.180  26.876  1.00  0.00    -0.744 OA
ENDBRANCH  68  69
ENDBRANCH  49  63
BRANCH  50  73
ATOM     73  C   UNL A   1      36.803  31.713  30.802  1.00  0.00    -0.014 A 
ATOM     74  C   UNL A   1      36.482  32.879  31.519  1.00  0.00     0.010 A 
ATOM     75  C   UNL A   1      36.054  31.434  29.639  1.00  0.00     0.010 A 
ATOM     76  C   UNL A   1      35.489  33.765  31.059  1.00  0.00     0.020 A 
ATOM     77  C   UNL A   1      35.066  32.312  29.172  1.00  0.00     0.020 A 
ATOM     78  C   UNL A   1      34.801  33.487  29.874  1.00  0.00     0.054 A 
BRANCH  78  79
ATOM     79  S   UNL A   1      33.640  34.715  29.198  1.00  0.00     0.124 S 
ATOM     80  O   UNL A   1      32.846  33.915  28.269  1.00  0.00    -0.237 OA
ATOM     81  O   UNL A   1      32.937  35.179  30.390  1.00  0.00    -0.237 OA
ATOM     82  O   UNL A   1      34.513  35.707  28.571  1.00  0.00    -0.744 OA
ENDBRANCH  78  79
ENDBRANCH  50  73
BRANCH  62  83
ATOM     83  C   UNL A   1      42.096  29.367  33.419  1.00  0.00    -0.014 A 
ATOM     84  C   UNL A   1      41.573  28.080  33.165  1.00  0.00     0.010 A 
ATOM     85  C   UNL A   1      42.520  29.662  34.726  1.00  0.00     0.010 A 
ATOM     86  C   UNL A   1      41.454  27.133  34.199  1.00  0.00     0.020 A 
ATOM     87  C   UNL A   1      42.418  28.722  35.753  1.00  0.00     0.020 A 
ATOM     88  C   UNL A   1      41.874  27.465  35.491  1.00  0.00     0.054 A 
BRANCH  88  89
ATOM     89  S   UNL A   1      41.734  26.244  36.830  1.00  0.00     0.124 S 
ATOM     90  O   UNL A   1      40.408  26.521  37.376  1.00  0.00    -0.237 OA
ATOM     91  O   UNL A   1      41.873  24.971  36.127  1.00  0.00    -0.237 OA
ATOM     92  O   UNL A   1      42.848  26.575  37.719  1.00  0.00    -0.744 OA
ENDBRANCH  88  89
ENDBRANCH  62  83
ENDBRANCH  36  37
ENDBRANCH  29  31
ENDBRANCH  28  29
ENDBRANCH  27  28
ENDBRANCH   1  27
TORSDOF 20
ENDMDL
