MODEL 1
REMARK VINA RESULT:      -9.3      0.000      0.000
REMARK SMILES NC(=O)C[NH+]1CCC([NH2+]Cc2cc(C(=O)OCCOCCOC(=O)c3ccc(-c4c5nc(c(-c6ccc(S(=O)(=O)[O-])cc6)c6ccc([nH]6)c(-c6ccc(S(=O)(=O)[O-])cc6)c6nc(c(-c7ccc(S(=O)(=O)[O-])cc7)c7ccc4[nH]7)C=C6)C=C5)cc3)cs2)CC1
REMARK SMILES IDX 18 1 17 2 16 3 14 4 15 5 13 6 11 7 12 8 86 9 85 10 10 11
REMARK SMILES IDX 9 12 8 15 5 16 6 17 88 18 7 20 87 21 4 22 2 23 1 24 3 27
REMARK SMILES IDX 19 28 20 29 21 30 22 31 23 32 24 33 25 34 26 35 84 36 27 37
REMARK SMILES IDX 83 38 28 39 29 40 30 41 77 42 31 43 82 44 76 45 78 46 32 47
REMARK SMILES IDX 81 48 75 49 74 50 33 52 63 53 44 54 62 55 45 56 48 57 61 58
REMARK SMILES IDX 79 59 46 60 47 61 60 63 80 64 49 65 34 66 35 67 43 68 36 69
REMARK SMILES IDX 42 70 37 71 38 72 39 73 40 74 41 75 64 76 65 77 73 78 66 79
REMARK SMILES IDX 72 80 67 81 68 82 69 83 70 84 71 85 50 86 51 87 59 88 52 89
REMARK SMILES IDX 58 90 53 91 54 92 55 93 56 94 57 95
REMARK H PARENT 9 13 9 14 5 19 1 25 1 26 78 51 48 62
REMARK Flexibility Score: inf
ROOT
ATOM      1  C   UNL A   1      43.403  19.812  25.441  1.00  0.00     0.202 C 
ENDROOT
BRANCH   1   2
ATOM      2  C   UNL A   1      42.304  19.413  26.425  1.00  0.00     0.261 C 
BRANCH   2   3
ATOM      3  O   UNL A   1      41.046  20.011  26.078  1.00  0.00    -0.460 OA
BRANCH   3   4
ATOM      4  C   UNL A   1      40.648  21.030  26.891  1.00  0.00     0.339 C 
ATOM      5  O   UNL A   1      41.188  21.328  27.951  1.00  0.00    -0.246 OA
BRANCH   4   6
ATOM      6  C   UNL A   1      39.499  21.768  26.370  1.00  0.00     0.071 A 
ATOM      7  C   UNL A   1      37.511  22.289  25.212  1.00  0.00     0.060 A 
ATOM      8  C   UNL A   1      38.414  21.293  25.550  1.00  0.00     0.037 A 
ATOM      9  S   UNL A   1      37.887  23.751  26.039  1.00  0.00    -0.142 S 
ATOM     10  C   UNL A   1      39.352  23.118  26.624  1.00  0.00     0.081 A 
BRANCH   7  11
ATOM     11  C   UNL A   1      36.304  22.193  24.305  1.00  0.00     0.308 C 
BRANCH  11  12
ATOM     12  N   UNL A   1      36.085  23.377  23.468  1.00  0.00    -0.339 N 
ATOM     13  H   UNL A   1      36.631  24.142  23.866  1.00  0.00     0.346 HD
ATOM     14  H   UNL A   1      36.363  23.091  22.529  1.00  0.00     0.346 HD
BRANCH  12  15
ATOM     15  C   UNL A   1      34.698  23.851  23.325  1.00  0.00     0.194 C 
ATOM     16  N   UNL A   1      32.118  24.442  24.638  1.00  0.00    -0.327 N 
ATOM     17  C   UNL A   1      32.304  23.166  23.918  1.00  0.00     0.268 C 
ATOM     18  C   UNL A   1      32.873  25.494  23.939  1.00  0.00     0.268 C 
ATOM     19  H   UNL A   1      32.473  24.391  25.593  1.00  0.00     0.348 HD
ATOM     20  C   UNL A   1      33.774  22.744  23.865  1.00  0.00     0.126 C 
ATOM     21  C   UNL A   1      34.365  25.180  24.012  1.00  0.00     0.126 C 
BRANCH  16  22
ATOM     22  C   UNL A   1      30.663  24.739  24.716  1.00  0.00     0.363 C 
BRANCH  22  23
ATOM     23  C   UNL A   1      30.183  25.068  26.131  1.00  0.00     0.272 C 
ATOM     24  N   UNL A   1      29.484  24.084  26.770  1.00  0.00    -0.365 N 
ATOM     25  H   UNL A   1      29.147  24.234  27.683  1.00  0.00     0.159 HD
ATOM     26  H   UNL A   1      29.318  23.225  26.318  1.00  0.00     0.159 HD
ATOM     27  O   UNL A   1      30.368  26.156  26.665  1.00  0.00    -0.269 OA
ENDBRANCH  22  23
ENDBRANCH  16  22
ENDBRANCH  12  15
ENDBRANCH  11  12
ENDBRANCH   7  11
ENDBRANCH   4   6
ENDBRANCH   3   4
ENDBRANCH   2   3
ENDBRANCH   1   2
BRANCH   1  28
ATOM     28  O   UNL A   1      44.289  20.829  25.904  1.00  0.00    -0.374 OA
BRANCH  28  29
ATOM     29  C   UNL A   1      43.960  22.172  25.535  1.00  0.00     0.202 C 
BRANCH  29  30
ATOM     30  C   UNL A   1      44.250  23.234  26.605  1.00  0.00     0.261 C 
BRANCH  30  31
ATOM     31  O   UNL A   1      43.065  23.994  26.917  1.00  0.00    -0.460 OA
BRANCH  31  32
ATOM     32  C   UNL A   1      43.062  25.276  26.474  1.00  0.00     0.338 C 
ATOM     33  O   UNL A   1      43.274  25.663  25.339  1.00  0.00    -0.246 OA
BRANCH  32  34
ATOM     34  C   UNL A   1      42.541  26.157  27.541  1.00  0.00     0.060 A 
ATOM     35  C   UNL A   1      43.241  27.342  27.804  1.00  0.00     0.016 A 
ATOM     36  C   UNL A   1      41.408  25.824  28.286  1.00  0.00     0.016 A 
ATOM     37  C   UNL A   1      42.827  28.186  28.835  1.00  0.00     0.010 A 
ATOM     38  C   UNL A   1      41.002  26.664  29.327  1.00  0.00     0.010 A 
ATOM     39  C   UNL A   1      41.722  27.836  29.623  1.00  0.00    -0.014 A 
BRANCH  39  40
ATOM     40  C   UNL A   1      41.391  28.628  30.831  1.00  0.00     0.031 A 
ATOM     41  C   UNL A   1      40.247  29.600  30.774  1.00  0.00     0.074 A 
ATOM     42  C   UNL A   1      42.101  28.483  31.966  1.00  0.00     0.049 A 
ATOM     43  N   UNL A   1      39.827  30.438  31.686  1.00  0.00    -0.248 NA
ATOM     44  C   UNL A   1      39.473  29.633  29.522  1.00  0.00     0.031 C 
ATOM     45  C   UNL A   1      43.202  27.541  32.160  1.00  0.00     0.029 A 
ATOM     46  N   UNL A   1      42.003  29.140  33.166  1.00  0.00    -0.354 N 
ATOM     47  C   UNL A   1      38.748  31.104  31.118  1.00  0.00     0.074 A 
ATOM     48  C   UNL A   1      38.591  30.589  29.775  1.00  0.00     0.031 C 
ATOM     49  C   UNL A   1      43.688  27.691  33.405  1.00  0.00     0.029 A 
ATOM     50  C   UNL A   1      42.958  28.762  34.080  1.00  0.00     0.049 A 
ATOM     51  H   UNL A   1      41.314  29.818  33.356  1.00  0.00     0.167 HD
ATOM     52  C   UNL A   1      37.958  32.058  31.666  1.00  0.00     0.031 A 
ATOM     53  C   UNL A   1      43.230  29.246  35.309  1.00  0.00     0.031 A 
ATOM     54  C   UNL A   1      38.127  32.581  32.995  1.00  0.00     0.049 A 
ATOM     55  C   UNL A   1      42.393  30.367  35.865  1.00  0.00     0.074 A 
ATOM     56  C   UNL A   1      37.368  33.538  33.645  1.00  0.00     0.029 A 
ATOM     57  N   UNL A   1      39.129  32.201  33.874  1.00  0.00    -0.354 N 
ATOM     58  N   UNL A   1      41.361  30.972  35.324  1.00  0.00    -0.248 NA
ATOM     59  C   UNL A   1      42.757  30.873  37.197  1.00  0.00     0.031 C 
ATOM     60  C   UNL A   1      37.945  33.777  34.897  1.00  0.00     0.029 A 
ATOM     61  C   UNL A   1      39.029  32.927  35.049  1.00  0.00     0.049 A 
ATOM     62  H   UNL A   1      39.812  31.516  33.690  1.00  0.00     0.167 HD
ATOM     63  C   UNL A   1      40.940  31.912  36.259  1.00  0.00     0.074 A 
ATOM     64  C   UNL A   1      41.820  31.790  37.403  1.00  0.00     0.031 C 
ATOM     65  C   UNL A   1      39.914  32.796  36.178  1.00  0.00     0.031 A 
BRANCH  52  66
ATOM     66  C   UNL A   1      36.859  32.626  30.808  1.00  0.00    -0.014 A 
ATOM     67  C   UNL A   1      35.566  32.076  30.823  1.00  0.00     0.010 A 
ATOM     68  C   UNL A   1      37.118  33.748  29.999  1.00  0.00     0.010 A 
ATOM     69  C   UNL A   1      34.560  32.613  30.014  1.00  0.00     0.020 A 
ATOM     70  C   UNL A   1      36.109  34.304  29.209  1.00  0.00     0.020 A 
ATOM     71  C   UNL A   1      34.840  33.722  29.209  1.00  0.00     0.054 A 
BRANCH  71  72
ATOM     72  S   UNL A   1      33.512  34.410  28.182  1.00  0.00     0.124 S 
ATOM     73  O   UNL A   1      32.900  33.202  27.635  1.00  0.00    -0.237 OA
ATOM     74  O   UNL A   1      32.701  35.140  29.153  1.00  0.00    -0.237 OA
ATOM     75  O   UNL A   1      34.220  35.243  27.212  1.00  0.00    -0.744 OA
ENDBRANCH  71  72
ENDBRANCH  52  66
BRANCH  53  76
ATOM     76  C   UNL A   1      44.371  28.691  36.088  1.00  0.00    -0.014 A 
ATOM     77  C   UNL A   1      45.557  29.427  36.246  1.00  0.00     0.010 A 
ATOM     78  C   UNL A   1      44.272  27.417  36.679  1.00  0.00     0.010 A 
ATOM     79  C   UNL A   1      46.628  28.896  36.973  1.00  0.00     0.020 A 
ATOM     80  C   UNL A   1      45.329  26.895  37.428  1.00  0.00     0.020 A 
ATOM     81  C   UNL A   1      46.505  27.634  37.561  1.00  0.00     0.054 A 
BRANCH  81  82
ATOM     82  S   UNL A   1      47.885  26.990  38.549  1.00  0.00     0.124 S 
ATOM     83  O   UNL A   1      47.770  25.552  38.328  1.00  0.00    -0.237 OA
ATOM     84  O   UNL A   1      49.041  27.637  37.935  1.00  0.00    -0.237 OA
ATOM     85  O   UNL A   1      47.575  27.444  39.903  1.00  0.00    -0.744 OA
ENDBRANCH  81  82
ENDBRANCH  53  76
BRANCH  65  86
ATOM     86  C   UNL A   1      39.666  33.688  37.365  1.00  0.00    -0.014 A 
ATOM     87  C   UNL A   1      38.840  33.274  38.424  1.00  0.00     0.010 A 
ATOM     88  C   UNL A   1      40.329  34.926  37.454  1.00  0.00     0.010 A 
ATOM     89  C   UNL A   1      38.665  34.093  39.544  1.00  0.00     0.020 A 
ATOM     90  C   UNL A   1      40.178  35.735  38.583  1.00  0.00     0.020 A 
ATOM     91  C   UNL A   1      39.337  35.318  39.617  1.00  0.00     0.054 A 
BRANCH  91  92
ATOM     92  S   UNL A   1      39.144  36.334  41.108  1.00  0.00     0.124 S 
ATOM     93  O   UNL A   1      38.042  35.662  41.792  1.00  0.00    -0.237 OA
ATOM     94  O   UNL A   1      40.450  36.212  41.752  1.00  0.00    -0.237 OA
ATOM     95  O   UNL A   1      38.836  37.662  40.585  1.00  0.00    -0.744 OA
ENDBRANCH  91  92
ENDBRANCH  65  86
ENDBRANCH  39  40
ENDBRANCH  32  34
ENDBRANCH  31  32
ENDBRANCH  30  31
ENDBRANCH  29  30
ENDBRANCH  28  29
ENDBRANCH   1  28
TORSDOF 22
ENDMDL
MODEL 2
REMARK VINA RESULT:      -9.3      1.564      8.382
REMARK SMILES NC(=O)C[NH+]1CCC([NH2+]Cc2cc(C(=O)OCCOCCOC(=O)c3ccc(-c4c5nc(c(-c6ccc(S(=O)(=O)[O-])cc6)c6ccc([nH]6)c(-c6ccc(S(=O)(=O)[O-])cc6)c6nc(c(-c7ccc(S(=O)(=O)[O-])cc7)c7ccc4[nH]7)C=C6)C=C5)cc3)cs2)CC1
REMARK SMILES IDX 18 1 17 2 16 3 14 4 15 5 13 6 11 7 12 8 86 9 85 10 10 11
REMARK SMILES IDX 9 12 8 15 5 16 6 17 88 18 7 20 87 21 4 22 2 23 1 24 3 27
REMARK SMILES IDX 19 28 20 29 21 30 22 31 23 32 24 33 25 34 26 35 84 36 27 37
REMARK SMILES IDX 83 38 28 39 29 40 30 41 77 42 31 43 82 44 76 45 78 46 32 47
REMARK SMILES IDX 81 48 75 49 74 50 33 52 63 53 44 54 62 55 45 56 48 57 61 58
REMARK SMILES IDX 79 59 46 60 47 61 60 63 80 64 49 65 34 66 35 67 43 68 36 69
REMARK SMILES IDX 42 70 37 71 38 72 39 73 40 74 41 75 64 76 65 77 73 78 66 79
REMARK SMILES IDX 72 80 67 81 68 82 69 83 70 84 71 85 50 86 51 87 59 88 52 89
REMARK SMILES IDX 58 90 53 91 54 92 55 93 56 94 57 95
REMARK H PARENT 9 13 9 14 5 19 1 25 1 26 78 51 48 62
REMARK Flexibility Score: inf
ROOT
ATOM      1  C   UNL A   1      39.709  20.999  26.143  1.00  0.00     0.202 C 
ENDROOT
BRANCH   1   2
ATOM      2  C   UNL A   1      38.528  21.923  25.850  1.00  0.00     0.261 C 
BRANCH   2   3
ATOM      3  O   UNL A   1      37.576  21.296  24.977  1.00  0.00    -0.460 OA
BRANCH   3   4
ATOM      4  C   UNL A   1      36.771  22.156  24.291  1.00  0.00     0.339 C 
ATOM      5  O   UNL A   1      37.168  22.994  23.488  1.00  0.00    -0.246 OA
BRANCH   4   6
ATOM      6  C   UNL A   1      35.351  21.982  24.593  1.00  0.00     0.071 A 
ATOM      7  C   UNL A   1      33.000  22.082  24.435  1.00  0.00     0.060 A 
ATOM      8  C   UNL A   1      34.205  22.377  23.816  1.00  0.00     0.037 A 
ATOM      9  S   UNL A   1      33.265  21.166  25.867  1.00  0.00    -0.142 S 
ATOM     10  C   UNL A   1      34.948  21.387  25.773  1.00  0.00     0.081 A 
BRANCH   7  11
ATOM     11  C   UNL A   1      31.600  22.417  23.971  1.00  0.00     0.308 C 
BRANCH  11  12
ATOM     12  N   UNL A   1      31.545  23.410  22.892  1.00  0.00    -0.339 N 
ATOM     13  H   UNL A   1      32.430  23.364  22.386  1.00  0.00     0.346 HD
ATOM     14  H   UNL A   1      30.721  23.160  22.345  1.00  0.00     0.346 HD
BRANCH  12  15
ATOM     15  C   UNL A   1      31.330  24.814  23.281  1.00  0.00     0.194 C 
ATOM     16  N   UNL A   1      31.815  26.954  25.260  1.00  0.00    -0.327 N 
ATOM     17  C   UNL A   1      30.537  26.214  25.272  1.00  0.00     0.268 C 
ATOM     18  C   UNL A   1      32.269  27.091  23.867  1.00  0.00     0.268 C 
ATOM     19  H   UNL A   1      32.542  26.458  25.774  1.00  0.00     0.348 HD
ATOM     20  C   UNL A   1      30.679  24.811  24.677  1.00  0.00     0.126 C 
ATOM     21  C   UNL A   1      32.574  25.707  23.296  1.00  0.00     0.126 C 
BRANCH  16  22
ATOM     22  C   UNL A   1      31.612  28.268  25.926  1.00  0.00     0.363 C 
BRANCH  22  23
ATOM     23  C   UNL A   1      32.894  28.855  26.520  1.00  0.00     0.272 C 
ATOM     24  N   UNL A   1      33.029  28.752  27.875  1.00  0.00    -0.365 N 
ATOM     25  H   UNL A   1      33.831  29.112  28.317  1.00  0.00     0.159 HD
ATOM     26  H   UNL A   1      32.323  28.319  28.408  1.00  0.00     0.159 HD
ATOM     27  O   UNL A   1      33.745  29.424  25.844  1.00  0.00    -0.269 OA
ENDBRANCH  22  23
ENDBRANCH  16  22
ENDBRANCH  12  15
ENDBRANCH  11  12
ENDBRANCH   7  11
ENDBRANCH   4   6
ENDBRANCH   3   4
ENDBRANCH   2   3
ENDBRANCH   1   2
BRANCH   1  28
ATOM     28  O   UNL A   1      40.483  21.351  27.288  1.00  0.00    -0.374 OA
BRANCH  28  29
ATOM     29  C   UNL A   1      41.875  21.596  27.062  1.00  0.00     0.202 C 
BRANCH  29  30
ATOM     30  C   UNL A   1      42.188  22.603  25.945  1.00  0.00     0.261 C 
BRANCH  30  31
ATOM     31  O   UNL A   1      41.672  23.910  26.264  1.00  0.00    -0.460 OA
BRANCH  31  32
ATOM     32  C   UNL A   1      42.599  24.895  26.357  1.00  0.00     0.338 C 
ATOM     33  O   UNL A   1      43.567  25.066  25.636  1.00  0.00    -0.246 OA
BRANCH  32  34
ATOM     34  C   UNL A   1      42.151  25.893  27.351  1.00  0.00     0.060 A 
ATOM     35  C   UNL A   1      42.864  27.097  27.431  1.00  0.00     0.016 A 
ATOM     36  C   UNL A   1      41.074  25.651  28.206  1.00  0.00     0.016 A 
ATOM     37  C   UNL A   1      42.519  28.052  28.387  1.00  0.00     0.010 A 
ATOM     38  C   UNL A   1      40.738  26.604  29.172  1.00  0.00     0.010 A 
ATOM     39  C   UNL A   1      41.473  27.798  29.283  1.00  0.00    -0.014 A 
BRANCH  39  40
ATOM     40  C   UNL A   1      41.224  28.722  30.416  1.00  0.00     0.031 A 
ATOM     41  C   UNL A   1      42.069  28.602  31.653  1.00  0.00     0.074 A 
ATOM     42  C   UNL A   1      40.258  29.656  30.343  1.00  0.00     0.049 A 
ATOM     43  N   UNL A   1      41.981  29.257  32.781  1.00  0.00    -0.248 NA
ATOM     44  C   UNL A   1      43.157  27.610  31.614  1.00  0.00     0.031 C 
ATOM     45  C   UNL A   1      39.405  29.902  29.182  1.00  0.00     0.029 A 
ATOM     46  N   UNL A   1      39.828  30.565  31.277  1.00  0.00    -0.354 N 
ATOM     47  C   UNL A   1      42.994  28.754  33.589  1.00  0.00     0.074 A 
ATOM     48  C   UNL A   1      43.669  27.723  32.831  1.00  0.00     0.031 C 
ATOM     49  C   UNL A   1      38.542  30.890  29.479  1.00  0.00     0.029 A 
ATOM     50  C   UNL A   1      38.757  31.319  30.859  1.00  0.00     0.049 A 
ATOM     51  H   UNL A   1      40.247  30.669  32.162  1.00  0.00     0.167 HD
ATOM     52  C   UNL A   1      43.331  29.118  34.849  1.00  0.00     0.031 A 
ATOM     53  C   UNL A   1      38.018  32.230  31.523  1.00  0.00     0.031 A 
ATOM     54  C   UNL A   1      42.647  30.131  35.608  1.00  0.00     0.049 A 
ATOM     55  C   UNL A   1      38.357  32.557  32.953  1.00  0.00     0.074 A 
ATOM     56  C   UNL A   1      42.925  30.581  36.887  1.00  0.00     0.029 A 
ATOM     57  N   UNL A   1      41.545  30.843  35.164  1.00  0.00    -0.354 N 
ATOM     58  N   UNL A   1      39.332  32.088  33.697  1.00  0.00    -0.248 NA
ATOM     59  C   UNL A   1      37.497  33.535  33.635  1.00  0.00     0.031 C 
ATOM     60  C   UNL A   1      41.955  31.526  37.237  1.00  0.00     0.029 A 
ATOM     61  C   UNL A   1      41.108  31.706  36.154  1.00  0.00     0.049 A 
ATOM     62  H   UNL A   1      41.131  30.748  34.275  1.00  0.00     0.167 HD
ATOM     63  C   UNL A   1      39.215  32.732  34.925  1.00  0.00     0.074 A 
ATOM     64  C   UNL A   1      38.083  33.630  34.822  1.00  0.00     0.031 C 
ATOM     65  C   UNL A   1      39.978  32.592  36.038  1.00  0.00     0.031 A 
BRANCH  52  66
ATOM     66  C   UNL A   1      44.473  28.384  35.501  1.00  0.00    -0.014 A 
ATOM     67  C   UNL A   1      44.241  27.362  36.438  1.00  0.00     0.010 A 
ATOM     68  C   UNL A   1      45.796  28.701  35.145  1.00  0.00     0.010 A 
ATOM     69  C   UNL A   1      45.313  26.696  37.037  1.00  0.00     0.020 A 
ATOM     70  C   UNL A   1      46.871  28.020  35.723  1.00  0.00     0.020 A 
ATOM     71  C   UNL A   1      46.623  27.033  36.679  1.00  0.00     0.054 A 
BRANCH  71  72
ATOM     72  S   UNL A   1      47.996  26.142  37.459  1.00  0.00     0.124 S 
ATOM     73  O   UNL A   1      47.565  24.753  37.328  1.00  0.00    -0.237 OA
ATOM     74  O   UNL A   1      49.138  26.525  36.633  1.00  0.00    -0.237 OA
ATOM     75  O   UNL A   1      48.016  26.661  38.825  1.00  0.00    -0.744 OA
ENDBRANCH  71  72
ENDBRANCH  52  66
BRANCH  53  76
ATOM     76  C   UNL A   1      36.859  32.877  30.850  1.00  0.00    -0.014 A 
ATOM     77  C   UNL A   1      37.056  33.904  29.911  1.00  0.00     0.010 A 
ATOM     78  C   UNL A   1      35.547  32.464  31.146  1.00  0.00     0.010 A 
ATOM     79  C   UNL A   1      35.962  34.513  29.288  1.00  0.00     0.020 A 
ATOM     80  C   UNL A   1      34.453  33.052  30.506  1.00  0.00     0.020 A 
ATOM     81  C   UNL A   1      34.667  34.080  29.588  1.00  0.00     0.054 A 
BRANCH  81  82
ATOM     82  S   UNL A   1      33.265  34.844  28.725  1.00  0.00     0.124 S 
ATOM     83  O   UNL A   1      32.769  33.737  27.914  1.00  0.00    -0.237 OA
ATOM     84  O   UNL A   1      32.403  35.258  29.829  1.00  0.00    -0.237 OA
ATOM     85  O   UNL A   1      33.880  35.941  27.981  1.00  0.00    -0.744 OA
ENDBRANCH  81  82
ENDBRANCH  53  76
BRANCH  65  86
ATOM     86  C   UNL A   1      39.636  33.446  37.230  1.00  0.00    -0.014 A 
ATOM     87  C   UNL A   1      38.830  32.952  38.270  1.00  0.00     0.010 A 
ATOM     88  C   UNL A   1      40.192  34.734  37.344  1.00  0.00     0.010 A 
ATOM     89  C   UNL A   1      38.569  33.739  39.396  1.00  0.00     0.020 A 
ATOM     90  C   UNL A   1      39.955  35.513  38.479  1.00  0.00     0.020 A 
ATOM     91  C   UNL A   1      39.135  35.015  39.494  1.00  0.00     0.054 A 
BRANCH  91  92
ATOM     92  S   UNL A   1      38.832  35.993  40.992  1.00  0.00     0.124 S 
ATOM     93  O   UNL A   1      40.088  35.830  41.719  1.00  0.00    -0.237 OA
ATOM     94  O   UNL A   1      38.584  37.330  40.458  1.00  0.00    -0.237 OA
ATOM     95  O   UNL A   1      37.672  35.347  41.599  1.00  0.00    -0.744 OA
ENDBRANCH  91  92
ENDBRANCH  65  86
ENDBRANCH  39  40
ENDBRANCH  32  34
ENDBRANCH  31  32
ENDBRANCH  30  31
ENDBRANCH  29  30
ENDBRANCH  28  29
ENDBRANCH   1  28
TORSDOF 22
ENDMDL
MODEL 3
REMARK VINA RESULT:      -8.3      6.147     11.424
REMARK SMILES NC(=O)C[NH+]1CCC([NH2+]Cc2cc(C(=O)OCCOCCOC(=O)c3ccc(-c4c5nc(c(-c6ccc(S(=O)(=O)[O-])cc6)c6ccc([nH]6)c(-c6ccc(S(=O)(=O)[O-])cc6)c6nc(c(-c7ccc(S(=O)(=O)[O-])cc7)c7ccc4[nH]7)C=C6)C=C5)cc3)cs2)CC1
REMARK SMILES IDX 18 1 17 2 16 3 14 4 15 5 13 6 11 7 12 8 86 9 85 10 10 11
REMARK SMILES IDX 9 12 8 15 5 16 6 17 88 18 7 20 87 21 4 22 2 23 1 24 3 27
REMARK SMILES IDX 19 28 20 29 21 30 22 31 23 32 24 33 25 34 26 35 84 36 27 37
REMARK SMILES IDX 83 38 28 39 29 40 30 41 77 42 31 43 82 44 76 45 78 46 32 47
REMARK SMILES IDX 81 48 75 49 74 50 33 52 63 53 44 54 62 55 45 56 48 57 61 58
REMARK SMILES IDX 79 59 46 60 47 61 60 63 80 64 49 65 34 66 35 67 43 68 36 69
REMARK SMILES IDX 42 70 37 71 38 72 39 73 40 74 41 75 64 76 65 77 73 78 66 79
REMARK SMILES IDX 72 80 67 81 68 82 69 83 70 84 71 85 50 86 51 87 59 88 52 89
REMARK SMILES IDX 58 90 53 91 54 92 55 93 56 94 57 95
REMARK H PARENT 9 13 9 14 5 19 1 25 1 26 78 51 48 62
REMARK Flexibility Score: inf
ROOT
ATOM      1  C   UNL A   1      37.133  32.771  34.542  1.00  0.00     0.202 C 
ENDROOT
BRANCH   1   2
ATOM      2  C   UNL A   1      37.570  31.377  34.097  1.00  0.00     0.261 C 
BRANCH   2   3
ATOM      3  O   UNL A   1      36.767  30.898  33.007  1.00  0.00    -0.460 OA
BRANCH   3   4
ATOM      4  C   UNL A   1      37.109  29.665  32.538  1.00  0.00     0.339 C 
ATOM      5  O   UNL A   1      37.445  28.719  33.242  1.00  0.00    -0.246 OA
BRANCH   4   6
ATOM      6  C   UNL A   1      37.028  29.560  31.082  1.00  0.00     0.071 A 
ATOM      7  C   UNL A   1      36.253  29.757  28.863  1.00  0.00     0.060 A 
ATOM      8  C   UNL A   1      36.025  30.084  30.191  1.00  0.00     0.037 A 
ATOM      9  S   UNL A   1      37.774  28.972  28.687  1.00  0.00    -0.142 S 
ATOM     10  C   UNL A   1      37.985  28.862  30.370  1.00  0.00     0.081 A 
BRANCH   7  11
ATOM     11  C   UNL A   1      35.384  30.053  27.661  1.00  0.00     0.308 C 
BRANCH  11  12
ATOM     12  N   UNL A   1      34.095  29.353  27.663  1.00  0.00    -0.339 N 
ATOM     13  H   UNL A   1      34.199  28.517  28.240  1.00  0.00     0.346 HD
ATOM     14  H   UNL A   1      33.423  30.038  28.012  1.00  0.00     0.346 HD
BRANCH  12  15
ATOM     15  C   UNL A   1      33.560  28.927  26.358  1.00  0.00     0.194 C 
ATOM     16  N   UNL A   1      31.526  27.369  24.888  1.00  0.00    -0.327 N 
ATOM     17  C   UNL A   1      32.875  26.806  25.101  1.00  0.00     0.268 C 
ATOM     18  C   UNL A   1      31.644  28.824  24.707  1.00  0.00     0.268 C 
ATOM     19  H   UNL A   1      30.919  27.205  25.691  1.00  0.00     0.348 HD
ATOM     20  C   UNL A   1      33.551  27.387  26.345  1.00  0.00     0.126 C 
ATOM     21  C   UNL A   1      32.167  29.453  25.997  1.00  0.00     0.126 C 
BRANCH  16  22
ATOM     22  C   UNL A   1      30.908  26.696  23.715  1.00  0.00     0.363 C 
BRANCH  22  23
ATOM     23  C   UNL A   1      31.034  27.495  22.416  1.00  0.00     0.272 C 
ATOM     24  N   UNL A   1      32.178  27.294  21.698  1.00  0.00    -0.365 N 
ATOM     25  H   UNL A   1      32.319  27.779  20.854  1.00  0.00     0.159 HD
ATOM     26  H   UNL A   1      32.860  26.665  22.026  1.00  0.00     0.159 HD
ATOM     27  O   UNL A   1      30.190  28.303  22.042  1.00  0.00    -0.269 OA
ENDBRANCH  22  23
ENDBRANCH  16  22
ENDBRANCH  12  15
ENDBRANCH  11  12
ENDBRANCH   7  11
ENDBRANCH   4   6
ENDBRANCH   3   4
ENDBRANCH   2   3
ENDBRANCH   1   2
BRANCH   1  28
ATOM     28  O   UNL A   1      35.731  32.926  34.755  1.00  0.00    -0.374 OA
BRANCH  28  29
ATOM     29  C   UNL A   1      35.094  33.988  34.037  1.00  0.00     0.202 C 
BRANCH  29  30
ATOM     30  C   UNL A   1      34.438  33.578  32.711  1.00  0.00     0.261 C 
BRANCH  30  31
ATOM     31  O   UNL A   1      34.850  34.446  31.637  1.00  0.00    -0.460 OA
BRANCH  31  32
ATOM     32  C   UNL A   1      35.300  33.818  30.522  1.00  0.00     0.338 C 
ATOM     33  O   UNL A   1      34.637  33.435  29.574  1.00  0.00    -0.246 OA
BRANCH  32  34
ATOM     34  C   UNL A   1      36.778  33.850  30.509  1.00  0.00     0.060 A 
ATOM     35  C   UNL A   1      37.434  33.142  29.492  1.00  0.00     0.016 A 
ATOM     36  C   UNL A   1      37.511  34.534  31.481  1.00  0.00     0.016 A 
ATOM     37  C   UNL A   1      38.828  33.093  29.461  1.00  0.00     0.010 A 
ATOM     38  C   UNL A   1      38.907  34.472  31.456  1.00  0.00     0.010 A 
ATOM     39  C   UNL A   1      39.572  33.733  30.461  1.00  0.00    -0.014 A 
BRANCH  39  40
ATOM     40  C   UNL A   1      41.038  33.529  30.541  1.00  0.00     0.031 A 
ATOM     41  C   UNL A   1      41.575  32.439  31.425  1.00  0.00     0.074 A 
ATOM     42  C   UNL A   1      41.881  34.304  29.834  1.00  0.00     0.049 A 
ATOM     43  N   UNL A   1      42.817  32.129  31.696  1.00  0.00    -0.248 NA
ATOM     44  C   UNL A   1      40.580  31.585  32.095  1.00  0.00     0.031 C 
ATOM     45  C   UNL A   1      41.482  35.362  28.907  1.00  0.00     0.029 A 
ATOM     46  N   UNL A   1      43.253  34.325  29.798  1.00  0.00    -0.354 N 
ATOM     47  C   UNL A   1      42.754  31.053  32.572  1.00  0.00     0.074 A 
ATOM     48  C   UNL A   1      41.353  30.776  32.806  1.00  0.00     0.031 C 
ATOM     49  C   UNL A   1      42.587  35.938  28.403  1.00  0.00     0.029 A 
ATOM     50  C   UNL A   1      43.768  35.317  28.999  1.00  0.00     0.049 A 
ATOM     51  H   UNL A   1      43.815  33.689  30.298  1.00  0.00     0.167 HD
ATOM     52  C   UNL A   1      43.772  30.356  33.131  1.00  0.00     0.031 A 
ATOM     53  C   UNL A   1      45.045  35.698  28.793  1.00  0.00     0.031 A 
ATOM     54  C   UNL A   1      45.164  30.643  32.912  1.00  0.00     0.049 A 
ATOM     55  C   UNL A   1      46.158  34.964  29.494  1.00  0.00     0.074 A 
ATOM     56  C   UNL A   1      46.269  29.984  33.421  1.00  0.00     0.029 A 
ATOM     57  N   UNL A   1      45.644  31.680  32.127  1.00  0.00    -0.354 N 
ATOM     58  N   UNL A   1      46.084  33.934  30.303  1.00  0.00    -0.248 NA
ATOM     59  C   UNL A   1      47.527  35.446  29.255  1.00  0.00     0.031 C 
ATOM     60  C   UNL A   1      47.417  30.658  32.989  1.00  0.00     0.029 A 
ATOM     61  C   UNL A   1      47.028  31.700  32.163  1.00  0.00     0.049 A 
ATOM     62  H   UNL A   1      45.083  32.310  31.618  1.00  0.00     0.167 HD
ATOM     63  C   UNL A   1      47.396  33.630  30.650  1.00  0.00     0.074 A 
ATOM     64  C   UNL A   1      48.244  34.577  29.956  1.00  0.00     0.031 C 
ATOM     65  C   UNL A   1      47.858  32.652  31.469  1.00  0.00     0.031 A 
BRANCH  52  66
ATOM     66  C   UNL A   1      43.413  29.235  34.070  1.00  0.00    -0.014 A 
ATOM     67  C   UNL A   1      43.226  29.468  35.443  1.00  0.00     0.010 A 
ATOM     68  C   UNL A   1      43.227  27.936  33.562  1.00  0.00     0.010 A 
ATOM     69  C   UNL A   1      42.898  28.413  36.300  1.00  0.00     0.020 A 
ATOM     70  C   UNL A   1      42.874  26.884  34.411  1.00  0.00     0.020 A 
ATOM     71  C   UNL A   1      42.729  27.126  35.779  1.00  0.00     0.054 A 
BRANCH  71  72
ATOM     72  S   UNL A   1      42.287  25.779  36.910  1.00  0.00     0.124 S 
ATOM     73  O   UNL A   1      40.835  25.729  36.763  1.00  0.00    -0.237 OA
ATOM     74  O   UNL A   1      43.015  24.641  36.355  1.00  0.00    -0.237 OA
ATOM     75  O   UNL A   1      42.765  26.247  38.210  1.00  0.00    -0.744 OA
ENDBRANCH  71  72
ENDBRANCH  52  66
BRANCH  53  76
ATOM     76  C   UNL A   1      45.339  36.856  27.906  1.00  0.00    -0.014 A 
ATOM     77  C   UNL A   1      44.835  38.134  28.203  1.00  0.00     0.010 A 
ATOM     78  C   UNL A   1      46.130  36.683  26.755  1.00  0.00     0.010 A 
ATOM     79  C   UNL A   1      45.110  39.216  27.361  1.00  0.00     0.020 A 
ATOM     80  C   UNL A   1      46.428  37.768  25.925  1.00  0.00     0.020 A 
ATOM     81  C   UNL A   1      45.907  39.026  26.228  1.00  0.00     0.054 A 
BRANCH  81  82
ATOM     82  S   UNL A   1      46.299  40.456  25.181  1.00  0.00     0.124 S 
ATOM     83  O   UNL A   1      47.347  41.117  25.950  1.00  0.00    -0.237 OA
ATOM     84  O   UNL A   1      46.727  39.825  23.935  1.00  0.00    -0.237 OA
ATOM     85  O   UNL A   1      45.029  41.176  25.100  1.00  0.00    -0.744 OA
ENDBRANCH  81  82
ENDBRANCH  53  76
BRANCH  65  86
ATOM     86  C   UNL A   1      49.349  32.534  31.645  1.00  0.00    -0.014 A 
ATOM     87  C   UNL A   1      50.009  33.178  32.705  1.00  0.00     0.010 A 
ATOM     88  C   UNL A   1      50.086  31.705  30.778  1.00  0.00     0.010 A 
ATOM     89  C   UNL A   1      51.385  33.012  32.885  1.00  0.00     0.020 A 
ATOM     90  C   UNL A   1      51.457  31.517  30.970  1.00  0.00     0.020 A 
ATOM     91  C   UNL A   1      52.101  32.180  32.017  1.00  0.00     0.054 A 
BRANCH  91  92
ATOM     92  S   UNL A   1      53.874  31.932  32.308  1.00  0.00     0.124 S 
ATOM     93  O   UNL A   1      54.460  33.065  31.597  1.00  0.00    -0.237 OA
ATOM     94  O   UNL A   1      53.971  31.985  33.765  1.00  0.00    -0.237 OA
ATOM     95  O   UNL A   1      54.142  30.622  31.720  1.00  0.00    -0.744 OA
ENDBRANCH  91  92
ENDBRANCH  65  86
ENDBRANCH  39  40
ENDBRANCH  32  34
ENDBRANCH  31  32
ENDBRANCH  30  31
ENDBRANCH  29  30
ENDBRANCH  28  29
ENDBRANCH   1  28
TORSDOF 22
ENDMDL
