MODEL 1
REMARK VINA RESULT:      -6.7      0.000      0.000
REMARK SMILES COc1cccc([C@H](CC(=O)OCCOCCOC(=O)c2ccc(-c3c4nc(c(-c5ccc(S(=O)(=O)[O-])cc5)c5ccc([nH]5)c(-c5ccc(S(=O)(=O)[O-])cc5)c5nc(c(-c6ccc(S(=O)(=O)[O-])cc6)c6ccc3[nH]6)C=C5)C=C4)cc2)NS(=O)(=O)c2ccc3c(c2)C[C@@H](C)N3C(C)=O)c1
REMARK SMILES IDX 14 1 13 2 12 3 10 4 11 5 9 6 8 7 7 8 3 9 4 10 98 11 5 12
REMARK SMILES IDX 6 13 2 14 1 15 81 16 82 18 83 19 84 20 85 21 86 22 90 23
REMARK SMILES IDX 87 24 89 25 88 26 91 27 94 28 92 29 93 30 95 31 96 32 97 33
REMARK SMILES IDX 15 34 16 35 17 36 18 37 19 38 20 39 21 40 22 41 80 42 23 43
REMARK SMILES IDX 79 44 24 45 25 46 26 47 73 48 27 49 78 50 72 51 74 52 28 53
REMARK SMILES IDX 77 54 71 55 70 56 29 58 59 59 40 60 58 61 41 62 44 63 57 64
REMARK SMILES IDX 75 65 42 66 43 67 56 69 76 70 45 71 30 72 31 73 39 74 32 75
REMARK SMILES IDX 38 76 33 77 34 78 35 79 36 80 37 81 60 82 61 83 69 84 62 85
REMARK SMILES IDX 68 86 63 87 64 88 65 89 66 90 67 91 46 92 47 93 55 94 48 95
REMARK SMILES IDX 54 96 49 97 50 98 51 99 52 100 53 101
REMARK H PARENT 81 17 74 57 44 68
REMARK Flexibility Score: inf
ROOT
ATOM      1  C   UNL A   1      37.040  32.571  34.708  1.00  0.00     0.202 C 
ENDROOT
BRANCH   1   2
ATOM      2  C   UNL A   1      38.064  32.086  35.741  1.00  0.00     0.261 C 
BRANCH   2   3
ATOM      3  O   UNL A   1      39.331  31.762  35.140  1.00  0.00    -0.463 OA
BRANCH   3   4
ATOM      4  C   UNL A   1      39.624  30.439  35.065  1.00  0.00     0.307 C 
ATOM      5  O   UNL A   1      39.891  29.724  36.025  1.00  0.00    -0.252 OA
BRANCH   4   6
ATOM      6  C   UNL A   1      39.435  29.846  33.689  1.00  0.00     0.147 C 
BRANCH   6   7
ATOM      7  C   UNL A   1      40.670  29.718  32.777  1.00  0.00     0.111 C 
BRANCH   7   8
ATOM      8  C   UNL A   1      40.231  29.695  31.330  1.00  0.00    -0.026 A 
ATOM      9  C   UNL A   1      40.147  28.534  29.201  1.00  0.00     0.119 A 
ATOM     10  C   UNL A   1      39.190  29.431  28.739  1.00  0.00     0.046 A 
ATOM     11  C   UNL A   1      40.731  28.719  30.450  1.00  0.00     0.051 A 
ATOM     12  C   UNL A   1      38.760  30.472  29.564  1.00  0.00     0.004 A 
ATOM     13  C   UNL A   1      39.260  30.591  30.863  1.00  0.00     0.005 A 
BRANCH   9  14
ATOM     14  O   UNL A   1      40.484  27.471  28.405  1.00  0.00    -0.497 OA
ATOM     15  C   UNL A   1      39.639  26.344  28.669  1.00  0.00     0.278 C 
ENDBRANCH   9  14
ENDBRANCH   7   8
BRANCH   7  16
ATOM     16  N   UNL A   1      41.590  30.844  33.116  1.00  0.00    -0.203 NA
ATOM     17  H   UNL A   1      41.148  31.326  33.900  1.00  0.00     0.142 HD
BRANCH  16  18
ATOM     18  S   UNL A   1      43.209  30.692  33.544  1.00  0.00     0.241 S 
ATOM     19  O   UNL A   1      44.118  31.032  32.479  1.00  0.00    -0.207 OA
ATOM     20  O   UNL A   1      43.267  31.375  34.821  1.00  0.00    -0.207 OA
BRANCH  18  21
ATOM     21  C   UNL A   1      43.450  28.975  33.869  1.00  0.00     0.082 A 
ATOM     22  C   UNL A   1      43.796  28.087  32.832  1.00  0.00     0.024 A 
ATOM     23  C   UNL A   1      43.291  28.543  35.188  1.00  0.00     0.027 A 
ATOM     24  C   UNL A   1      43.872  26.713  33.084  1.00  0.00     0.028 A 
ATOM     25  C   UNL A   1      43.336  27.191  35.410  1.00  0.00    -0.021 A 
ATOM     26  C   UNL A   1      43.562  26.291  34.360  1.00  0.00     0.047 A 
ATOM     27  C   UNL A   1      43.165  26.453  36.707  1.00  0.00     0.063 C 
ATOM     28  N   UNL A   1      43.410  24.986  34.858  1.00  0.00    -0.309 N 
ATOM     29  C   UNL A   1      42.672  25.115  36.141  1.00  0.00     0.092 C 
ATOM     30  C   UNL A   1      41.151  25.198  35.869  1.00  0.00     0.032 C 
BRANCH  28  31
ATOM     31  C   UNL A   1      44.294  23.991  34.494  1.00  0.00     0.224 C 
ATOM     32  C   UNL A   1      43.793  23.118  33.365  1.00  0.00     0.115 C 
ATOM     33  O   UNL A   1      45.308  23.707  35.124  1.00  0.00    -0.275 OA
ENDBRANCH  28  31
ENDBRANCH  18  21
ENDBRANCH  16  18
ENDBRANCH   7  16
ENDBRANCH   6   7
ENDBRANCH   4   6
ENDBRANCH   3   4
ENDBRANCH   2   3
ENDBRANCH   1   2
BRANCH   1  34
ATOM     34  O   UNL A   1      35.966  33.379  35.182  1.00  0.00    -0.374 OA
BRANCH  34  35
ATOM     35  C   UNL A   1      35.536  34.472  34.375  1.00  0.00     0.202 C 
BRANCH  35  36
ATOM     36  C   UNL A   1      35.320  34.230  32.876  1.00  0.00     0.261 C 
BRANCH  36  37
ATOM     37  O   UNL A   1      36.377  34.743  32.039  1.00  0.00    -0.460 OA
BRANCH  37  38
ATOM     38  C   UNL A   1      36.960  33.802  31.247  1.00  0.00     0.338 C 
ATOM     39  O   UNL A   1      36.418  32.825  30.758  1.00  0.00    -0.246 OA
BRANCH  38  40
ATOM     40  C   UNL A   1      38.329  34.193  30.861  1.00  0.00     0.060 A 
ATOM     41  C   UNL A   1      38.561  34.458  29.505  1.00  0.00     0.016 A 
ATOM     42  C   UNL A   1      39.392  34.149  31.762  1.00  0.00     0.016 A 
ATOM     43  C   UNL A   1      39.861  34.635  29.035  1.00  0.00     0.010 A 
ATOM     44  C   UNL A   1      40.701  34.328  31.286  1.00  0.00     0.010 A 
ATOM     45  C   UNL A   1      40.946  34.536  29.915  1.00  0.00    -0.014 A 
BRANCH  45  46
ATOM     46  C   UNL A   1      42.332  34.535  29.374  1.00  0.00     0.031 A 
ATOM     47  C   UNL A   1      43.044  33.228  29.137  1.00  0.00     0.074 A 
ATOM     48  C   UNL A   1      42.943  35.691  29.056  1.00  0.00     0.049 A 
ATOM     49  N   UNL A   1      44.248  33.011  28.671  1.00  0.00    -0.248 NA
ATOM     50  C   UNL A   1      42.298  32.004  29.469  1.00  0.00     0.031 C 
ATOM     51  C   UNL A   1      42.350  37.021  29.179  1.00  0.00     0.029 A 
ATOM     52  N   UNL A   1      44.200  35.929  28.555  1.00  0.00    -0.354 N 
ATOM     53  C   UNL A   1      44.413  31.631  28.669  1.00  0.00     0.074 A 
ATOM     54  C   UNL A   1      43.194  31.064  29.209  1.00  0.00     0.031 C 
ATOM     55  C   UNL A   1      43.238  37.936  28.754  1.00  0.00     0.029 A 
ATOM     56  C   UNL A   1      44.477  37.262  28.371  1.00  0.00     0.049 A 
ATOM     57  H   UNL A   1      44.843  35.211  28.349  1.00  0.00     0.167 HD
ATOM     58  C   UNL A   1      45.478  30.898  28.255  1.00  0.00     0.031 A 
ATOM     59  C   UNL A   1      45.603  37.875  27.954  1.00  0.00     0.031 A 
ATOM     60  C   UNL A   1      46.698  31.464  27.737  1.00  0.00     0.049 A 
ATOM     61  C   UNL A   1      46.807  37.050  27.586  1.00  0.00     0.074 A 
ATOM     62  C   UNL A   1      47.823  30.805  27.271  1.00  0.00     0.029 A 
ATOM     63  N   UNL A   1      46.962  32.822  27.632  1.00  0.00    -0.354 N 
ATOM     64  N   UNL A   1      46.937  35.744  27.566  1.00  0.00    -0.248 NA
ATOM     65  C   UNL A   1      48.013  37.782  27.178  1.00  0.00     0.031 C 
ATOM     66  C   UNL A   1      48.793  31.762  26.955  1.00  0.00     0.029 A 
ATOM     67  C   UNL A   1      48.246  33.021  27.149  1.00  0.00     0.049 A 
ATOM     68  H   UNL A   1      46.330  33.540  27.866  1.00  0.00     0.167 HD
ATOM     69  C   UNL A   1      48.231  35.499  27.114  1.00  0.00     0.074 A 
ATOM     70  C   UNL A   1      48.837  36.791  26.864  1.00  0.00     0.031 C 
ATOM     71  C   UNL A   1      48.853  34.310  26.915  1.00  0.00     0.031 A 
BRANCH  58  72
ATOM     72  C   UNL A   1      45.387  29.399  28.407  1.00  0.00    -0.014 A 
ATOM     73  C   UNL A   1      45.698  28.758  29.621  1.00  0.00     0.010 A 
ATOM     74  C   UNL A   1      44.982  28.616  27.310  1.00  0.00     0.010 A 
ATOM     75  C   UNL A   1      45.673  27.362  29.712  1.00  0.00     0.020 A 
ATOM     76  C   UNL A   1      44.922  27.223  27.406  1.00  0.00     0.020 A 
ATOM     77  C   UNL A   1      45.297  26.603  28.600  1.00  0.00     0.054 A 
BRANCH  77  78
ATOM     78  S   UNL A   1      45.300  24.794  28.736  1.00  0.00     0.124 S 
ATOM     79  O   UNL A   1      44.030  24.444  28.106  1.00  0.00    -0.237 OA
ATOM     80  O   UNL A   1      46.498  24.418  27.989  1.00  0.00    -0.237 OA
ATOM     81  O   UNL A   1      45.366  24.553  30.176  1.00  0.00    -0.744 OA
ENDBRANCH  77  78
ENDBRANCH  58  72
BRANCH  59  82
ATOM     82  C   UNL A   1      45.636  39.361  27.855  1.00  0.00    -0.014 A 
ATOM     83  C   UNL A   1      45.088  40.011  26.736  1.00  0.00     0.010 A 
ATOM     84  C   UNL A   1      46.179  40.133  28.898  1.00  0.00     0.010 A 
ATOM     85  C   UNL A   1      45.076  41.406  26.664  1.00  0.00     0.020 A 
ATOM     86  C   UNL A   1      46.144  41.529  28.842  1.00  0.00     0.020 A 
ATOM     87  C   UNL A   1      45.594  42.157  27.724  1.00  0.00     0.054 A 
BRANCH  87  88
ATOM     88  S   UNL A   1      45.480  43.966  27.646  1.00  0.00     0.124 S 
ATOM     89  O   UNL A   1      46.872  44.368  27.816  1.00  0.00    -0.237 OA
ATOM     90  O   UNL A   1      44.914  44.187  26.317  1.00  0.00    -0.237 OA
ATOM     91  O   UNL A   1      44.591  44.301  28.756  1.00  0.00    -0.744 OA
ENDBRANCH  87  88
ENDBRANCH  59  82
BRANCH  71  92
ATOM     92  C   UNL A   1      50.259  34.340  26.370  1.00  0.00    -0.014 A 
ATOM     93  C   UNL A   1      50.515  34.296  24.988  1.00  0.00     0.010 A 
ATOM     94  C   UNL A   1      51.344  34.469  27.259  1.00  0.00     0.010 A 
ATOM     95  C   UNL A   1      51.828  34.346  24.508  1.00  0.00     0.020 A 
ATOM     96  C   UNL A   1      52.655  34.552  26.783  1.00  0.00     0.020 A 
ATOM     97  C   UNL A   1      52.890  34.476  25.409  1.00  0.00     0.054 A 
BRANCH  97  98
ATOM     98  S   UNL A   1      54.580  34.583  24.758  1.00  0.00     0.124 S 
ATOM     99  O   UNL A   1      55.066  35.815  25.372  1.00  0.00    -0.237 OA
ATOM    100  O   UNL A   1      55.192  33.351  25.251  1.00  0.00    -0.237 OA
ATOM    101  O   UNL A   1      54.392  34.641  23.310  1.00  0.00    -0.744 OA
ENDBRANCH  97  98
ENDBRANCH  71  92
ENDBRANCH  45  46
ENDBRANCH  38  40
ENDBRANCH  37  38
ENDBRANCH  36  37
ENDBRANCH  35  36
ENDBRANCH  34  35
ENDBRANCH   1  34
TORSDOF 24
ENDMDL
MODEL 2
REMARK VINA RESULT:      -6.5      7.047     11.861
REMARK SMILES COc1cccc([C@H](CC(=O)OCCOCCOC(=O)c2ccc(-c3c4nc(c(-c5ccc(S(=O)(=O)[O-])cc5)c5ccc([nH]5)c(-c5ccc(S(=O)(=O)[O-])cc5)c5nc(c(-c6ccc(S(=O)(=O)[O-])cc6)c6ccc3[nH]6)C=C5)C=C4)cc2)NS(=O)(=O)c2ccc3c(c2)C[C@@H](C)N3C(C)=O)c1
REMARK SMILES IDX 14 1 13 2 12 3 10 4 11 5 9 6 8 7 7 8 3 9 4 10 98 11 5 12
REMARK SMILES IDX 6 13 2 14 1 15 81 16 82 18 83 19 84 20 85 21 86 22 90 23
REMARK SMILES IDX 87 24 89 25 88 26 91 27 94 28 92 29 93 30 95 31 96 32 97 33
REMARK SMILES IDX 15 34 16 35 17 36 18 37 19 38 20 39 21 40 22 41 80 42 23 43
REMARK SMILES IDX 79 44 24 45 25 46 26 47 73 48 27 49 78 50 72 51 74 52 28 53
REMARK SMILES IDX 77 54 71 55 70 56 29 58 59 59 40 60 58 61 41 62 44 63 57 64
REMARK SMILES IDX 75 65 42 66 43 67 56 69 76 70 45 71 30 72 31 73 39 74 32 75
REMARK SMILES IDX 38 76 33 77 34 78 35 79 36 80 37 81 60 82 61 83 69 84 62 85
REMARK SMILES IDX 68 86 63 87 64 88 65 89 66 90 67 91 46 92 47 93 55 94 48 95
REMARK SMILES IDX 54 96 49 97 50 98 51 99 52 100 53 101
REMARK H PARENT 81 17 74 57 44 68
REMARK Flexibility Score: inf
ROOT
ATOM      1  C   UNL A   1      50.613  24.191  39.850  1.00  0.00     0.202 C 
ENDROOT
BRANCH   1   2
ATOM      2  C   UNL A   1      49.667  23.004  39.633  1.00  0.00     0.261 C 
BRANCH   2   3
ATOM      3  O   UNL A   1      48.948  23.101  38.390  1.00  0.00    -0.463 OA
BRANCH   3   4
ATOM      4  C   UNL A   1      47.668  23.543  38.487  1.00  0.00     0.307 C 
ATOM      5  O   UNL A   1      47.102  23.832  39.536  1.00  0.00    -0.252 OA
BRANCH   4   6
ATOM      6  C   UNL A   1      47.013  23.820  37.154  1.00  0.00     0.147 C 
BRANCH   6   7
ATOM      7  C   UNL A   1      46.133  22.718  36.535  1.00  0.00     0.111 C 
BRANCH   7   8
ATOM      8  C   UNL A   1      44.775  23.288  36.191  1.00  0.00    -0.026 A 
ATOM      9  C   UNL A   1      43.092  25.003  36.535  1.00  0.00     0.119 A 
ATOM     10  C   UNL A   1      42.420  24.585  35.391  1.00  0.00     0.046 A 
ATOM     11  C   UNL A   1      44.207  24.301  36.983  1.00  0.00     0.051 A 
ATOM     12  C   UNL A   1      42.913  23.510  34.650  1.00  0.00     0.004 A 
ATOM     13  C   UNL A   1      44.099  22.879  35.033  1.00  0.00     0.005 A 
BRANCH   9  14
ATOM     14  O   UNL A   1      42.637  26.115  37.191  1.00  0.00    -0.497 OA
ATOM     15  C   UNL A   1      41.208  26.204  37.121  1.00  0.00     0.278 C 
ENDBRANCH   9  14
ENDBRANCH   7   8
BRANCH   7  16
ATOM     16  N   UNL A   1      46.874  22.164  35.363  1.00  0.00    -0.203 NA
ATOM     17  H   UNL A   1      47.583  22.864  35.138  1.00  0.00     0.142 HD
BRANCH  16  18
ATOM     18  S   UNL A   1      47.678  20.688  35.322  1.00  0.00     0.241 S 
ATOM     19  O   UNL A   1      47.598  19.956  36.560  1.00  0.00    -0.207 OA
ATOM     20  O   UNL A   1      47.212  20.106  34.079  1.00  0.00    -0.207 OA
BRANCH  18  21
ATOM     21  C   UNL A   1      49.381  21.087  35.093  1.00  0.00     0.082 A 
ATOM     22  C   UNL A   1      49.762  22.224  34.353  1.00  0.00     0.024 A 
ATOM     23  C   UNL A   1      50.324  20.239  35.679  1.00  0.00     0.027 A 
ATOM     24  C   UNL A   1      51.114  22.463  34.085  1.00  0.00     0.028 A 
ATOM     25  C   UNL A   1      51.641  20.469  35.378  1.00  0.00    -0.021 A 
ATOM     26  C   UNL A   1      52.020  21.529  34.544  1.00  0.00     0.047 A 
ATOM     27  C   UNL A   1      52.849  19.703  35.835  1.00  0.00     0.063 C 
ATOM     28  N   UNL A   1      53.400  21.428  34.303  1.00  0.00    -0.309 N 
ATOM     29  C   UNL A   1      53.785  20.041  34.667  1.00  0.00     0.092 C 
ATOM     30  C   UNL A   1      53.499  19.086  33.484  1.00  0.00     0.032 C 
BRANCH  28  31
ATOM     31  C   UNL A   1      54.198  22.554  34.323  1.00  0.00     0.224 C 
ATOM     32  C   UNL A   1      54.746  22.934  32.966  1.00  0.00     0.115 C 
ATOM     33  O   UNL A   1      54.586  23.103  35.350  1.00  0.00    -0.275 OA
ENDBRANCH  28  31
ENDBRANCH  18  21
ENDBRANCH  16  18
ENDBRANCH   7  16
ENDBRANCH   6   7
ENDBRANCH   4   6
ENDBRANCH   3   4
ENDBRANCH   2   3
ENDBRANCH   1   2
BRANCH   1  34
ATOM     34  O   UNL A   1      51.354  24.650  38.724  1.00  0.00    -0.374 OA
BRANCH  34  35
ATOM     35  C   UNL A   1      51.096  25.963  38.235  1.00  0.00     0.202 C 
BRANCH  35  36
ATOM     36  C   UNL A   1      49.823  26.679  38.706  1.00  0.00     0.261 C 
BRANCH  36  37
ATOM     37  O   UNL A   1      49.377  27.728  37.822  1.00  0.00    -0.460 OA
BRANCH  37  38
ATOM     38  C   UNL A   1      48.363  28.481  38.327  1.00  0.00     0.338 C 
ATOM     39  O   UNL A   1      48.370  29.101  39.377  1.00  0.00    -0.246 OA
BRANCH  38  40
ATOM     40  C   UNL A   1      47.268  28.639  37.350  1.00  0.00     0.060 A 
ATOM     41  C   UNL A   1      47.394  29.670  36.410  1.00  0.00     0.016 A 
ATOM     42  C   UNL A   1      46.082  27.912  37.444  1.00  0.00     0.016 A 
ATOM     43  C   UNL A   1      46.319  30.009  35.589  1.00  0.00     0.010 A 
ATOM     44  C   UNL A   1      45.001  28.256  36.616  1.00  0.00     0.010 A 
ATOM     45  C   UNL A   1      45.101  29.329  35.710  1.00  0.00    -0.014 A 
BRANCH  45  46
ATOM     46  C   UNL A   1      43.909  29.822  34.969  1.00  0.00     0.031 A 
ATOM     47  C   UNL A   1      43.588  29.261  33.608  1.00  0.00     0.074 A 
ATOM     48  C   UNL A   1      43.089  30.735  35.521  1.00  0.00     0.049 A 
ATOM     49  N   UNL A   1      42.598  29.553  32.802  1.00  0.00    -0.248 NA
ATOM     50  C   UNL A   1      44.504  28.236  33.086  1.00  0.00     0.031 C 
ATOM     51  C   UNL A   1      43.248  31.316  36.853  1.00  0.00     0.029 A 
ATOM     52  N   UNL A   1      41.953  31.329  35.029  1.00  0.00    -0.354 N 
ATOM     53  C   UNL A   1      42.780  28.763  31.673  1.00  0.00     0.074 A 
ATOM     54  C   UNL A   1      43.993  28.001  31.887  1.00  0.00     0.031 C 
ATOM     55  C   UNL A   1      42.239  32.175  37.077  1.00  0.00     0.029 A 
ATOM     56  C   UNL A   1      41.389  32.239  35.890  1.00  0.00     0.049 A 
ATOM     57  H   UNL A   1      41.578  31.122  34.141  1.00  0.00     0.167 HD
ATOM     58  C   UNL A   1      42.010  28.675  30.558  1.00  0.00     0.031 A 
ATOM     59  C   UNL A   1      40.316  33.043  35.740  1.00  0.00     0.031 A 
ATOM     60  C   UNL A   1      40.814  29.449  30.337  1.00  0.00     0.049 A 
ATOM     61  C   UNL A   1      39.527  32.998  34.459  1.00  0.00     0.074 A 
ATOM     62  C   UNL A   1      39.954  29.414  29.252  1.00  0.00     0.029 A 
ATOM     63  N   UNL A   1      40.316  30.409  31.207  1.00  0.00    -0.354 N 
ATOM     64  N   UNL A   1      39.698  32.226  33.410  1.00  0.00    -0.248 NA
ATOM     65  C   UNL A   1      38.396  33.928  34.344  1.00  0.00     0.031 C 
ATOM     66  C   UNL A   1      38.981  30.404  29.431  1.00  0.00     0.029 A 
ATOM     67  C   UNL A   1      39.187  31.002  30.665  1.00  0.00     0.049 A 
ATOM     68  H   UNL A   1      40.708  30.636  32.081  1.00  0.00     0.167 HD
ATOM     69  C   UNL A   1      38.677  32.557  32.525  1.00  0.00     0.074 A 
ATOM     70  C   UNL A   1      37.889  33.592  33.165  1.00  0.00     0.031 C 
ATOM     71  C   UNL A   1      38.412  32.043  31.298  1.00  0.00     0.031 A 
BRANCH  58  72
ATOM     72  C   UNL A   1      42.479  27.747  29.465  1.00  0.00    -0.014 A 
ATOM     73  C   UNL A   1      41.962  26.446  29.325  1.00  0.00     0.010 A 
ATOM     74  C   UNL A   1      43.462  28.188  28.558  1.00  0.00     0.010 A 
ATOM     75  C   UNL A   1      42.466  25.583  28.346  1.00  0.00     0.020 A 
ATOM     76  C   UNL A   1      43.944  27.342  27.555  1.00  0.00     0.020 A 
ATOM     77  C   UNL A   1      43.463  26.033  27.475  1.00  0.00     0.054 A 
BRANCH  77  78
ATOM     78  S   UNL A   1      44.120  24.886  26.233  1.00  0.00     0.124 S 
ATOM     79  O   UNL A   1      45.355  24.433  26.867  1.00  0.00    -0.237 OA
ATOM     80  O   UNL A   1      43.062  23.884  26.129  1.00  0.00    -0.237 OA
ATOM     81  O   UNL A   1      44.301  25.722  25.048  1.00  0.00    -0.744 OA
ENDBRANCH  77  78
ENDBRANCH  58  72
BRANCH  59  82
ATOM     82  C   UNL A   1      39.925  33.958  36.847  1.00  0.00    -0.014 A 
ATOM     83  C   UNL A   1      39.184  33.476  37.939  1.00  0.00     0.010 A 
ATOM     84  C   UNL A   1      40.325  35.307  36.833  1.00  0.00     0.010 A 
ATOM     85  C   UNL A   1      38.856  34.322  39.001  1.00  0.00     0.020 A 
ATOM     86  C   UNL A   1      40.023  36.149  37.906  1.00  0.00     0.020 A 
ATOM     87  C   UNL A   1      39.288  35.652  38.983  1.00  0.00     0.054 A 
BRANCH  87  88
ATOM     88  S   UNL A   1      38.929  36.703  40.417  1.00  0.00     0.124 S 
ATOM     89  O   UNL A   1      38.478  37.938  39.786  1.00  0.00    -0.237 OA
ATOM     90  O   UNL A   1      37.901  35.937  41.117  1.00  0.00    -0.237 OA
ATOM     91  O   UNL A   1      40.213  36.786  41.111  1.00  0.00    -0.744 OA
ENDBRANCH  87  88
ENDBRANCH  59  82
BRANCH  71  92
ATOM     92  C   UNL A   1      37.200  32.565  30.568  1.00  0.00    -0.014 A 
ATOM     93  C   UNL A   1      37.182  33.847  29.991  1.00  0.00     0.010 A 
ATOM     94  C   UNL A   1      36.075  31.732  30.410  1.00  0.00     0.010 A 
ATOM     95  C   UNL A   1      36.053  34.299  29.302  1.00  0.00     0.020 A 
ATOM     96  C   UNL A   1      34.956  32.167  29.695  1.00  0.00     0.020 A 
ATOM     97  C   UNL A   1      34.946  33.455  29.156  1.00  0.00     0.054 A 
BRANCH  97  98
ATOM     98  S   UNL A   1      33.511  34.050  28.220  1.00  0.00     0.124 S 
ATOM     99  O   UNL A   1      34.134  34.914  27.222  1.00  0.00    -0.237 OA
ATOM    100  O   UNL A   1      32.929  32.812  27.705  1.00  0.00    -0.237 OA
ATOM    101  O   UNL A   1      32.703  34.740  29.222  1.00  0.00    -0.744 OA
ENDBRANCH  97  98
ENDBRANCH  71  92
ENDBRANCH  45  46
ENDBRANCH  38  40
ENDBRANCH  37  38
ENDBRANCH  36  37
ENDBRANCH  35  36
ENDBRANCH  34  35
ENDBRANCH   1  34
TORSDOF 24
ENDMDL
MODEL 3
REMARK VINA RESULT:      -6.5      5.455     10.935
REMARK SMILES COc1cccc([C@H](CC(=O)OCCOCCOC(=O)c2ccc(-c3c4nc(c(-c5ccc(S(=O)(=O)[O-])cc5)c5ccc([nH]5)c(-c5ccc(S(=O)(=O)[O-])cc5)c5nc(c(-c6ccc(S(=O)(=O)[O-])cc6)c6ccc3[nH]6)C=C5)C=C4)cc2)NS(=O)(=O)c2ccc3c(c2)C[C@@H](C)N3C(C)=O)c1
REMARK SMILES IDX 14 1 13 2 12 3 10 4 11 5 9 6 8 7 7 8 3 9 4 10 98 11 5 12
REMARK SMILES IDX 6 13 2 14 1 15 81 16 82 18 83 19 84 20 85 21 86 22 90 23
REMARK SMILES IDX 87 24 89 25 88 26 91 27 94 28 92 29 93 30 95 31 96 32 97 33
REMARK SMILES IDX 15 34 16 35 17 36 18 37 19 38 20 39 21 40 22 41 80 42 23 43
REMARK SMILES IDX 79 44 24 45 25 46 26 47 73 48 27 49 78 50 72 51 74 52 28 53
REMARK SMILES IDX 77 54 71 55 70 56 29 58 59 59 40 60 58 61 41 62 44 63 57 64
REMARK SMILES IDX 75 65 42 66 43 67 56 69 76 70 45 71 30 72 31 73 39 74 32 75
REMARK SMILES IDX 38 76 33 77 34 78 35 79 36 80 37 81 60 82 61 83 69 84 62 85
REMARK SMILES IDX 68 86 63 87 64 88 65 89 66 90 67 91 46 92 47 93 55 94 48 95
REMARK SMILES IDX 54 96 49 97 50 98 51 99 52 100 53 101
REMARK H PARENT 81 17 74 57 44 68
REMARK Flexibility Score: inf
ROOT
ATOM      1  C   UNL A   1      38.638  32.314  34.017  1.00  0.00     0.202 C 
ENDROOT
BRANCH   1   2
ATOM      2  C   UNL A   1      37.360  32.525  33.197  1.00  0.00     0.261 C 
BRANCH   2   3
ATOM      3  O   UNL A   1      36.572  31.324  33.098  1.00  0.00    -0.463 OA
BRANCH   3   4
ATOM      4  C   UNL A   1      36.079  31.047  31.864  1.00  0.00     0.307 C 
ATOM      5  O   UNL A   1      35.255  31.732  31.267  1.00  0.00    -0.252 OA
BRANCH   4   6
ATOM      6  C   UNL A   1      36.755  29.881  31.181  1.00  0.00     0.147 C 
BRANCH   6   7
ATOM      7  C   UNL A   1      36.851  29.898  29.644  1.00  0.00     0.111 C 
BRANCH   7   8
ATOM      8  C   UNL A   1      37.962  28.973  29.197  1.00  0.00    -0.026 A 
ATOM      9  C   UNL A   1      39.777  28.495  27.659  1.00  0.00     0.119 A 
ATOM     10  C   UNL A   1      40.230  27.480  28.495  1.00  0.00     0.046 A 
ATOM     11  C   UNL A   1      38.600  29.173  27.960  1.00  0.00     0.051 A 
ATOM     12  C   UNL A   1      39.544  27.198  29.677  1.00  0.00     0.004 A 
ATOM     13  C   UNL A   1      38.429  27.956  30.040  1.00  0.00     0.005 A 
BRANCH   9  14
ATOM     14  O   UNL A   1      40.519  28.810  26.552  1.00  0.00    -0.497 OA
ATOM     15  C   UNL A   1      41.331  27.702  26.145  1.00  0.00     0.278 C 
ENDBRANCH   9  14
ENDBRANCH   7   8
BRANCH   7  16
ATOM     16  N   UNL A   1      35.505  29.534  29.111  1.00  0.00    -0.203 NA
ATOM     17  H   UNL A   1      34.856  29.706  29.880  1.00  0.00     0.142 HD
BRANCH  16  18
ATOM     18  S   UNL A   1      34.775  30.205  27.754  1.00  0.00     0.241 S 
ATOM     19  O   UNL A   1      33.966  31.361  28.050  1.00  0.00    -0.207 OA
ATOM     20  O   UNL A   1      35.869  30.284  26.808  1.00  0.00    -0.207 OA
BRANCH  18  21
ATOM     21  C   UNL A   1      33.668  28.969  27.155  1.00  0.00     0.082 A 
ATOM     22  C   UNL A   1      32.378  28.828  27.706  1.00  0.00     0.024 A 
ATOM     23  C   UNL A   1      34.120  28.150  26.118  1.00  0.00     0.027 A 
ATOM     24  C   UNL A   1      31.556  27.772  27.301  1.00  0.00     0.028 A 
ATOM     25  C   UNL A   1      33.315  27.101  25.756  1.00  0.00    -0.021 A 
ATOM     26  C   UNL A   1      32.081  26.884  26.384  1.00  0.00     0.047 A 
ATOM     27  C   UNL A   1      33.563  26.055  24.708  1.00  0.00     0.063 C 
ATOM     28  N   UNL A   1      31.555  25.669  25.913  1.00  0.00    -0.309 N 
ATOM     29  C   UNL A   1      32.691  24.937  25.296  1.00  0.00     0.092 C 
ATOM     30  C   UNL A   1      33.486  24.181  26.386  1.00  0.00     0.032 C 
BRANCH  28  31
ATOM     31  C   UNL A   1      30.216  25.562  25.598  1.00  0.00     0.224 C 
ATOM     32  C   UNL A   1      29.856  26.176  24.263  1.00  0.00     0.115 C 
ATOM     33  O   UNL A   1      29.354  25.175  26.381  1.00  0.00    -0.275 OA
ENDBRANCH  28  31
ENDBRANCH  18  21
ENDBRANCH  16  18
ENDBRANCH   7  16
ENDBRANCH   6   7
ENDBRANCH   4   6
ENDBRANCH   3   4
ENDBRANCH   2   3
ENDBRANCH   1   2
BRANCH   1  34
ATOM     34  O   UNL A   1      39.870  32.706  33.420  1.00  0.00    -0.374 OA
BRANCH  34  35
ATOM     35  C   UNL A   1      40.198  34.092  33.398  1.00  0.00     0.202 C 
BRANCH  35  36
ATOM     36  C   UNL A   1      41.362  34.552  32.510  1.00  0.00     0.261 C 
BRANCH  36  37
ATOM     37  O   UNL A   1      41.342  33.995  31.179  1.00  0.00    -0.460 OA
BRANCH  37  38
ATOM     38  C   UNL A   1      42.295  34.506  30.353  1.00  0.00     0.338 C 
ATOM     39  O   UNL A   1      42.501  35.685  30.120  1.00  0.00    -0.246 OA
BRANCH  38  40
ATOM     40  C   UNL A   1      43.225  33.458  29.889  1.00  0.00     0.060 A 
ATOM     41  C   UNL A   1      43.856  32.682  30.871  1.00  0.00     0.016 A 
ATOM     42  C   UNL A   1      43.594  33.337  28.550  1.00  0.00     0.016 A 
ATOM     43  C   UNL A   1      44.891  31.815  30.524  1.00  0.00     0.010 A 
ATOM     44  C   UNL A   1      44.638  32.464  28.204  1.00  0.00     0.010 A 
ATOM     45  C   UNL A   1      45.316  31.725  29.192  1.00  0.00    -0.014 A 
BRANCH  45  46
ATOM     46  C   UNL A   1      46.540  30.946  28.864  1.00  0.00     0.031 A 
ATOM     47  C   UNL A   1      47.900  31.543  29.123  1.00  0.00     0.074 A 
ATOM     48  C   UNL A   1      46.446  29.696  28.375  1.00  0.00     0.049 A 
ATOM     49  N   UNL A   1      49.086  31.030  28.910  1.00  0.00    -0.248 NA
ATOM     50  C   UNL A   1      47.925  32.897  29.697  1.00  0.00     0.031 C 
ATOM     51  C   UNL A   1      45.197  28.976  28.133  1.00  0.00     0.029 A 
ATOM     52  N   UNL A   1      47.424  28.807  28.002  1.00  0.00    -0.354 N 
ATOM     53  C   UNL A   1      49.998  32.001  29.307  1.00  0.00     0.074 A 
ATOM     54  C   UNL A   1      49.225  33.145  29.746  1.00  0.00     0.031 C 
ATOM     55  C   UNL A   1      45.484  27.751  27.662  1.00  0.00     0.029 A 
ATOM     56  C   UNL A   1      46.932  27.615  27.527  1.00  0.00     0.049 A 
ATOM     57  H   UNL A   1      48.387  29.005  28.067  1.00  0.00     0.167 HD
ATOM     58  C   UNL A   1      51.354  31.949  29.310  1.00  0.00     0.031 A 
ATOM     59  C   UNL A   1      47.573  26.537  27.028  1.00  0.00     0.031 A 
ATOM     60  C   UNL A   1      52.122  30.817  28.854  1.00  0.00     0.049 A 
ATOM     61  C   UNL A   1      49.076  26.534  26.953  1.00  0.00     0.074 A 
ATOM     62  C   UNL A   1      53.497  30.660  28.839  1.00  0.00     0.029 A 
ATOM     63  N   UNL A   1      51.585  29.656  28.316  1.00  0.00    -0.354 N 
ATOM     64  N   UNL A   1      49.924  27.451  27.357  1.00  0.00    -0.248 NA
ATOM     65  C   UNL A   1      49.708  25.347  26.362  1.00  0.00     0.031 C 
ATOM     66  C   UNL A   1      53.793  29.438  28.225  1.00  0.00     0.029 A 
ATOM     67  C   UNL A   1      52.600  28.797  27.929  1.00  0.00     0.049 A 
ATOM     68  H   UNL A   1      50.622  29.470  28.224  1.00  0.00     0.167 HD
ATOM     69  C   UNL A   1      51.191  26.937  27.096  1.00  0.00     0.074 A 
ATOM     70  C   UNL A   1      50.996  25.627  26.509  1.00  0.00     0.031 C 
ATOM     71  C   UNL A   1      52.404  27.498  27.331  1.00  0.00     0.031 A 
BRANCH  58  72
ATOM     72  C   UNL A   1      52.093  33.183  29.767  1.00  0.00    -0.014 A 
ATOM     73  C   UNL A   1      52.451  33.374  31.114  1.00  0.00     0.010 A 
ATOM     74  C   UNL A   1      52.434  34.173  28.826  1.00  0.00     0.010 A 
ATOM     75  C   UNL A   1      53.073  34.560  31.522  1.00  0.00     0.020 A 
ATOM     76  C   UNL A   1      53.086  35.344  29.222  1.00  0.00     0.020 A 
ATOM     77  C   UNL A   1      53.375  35.542  30.574  1.00  0.00     0.054 A 
BRANCH  77  78
ATOM     78  S   UNL A   1      54.155  37.082  31.131  1.00  0.00     0.124 S 
ATOM     79  O   UNL A   1      54.810  37.546  29.910  1.00  0.00    -0.237 OA
ATOM     80  O   UNL A   1      53.013  37.879  31.574  1.00  0.00    -0.237 OA
ATOM     81  O   UNL A   1      55.060  36.650  32.195  1.00  0.00    -0.744 OA
ENDBRANCH  77  78
ENDBRANCH  58  72
BRANCH  59  82
ATOM     82  C   UNL A   1      46.782  25.364  26.566  1.00  0.00    -0.014 A 
ATOM     83  C   UNL A   1      46.398  25.251  25.219  1.00  0.00     0.010 A 
ATOM     84  C   UNL A   1      46.442  24.334  27.463  1.00  0.00     0.010 A 
ATOM     85  C   UNL A   1      45.696  24.127  24.774  1.00  0.00     0.020 A 
ATOM     86  C   UNL A   1      45.765  23.196  27.016  1.00  0.00     0.020 A 
ATOM     87  C   UNL A   1      45.394  23.101  25.674  1.00  0.00     0.054 A 
BRANCH  87  88
ATOM     88  S   UNL A   1      44.566  21.612  25.051  1.00  0.00     0.124 S 
ATOM     89  O   UNL A   1      43.371  21.555  25.885  1.00  0.00    -0.237 OA
ATOM     90  O   UNL A   1      44.342  21.944  23.646  1.00  0.00    -0.237 OA
ATOM     91  O   UNL A   1      45.545  20.553  25.284  1.00  0.00    -0.744 OA
ENDBRANCH  87  88
ENDBRANCH  59  82
BRANCH  71  92
ATOM     92  C   UNL A   1      53.628  26.687  26.984  1.00  0.00    -0.014 A 
ATOM     93  C   UNL A   1      54.281  25.892  27.942  1.00  0.00     0.010 A 
ATOM     94  C   UNL A   1      54.100  26.680  25.657  1.00  0.00     0.010 A 
ATOM     95  C   UNL A   1      55.402  25.134  27.589  1.00  0.00     0.020 A 
ATOM     96  C   UNL A   1      55.200  25.899  25.293  1.00  0.00     0.020 A 
ATOM     97  C   UNL A   1      55.854  25.141  26.265  1.00  0.00     0.054 A 
BRANCH  97  98
ATOM     98  S   UNL A   1      57.283  24.114  25.824  1.00  0.00     0.124 S 
ATOM     99  O   UNL A   1      56.796  22.770  26.120  1.00  0.00    -0.237 OA
ATOM    100  O   UNL A   1      57.471  24.417  24.408  1.00  0.00    -0.237 OA
ATOM    101  O   UNL A   1      58.344  24.598  26.704  1.00  0.00    -0.744 OA
ENDBRANCH  97  98
ENDBRANCH  71  92
ENDBRANCH  45  46
ENDBRANCH  38  40
ENDBRANCH  37  38
ENDBRANCH  36  37
ENDBRANCH  35  36
ENDBRANCH  34  35
ENDBRANCH   1  34
TORSDOF 24
ENDMDL
