MODEL 1
REMARK VINA RESULT:     -12.2      0.000      0.000
REMARK SMILES O=C(OCCOCCOC(=O)[C@H]1CN(C(=O)C[C@H]2NC(=O)c3ccccc32)C[C@@H]1c1ccc(F)cc1)c1ccc(-c2c3nc(c(-c4ccc(S(=O)(=O)[O-])cc4)c4ccc([nH]4)c(-c4ccc(S(=O)(=O)[O-])cc4)c4nc(c(-c5ccc(S(=O)(=O)[O-])cc5)c5ccc2[nH]5)C=C4)C=C3)cc1
REMARK SMILES IDX 6 1 5 2 4 3 3 4 2 5 1 6 37 7 38 8 96 9 39 10 95 11 40 12
REMARK SMILES IDX 41 13 42 14 89 15 43 16 94 17 88 18 90 19 44 20 93 21 87 22
REMARK SMILES IDX 86 23 45 25 75 26 56 27 74 28 57 29 60 30 73 31 91 32 58 33
REMARK SMILES IDX 59 34 72 36 92 37 61 38 46 39 47 40 55 41 48 42 54 43 49 44
REMARK SMILES IDX 50 45 51 46 52 47 53 48 76 49 77 50 85 51 78 52 84 53 79 54
REMARK SMILES IDX 80 55 81 56 82 57 83 58 62 59 63 60 71 61 64 62 70 63 65 64
REMARK SMILES IDX 66 65 67 66 68 67 69 68 7 69 8 70 9 71 10 72 11 73 12 74
REMARK SMILES IDX 13 75 29 76 14 77 28 78 30 79 31 80 36 81 32 82 35 83 33 84
REMARK SMILES IDX 34 85 15 86 16 87 17 88 18 89 19 90 27 91 20 92 22 94 26 95
REMARK SMILES IDX 21 96 23 97 25 98 24 99
REMARK H PARENT 90 24 60 35 19 93
REMARK Flexibility Score: inf
ROOT
ATOM      1  O   UNL A   1      39.585  21.660  26.706  1.00  0.00    -0.374 OA
ENDROOT
BRANCH   1   2
ATOM      2  C   UNL A   1      40.885  21.480  26.155  1.00  0.00     0.202 C 
BRANCH   2   3
ATOM      3  C   UNL A   1      41.861  22.664  26.139  1.00  0.00     0.261 C 
BRANCH   3   4
ATOM      4  O   UNL A   1      41.305  23.747  26.913  1.00  0.00    -0.460 OA
BRANCH   4   5
ATOM      5  C   UNL A   1      41.435  25.075  26.655  1.00  0.00     0.338 C 
ATOM      6  O   UNL A   1      41.917  25.456  25.594  1.00  0.00    -0.246 OA
BRANCH   5   7
ATOM      7  C   UNL A   1      40.912  26.070  27.620  1.00  0.00     0.060 A 
ATOM      8  C   UNL A   1      41.458  27.337  27.739  1.00  0.00     0.016 A 
ATOM      9  C   UNL A   1      39.857  25.728  28.467  1.00  0.00     0.016 A 
ATOM     10  C   UNL A   1      41.164  28.173  28.763  1.00  0.00     0.010 A 
ATOM     11  C   UNL A   1      39.449  26.628  29.458  1.00  0.00     0.010 A 
ATOM     12  C   UNL A   1      40.141  27.836  29.618  1.00  0.00    -0.014 A 
BRANCH  12  13
ATOM     13  C   UNL A   1      40.042  28.742  30.757  1.00  0.00     0.031 A 
ATOM     14  C   UNL A   1      41.141  28.678  31.765  1.00  0.00     0.074 A 
ATOM     15  C   UNL A   1      39.186  29.779  30.662  1.00  0.00     0.049 A 
ATOM     16  N   UNL A   1      41.296  29.381  32.845  1.00  0.00    -0.248 NA
ATOM     17  C   UNL A   1      42.226  27.708  31.511  1.00  0.00     0.031 C 
ATOM     18  C   UNL A   1      38.276  30.031  29.529  1.00  0.00     0.029 A 
ATOM     19  N   UNL A   1      39.006  30.861  31.469  1.00  0.00    -0.354 N 
ATOM     20  C   UNL A   1      42.443  28.882  33.446  1.00  0.00     0.074 A 
ATOM     21  C   UNL A   1      42.969  27.841  32.598  1.00  0.00     0.031 C 
ATOM     22  C   UNL A   1      37.676  31.217  29.701  1.00  0.00     0.029 A 
ATOM     23  C   UNL A   1      38.058  31.737  31.001  1.00  0.00     0.049 A 
ATOM     24  H   UNL A   1      39.506  31.000  32.306  1.00  0.00     0.167 HD
ATOM     25  C   UNL A   1      42.971  29.258  34.630  1.00  0.00     0.031 A 
ATOM     26  C   UNL A   1      37.520  32.810  31.606  1.00  0.00     0.031 A 
ATOM     27  C   UNL A   1      42.392  30.309  35.417  1.00  0.00     0.049 A 
ATOM     28  C   UNL A   1      38.034  33.120  32.983  1.00  0.00     0.074 A 
ATOM     29  C   UNL A   1      42.745  30.744  36.677  1.00  0.00     0.029 A 
ATOM     30  N   UNL A   1      41.324  31.095  34.998  1.00  0.00    -0.354 N 
ATOM     31  N   UNL A   1      39.023  32.549  33.635  1.00  0.00    -0.248 NA
ATOM     32  C   UNL A   1      37.357  34.191  33.712  1.00  0.00     0.031 C 
ATOM     33  C   UNL A   1      41.847  31.751  37.045  1.00  0.00     0.029 A 
ATOM     34  C   UNL A   1      40.987  32.001  35.983  1.00  0.00     0.049 A 
ATOM     35  H   UNL A   1      40.872  31.017  34.125  1.00  0.00     0.167 HD
ATOM     36  C   UNL A   1      39.107  33.212  34.849  1.00  0.00     0.074 A 
ATOM     37  C   UNL A   1      38.078  34.238  34.824  1.00  0.00     0.031 C 
ATOM     38  C   UNL A   1      39.951  33.002  35.891  1.00  0.00     0.031 A 
BRANCH  25  39
ATOM     39  C   UNL A   1      44.105  28.432  35.166  1.00  0.00    -0.014 A 
ATOM     40  C   UNL A   1      45.437  28.625  34.759  1.00  0.00     0.010 A 
ATOM     41  C   UNL A   1      43.808  27.391  36.065  1.00  0.00     0.010 A 
ATOM     42  C   UNL A   1      46.444  27.768  35.214  1.00  0.00     0.020 A 
ATOM     43  C   UNL A   1      44.815  26.553  36.546  1.00  0.00     0.020 A 
ATOM     44  C   UNL A   1      46.126  26.737  36.105  1.00  0.00     0.054 A 
BRANCH  44  45
ATOM     45  S   UNL A   1      47.453  25.651  36.696  1.00  0.00     0.124 S 
ATOM     46  O   UNL A   1      46.823  25.003  37.844  1.00  0.00    -0.237 OA
ATOM     47  O   UNL A   1      47.696  24.790  35.542  1.00  0.00    -0.237 OA
ATOM     48  O   UNL A   1      48.537  26.574  37.022  1.00  0.00    -0.744 OA
ENDBRANCH  44  45
ENDBRANCH  25  39
BRANCH  26  49
ATOM     49  C   UNL A   1      36.404  33.564  30.973  1.00  0.00    -0.014 A 
ATOM     50  C   UNL A   1      35.193  33.776  31.650  1.00  0.00     0.010 A 
ATOM     51  C   UNL A   1      36.548  34.078  29.667  1.00  0.00     0.010 A 
ATOM     52  C   UNL A   1      34.142  34.461  31.029  1.00  0.00     0.020 A 
ATOM     53  C   UNL A   1      35.515  34.793  29.055  1.00  0.00     0.020 A 
ATOM     54  C   UNL A   1      34.311  34.964  29.735  1.00  0.00     0.054 A 
BRANCH  54  55
ATOM     55  S   UNL A   1      32.938  35.859  28.956  1.00  0.00     0.124 S 
ATOM     56  O   UNL A   1      32.336  34.824  28.122  1.00  0.00    -0.237 OA
ATOM     57  O   UNL A   1      32.148  36.286  30.108  1.00  0.00    -0.237 OA
ATOM     58  O   UNL A   1      33.602  36.940  28.230  1.00  0.00    -0.744 OA
ENDBRANCH  54  55
ENDBRANCH  26  49
BRANCH  38  59
ATOM     59  C   UNL A   1      39.828  33.950  37.046  1.00  0.00    -0.014 A 
ATOM     60  C   UNL A   1      40.378  35.242  36.997  1.00  0.00     0.010 A 
ATOM     61  C   UNL A   1      39.102  33.542  38.178  1.00  0.00     0.010 A 
ATOM     62  C   UNL A   1      40.240  36.097  38.089  1.00  0.00     0.020 A 
ATOM     63  C   UNL A   1      38.928  34.409  39.254  1.00  0.00     0.020 A 
ATOM     64  C   UNL A   1      39.515  35.674  39.208  1.00  0.00     0.054 A 
BRANCH  64  65
ATOM     65  S   UNL A   1      39.319  36.818  40.598  1.00  0.00     0.124 S 
ATOM     66  O   UNL A   1      38.776  38.002  39.940  1.00  0.00    -0.237 OA
ATOM     67  O   UNL A   1      38.393  36.101  41.472  1.00  0.00    -0.237 OA
ATOM     68  O   UNL A   1      40.676  36.962  41.121  1.00  0.00    -0.744 OA
ENDBRANCH  64  65
ENDBRANCH  38  59
ENDBRANCH  12  13
ENDBRANCH   5   7
ENDBRANCH   4   5
ENDBRANCH   3   4
ENDBRANCH   2   3
ENDBRANCH   1   2
BRANCH   1  69
ATOM     69  C   UNL A   1      38.495  21.657  25.782  1.00  0.00     0.202 C 
BRANCH  69  70
ATOM     70  C   UNL A   1      37.879  23.047  25.706  1.00  0.00     0.261 C 
BRANCH  70  71
ATOM     71  O   UNL A   1      36.468  22.918  25.948  1.00  0.00    -0.463 OA
BRANCH  71  72
ATOM     72  C   UNL A   1      35.794  22.150  25.054  1.00  0.00     0.311 C 
ATOM     73  O   UNL A   1      35.835  22.277  23.837  1.00  0.00    -0.252 OA
BRANCH  72  74
ATOM     74  C   UNL A   1      34.930  21.101  25.718  1.00  0.00     0.128 C 
ATOM     75  C   UNL A   1      34.008  21.464  26.886  1.00  0.00     0.135 C 
ATOM     76  C   UNL A   1      33.938  20.554  24.688  1.00  0.00     0.055 C 
ATOM     77  N   UNL A   1      32.807  21.988  26.264  1.00  0.00    -0.341 N 
ATOM     78  C   UNL A   1      32.680  21.431  24.920  1.00  0.00     0.128 C 
BRANCH  76  79
ATOM     79  C   UNL A   1      33.730  19.052  24.794  1.00  0.00    -0.042 A 
ATOM     80  C   UNL A   1      34.764  18.218  24.348  1.00  0.00     0.007 A 
ATOM     81  C   UNL A   1      32.625  18.461  25.439  1.00  0.00     0.007 A 
ATOM     82  C   UNL A   1      34.714  16.845  24.585  1.00  0.00     0.039 A 
ATOM     83  C   UNL A   1      32.584  17.093  25.688  1.00  0.00     0.039 A 
ATOM     84  C   UNL A   1      33.634  16.298  25.267  1.00  0.00     0.123 A 
ATOM     85  F   UNL A   1      33.611  14.987  25.531  1.00  0.00    -0.207 F 
ENDBRANCH  76  79
BRANCH  77  86
ATOM     86  C   UNL A   1      31.906  22.934  26.708  1.00  0.00     0.225 C 
ATOM     87  O   UNL A   1      31.141  22.676  27.643  1.00  0.00    -0.275 OA
BRANCH  86  88
ATOM     88  C   UNL A   1      31.861  24.314  26.075  1.00  0.00     0.130 C 
BRANCH  88  89
ATOM     89  C   UNL A   1      30.907  24.417  24.896  1.00  0.00     0.123 C 
ATOM     90  N   UNL A   1      29.916  25.470  25.062  1.00  0.00    -0.345 N 
ATOM     91  C   UNL A   1      31.558  24.807  23.603  1.00  0.00    -0.012 A 
ATOM     92  C   UNL A   1      29.848  26.326  23.981  1.00  0.00     0.252 C 
ATOM     93  H   UNL A   1      29.351  25.562  25.863  1.00  0.00     0.164 HD
ATOM     94  C   UNL A   1      30.913  25.917  23.059  1.00  0.00     0.045 A 
ATOM     95  C   UNL A   1      32.630  24.239  22.937  1.00  0.00     0.007 A 
ATOM     96  O   UNL A   1      29.065  27.233  23.812  1.00  0.00    -0.269 OA
ATOM     97  C   UNL A   1      31.292  26.490  21.861  1.00  0.00     0.014 A 
ATOM     98  C   UNL A   1      33.051  24.813  21.736  1.00  0.00     0.000 A 
ATOM     99  C   UNL A   1      32.384  25.927  21.199  1.00  0.00     0.001 A 
ENDBRANCH  88  89
ENDBRANCH  86  88
ENDBRANCH  77  86
ENDBRANCH  72  74
ENDBRANCH  71  72
ENDBRANCH  70  71
ENDBRANCH  69  70
ENDBRANCH   1  69
TORSDOF 21
ENDMDL
MODEL 2
REMARK VINA RESULT:     -12.1      1.230      7.967
REMARK SMILES O=C(OCCOCCOC(=O)[C@H]1CN(C(=O)C[C@H]2NC(=O)c3ccccc32)C[C@@H]1c1ccc(F)cc1)c1ccc(-c2c3nc(c(-c4ccc(S(=O)(=O)[O-])cc4)c4ccc([nH]4)c(-c4ccc(S(=O)(=O)[O-])cc4)c4nc(c(-c5ccc(S(=O)(=O)[O-])cc5)c5ccc2[nH]5)C=C4)C=C3)cc1
REMARK SMILES IDX 6 1 5 2 4 3 3 4 2 5 1 6 37 7 38 8 96 9 39 10 95 11 40 12
REMARK SMILES IDX 41 13 42 14 89 15 43 16 94 17 88 18 90 19 44 20 93 21 87 22
REMARK SMILES IDX 86 23 45 25 75 26 56 27 74 28 57 29 60 30 73 31 91 32 58 33
REMARK SMILES IDX 59 34 72 36 92 37 61 38 46 39 47 40 55 41 48 42 54 43 49 44
REMARK SMILES IDX 50 45 51 46 52 47 53 48 76 49 77 50 85 51 78 52 84 53 79 54
REMARK SMILES IDX 80 55 81 56 82 57 83 58 62 59 63 60 71 61 64 62 70 63 65 64
REMARK SMILES IDX 66 65 67 66 68 67 69 68 7 69 8 70 9 71 10 72 11 73 12 74
REMARK SMILES IDX 13 75 29 76 14 77 28 78 30 79 31 80 36 81 32 82 35 83 33 84
REMARK SMILES IDX 34 85 15 86 16 87 17 88 18 89 19 90 27 91 20 92 22 94 26 95
REMARK SMILES IDX 21 96 23 97 25 98 24 99
REMARK H PARENT 90 24 60 35 19 93
REMARK Flexibility Score: inf
ROOT
ATOM      1  O   UNL A   1      40.107  21.868  26.935  1.00  0.00    -0.374 OA
ENDROOT
BRANCH   1   2
ATOM      2  C   UNL A   1      41.484  21.842  26.573  1.00  0.00     0.202 C 
BRANCH   2   3
ATOM      3  C   UNL A   1      42.118  23.096  25.956  1.00  0.00     0.261 C 
BRANCH   3   4
ATOM      4  O   UNL A   1      41.903  24.218  26.837  1.00  0.00    -0.460 OA
BRANCH   4   5
ATOM      5  C   UNL A   1      41.675  25.505  26.466  1.00  0.00     0.338 C 
ATOM      6  O   UNL A   1      41.762  25.835  25.287  1.00  0.00    -0.246 OA
BRANCH   5   7
ATOM      7  C   UNL A   1      41.233  26.498  27.472  1.00  0.00     0.060 A 
ATOM      8  C   UNL A   1      41.811  27.752  27.573  1.00  0.00     0.016 A 
ATOM      9  C   UNL A   1      40.224  26.166  28.378  1.00  0.00     0.016 A 
ATOM     10  C   UNL A   1      41.597  28.581  28.623  1.00  0.00     0.010 A 
ATOM     11  C   UNL A   1      39.895  27.062  29.402  1.00  0.00     0.010 A 
ATOM     12  C   UNL A   1      40.621  28.253  29.534  1.00  0.00    -0.014 A 
BRANCH  12  13
ATOM     13  C   UNL A   1      40.610  29.146  30.688  1.00  0.00     0.031 A 
ATOM     14  C   UNL A   1      39.478  30.116  30.775  1.00  0.00     0.074 A 
ATOM     15  C   UNL A   1      41.392  28.827  31.737  1.00  0.00     0.049 A 
ATOM     16  N   UNL A   1      39.230  30.996  31.697  1.00  0.00    -0.248 NA
ATOM     17  C   UNL A   1      38.477  30.075  29.689  1.00  0.00     0.031 C 
ATOM     18  C   UNL A   1      42.326  27.686  31.788  1.00  0.00     0.029 A 
ATOM     19  N   UNL A   1      41.462  29.359  32.989  1.00  0.00    -0.354 N 
ATOM     20  C   UNL A   1      38.099  31.671  31.263  1.00  0.00     0.074 A 
ATOM     21  C   UNL A   1      37.684  31.083  30.015  1.00  0.00     0.031 C 
ATOM     22  C   UNL A   1      42.833  27.586  33.025  1.00  0.00     0.029 A 
ATOM     23  C   UNL A   1      42.363  28.718  33.804  1.00  0.00     0.049 A 
ATOM     24  H   UNL A   1      40.920  30.127  33.281  1.00  0.00     0.167 HD
ATOM     25  C   UNL A   1      37.499  32.721  31.863  1.00  0.00     0.031 A 
ATOM     26  C   UNL A   1      42.797  29.063  35.027  1.00  0.00     0.031 A 
ATOM     27  C   UNL A   1      37.969  33.250  33.112  1.00  0.00     0.049 A 
ATOM     28  C   UNL A   1      42.208  30.315  35.610  1.00  0.00     0.074 A 
ATOM     29  C   UNL A   1      37.535  34.363  33.802  1.00  0.00     0.029 A 
ATOM     30  N   UNL A   1      38.994  32.679  33.861  1.00  0.00    -0.354 N 
ATOM     31  N   UNL A   1      41.237  31.063  35.131  1.00  0.00    -0.248 NA
ATOM     32  C   UNL A   1      42.776  30.785  36.872  1.00  0.00     0.031 C 
ATOM     33  C   UNL A   1      38.343  34.502  34.935  1.00  0.00     0.029 A 
ATOM     34  C   UNL A   1      39.225  33.429  34.995  1.00  0.00     0.049 A 
ATOM     35  H   UNL A   1      39.484  31.860  33.616  1.00  0.00     0.167 HD
ATOM     36  C   UNL A   1      41.057  32.083  36.051  1.00  0.00     0.074 A 
ATOM     37  C   UNL A   1      42.010  31.838  37.121  1.00  0.00     0.031 C 
ATOM     38  C   UNL A   1      40.190  33.126  36.026  1.00  0.00     0.031 A 
BRANCH  25  39
ATOM     39  C   UNL A   1      36.406  33.412  31.100  1.00  0.00    -0.014 A 
ATOM     40  C   UNL A   1      36.582  33.876  29.783  1.00  0.00     0.010 A 
ATOM     41  C   UNL A   1      35.182  33.653  31.751  1.00  0.00     0.010 A 
ATOM     42  C   UNL A   1      35.566  34.598  29.149  1.00  0.00     0.020 A 
ATOM     43  C   UNL A   1      34.155  34.347  31.111  1.00  0.00     0.020 A 
ATOM     44  C   UNL A   1      34.359  34.830  29.818  1.00  0.00     0.054 A 
BRANCH  44  45
ATOM     45  S   UNL A   1      33.050  35.752  28.966  1.00  0.00     0.124 S 
ATOM     46  O   UNL A   1      33.817  36.757  28.234  1.00  0.00    -0.237 OA
ATOM     47  O   UNL A   1      32.419  34.721  28.146  1.00  0.00    -0.237 OA
ATOM     48  O   UNL A   1      32.226  36.270  30.055  1.00  0.00    -0.744 OA
ENDBRANCH  44  45
ENDBRANCH  25  39
BRANCH  26  49
ATOM     49  C   UNL A   1      43.881  28.293  35.698  1.00  0.00    -0.014 A 
ATOM     50  C   UNL A   1      45.233  28.559  35.430  1.00  0.00     0.010 A 
ATOM     51  C   UNL A   1      43.560  27.274  36.618  1.00  0.00     0.010 A 
ATOM     52  C   UNL A   1      46.240  27.806  36.045  1.00  0.00     0.020 A 
ATOM     53  C   UNL A   1      44.562  26.542  37.262  1.00  0.00     0.020 A 
ATOM     54  C   UNL A   1      45.896  26.802  36.957  1.00  0.00     0.054 A 
BRANCH  54  55
ATOM     55  S   UNL A   1      47.220  25.849  37.751  1.00  0.00     0.124 S 
ATOM     56  O   UNL A   1      48.413  26.570  37.322  1.00  0.00    -0.237 OA
ATOM     57  O   UNL A   1      46.884  25.965  39.168  1.00  0.00    -0.237 OA
ATOM     58  O   UNL A   1      47.063  24.509  37.189  1.00  0.00    -0.744 OA
ENDBRANCH  54  55
ENDBRANCH  26  49
BRANCH  38  59
ATOM     59  C   UNL A   1      40.197  34.025  37.224  1.00  0.00    -0.014 A 
ATOM     60  C   UNL A   1      41.113  35.085  37.342  1.00  0.00     0.010 A 
ATOM     61  C   UNL A   1      39.230  33.824  38.225  1.00  0.00     0.010 A 
ATOM     62  C   UNL A   1      41.086  35.903  38.470  1.00  0.00     0.020 A 
ATOM     63  C   UNL A   1      39.176  34.665  39.332  1.00  0.00     0.020 A 
ATOM     64  C   UNL A   1      40.117  35.688  39.456  1.00  0.00     0.054 A 
BRANCH  64  65
ATOM     65  S   UNL A   1      40.081  36.788  40.893  1.00  0.00     0.124 S 
ATOM     66  O   UNL A   1      38.830  36.402  41.537  1.00  0.00    -0.237 OA
ATOM     67  O   UNL A   1      41.300  36.416  41.609  1.00  0.00    -0.237 OA
ATOM     68  O   UNL A   1      40.095  38.126  40.306  1.00  0.00    -0.744 OA
ENDBRANCH  64  65
ENDBRANCH  38  59
ENDBRANCH  12  13
ENDBRANCH   5   7
ENDBRANCH   4   5
ENDBRANCH   3   4
ENDBRANCH   2   3
ENDBRANCH   1   2
BRANCH   1  69
ATOM     69  C   UNL A   1      39.224  21.076  26.138  1.00  0.00     0.202 C 
BRANCH  69  70
ATOM     70  C   UNL A   1      38.371  21.979  25.259  1.00  0.00     0.261 C 
BRANCH  70  71
ATOM     71  O   UNL A   1      37.079  22.104  25.879  1.00  0.00    -0.463 OA
BRANCH  71  72
ATOM     72  C   UNL A   1      36.019  21.851  25.068  1.00  0.00     0.311 C 
ATOM     73  O   UNL A   1      35.837  22.347  23.964  1.00  0.00    -0.252 OA
BRANCH  72  74
ATOM     74  C   UNL A   1      35.030  20.886  25.682  1.00  0.00     0.128 C 
ATOM     75  C   UNL A   1      33.927  21.382  26.624  1.00  0.00     0.135 C 
ATOM     76  C   UNL A   1      34.220  20.229  24.562  1.00  0.00     0.055 C 
ATOM     77  N   UNL A   1      32.865  21.835  25.747  1.00  0.00    -0.341 N 
ATOM     78  C   UNL A   1      32.961  21.130  24.472  1.00  0.00     0.128 C 
BRANCH  76  79
ATOM     79  C   UNL A   1      33.962  18.749  24.796  1.00  0.00    -0.042 A 
ATOM     80  C   UNL A   1      32.719  18.380  25.325  1.00  0.00     0.007 A 
ATOM     81  C   UNL A   1      34.842  17.729  24.381  1.00  0.00     0.007 A 
ATOM     82  C   UNL A   1      32.351  17.037  25.391  1.00  0.00     0.039 A 
ATOM     83  C   UNL A   1      34.468  16.390  24.433  1.00  0.00     0.039 A 
ATOM     84  C   UNL A   1      33.221  16.057  24.930  1.00  0.00     0.123 A 
ATOM     85  F   UNL A   1      32.847  14.773  24.953  1.00  0.00    -0.207 F 
ENDBRANCH  76  79
BRANCH  77  86
ATOM     86  C   UNL A   1      31.922  22.828  25.918  1.00  0.00     0.225 C 
ATOM     87  O   UNL A   1      30.719  22.568  25.820  1.00  0.00    -0.275 OA
BRANCH  86  88
ATOM     88  C   UNL A   1      32.348  24.245  26.260  1.00  0.00     0.130 C 
BRANCH  88  89
ATOM     89  C   UNL A   1      33.523  24.748  25.437  1.00  0.00     0.123 C 
ATOM     90  N   UNL A   1      33.445  24.348  24.039  1.00  0.00    -0.345 N 
ATOM     91  C   UNL A   1      33.610  26.241  25.326  1.00  0.00    -0.012 A 
ATOM     92  C   UNL A   1      33.594  25.406  23.163  1.00  0.00     0.252 C 
ATOM     93  H   UNL A   1      33.301  23.419  23.746  1.00  0.00     0.164 HD
ATOM     94  C   UNL A   1      33.676  26.618  23.985  1.00  0.00     0.045 A 
ATOM     95  C   UNL A   1      33.637  27.208  26.316  1.00  0.00     0.007 A 
ATOM     96  O   UNL A   1      33.655  25.356  21.956  1.00  0.00    -0.269 OA
ATOM     97  C   UNL A   1      33.775  27.935  23.583  1.00  0.00     0.014 A 
ATOM     98  C   UNL A   1      33.711  28.550  25.937  1.00  0.00     0.000 A 
ATOM     99  C   UNL A   1      33.786  28.911  24.581  1.00  0.00     0.001 A 
ENDBRANCH  88  89
ENDBRANCH  86  88
ENDBRANCH  77  86
ENDBRANCH  72  74
ENDBRANCH  71  72
ENDBRANCH  70  71
ENDBRANCH  69  70
ENDBRANCH   1  69
TORSDOF 21
ENDMDL
MODEL 3
REMARK VINA RESULT:     -12.0      6.223      8.200
REMARK SMILES O=C(OCCOCCOC(=O)[C@H]1CN(C(=O)C[C@H]2NC(=O)c3ccccc32)C[C@@H]1c1ccc(F)cc1)c1ccc(-c2c3nc(c(-c4ccc(S(=O)(=O)[O-])cc4)c4ccc([nH]4)c(-c4ccc(S(=O)(=O)[O-])cc4)c4nc(c(-c5ccc(S(=O)(=O)[O-])cc5)c5ccc2[nH]5)C=C4)C=C3)cc1
REMARK SMILES IDX 6 1 5 2 4 3 3 4 2 5 1 6 37 7 38 8 96 9 39 10 95 11 40 12
REMARK SMILES IDX 41 13 42 14 89 15 43 16 94 17 88 18 90 19 44 20 93 21 87 22
REMARK SMILES IDX 86 23 45 25 75 26 56 27 74 28 57 29 60 30 73 31 91 32 58 33
REMARK SMILES IDX 59 34 72 36 92 37 61 38 46 39 47 40 55 41 48 42 54 43 49 44
REMARK SMILES IDX 50 45 51 46 52 47 53 48 76 49 77 50 85 51 78 52 84 53 79 54
REMARK SMILES IDX 80 55 81 56 82 57 83 58 62 59 63 60 71 61 64 62 70 63 65 64
REMARK SMILES IDX 66 65 67 66 68 67 69 68 7 69 8 70 9 71 10 72 11 73 12 74
REMARK SMILES IDX 13 75 29 76 14 77 28 78 30 79 31 80 36 81 32 82 35 83 33 84
REMARK SMILES IDX 34 85 15 86 16 87 17 88 18 89 19 90 27 91 20 92 22 94 26 95
REMARK SMILES IDX 21 96 23 97 25 98 24 99
REMARK H PARENT 90 24 60 35 19 93
REMARK Flexibility Score: inf
ROOT
ATOM      1  O   UNL A   1      38.896  20.906  26.331  1.00  0.00    -0.374 OA
ENDROOT
BRANCH   1   2
ATOM      2  C   UNL A   1      40.297  21.141  26.226  1.00  0.00     0.202 C 
BRANCH   2   3
ATOM      3  C   UNL A   1      41.272  20.003  26.555  1.00  0.00     0.261 C 
BRANCH   3   4
ATOM      4  O   UNL A   1      42.081  19.721  25.394  1.00  0.00    -0.460 OA
BRANCH   4   5
ATOM      5  C   UNL A   1      43.416  19.935  25.268  1.00  0.00     0.338 C 
ATOM      6  O   UNL A   1      44.168  19.009  24.982  1.00  0.00    -0.246 OA
BRANCH   5   7
ATOM      7  C   UNL A   1      43.959  21.308  25.385  1.00  0.00     0.060 A 
ATOM      8  C   UNL A   1      44.905  21.647  26.338  1.00  0.00     0.016 A 
ATOM      9  C   UNL A   1      43.491  22.315  24.539  1.00  0.00     0.016 A 
ATOM     10  C   UNL A   1      45.238  22.929  26.624  1.00  0.00     0.010 A 
ATOM     11  C   UNL A   1      43.917  23.634  24.735  1.00  0.00     0.010 A 
ATOM     12  C   UNL A   1      44.764  23.931  25.811  1.00  0.00    -0.014 A 
BRANCH  12  13
ATOM     13  C   UNL A   1      45.068  25.261  26.327  1.00  0.00     0.031 A 
ATOM     14  C   UNL A   1      46.417  25.814  26.003  1.00  0.00     0.074 A 
ATOM     15  C   UNL A   1      44.040  26.022  26.750  1.00  0.00     0.049 A 
ATOM     16  N   UNL A   1      46.921  26.967  26.324  1.00  0.00    -0.248 NA
ATOM     17  C   UNL A   1      47.311  24.966  25.189  1.00  0.00     0.031 C 
ATOM     18  C   UNL A   1      42.630  25.591  26.812  1.00  0.00     0.029 A 
ATOM     19  N   UNL A   1      43.993  27.333  27.113  1.00  0.00    -0.354 N 
ATOM     20  C   UNL A   1      48.217  26.950  25.829  1.00  0.00     0.074 A 
ATOM     21  C   UNL A   1      48.417  25.691  25.157  1.00  0.00     0.031 C 
ATOM     22  C   UNL A   1      41.863  26.638  27.144  1.00  0.00     0.029 A 
ATOM     23  C   UNL A   1      42.731  27.763  27.440  1.00  0.00     0.049 A 
ATOM     24  H   UNL A   1      44.786  27.916  27.139  1.00  0.00     0.167 HD
ATOM     25  C   UNL A   1      49.155  27.910  25.974  1.00  0.00     0.031 A 
ATOM     26  C   UNL A   1      42.344  28.931  27.983  1.00  0.00     0.031 A 
ATOM     27  C   UNL A   1      48.879  29.142  26.655  1.00  0.00     0.049 A 
ATOM     28  C   UNL A   1      43.435  29.925  28.258  1.00  0.00     0.074 A 
ATOM     29  C   UNL A   1      49.741  30.172  26.970  1.00  0.00     0.029 A 
ATOM     30  N   UNL A   1      47.621  29.505  27.125  1.00  0.00    -0.354 N 
ATOM     31  N   UNL A   1      44.708  29.854  27.936  1.00  0.00    -0.248 NA
ATOM     32  C   UNL A   1      43.054  31.136  28.982  1.00  0.00     0.031 C 
ATOM     33  C   UNL A   1      49.016  31.128  27.688  1.00  0.00     0.029 A 
ATOM     34  C   UNL A   1      47.684  30.734  27.749  1.00  0.00     0.049 A 
ATOM     35  H   UNL A   1      46.803  28.964  27.027  1.00  0.00     0.167 HD
ATOM     36  C   UNL A   1      45.281  31.030  28.395  1.00  0.00     0.074 A 
ATOM     37  C   UNL A   1      44.204  31.797  29.000  1.00  0.00     0.031 C 
ATOM     38  C   UNL A   1      46.570  31.446  28.328  1.00  0.00     0.031 A 
BRANCH  25  39
ATOM     39  C   UNL A   1      50.549  27.577  25.523  1.00  0.00    -0.014 A 
ATOM     40  C   UNL A   1      51.486  26.953  26.366  1.00  0.00     0.010 A 
ATOM     41  C   UNL A   1      50.942  27.960  24.227  1.00  0.00     0.010 A 
ATOM     42  C   UNL A   1      52.800  26.751  25.931  1.00  0.00     0.020 A 
ATOM     43  C   UNL A   1      52.244  27.732  23.778  1.00  0.00     0.020 A 
ATOM     44  C   UNL A   1      53.170  27.143  24.639  1.00  0.00     0.054 A 
BRANCH  44  45
ATOM     45  S   UNL A   1      54.874  26.852  24.092  1.00  0.00     0.124 S 
ATOM     46  O   UNL A   1      55.180  25.571  24.724  1.00  0.00    -0.237 OA
ATOM     47  O   UNL A   1      54.739  26.819  22.639  1.00  0.00    -0.237 OA
ATOM     48  O   UNL A   1      55.609  27.998  24.622  1.00  0.00    -0.744 OA
ENDBRANCH  44  45
ENDBRANCH  25  39
BRANCH  26  49
ATOM     49  C   UNL A   1      40.928  29.155  28.381  1.00  0.00    -0.014 A 
ATOM     50  C   UNL A   1      39.933  29.398  27.421  1.00  0.00     0.010 A 
ATOM     51  C   UNL A   1      40.563  29.131  29.743  1.00  0.00     0.010 A 
ATOM     52  C   UNL A   1      38.611  29.638  27.814  1.00  0.00     0.020 A 
ATOM     53  C   UNL A   1      39.238  29.335  30.139  1.00  0.00     0.020 A 
ATOM     54  C   UNL A   1      38.273  29.605  29.170  1.00  0.00     0.054 A 
BRANCH  54  55
ATOM     55  S   UNL A   1      36.550  29.906  29.653  1.00  0.00     0.124 S 
ATOM     56  O   UNL A   1      36.517  31.361  29.766  1.00  0.00    -0.237 OA
ATOM     57  O   UNL A   1      35.807  29.341  28.530  1.00  0.00    -0.237 OA
ATOM     58  O   UNL A   1      36.414  29.177  30.912  1.00  0.00    -0.744 OA
ENDBRANCH  54  55
ENDBRANCH  26  49
BRANCH  38  59
ATOM     59  C   UNL A   1      46.853  32.817  28.862  1.00  0.00    -0.014 A 
ATOM     60  C   UNL A   1      47.254  33.019  30.194  1.00  0.00     0.010 A 
ATOM     61  C   UNL A   1      46.760  33.914  27.988  1.00  0.00     0.010 A 
ATOM     62  C   UNL A   1      47.513  34.309  30.653  1.00  0.00     0.020 A 
ATOM     63  C   UNL A   1      47.058  35.199  28.434  1.00  0.00     0.020 A 
ATOM     64  C   UNL A   1      47.414  35.389  29.770  1.00  0.00     0.054 A 
BRANCH  64  65
ATOM     65  S   UNL A   1      47.792  37.050  30.383  1.00  0.00     0.124 S 
ATOM     66  O   UNL A   1      48.787  37.508  29.419  1.00  0.00    -0.237 OA
ATOM     67  O   UNL A   1      46.493  37.717  30.314  1.00  0.00    -0.237 OA
ATOM     68  O   UNL A   1      48.294  36.814  31.735  1.00  0.00    -0.744 OA
ENDBRANCH  64  65
ENDBRANCH  38  59
ENDBRANCH  12  13
ENDBRANCH   5   7
ENDBRANCH   4   5
ENDBRANCH   3   4
ENDBRANCH   2   3
ENDBRANCH   1   2
BRANCH   1  69
ATOM     69  C   UNL A   1      38.096  21.319  25.222  1.00  0.00     0.202 C 
BRANCH  69  70
ATOM     70  C   UNL A   1      37.634  22.755  25.425  1.00  0.00     0.261 C 
BRANCH  70  71
ATOM     71  O   UNL A   1      36.398  22.925  24.711  1.00  0.00    -0.463 OA
BRANCH  71  72
ATOM     72  C   UNL A   1      35.321  23.233  25.479  1.00  0.00     0.311 C 
ATOM     73  O   UNL A   1      35.054  24.346  25.913  1.00  0.00    -0.252 OA
BRANCH  72  74
ATOM     74  C   UNL A   1      34.461  22.028  25.789  1.00  0.00     0.128 C 
ATOM     75  C   UNL A   1      33.270  22.135  26.748  1.00  0.00     0.135 C 
ATOM     76  C   UNL A   1      33.788  21.556  24.498  1.00  0.00     0.055 C 
ATOM     77  N   UNL A   1      32.181  22.641  25.934  1.00  0.00    -0.341 N 
ATOM     78  C   UNL A   1      32.416  22.279  24.539  1.00  0.00     0.128 C 
BRANCH  76  79
ATOM     79  C   UNL A   1      33.737  20.043  24.366  1.00  0.00    -0.042 A 
ATOM     80  C   UNL A   1      32.622  19.481  23.730  1.00  0.00     0.007 A 
ATOM     81  C   UNL A   1      34.806  19.192  24.716  1.00  0.00     0.007 A 
ATOM     82  C   UNL A   1      32.600  18.123  23.413  1.00  0.00     0.039 A 
ATOM     83  C   UNL A   1      34.789  17.841  24.386  1.00  0.00     0.039 A 
ATOM     84  C   UNL A   1      33.689  17.321  23.729  1.00  0.00     0.123 A 
ATOM     85  F   UNL A   1      33.683  16.028  23.384  1.00  0.00    -0.207 F 
ENDBRANCH  76  79
BRANCH  77  86
ATOM     86  C   UNL A   1      31.102  23.431  26.271  1.00  0.00     0.225 C 
ATOM     87  O   UNL A   1      30.602  23.355  27.397  1.00  0.00    -0.275 OA
BRANCH  86  88
ATOM     88  C   UNL A   1      30.532  24.425  25.273  1.00  0.00     0.130 C 
BRANCH  88  89
ATOM     89  C   UNL A   1      30.255  25.797  25.866  1.00  0.00     0.123 C 
ATOM     90  N   UNL A   1      31.278  26.221  26.811  1.00  0.00    -0.345 N 
ATOM     91  C   UNL A   1      30.272  26.918  24.869  1.00  0.00    -0.012 A 
ATOM     92  C   UNL A   1      31.779  27.480  26.539  1.00  0.00     0.252 C 
ATOM     93  H   UNL A   1      31.583  25.668  27.566  1.00  0.00     0.164 HD
ATOM     94  C   UNL A   1      31.153  27.915  25.286  1.00  0.00     0.045 A 
ATOM     95  C   UNL A   1      29.568  27.070  23.687  1.00  0.00     0.007 A 
ATOM     96  O   UNL A   1      32.571  28.112  27.200  1.00  0.00    -0.269 OA
ATOM     97  C   UNL A   1      31.362  29.076  24.568  1.00  0.00     0.014 A 
ATOM     98  C   UNL A   1      29.780  28.222  22.928  1.00  0.00     0.000 A 
ATOM     99  C   UNL A   1      30.666  29.221  23.367  1.00  0.00     0.001 A 
ENDBRANCH  88  89
ENDBRANCH  86  88
ENDBRANCH  77  86
ENDBRANCH  72  74
ENDBRANCH  71  72
ENDBRANCH  70  71
ENDBRANCH  69  70
ENDBRANCH   1  69
TORSDOF 21
ENDMDL
