MODEL 1
REMARK VINA RESULT:      -9.3      0.000      0.000
REMARK SMILES C[C@@H]([N@@H+](C)[C@@H]1COC[C@@H]1C(=O)OCCOCCOC(=O)c1ccc(-c2c3nc(c(-c4ccc(S(=O)(=O)[O-])cc4)c4ccc([nH]4)c(-c4ccc(S(=O)(=O)[O-])cc4)c4nc(c(-c5ccc(S(=O)(=O)[O-])cc5)c5ccc2[nH]5)C=C4)C=C3)cc1)C1(C)CC1
REMARK SMILES IDX 15 1 14 2 13 3 12 4 10 5 11 6 9 7 5 8 6 9 7 10 8 11 3 12
REMARK SMILES IDX 4 13 2 15 1 16 81 17 82 18 83 19 84 20 16 21 17 22 18 23
REMARK SMILES IDX 19 24 20 25 21 26 22 27 80 28 23 29 79 30 24 31 25 32 26 33
REMARK SMILES IDX 73 34 27 35 78 36 72 37 74 38 28 39 77 40 71 41 70 42 29 44
REMARK SMILES IDX 59 45 40 46 58 47 41 48 44 49 57 50 75 51 42 52 43 53 56 55
REMARK SMILES IDX 76 56 45 57 30 58 31 59 39 60 32 61 38 62 33 63 34 64 35 65
REMARK SMILES IDX 36 66 37 67 60 68 61 69 69 70 62 71 68 72 63 73 64 74 65 75
REMARK SMILES IDX 66 76 67 77 46 78 47 79 55 80 48 81 54 82 49 83 50 84 51 85
REMARK SMILES IDX 52 86 53 87
REMARK H PARENT 3 14 74 43 44 54
REMARK Flexibility Score: inf
ROOT
ATOM      1  O   UNL A   1      31.686  29.278  24.251  1.00  0.00    -0.374 OA
ENDROOT
BRANCH   1   2
ATOM      2  C   UNL A   1      30.381  29.355  23.686  1.00  0.00     0.202 C 
BRANCH   2   3
ATOM      3  C   UNL A   1      29.757  28.103  23.054  1.00  0.00     0.261 C 
BRANCH   3   4
ATOM      4  O   UNL A   1      30.656  27.223  22.334  1.00  0.00    -0.463 OA
BRANCH   4   5
ATOM      5  C   UNL A   1      30.892  26.025  22.936  1.00  0.00     0.317 C 
ATOM      6  O   UNL A   1      30.150  25.572  23.804  1.00  0.00    -0.252 OA
BRANCH   5   7
ATOM      7  C   UNL A   1      32.239  25.388  22.572  1.00  0.00     0.185 C 
ATOM      8  C   UNL A   1      33.305  25.027  23.640  1.00  0.00     0.227 C 
ATOM      9  C   UNL A   1      33.800  26.434  24.019  1.00  0.00     0.226 C 
ATOM     10  O   UNL A   1      33.669  27.261  22.848  1.00  0.00    -0.374 OA
ATOM     11  C   UNL A   1      33.018  26.482  21.832  1.00  0.00     0.182 C 
BRANCH   8  12
ATOM     12  N   UNL A   1      33.159  23.959  24.653  1.00  0.00    -0.330 N 
ATOM     13  C   UNL A   1      32.740  24.386  25.970  1.00  0.00     0.333 C 
ATOM     14  H   UNL A   1      32.297  23.518  24.335  1.00  0.00     0.348 HD
BRANCH  12  15
ATOM     15  C   UNL A   1      33.886  22.681  24.483  1.00  0.00     0.186 C 
ATOM     16  C   UNL A   1      35.119  22.811  23.565  1.00  0.00     0.076 C 
BRANCH  15  17
ATOM     17  C   UNL A   1      33.099  21.390  24.074  1.00  0.00     0.019 C 
ATOM     18  C   UNL A   1      32.266  21.581  22.821  1.00  0.00     0.018 C 
ATOM     19  C   UNL A   1      33.539  19.988  24.498  1.00  0.00     0.013 C 
ATOM     20  C   UNL A   1      32.325  20.570  25.118  1.00  0.00     0.013 C 
ENDBRANCH  15  17
ENDBRANCH  12  15
ENDBRANCH   8  12
ENDBRANCH   5   7
ENDBRANCH   4   5
ENDBRANCH   3   4
ENDBRANCH   2   3
ENDBRANCH   1   2
BRANCH   1  21
ATOM     21  C   UNL A   1      31.850  29.641  25.609  1.00  0.00     0.202 C 
BRANCH  21  22
ATOM     22  C   UNL A   1      33.244  30.049  26.100  1.00  0.00     0.261 C 
BRANCH  22  23
ATOM     23  O   UNL A   1      33.360  30.268  27.511  1.00  0.00    -0.460 OA
BRANCH  23  24
ATOM     24  C   UNL A   1      34.123  31.324  27.888  1.00  0.00     0.338 C 
ATOM     25  O   UNL A   1      33.824  32.503  27.856  1.00  0.00    -0.246 OA
BRANCH  24  26
ATOM     26  C   UNL A   1      35.435  30.834  28.351  1.00  0.00     0.060 A 
ATOM     27  C   UNL A   1      35.498  29.712  29.174  1.00  0.00     0.016 A 
ATOM     28  C   UNL A   1      36.593  31.550  28.050  1.00  0.00     0.016 A 
ATOM     29  C   UNL A   1      36.727  29.329  29.724  1.00  0.00     0.010 A 
ATOM     30  C   UNL A   1      37.827  31.148  28.572  1.00  0.00     0.010 A 
ATOM     31  C   UNL A   1      37.902  30.053  29.447  1.00  0.00    -0.014 A 
BRANCH  31  32
ATOM     32  C   UNL A   1      39.182  29.688  30.118  1.00  0.00     0.031 A 
ATOM     33  C   UNL A   1      39.600  30.367  31.401  1.00  0.00     0.074 A 
ATOM     34  C   UNL A   1      39.964  28.724  29.594  1.00  0.00     0.049 A 
ATOM     35  N   UNL A   1      40.634  30.119  32.167  1.00  0.00    -0.248 NA
ATOM     36  C   UNL A   1      38.762  31.479  31.874  1.00  0.00     0.031 C 
ATOM     37  C   UNL A   1      39.706  28.016  28.340  1.00  0.00     0.029 A 
ATOM     38  N   UNL A   1      41.126  28.159  30.063  1.00  0.00    -0.354 N 
ATOM     39  C   UNL A   1      40.576  31.047  33.202  1.00  0.00     0.074 A 
ATOM     40  C   UNL A   1      39.433  31.893  32.940  1.00  0.00     0.031 C 
ATOM     41  C   UNL A   1      40.653  27.081  28.161  1.00  0.00     0.029 A 
ATOM     42  C   UNL A   1      41.601  27.137  29.272  1.00  0.00     0.049 A 
ATOM     43  H   UNL A   1      41.576  28.456  30.886  1.00  0.00     0.167 HD
ATOM     44  C   UNL A   1      41.383  31.172  34.284  1.00  0.00     0.031 A 
ATOM     45  C   UNL A   1      42.668  26.328  29.426  1.00  0.00     0.031 A 
ATOM     46  C   UNL A   1      42.511  30.319  34.560  1.00  0.00     0.049 A 
ATOM     47  C   UNL A   1      43.535  26.468  30.647  1.00  0.00     0.074 A 
ATOM     48  C   UNL A   1      43.353  30.335  35.660  1.00  0.00     0.029 A 
ATOM     49  N   UNL A   1      42.952  29.298  33.734  1.00  0.00    -0.354 N 
ATOM     50  N   UNL A   1      43.418  27.306  31.649  1.00  0.00    -0.248 NA
ATOM     51  C   UNL A   1      44.670  25.540  30.766  1.00  0.00     0.031 C 
ATOM     52  C   UNL A   1      44.329  29.349  35.478  1.00  0.00     0.029 A 
ATOM     53  C   UNL A   1      44.065  28.688  34.290  1.00  0.00     0.049 A 
ATOM     54  H   UNL A   1      42.537  29.045  32.879  1.00  0.00     0.167 HD
ATOM     55  C   UNL A   1      44.453  26.994  32.525  1.00  0.00     0.074 A 
ATOM     56  C   UNL A   1      45.173  25.879  31.946  1.00  0.00     0.031 C 
ATOM     57  C   UNL A   1      44.776  27.581  33.704  1.00  0.00     0.031 A 
BRANCH  44  58
ATOM     58  C   UNL A   1      41.077  32.281  35.258  1.00  0.00    -0.014 A 
ATOM     59  C   UNL A   1      41.684  33.545  35.134  1.00  0.00     0.010 A 
ATOM     60  C   UNL A   1      40.143  32.072  36.289  1.00  0.00     0.010 A 
ATOM     61  C   UNL A   1      41.398  34.561  36.049  1.00  0.00     0.020 A 
ATOM     62  C   UNL A   1      39.833  33.095  37.191  1.00  0.00     0.020 A 
ATOM     63  C   UNL A   1      40.480  34.328  37.077  1.00  0.00     0.054 A 
BRANCH  63  64
ATOM     64  S   UNL A   1      40.123  35.667  38.248  1.00  0.00     0.124 S 
ATOM     65  O   UNL A   1      39.003  35.113  39.004  1.00  0.00    -0.237 OA
ATOM     66  O   UNL A   1      41.377  35.793  38.986  1.00  0.00    -0.237 OA
ATOM     67  O   UNL A   1      39.793  36.801  37.389  1.00  0.00    -0.744 OA
ENDBRANCH  63  64
ENDBRANCH  44  58
BRANCH  45  68
ATOM     68  C   UNL A   1      42.957  25.286  28.403  1.00  0.00    -0.014 A 
ATOM     69  C   UNL A   1      42.458  23.980  28.549  1.00  0.00     0.010 A 
ATOM     70  C   UNL A   1      43.720  25.604  27.265  1.00  0.00     0.010 A 
ATOM     71  C   UNL A   1      42.727  23.007  27.583  1.00  0.00     0.020 A 
ATOM     72  C   UNL A   1      43.970  24.640  26.284  1.00  0.00     0.020 A 
ATOM     73  C   UNL A   1      43.479  23.344  26.454  1.00  0.00     0.054 A 
BRANCH  73  74
ATOM     74  S   UNL A   1      43.762  22.085  25.179  1.00  0.00     0.124 S 
ATOM     75  O   UNL A   1      45.134  21.672  25.458  1.00  0.00    -0.237 OA
ATOM     76  O   UNL A   1      42.729  21.096  25.477  1.00  0.00    -0.237 OA
ATOM     77  O   UNL A   1      43.568  22.818  23.929  1.00  0.00    -0.744 OA
ENDBRANCH  73  74
ENDBRANCH  45  68
BRANCH  57  78
ATOM     78  C   UNL A   1      45.948  27.018  34.463  1.00  0.00    -0.014 A 
ATOM     79  C   UNL A   1      45.768  26.036  35.454  1.00  0.00     0.010 A 
ATOM     80  C   UNL A   1      47.252  27.435  34.141  1.00  0.00     0.010 A 
ATOM     81  C   UNL A   1      46.870  25.502  36.126  1.00  0.00     0.020 A 
ATOM     82  C   UNL A   1      48.358  26.886  34.794  1.00  0.00     0.020 A 
ATOM     83  C   UNL A   1      48.159  25.931  35.794  1.00  0.00     0.054 A 
BRANCH  83  84
ATOM     84  S   UNL A   1      49.577  25.189  36.649  1.00  0.00     0.124 S 
ATOM     85  O   UNL A   1      50.616  25.254  35.624  1.00  0.00    -0.237 OA
ATOM     86  O   UNL A   1      49.765  26.078  37.792  1.00  0.00    -0.237 OA
ATOM     87  O   UNL A   1      49.115  23.844  36.982  1.00  0.00    -0.744 OA
ENDBRANCH  83  84
ENDBRANCH  57  78
ENDBRANCH  31  32
ENDBRANCH  24  26
ENDBRANCH  23  24
ENDBRANCH  22  23
ENDBRANCH  21  22
ENDBRANCH   1  21
TORSDOF 20
ENDMDL
MODEL 2
REMARK VINA RESULT:      -8.9      0.973      1.999
REMARK SMILES C[C@@H]([N@@H+](C)[C@@H]1COC[C@@H]1C(=O)OCCOCCOC(=O)c1ccc(-c2c3nc(c(-c4ccc(S(=O)(=O)[O-])cc4)c4ccc([nH]4)c(-c4ccc(S(=O)(=O)[O-])cc4)c4nc(c(-c5ccc(S(=O)(=O)[O-])cc5)c5ccc2[nH]5)C=C4)C=C3)cc1)C1(C)CC1
REMARK SMILES IDX 15 1 14 2 13 3 12 4 10 5 11 6 9 7 5 8 6 9 7 10 8 11 3 12
REMARK SMILES IDX 4 13 2 15 1 16 81 17 82 18 83 19 84 20 16 21 17 22 18 23
REMARK SMILES IDX 19 24 20 25 21 26 22 27 80 28 23 29 79 30 24 31 25 32 26 33
REMARK SMILES IDX 73 34 27 35 78 36 72 37 74 38 28 39 77 40 71 41 70 42 29 44
REMARK SMILES IDX 59 45 40 46 58 47 41 48 44 49 57 50 75 51 42 52 43 53 56 55
REMARK SMILES IDX 76 56 45 57 30 58 31 59 39 60 32 61 38 62 33 63 34 64 35 65
REMARK SMILES IDX 36 66 37 67 60 68 61 69 69 70 62 71 68 72 63 73 64 74 65 75
REMARK SMILES IDX 66 76 67 77 46 78 47 79 55 80 48 81 54 82 49 83 50 84 51 85
REMARK SMILES IDX 52 86 53 87
REMARK H PARENT 3 14 74 43 44 54
REMARK Flexibility Score: inf
ROOT
ATOM      1  O   UNL A   1      33.146  28.280  25.398  1.00  0.00    -0.374 OA
ENDROOT
BRANCH   1   2
ATOM      2  C   UNL A   1      33.208  28.287  23.976  1.00  0.00     0.202 C 
BRANCH   2   3
ATOM      3  C   UNL A   1      32.680  27.078  23.192  1.00  0.00     0.261 C 
BRANCH   3   4
ATOM      4  O   UNL A   1      31.408  26.532  23.619  1.00  0.00    -0.463 OA
BRANCH   4   5
ATOM      5  C   UNL A   1      31.423  25.204  23.919  1.00  0.00     0.317 C 
ATOM      6  O   UNL A   1      30.826  24.373  23.239  1.00  0.00    -0.252 OA
BRANCH   5   7
ATOM      7  C   UNL A   1      32.087  24.865  25.260  1.00  0.00     0.185 C 
ATOM      8  C   UNL A   1      32.145  23.419  25.819  1.00  0.00     0.227 C 
ATOM      9  C   UNL A   1      30.674  23.222  26.224  1.00  0.00     0.226 C 
ATOM     10  O   UNL A   1      30.159  24.514  26.598  1.00  0.00    -0.374 OA
ATOM     11  C   UNL A   1      31.180  25.488  26.330  1.00  0.00     0.182 C 
BRANCH   8  12
ATOM     12  N   UNL A   1      32.940  22.318  25.233  1.00  0.00    -0.330 N 
ATOM     13  C   UNL A   1      32.221  21.093  24.958  1.00  0.00     0.333 C 
ATOM     14  H   UNL A   1      33.060  22.662  24.281  1.00  0.00     0.348 HD
BRANCH  12  15
ATOM     15  C   UNL A   1      34.408  22.292  25.419  1.00  0.00     0.186 C 
ATOM     16  C   UNL A   1      34.849  22.861  26.783  1.00  0.00     0.076 C 
BRANCH  15  17
ATOM     17  C   UNL A   1      35.340  22.888  24.310  1.00  0.00     0.019 C 
ATOM     18  C   UNL A   1      34.579  23.322  23.072  1.00  0.00     0.018 C 
ATOM     19  C   UNL A   1      36.708  23.497  24.623  1.00  0.00     0.013 C 
ATOM     20  C   UNL A   1      36.654  22.193  23.921  1.00  0.00     0.013 C 
ENDBRANCH  15  17
ENDBRANCH  12  15
ENDBRANCH   8  12
ENDBRANCH   5   7
ENDBRANCH   4   5
ENDBRANCH   3   4
ENDBRANCH   2   3
ENDBRANCH   1   2
BRANCH   1  21
ATOM     21  C   UNL A   1      32.156  29.071  26.029  1.00  0.00     0.202 C 
BRANCH  21  22
ATOM     22  C   UNL A   1      32.599  30.273  26.872  1.00  0.00     0.261 C 
BRANCH  22  23
ATOM     23  O   UNL A   1      34.015  30.463  26.977  1.00  0.00    -0.460 OA
BRANCH  23  24
ATOM     24  C   UNL A   1      34.419  31.571  27.648  1.00  0.00     0.338 C 
ATOM     25  O   UNL A   1      33.929  32.684  27.603  1.00  0.00    -0.246 OA
BRANCH  24  26
ATOM     26  C   UNL A   1      35.598  31.238  28.469  1.00  0.00     0.060 A 
ATOM     27  C   UNL A   1      36.719  32.066  28.430  1.00  0.00     0.016 A 
ATOM     28  C   UNL A   1      35.628  30.050  29.198  1.00  0.00     0.016 A 
ATOM     29  C   UNL A   1      37.885  31.679  29.099  1.00  0.00     0.010 A 
ATOM     30  C   UNL A   1      36.783  29.679  29.895  1.00  0.00     0.010 A 
ATOM     31  C   UNL A   1      37.938  30.473  29.823  1.00  0.00    -0.014 A 
BRANCH  31  32
ATOM     32  C   UNL A   1      39.217  30.031  30.449  1.00  0.00     0.031 A 
ATOM     33  C   UNL A   1      39.709  30.668  31.727  1.00  0.00     0.074 A 
ATOM     34  C   UNL A   1      39.931  29.035  29.889  1.00  0.00     0.049 A 
ATOM     35  N   UNL A   1      40.752  30.354  32.457  1.00  0.00    -0.248 NA
ATOM     36  C   UNL A   1      38.945  31.815  32.242  1.00  0.00     0.031 C 
ATOM     37  C   UNL A   1      39.599  28.361  28.633  1.00  0.00     0.029 A 
ATOM     38  N   UNL A   1      41.076  28.404  30.313  1.00  0.00    -0.354 N 
ATOM     39  C   UNL A   1      40.774  31.269  33.506  1.00  0.00     0.074 A 
ATOM     40  C   UNL A   1      39.669  32.177  33.291  1.00  0.00     0.031 C 
ATOM     41  C   UNL A   1      40.489  27.380  28.412  1.00  0.00     0.029 A 
ATOM     42  C   UNL A   1      41.472  27.371  29.494  1.00  0.00     0.049 A 
ATOM     43  H   UNL A   1      41.566  28.665  31.125  1.00  0.00     0.167 HD
ATOM     44  C   UNL A   1      41.619  31.335  34.564  1.00  0.00     0.031 A 
ATOM     45  C   UNL A   1      42.498  26.505  29.604  1.00  0.00     0.031 A 
ATOM     46  C   UNL A   1      42.708  30.421  34.793  1.00  0.00     0.049 A 
ATOM     47  C   UNL A   1      43.409  26.580  30.800  1.00  0.00     0.074 A 
ATOM     48  C   UNL A   1      43.583  30.376  35.867  1.00  0.00     0.029 A 
ATOM     49  N   UNL A   1      43.070  29.391  33.941  1.00  0.00    -0.354 N 
ATOM     50  N   UNL A   1      43.366  27.408  31.815  1.00  0.00    -0.248 NA
ATOM     51  C   UNL A   1      44.496  25.593  30.871  1.00  0.00     0.031 C 
ATOM     52  C   UNL A   1      44.499  29.343  35.641  1.00  0.00     0.029 A 
ATOM     53  C   UNL A   1      44.165  28.714  34.453  1.00  0.00     0.049 A 
ATOM     54  H   UNL A   1      42.616  29.172  33.096  1.00  0.00     0.167 HD
ATOM     55  C   UNL A   1      44.410  27.030  32.655  1.00  0.00     0.074 A 
ATOM     56  C   UNL A   1      45.052  25.888  32.038  1.00  0.00     0.031 C 
ATOM     57  C   UNL A   1      44.798  27.581  33.831  1.00  0.00     0.031 A 
BRANCH  44  58
ATOM     58  C   UNL A   1      41.401  32.444  35.563  1.00  0.00    -0.014 A 
ATOM     59  C   UNL A   1      41.978  33.714  35.374  1.00  0.00     0.010 A 
ATOM     60  C   UNL A   1      40.579  32.228  36.683  1.00  0.00     0.010 A 
ATOM     61  C   UNL A   1      41.776  34.730  36.312  1.00  0.00     0.020 A 
ATOM     62  C   UNL A   1      40.351  33.251  37.610  1.00  0.00     0.020 A 
ATOM     63  C   UNL A   1      40.970  34.490  37.428  1.00  0.00     0.054 A 
BRANCH  63  64
ATOM     64  S   UNL A   1      40.719  35.828  38.627  1.00  0.00     0.124 S 
ATOM     65  O   UNL A   1      40.023  36.827  37.819  1.00  0.00    -0.237 OA
ATOM     66  O   UNL A   1      39.913  35.187  39.663  1.00  0.00    -0.237 OA
ATOM     67  O   UNL A   1      42.074  36.191  39.032  1.00  0.00    -0.744 OA
ENDBRANCH  63  64
ENDBRANCH  44  58
BRANCH  45  68
ATOM     68  C   UNL A   1      42.702  25.465  28.559  1.00  0.00    -0.014 A 
ATOM     69  C   UNL A   1      43.562  25.699  27.472  1.00  0.00     0.010 A 
ATOM     70  C   UNL A   1      42.047  24.224  28.658  1.00  0.00     0.010 A 
ATOM     71  C   UNL A   1      43.755  24.717  26.497  1.00  0.00     0.020 A 
ATOM     72  C   UNL A   1      42.257  23.230  27.698  1.00  0.00     0.020 A 
ATOM     73  C   UNL A   1      43.103  23.486  26.617  1.00  0.00     0.054 A 
BRANCH  73  74
ATOM     74  S   UNL A   1      43.418  22.200  25.376  1.00  0.00     0.124 S 
ATOM     75  O   UNL A   1      42.291  21.297  25.583  1.00  0.00    -0.237 OA
ATOM     76  O   UNL A   1      43.404  22.957  24.127  1.00  0.00    -0.237 OA
ATOM     77  O   UNL A   1      44.726  21.672  25.760  1.00  0.00    -0.744 OA
ENDBRANCH  73  74
ENDBRANCH  45  68
BRANCH  57  78
ATOM     78  C   UNL A   1      45.962  26.946  34.546  1.00  0.00    -0.014 A 
ATOM     79  C   UNL A   1      45.766  25.904  35.470  1.00  0.00     0.010 A 
ATOM     80  C   UNL A   1      47.273  27.358  34.245  1.00  0.00     0.010 A 
ATOM     81  C   UNL A   1      46.860  25.306  36.101  1.00  0.00     0.020 A 
ATOM     82  C   UNL A   1      48.370  26.745  34.856  1.00  0.00     0.020 A 
ATOM     83  C   UNL A   1      48.155  25.731  35.791  1.00  0.00     0.054 A 
BRANCH  83  84
ATOM     84  S   UNL A   1      49.561  24.906  36.589  1.00  0.00     0.124 S 
ATOM     85  O   UNL A   1      49.242  25.065  38.005  1.00  0.00    -0.237 OA
ATOM     86  O   UNL A   1      49.470  23.544  36.072  1.00  0.00    -0.237 OA
ATOM     87  O   UNL A   1      50.718  25.667  36.123  1.00  0.00    -0.744 OA
ENDBRANCH  83  84
ENDBRANCH  57  78
ENDBRANCH  31  32
ENDBRANCH  24  26
ENDBRANCH  23  24
ENDBRANCH  22  23
ENDBRANCH  21  22
ENDBRANCH   1  21
TORSDOF 20
ENDMDL
MODEL 3
REMARK VINA RESULT:      -8.7      1.161      2.282
REMARK SMILES C[C@@H]([N@@H+](C)[C@@H]1COC[C@@H]1C(=O)OCCOCCOC(=O)c1ccc(-c2c3nc(c(-c4ccc(S(=O)(=O)[O-])cc4)c4ccc([nH]4)c(-c4ccc(S(=O)(=O)[O-])cc4)c4nc(c(-c5ccc(S(=O)(=O)[O-])cc5)c5ccc2[nH]5)C=C4)C=C3)cc1)C1(C)CC1
REMARK SMILES IDX 15 1 14 2 13 3 12 4 10 5 11 6 9 7 5 8 6 9 7 10 8 11 3 12
REMARK SMILES IDX 4 13 2 15 1 16 81 17 82 18 83 19 84 20 16 21 17 22 18 23
REMARK SMILES IDX 19 24 20 25 21 26 22 27 80 28 23 29 79 30 24 31 25 32 26 33
REMARK SMILES IDX 73 34 27 35 78 36 72 37 74 38 28 39 77 40 71 41 70 42 29 44
REMARK SMILES IDX 59 45 40 46 58 47 41 48 44 49 57 50 75 51 42 52 43 53 56 55
REMARK SMILES IDX 76 56 45 57 30 58 31 59 39 60 32 61 38 62 33 63 34 64 35 65
REMARK SMILES IDX 36 66 37 67 60 68 61 69 69 70 62 71 68 72 63 73 64 74 65 75
REMARK SMILES IDX 66 76 67 77 46 78 47 79 55 80 48 81 54 82 49 83 50 84 51 85
REMARK SMILES IDX 52 86 53 87
REMARK H PARENT 3 14 74 43 44 54
REMARK Flexibility Score: inf
ROOT
ATOM      1  O   UNL A   1      33.707  27.865  26.490  1.00  0.00    -0.374 OA
ENDROOT
BRANCH   1   2
ATOM      2  C   UNL A   1      33.951  26.658  25.776  1.00  0.00     0.202 C 
BRANCH   2   3
ATOM      3  C   UNL A   1      33.377  26.487  24.363  1.00  0.00     0.261 C 
BRANCH   3   4
ATOM      4  O   UNL A   1      33.041  25.136  23.959  1.00  0.00    -0.463 OA
BRANCH   4   5
ATOM      5  C   UNL A   1      33.843  24.608  22.994  1.00  0.00     0.317 C 
ATOM      6  O   UNL A   1      34.062  25.191  21.935  1.00  0.00    -0.252 OA
BRANCH   5   7
ATOM      7  C   UNL A   1      34.293  23.167  23.263  1.00  0.00     0.185 C 
ATOM      8  C   UNL A   1      34.229  22.524  24.674  1.00  0.00     0.227 C 
ATOM      9  C   UNL A   1      35.384  23.269  25.367  1.00  0.00     0.226 C 
ATOM     10  O   UNL A   1      36.360  23.577  24.354  1.00  0.00    -0.374 OA
ATOM     11  C   UNL A   1      35.817  23.178  23.085  1.00  0.00     0.182 C 
BRANCH   8  12
ATOM     12  N   UNL A   1      32.983  22.190  25.395  1.00  0.00    -0.330 N 
ATOM     13  C   UNL A   1      32.068  21.305  24.707  1.00  0.00     0.333 C 
ATOM     14  H   UNL A   1      33.342  21.546  26.100  1.00  0.00     0.348 HD
BRANCH  12  15
ATOM     15  C   UNL A   1      32.485  23.091  26.459  1.00  0.00     0.186 C 
ATOM     16  C   UNL A   1      32.768  22.556  27.877  1.00  0.00     0.076 C 
BRANCH  15  17
ATOM     17  C   UNL A   1      31.006  23.605  26.410  1.00  0.00     0.019 C 
ATOM     18  C   UNL A   1      30.018  22.612  26.991  1.00  0.00     0.018 C 
ATOM     19  C   UNL A   1      30.653  25.093  26.346  1.00  0.00     0.013 C 
ATOM     20  C   UNL A   1      30.436  24.257  25.141  1.00  0.00     0.013 C 
ENDBRANCH  15  17
ENDBRANCH  12  15
ENDBRANCH   8  12
ENDBRANCH   5   7
ENDBRANCH   4   5
ENDBRANCH   3   4
ENDBRANCH   2   3
ENDBRANCH   1   2
BRANCH   1  21
ATOM     21  C   UNL A   1      33.526  29.057  25.747  1.00  0.00     0.202 C 
BRANCH  21  22
ATOM     22  C   UNL A   1      32.888  30.266  26.439  1.00  0.00     0.261 C 
BRANCH  22  23
ATOM     23  O   UNL A   1      33.408  30.581  27.735  1.00  0.00    -0.460 OA
BRANCH  23  24
ATOM     24  C   UNL A   1      34.284  31.615  27.790  1.00  0.00     0.338 C 
ATOM     25  O   UNL A   1      34.077  32.779  27.500  1.00  0.00    -0.246 OA
BRANCH  24  26
ATOM     26  C   UNL A   1      35.592  31.118  28.257  1.00  0.00     0.060 A 
ATOM     27  C   UNL A   1      35.689  29.837  28.796  1.00  0.00     0.016 A 
ATOM     28  C   UNL A   1      36.702  31.963  28.253  1.00  0.00     0.016 A 
ATOM     29  C   UNL A   1      36.897  29.417  29.364  1.00  0.00     0.010 A 
ATOM     30  C   UNL A   1      37.919  31.532  28.790  1.00  0.00     0.010 A 
ATOM     31  C   UNL A   1      38.020  30.265  29.386  1.00  0.00    -0.014 A 
BRANCH  31  32
ATOM     32  C   UNL A   1      39.268  29.837  30.079  1.00  0.00     0.031 A 
ATOM     33  C   UNL A   1      39.686  30.480  31.381  1.00  0.00     0.074 A 
ATOM     34  C   UNL A   1      40.020  28.846  29.560  1.00  0.00     0.049 A 
ATOM     35  N   UNL A   1      40.691  30.177  32.166  1.00  0.00    -0.248 NA
ATOM     36  C   UNL A   1      38.885  31.621  31.851  1.00  0.00     0.031 C 
ATOM     37  C   UNL A   1      39.761  28.166  28.290  1.00  0.00     0.029 A 
ATOM     38  N   UNL A   1      41.146  28.226  30.046  1.00  0.00    -0.354 N 
ATOM     39  C   UNL A   1      40.649  31.094  33.212  1.00  0.00     0.074 A 
ATOM     40  C   UNL A   1      39.549  31.992  32.937  1.00  0.00     0.031 C 
ATOM     41  C   UNL A   1      40.671  27.194  28.120  1.00  0.00     0.029 A 
ATOM     42  C   UNL A   1      41.595  27.196  29.252  1.00  0.00     0.049 A 
ATOM     43  H   UNL A   1      41.589  28.493  30.883  1.00  0.00     0.167 HD
ATOM     44  C   UNL A   1      41.436  31.170  34.314  1.00  0.00     0.031 A 
ATOM     45  C   UNL A   1      42.622  26.339  29.418  1.00  0.00     0.031 A 
ATOM     46  C   UNL A   1      42.519  30.266  34.603  1.00  0.00     0.049 A 
ATOM     47  C   UNL A   1      43.466  26.426  30.660  1.00  0.00     0.074 A 
ATOM     48  C   UNL A   1      43.336  30.231  35.721  1.00  0.00     0.029 A 
ATOM     49  N   UNL A   1      42.935  29.238  33.773  1.00  0.00    -0.354 N 
ATOM     50  N   UNL A   1      43.362  27.254  31.671  1.00  0.00    -0.248 NA
ATOM     51  C   UNL A   1      44.558  25.448  30.791  1.00  0.00     0.031 C 
ATOM     52  C   UNL A   1      44.272  29.207  35.547  1.00  0.00     0.029 A 
ATOM     53  C   UNL A   1      44.008  28.573  34.344  1.00  0.00     0.049 A 
ATOM     54  H   UNL A   1      42.529  29.013  32.905  1.00  0.00     0.167 HD
ATOM     55  C   UNL A   1      44.363  26.887  32.565  1.00  0.00     0.074 A 
ATOM     56  C   UNL A   1      45.047  25.750  31.986  1.00  0.00     0.031 C 
ATOM     57  C   UNL A   1      44.684  27.444  33.759  1.00  0.00     0.031 A 
BRANCH  44  58
ATOM     58  C   UNL A   1      41.155  32.278  35.297  1.00  0.00    -0.014 A 
ATOM     59  C   UNL A   1      40.245  32.097  36.355  1.00  0.00     0.010 A 
ATOM     60  C   UNL A   1      41.837  33.504  35.187  1.00  0.00     0.010 A 
ATOM     61  C   UNL A   1      39.987  33.135  37.253  1.00  0.00     0.020 A 
ATOM     62  C   UNL A   1      41.603  34.536  36.101  1.00  0.00     0.020 A 
ATOM     63  C   UNL A   1      40.662  34.352  37.117  1.00  0.00     0.054 A 
BRANCH  63  64
ATOM     64  S   UNL A   1      40.313  35.681  38.301  1.00  0.00     0.124 S 
ATOM     65  O   UNL A   1      41.640  35.952  38.847  1.00  0.00    -0.237 OA
ATOM     66  O   UNL A   1      39.757  36.731  37.451  1.00  0.00    -0.237 OA
ATOM     67  O   UNL A   1      39.368  35.074  39.235  1.00  0.00    -0.744 OA
ENDBRANCH  63  64
ENDBRANCH  44  58
BRANCH  45  68
ATOM     68  C   UNL A   1      42.890  25.299  28.388  1.00  0.00    -0.014 A 
ATOM     69  C   UNL A   1      43.733  25.572  27.296  1.00  0.00     0.010 A 
ATOM     70  C   UNL A   1      42.316  24.021  28.506  1.00  0.00     0.010 A 
ATOM     71  C   UNL A   1      43.987  24.591  26.334  1.00  0.00     0.020 A 
ATOM     72  C   UNL A   1      42.588  23.029  27.560  1.00  0.00     0.020 A 
ATOM     73  C   UNL A   1      43.415  23.323  26.474  1.00  0.00     0.054 A 
BRANCH  73  74
ATOM     74  S   UNL A   1      43.809  22.042  25.251  1.00  0.00     0.124 S 
ATOM     75  O   UNL A   1      43.731  22.785  23.997  1.00  0.00    -0.237 OA
ATOM     76  O   UNL A   1      45.148  21.620  25.656  1.00  0.00    -0.237 OA
ATOM     77  O   UNL A   1      42.762  21.043  25.456  1.00  0.00    -0.744 OA
ENDBRANCH  73  74
ENDBRANCH  45  68
BRANCH  57  78
ATOM     78  C   UNL A   1      45.813  26.821  34.536  1.00  0.00    -0.014 A 
ATOM     79  C   UNL A   1      47.135  27.279  34.389  1.00  0.00     0.010 A 
ATOM     80  C   UNL A   1      45.540  25.803  35.468  1.00  0.00     0.010 A 
ATOM     81  C   UNL A   1      48.166  26.710  35.141  1.00  0.00     0.020 A 
ATOM     82  C   UNL A   1      46.565  25.249  36.239  1.00  0.00     0.020 A 
ATOM     83  C   UNL A   1      47.876  25.698  36.060  1.00  0.00     0.054 A 
BRANCH  83  84
ATOM     84  S   UNL A   1      49.224  25.008  37.059  1.00  0.00     0.124 S 
ATOM     85  O   UNL A   1      49.132  23.583  36.750  1.00  0.00    -0.237 OA
ATOM     86  O   UNL A   1      50.400  25.691  36.528  1.00  0.00    -0.237 OA
ATOM     87  O   UNL A   1      48.863  25.372  38.427  1.00  0.00    -0.744 OA
ENDBRANCH  83  84
ENDBRANCH  57  78
ENDBRANCH  31  32
ENDBRANCH  24  26
ENDBRANCH  23  24
ENDBRANCH  22  23
ENDBRANCH  21  22
ENDBRANCH   1  21
TORSDOF 20
ENDMDL
