MODEL 1
REMARK VINA RESULT:     -10.3      0.000      0.000
REMARK SMILES CC(C)c1cc(O)cc(C(C)C)c1O[C@@H]1O[C@@H](C(=O)OCCOCCOC(=O)c2ccc(-c3c4nc(c(-c5ccc(S(=O)(=O)[O-])cc5)c5ccc([nH]5)c(-c5ccc(S(=O)(=O)[O-])cc5)c5nc(c(-c6ccc(S(=O)(=O)[O-])cc6)c6ccc3[nH]6)C=C5)C=C4)cc2)[C@@H](O)[C@H](O)[C@@H]1O
REMARK SMILES IDX 23 1 22 2 21 3 20 4 18 5 19 6 17 7 15 8 16 9 93 10 91 11
REMARK SMILES IDX 89 12 14 13 13 14 4 15 5 16 6 17 9 18 8 19 2 20 1 21 3 22
REMARK SMILES IDX 7 23 10 25 11 26 12 27 94 28 92 30 90 32 24 34 25 35 26 36
REMARK SMILES IDX 27 37 28 38 29 39 30 40 88 41 31 42 87 43 32 44 33 45 34 46
REMARK SMILES IDX 81 47 35 48 86 49 80 50 82 51 36 52 85 53 79 54 78 55 37 57
REMARK SMILES IDX 67 58 48 59 66 60 49 61 52 62 65 63 83 64 50 65 51 66 64 68
REMARK SMILES IDX 84 69 53 70 38 71 39 72 47 73 40 74 46 75 41 76 42 77 43 78
REMARK SMILES IDX 44 79 45 80 68 81 69 82 77 83 70 84 76 85 71 86 72 87 73 88
REMARK SMILES IDX 74 89 75 90 54 91 55 92 63 93 56 94 62 95 57 96 58 97 59 98
REMARK SMILES IDX 60 99 61 100
REMARK H PARENT 7 24 94 29 92 31 90 33 82 56 52 67
REMARK Flexibility Score: inf
ROOT
ATOM      1  O   UNL A   1      37.689  22.322  25.104  1.00  0.00    -0.374 OA
ENDROOT
BRANCH   1   2
ATOM      2  C   UNL A   1      36.288  22.108  25.243  1.00  0.00     0.202 C 
BRANCH   2   3
ATOM      3  C   UNL A   1      35.425  22.156  23.979  1.00  0.00     0.261 C 
BRANCH   3   4
ATOM      4  O   UNL A   1      34.038  21.934  24.256  1.00  0.00    -0.461 OA
BRANCH   4   5
ATOM      5  C   UNL A   1      33.167  22.555  23.419  1.00  0.00     0.338 C 
ATOM      6  O   UNL A   1      33.446  22.926  22.284  1.00  0.00    -0.249 OA
BRANCH   5   7
ATOM      7  C   UNL A   1      31.760  22.705  24.038  1.00  0.00     0.263 C 
ATOM      8  C   UNL A   1      32.149  24.906  24.859  1.00  0.00     0.339 C 
ATOM      9  O   UNL A   1      31.330  24.071  24.046  1.00  0.00    -0.322 OA
ATOM     10  C   UNL A   1      32.493  24.391  26.290  1.00  0.00     0.214 C 
ATOM     11  C   UNL A   1      32.594  22.858  26.390  1.00  0.00     0.181 C 
ATOM     12  C   UNL A   1      31.621  22.133  25.449  1.00  0.00     0.186 C 
BRANCH   8  13
ATOM     13  O   UNL A   1      31.735  26.269  24.916  1.00  0.00    -0.461 OA
BRANCH  13  14
ATOM     14  C   UNL A   1      31.130  27.042  23.976  1.00  0.00     0.130 A 
ATOM     15  C   UNL A   1      32.053  27.939  23.358  1.00  0.00     0.001 A 
ATOM     16  C   UNL A   1      31.563  28.990  22.553  1.00  0.00     0.054 A 
ATOM     17  C   UNL A   1      30.209  29.129  22.323  1.00  0.00     0.116 A 
ATOM     18  C   UNL A   1      29.744  27.151  23.681  1.00  0.00     0.001 A 
ATOM     19  C   UNL A   1      29.319  28.209  22.845  1.00  0.00     0.054 A 
BRANCH  15  20
ATOM     20  C   UNL A   1      33.588  27.838  23.419  1.00  0.00     0.017 C 
ATOM     21  C   UNL A   1      34.427  28.273  22.214  1.00  0.00     0.012 C 
ATOM     22  C   UNL A   1      34.098  28.581  24.666  1.00  0.00     0.012 C 
ENDBRANCH  15  20
BRANCH  17  23
ATOM     23  O   UNL A   1      29.710  30.150  21.572  1.00  0.00    -0.508 OA
ATOM     24  H   UNL A   1      30.292  30.726  21.119  1.00  0.00     0.293 HD
ENDBRANCH  17  23
BRANCH  18  25
ATOM     25  C   UNL A   1      28.636  26.221  24.150  1.00  0.00     0.017 C 
ATOM     26  C   UNL A   1      28.753  25.773  25.612  1.00  0.00     0.012 C 
ATOM     27  C   UNL A   1      27.249  26.822  23.880  1.00  0.00     0.012 C 
ENDBRANCH  18  25
ENDBRANCH  13  14
ENDBRANCH   8  13
BRANCH  10  28
ATOM     28  O   UNL A   1      31.560  24.845  27.288  1.00  0.00    -0.384 OA
ATOM     29  H   UNL A   1      30.832  25.322  26.859  1.00  0.00     0.211 HD
ENDBRANCH  10  28
BRANCH  11  30
ATOM     30  O   UNL A   1      32.344  22.434  27.736  1.00  0.00    -0.387 OA
ATOM     31  H   UNL A   1      31.917  23.153  28.227  1.00  0.00     0.211 HD
ENDBRANCH  11  30
BRANCH  12  32
ATOM     32  O   UNL A   1      31.778  20.712  25.446  1.00  0.00    -0.387 OA
ATOM     33  H   UNL A   1      31.375  20.340  26.245  1.00  0.00     0.211 HD
ENDBRANCH  12  32
ENDBRANCH   5   7
ENDBRANCH   4   5
ENDBRANCH   3   4
ENDBRANCH   2   3
ENDBRANCH   1   2
BRANCH   1  34
ATOM     34  C   UNL A   1      38.438  22.768  26.233  1.00  0.00     0.202 C 
BRANCH  34  35
ATOM     35  C   UNL A   1      38.609  24.273  26.472  1.00  0.00     0.261 C 
BRANCH  35  36
ATOM     36  O   UNL A   1      39.881  24.621  27.043  1.00  0.00    -0.460 OA
BRANCH  36  37
ATOM     37  C   UNL A   1      40.310  25.868  26.745  1.00  0.00     0.338 C 
ATOM     38  O   UNL A   1      40.775  26.256  25.675  1.00  0.00    -0.246 OA
BRANCH  37  39
ATOM     39  C   UNL A   1      39.986  26.798  27.833  1.00  0.00     0.060 A 
ATOM     40  C   UNL A   1      40.530  28.088  27.776  1.00  0.00     0.016 A 
ATOM     41  C   UNL A   1      39.280  26.369  28.958  1.00  0.00     0.016 A 
ATOM     42  C   UNL A   1      40.409  28.943  28.867  1.00  0.00     0.010 A 
ATOM     43  C   UNL A   1      39.172  27.224  30.058  1.00  0.00     0.010 A 
ATOM     44  C   UNL A   1      39.769  28.498  30.030  1.00  0.00    -0.014 A 
BRANCH  44  45
ATOM     45  C   UNL A   1      39.869  29.310  31.265  1.00  0.00     0.031 A 
ATOM     46  C   UNL A   1      41.009  29.056  32.213  1.00  0.00     0.074 A 
ATOM     47  C   UNL A   1      38.979  30.286  31.514  1.00  0.00     0.049 A 
ATOM     48  N   UNL A   1      41.279  29.633  33.355  1.00  0.00    -0.248 NA
ATOM     49  C   UNL A   1      41.975  28.016  31.820  1.00  0.00     0.031 C 
ATOM     50  C   UNL A   1      37.864  30.655  30.642  1.00  0.00     0.029 A 
ATOM     51  N   UNL A   1      38.874  31.144  32.579  1.00  0.00    -0.354 N 
ATOM     52  C   UNL A   1      42.439  29.024  33.821  1.00  0.00     0.074 A 
ATOM     53  C   UNL A   1      42.807  28.016  32.851  1.00  0.00     0.031 C 
ATOM     54  C   UNL A   1      37.179  31.659  31.215  1.00  0.00     0.029 A 
ATOM     55  C   UNL A   1      37.787  31.980  32.505  1.00  0.00     0.049 A 
ATOM     56  H   UNL A   1      39.517  31.160  33.324  1.00  0.00     0.167 HD
ATOM     57  C   UNL A   1      43.138  29.286  34.951  1.00  0.00     0.031 A 
ATOM     58  C   UNL A   1      37.321  32.885  33.389  1.00  0.00     0.031 A 
ATOM     59  C   UNL A   1      42.754  30.277  35.921  1.00  0.00     0.049 A 
ATOM     60  C   UNL A   1      38.071  33.105  34.677  1.00  0.00     0.074 A 
ATOM     61  C   UNL A   1      43.392  30.621  37.100  1.00  0.00     0.029 A 
ATOM     62  N   UNL A   1      41.625  31.078  35.829  1.00  0.00    -0.354 N 
ATOM     63  N   UNL A   1      39.176  32.532  35.095  1.00  0.00    -0.248 NA
ATOM     64  C   UNL A   1      37.516  34.098  35.606  1.00  0.00     0.031 C 
ATOM     65  C   UNL A   1      42.621  31.593  37.746  1.00  0.00     0.029 A 
ATOM     66  C   UNL A   1      41.535  31.898  36.939  1.00  0.00     0.049 A 
ATOM     67  H   UNL A   1      40.983  31.066  35.082  1.00  0.00     0.167 HD
ATOM     68  C   UNL A   1      39.461  33.115  36.326  1.00  0.00     0.074 A 
ATOM     69  C   UNL A   1      38.423  34.094  36.576  1.00  0.00     0.031 C 
ATOM     70  C   UNL A   1      40.492  32.866  37.173  1.00  0.00     0.031 A 
BRANCH  57  71
ATOM     71  C   UNL A   1      44.367  28.458  35.214  1.00  0.00    -0.014 A 
ATOM     72  C   UNL A   1      44.270  27.147  35.713  1.00  0.00     0.010 A 
ATOM     73  C   UNL A   1      45.638  28.988  34.927  1.00  0.00     0.010 A 
ATOM     74  C   UNL A   1      45.424  26.395  35.958  1.00  0.00     0.020 A 
ATOM     75  C   UNL A   1      46.793  28.232  35.145  1.00  0.00     0.020 A 
ATOM     76  C   UNL A   1      46.679  26.944  35.676  1.00  0.00     0.054 A 
BRANCH  76  77
ATOM     77  S   UNL A   1      48.157  25.941  35.985  1.00  0.00     0.124 S 
ATOM     78  O   UNL A   1      48.102  25.762  37.434  1.00  0.00    -0.237 OA
ATOM     79  O   UNL A   1      47.901  24.740  35.195  1.00  0.00    -0.237 OA
ATOM     80  O   UNL A   1      49.253  26.778  35.502  1.00  0.00    -0.744 OA
ENDBRANCH  76  77
ENDBRANCH  57  71
BRANCH  58  81
ATOM     81  C   UNL A   1      36.068  33.630  33.094  1.00  0.00    -0.014 A 
ATOM     82  C   UNL A   1      34.811  33.042  33.314  1.00  0.00     0.010 A 
ATOM     83  C   UNL A   1      36.131  34.945  32.595  1.00  0.00     0.010 A 
ATOM     84  C   UNL A   1      33.639  33.751  33.029  1.00  0.00     0.020 A 
ATOM     85  C   UNL A   1      34.962  35.666  32.336  1.00  0.00     0.020 A 
ATOM     86  C   UNL A   1      33.723  35.059  32.545  1.00  0.00     0.054 A 
BRANCH  86  87
ATOM     87  S   UNL A   1      32.189  35.980  32.239  1.00  0.00     0.124 S 
ATOM     88  O   UNL A   1      32.375  37.166  33.070  1.00  0.00    -0.237 OA
ATOM     89  O   UNL A   1      32.239  36.203  30.796  1.00  0.00    -0.237 OA
ATOM     90  O   UNL A   1      31.144  35.061  32.683  1.00  0.00    -0.744 OA
ENDBRANCH  86  87
ENDBRANCH  58  81
BRANCH  70  91
ATOM     91  C   UNL A   1      40.568  33.685  38.432  1.00  0.00    -0.014 A 
ATOM     92  C   UNL A   1      39.970  33.248  39.627  1.00  0.00     0.010 A 
ATOM     93  C   UNL A   1      41.301  34.888  38.433  1.00  0.00     0.010 A 
ATOM     94  C   UNL A   1      40.077  34.014  40.792  1.00  0.00     0.020 A 
ATOM     95  C   UNL A   1      41.434  35.641  39.602  1.00  0.00     0.020 A 
ATOM     96  C   UNL A   1      40.808  35.205  40.772  1.00  0.00     0.054 A 
BRANCH  96  97
ATOM     97  S   UNL A   1      40.968  36.159  42.306  1.00  0.00     0.124 S 
ATOM     98  O   UNL A   1      39.639  36.749  42.437  1.00  0.00    -0.237 OA
ATOM     99  O   UNL A   1      41.300  35.131  43.290  1.00  0.00    -0.237 OA
ATOM    100  O   UNL A   1      42.044  37.104  42.016  1.00  0.00    -0.744 OA
ENDBRANCH  96  97
ENDBRANCH  70  91
ENDBRANCH  44  45
ENDBRANCH  37  39
ENDBRANCH  36  37
ENDBRANCH  35  36
ENDBRANCH  34  35
ENDBRANCH   1  34
TORSDOF 25
ENDMDL
MODEL 2
REMARK VINA RESULT:     -10.2      6.153      8.308
REMARK SMILES CC(C)c1cc(O)cc(C(C)C)c1O[C@@H]1O[C@@H](C(=O)OCCOCCOC(=O)c2ccc(-c3c4nc(c(-c5ccc(S(=O)(=O)[O-])cc5)c5ccc([nH]5)c(-c5ccc(S(=O)(=O)[O-])cc5)c5nc(c(-c6ccc(S(=O)(=O)[O-])cc6)c6ccc3[nH]6)C=C5)C=C4)cc2)[C@@H](O)[C@H](O)[C@@H]1O
REMARK SMILES IDX 23 1 22 2 21 3 20 4 18 5 19 6 17 7 15 8 16 9 93 10 91 11
REMARK SMILES IDX 89 12 14 13 13 14 4 15 5 16 6 17 9 18 8 19 2 20 1 21 3 22
REMARK SMILES IDX 7 23 10 25 11 26 12 27 94 28 92 30 90 32 24 34 25 35 26 36
REMARK SMILES IDX 27 37 28 38 29 39 30 40 88 41 31 42 87 43 32 44 33 45 34 46
REMARK SMILES IDX 81 47 35 48 86 49 80 50 82 51 36 52 85 53 79 54 78 55 37 57
REMARK SMILES IDX 67 58 48 59 66 60 49 61 52 62 65 63 83 64 50 65 51 66 64 68
REMARK SMILES IDX 84 69 53 70 38 71 39 72 47 73 40 74 46 75 41 76 42 77 43 78
REMARK SMILES IDX 44 79 45 80 68 81 69 82 77 83 70 84 76 85 71 86 72 87 73 88
REMARK SMILES IDX 74 89 75 90 54 91 55 92 63 93 56 94 62 95 57 96 58 97 59 98
REMARK SMILES IDX 60 99 61 100
REMARK H PARENT 7 24 94 29 92 31 90 33 82 56 52 67
REMARK Flexibility Score: inf
ROOT
ATOM      1  O   UNL A   1      37.185  22.101  25.597  1.00  0.00    -0.374 OA
ENDROOT
BRANCH   1   2
ATOM      2  C   UNL A   1      36.706  22.586  24.347  1.00  0.00     0.202 C 
BRANCH   2   3
ATOM      3  C   UNL A   1      35.258  23.076  24.273  1.00  0.00     0.261 C 
BRANCH   3   4
ATOM      4  O   UNL A   1      35.084  24.126  23.316  1.00  0.00    -0.461 OA
BRANCH   4   5
ATOM      5  C   UNL A   1      34.300  25.161  23.717  1.00  0.00     0.338 C 
ATOM      6  O   UNL A   1      34.415  25.736  24.794  1.00  0.00    -0.249 OA
BRANCH   5   7
ATOM      7  C   UNL A   1      33.268  25.571  22.644  1.00  0.00     0.263 C 
ATOM      8  C   UNL A   1      31.607  26.224  24.219  1.00  0.00     0.339 C 
ATOM      9  O   UNL A   1      32.409  26.617  23.110  1.00  0.00    -0.322 OA
ATOM     10  C   UNL A   1      30.863  24.857  24.111  1.00  0.00     0.214 C 
ATOM     11  C   UNL A   1      31.615  23.806  23.275  1.00  0.00     0.181 C 
ATOM     12  C   UNL A   1      32.410  24.421  22.115  1.00  0.00     0.186 C 
BRANCH   8  13
ATOM     13  O   UNL A   1      30.715  27.230  24.694  1.00  0.00    -0.461 OA
BRANCH  13  14
ATOM     14  C   UNL A   1      30.848  28.583  24.709  1.00  0.00     0.130 A 
ATOM     15  C   UNL A   1      31.651  29.021  25.805  1.00  0.00     0.001 A 
ATOM     16  C   UNL A   1      31.683  30.393  26.134  1.00  0.00     0.054 A 
ATOM     17  C   UNL A   1      30.984  31.315  25.380  1.00  0.00     0.116 A 
ATOM     18  C   UNL A   1      30.186  29.543  23.898  1.00  0.00     0.001 A 
ATOM     19  C   UNL A   1      30.280  30.906  24.264  1.00  0.00     0.054 A 
BRANCH  15  20
ATOM     20  C   UNL A   1      32.577  28.133  26.656  1.00  0.00     0.017 C 
ATOM     21  C   UNL A   1      34.016  28.579  26.929  1.00  0.00     0.012 C 
ATOM     22  C   UNL A   1      31.895  27.828  28.002  1.00  0.00     0.012 C 
ENDBRANCH  15  20
BRANCH  17  23
ATOM     23  O   UNL A   1      30.979  32.640  25.693  1.00  0.00    -0.508 OA
ATOM     24  H   UNL A   1      30.185  33.134  25.627  1.00  0.00     0.293 HD
ENDBRANCH  17  23
BRANCH  18  25
ATOM     25  C   UNL A   1      29.388  29.275  22.631  1.00  0.00     0.017 C 
ATOM     26  C   UNL A   1      27.911  28.937  22.867  1.00  0.00     0.012 C 
ATOM     27  C   UNL A   1      29.524  30.428  21.628  1.00  0.00     0.012 C 
ENDBRANCH  18  25
ENDBRANCH  13  14
ENDBRANCH   8  13
BRANCH  10  28
ATOM     28  O   UNL A   1      29.531  24.986  23.578  1.00  0.00    -0.384 OA
ATOM     29  H   UNL A   1      28.901  24.546  24.169  1.00  0.00     0.211 HD
ENDBRANCH  10  28
BRANCH  11  30
ATOM     30  O   UNL A   1      30.693  22.842  22.750  1.00  0.00    -0.387 OA
ATOM     31  H   UNL A   1      31.184  22.137  22.299  1.00  0.00     0.211 HD
ENDBRANCH  11  30
BRANCH  12  32
ATOM     32  O   UNL A   1      33.203  23.474  21.397  1.00  0.00    -0.387 OA
ATOM     33  H   UNL A   1      32.866  22.579  21.560  1.00  0.00     0.211 HD
ENDBRANCH  12  32
ENDBRANCH   5   7
ENDBRANCH   4   5
ENDBRANCH   3   4
ENDBRANCH   2   3
ENDBRANCH   1   2
BRANCH   1  34
ATOM     34  C   UNL A   1      38.583  21.872  25.763  1.00  0.00     0.202 C 
BRANCH  34  35
ATOM     35  C   UNL A   1      39.115  20.434  25.749  1.00  0.00     0.261 C 
BRANCH  35  36
ATOM     36  O   UNL A   1      40.067  20.166  26.792  1.00  0.00    -0.460 OA
BRANCH  36  37
ATOM     37  C   UNL A   1      41.321  19.908  26.358  1.00  0.00     0.338 C 
ATOM     38  O   UNL A   1      41.709  18.903  25.768  1.00  0.00    -0.246 OA
BRANCH  37  39
ATOM     39  C   UNL A   1      42.175  21.091  26.520  1.00  0.00     0.060 A 
ATOM     40  C   UNL A   1      42.441  21.534  27.822  1.00  0.00     0.016 A 
ATOM     41  C   UNL A   1      42.588  21.835  25.413  1.00  0.00     0.016 A 
ATOM     42  C   UNL A   1      43.086  22.750  28.025  1.00  0.00     0.010 A 
ATOM     43  C   UNL A   1      43.221  23.064  25.620  1.00  0.00     0.010 A 
ATOM     44  C   UNL A   1      43.437  23.542  26.925  1.00  0.00    -0.014 A 
BRANCH  44  45
ATOM     45  C   UNL A   1      43.883  24.936  27.153  1.00  0.00     0.031 A 
ATOM     46  C   UNL A   1      45.328  25.285  26.925  1.00  0.00     0.074 A 
ATOM     47  C   UNL A   1      43.002  25.884  27.517  1.00  0.00     0.049 A 
ATOM     48  N   UNL A   1      45.937  26.431  27.080  1.00  0.00    -0.248 NA
ATOM     49  C   UNL A   1      46.203  24.196  26.457  1.00  0.00     0.031 C 
ATOM     50  C   UNL A   1      41.569  25.673  27.718  1.00  0.00     0.029 A 
ATOM     51  N   UNL A   1      43.188  27.216  27.786  1.00  0.00    -0.354 N 
ATOM     52  C   UNL A   1      47.265  26.204  26.736  1.00  0.00     0.074 A 
ATOM     53  C   UNL A   1      47.379  24.804  26.389  1.00  0.00     0.031 C 
ATOM     54  C   UNL A   1      41.007  26.835  28.090  1.00  0.00     0.029 A 
ATOM     55  C   UNL A   1      42.043  27.861  28.184  1.00  0.00     0.049 A 
ATOM     56  H   UNL A   1      44.059  27.666  27.699  1.00  0.00     0.167 HD
ATOM     57  C   UNL A   1      48.295  27.083  26.706  1.00  0.00     0.031 A 
ATOM     58  C   UNL A   1      41.857  29.129  28.602  1.00  0.00     0.031 A 
ATOM     59  C   UNL A   1      48.178  28.469  27.072  1.00  0.00     0.049 A 
ATOM     60  C   UNL A   1      43.033  30.070  28.636  1.00  0.00     0.074 A 
ATOM     61  C   UNL A   1      49.160  29.445  27.077  1.00  0.00     0.029 A 
ATOM     62  N   UNL A   1      47.009  29.077  27.507  1.00  0.00    -0.354 N 
ATOM     63  N   UNL A   1      44.280  29.843  28.292  1.00  0.00    -0.248 NA
ATOM     64  C   UNL A   1      42.775  31.437  29.104  1.00  0.00     0.031 C 
ATOM     65  C   UNL A   1      48.596  30.629  27.564  1.00  0.00     0.029 A 
ATOM     66  C   UNL A   1      47.249  30.406  27.805  1.00  0.00     0.049 A 
ATOM     67  H   UNL A   1      46.137  28.627  27.590  1.00  0.00     0.167 HD
ATOM     68  C   UNL A   1      44.949  31.049  28.480  1.00  0.00     0.074 A 
ATOM     69  C   UNL A   1      43.966  32.003  28.952  1.00  0.00     0.031 C 
ATOM     70  C   UNL A   1      46.258  31.341  28.277  1.00  0.00     0.031 A 
BRANCH  57  71
ATOM     71  C   UNL A   1      49.645  26.556  26.299  1.00  0.00    -0.014 A 
ATOM     72  C   UNL A   1      50.142  26.753  24.998  1.00  0.00     0.010 A 
ATOM     73  C   UNL A   1      50.444  25.883  27.241  1.00  0.00     0.010 A 
ATOM     74  C   UNL A   1      51.396  26.252  24.635  1.00  0.00     0.020 A 
ATOM     75  C   UNL A   1      51.709  25.402  26.891  1.00  0.00     0.020 A 
ATOM     76  C   UNL A   1      52.170  25.576  25.583  1.00  0.00     0.054 A 
BRANCH  76  77
ATOM     77  S   UNL A   1      53.800  24.952  25.092  1.00  0.00     0.124 S 
ATOM     78  O   UNL A   1      53.558  23.513  25.005  1.00  0.00    -0.237 OA
ATOM     79  O   UNL A   1      54.031  25.627  23.817  1.00  0.00    -0.237 OA
ATOM     80  O   UNL A   1      54.677  25.371  26.182  1.00  0.00    -0.744 OA
ENDBRANCH  76  77
ENDBRANCH  57  71
BRANCH  58  81
ATOM     81  C   UNL A   1      40.508  29.571  29.045  1.00  0.00    -0.014 A 
ATOM     82  C   UNL A   1      40.287  29.998  30.365  1.00  0.00     0.010 A 
ATOM     83  C   UNL A   1      39.433  29.575  28.136  1.00  0.00     0.010 A 
ATOM     84  C   UNL A   1      39.013  30.408  30.772  1.00  0.00     0.020 A 
ATOM     85  C   UNL A   1      38.166  30.011  28.532  1.00  0.00     0.020 A 
ATOM     86  C   UNL A   1      37.962  30.415  29.852  1.00  0.00     0.054 A 
BRANCH  86  87
ATOM     87  S   UNL A   1      36.332  31.007  30.387  1.00  0.00     0.124 S 
ATOM     88  O   UNL A   1      36.654  32.313  30.953  1.00  0.00    -0.237 OA
ATOM     89  O   UNL A   1      35.578  31.028  29.136  1.00  0.00    -0.237 OA
ATOM     90  O   UNL A   1      35.899  29.996  31.348  1.00  0.00    -0.744 OA
ENDBRANCH  86  87
ENDBRANCH  58  81
BRANCH  70  91
ATOM     91  C   UNL A   1      46.700  32.757  28.531  1.00  0.00    -0.014 A 
ATOM     92  C   UNL A   1      47.069  33.188  29.817  1.00  0.00     0.010 A 
ATOM     93  C   UNL A   1      46.800  33.656  27.453  1.00  0.00     0.010 A 
ATOM     94  C   UNL A   1      47.502  34.501  30.025  1.00  0.00     0.020 A 
ATOM     95  C   UNL A   1      47.259  34.961  27.651  1.00  0.00     0.020 A 
ATOM     96  C   UNL A   1      47.594  35.379  28.941  1.00  0.00     0.054 A 
BRANCH  96  97
ATOM     97  S   UNL A   1      48.198  37.065  29.229  1.00  0.00     0.124 S 
ATOM     98  O   UNL A   1      49.645  36.868  29.257  1.00  0.00    -0.237 OA
ATOM     99  O   UNL A   1      47.684  37.792  28.070  1.00  0.00    -0.237 OA
ATOM    100  O   UNL A   1      47.595  37.436  30.506  1.00  0.00    -0.744 OA
ENDBRANCH  96  97
ENDBRANCH  70  91
ENDBRANCH  44  45
ENDBRANCH  37  39
ENDBRANCH  36  37
ENDBRANCH  35  36
ENDBRANCH  34  35
ENDBRANCH   1  34
TORSDOF 25
ENDMDL
MODEL 3
REMARK VINA RESULT:     -10.2      1.745      2.775
REMARK SMILES CC(C)c1cc(O)cc(C(C)C)c1O[C@@H]1O[C@@H](C(=O)OCCOCCOC(=O)c2ccc(-c3c4nc(c(-c5ccc(S(=O)(=O)[O-])cc5)c5ccc([nH]5)c(-c5ccc(S(=O)(=O)[O-])cc5)c5nc(c(-c6ccc(S(=O)(=O)[O-])cc6)c6ccc3[nH]6)C=C5)C=C4)cc2)[C@@H](O)[C@H](O)[C@@H]1O
REMARK SMILES IDX 23 1 22 2 21 3 20 4 18 5 19 6 17 7 15 8 16 9 93 10 91 11
REMARK SMILES IDX 89 12 14 13 13 14 4 15 5 16 6 17 9 18 8 19 2 20 1 21 3 22
REMARK SMILES IDX 7 23 10 25 11 26 12 27 94 28 92 30 90 32 24 34 25 35 26 36
REMARK SMILES IDX 27 37 28 38 29 39 30 40 88 41 31 42 87 43 32 44 33 45 34 46
REMARK SMILES IDX 81 47 35 48 86 49 80 50 82 51 36 52 85 53 79 54 78 55 37 57
REMARK SMILES IDX 67 58 48 59 66 60 49 61 52 62 65 63 83 64 50 65 51 66 64 68
REMARK SMILES IDX 84 69 53 70 38 71 39 72 47 73 40 74 46 75 41 76 42 77 43 78
REMARK SMILES IDX 44 79 45 80 68 81 69 82 77 83 70 84 76 85 71 86 72 87 73 88
REMARK SMILES IDX 74 89 75 90 54 91 55 92 63 93 56 94 62 95 57 96 58 97 59 98
REMARK SMILES IDX 60 99 61 100
REMARK H PARENT 7 24 94 29 92 31 90 33 82 56 52 67
REMARK Flexibility Score: inf
ROOT
ATOM      1  O   UNL A   1      38.895  21.740  25.615  1.00  0.00    -0.374 OA
ENDROOT
BRANCH   1   2
ATOM      2  C   UNL A   1      38.057  22.797  26.074  1.00  0.00     0.202 C 
BRANCH   2   3
ATOM      3  C   UNL A   1      37.015  23.361  25.105  1.00  0.00     0.261 C 
BRANCH   3   4
ATOM      4  O   UNL A   1      36.024  24.153  25.768  1.00  0.00    -0.461 OA
BRANCH   4   5
ATOM      5  C   UNL A   1      34.868  23.509  26.075  1.00  0.00     0.338 C 
ATOM      6  O   UNL A   1      34.658  22.937  27.139  1.00  0.00    -0.249 OA
BRANCH   5   7
ATOM      7  C   UNL A   1      33.817  23.614  24.947  1.00  0.00     0.263 C 
ATOM      8  C   UNL A   1      32.330  24.986  26.202  1.00  0.00     0.339 C 
ATOM      9  O   UNL A   1      33.097  24.849  25.010  1.00  0.00    -0.322 OA
ATOM     10  C   UNL A   1      31.449  23.772  26.625  1.00  0.00     0.214 C 
ATOM     11  C   UNL A   1      32.038  22.407  26.225  1.00  0.00     0.181 C 
ATOM     12  C   UNL A   1      32.816  22.458  24.902  1.00  0.00     0.186 C 
BRANCH   8  13
ATOM     13  O   UNL A   1      31.575  26.193  26.288  1.00  0.00    -0.461 OA
BRANCH  13  14
ATOM     14  C   UNL A   1      31.560  27.277  25.469  1.00  0.00     0.130 A 
ATOM     15  C   UNL A   1      30.724  27.068  24.331  1.00  0.00     0.001 A 
ATOM     16  C   UNL A   1      30.789  27.971  23.249  1.00  0.00     0.054 A 
ATOM     17  C   UNL A   1      31.617  29.075  23.301  1.00  0.00     0.116 A 
ATOM     18  C   UNL A   1      32.359  28.450  25.544  1.00  0.00     0.001 A 
ATOM     19  C   UNL A   1      32.360  29.331  24.437  1.00  0.00     0.054 A 
BRANCH  15  20
ATOM     20  C   UNL A   1      29.666  25.959  24.181  1.00  0.00     0.017 C 
ATOM     21  C   UNL A   1      28.211  26.333  23.883  1.00  0.00     0.012 C 
ATOM     22  C   UNL A   1      30.138  24.944  23.126  1.00  0.00     0.012 C 
ENDBRANCH  15  20
BRANCH  17  23
ATOM     23  O   UNL A   1      31.717  29.946  22.259  1.00  0.00    -0.508 OA
ATOM     24  H   UNL A   1      32.544  30.332  22.049  1.00  0.00     0.293 HD
ENDBRANCH  17  23
BRANCH  18  25
ATOM     25  C   UNL A   1      33.218  28.896  26.717  1.00  0.00     0.017 C 
ATOM     26  C   UNL A   1      34.728  28.735  26.502  1.00  0.00     0.012 C 
ATOM     27  C   UNL A   1      32.884  30.333  27.142  1.00  0.00     0.012 C 
ENDBRANCH  18  25
ENDBRANCH  13  14
ENDBRANCH   8  13
BRANCH  10  28
ATOM     28  O   UNL A   1      30.105  23.849  26.111  1.00  0.00    -0.384 OA
ATOM     29  H   UNL A   1      29.714  22.962  26.094  1.00  0.00     0.211 HD
ENDBRANCH  10  28
BRANCH  11  30
ATOM     30  O   UNL A   1      30.993  21.431  26.114  1.00  0.00    -0.387 OA
ATOM     31  H   UNL A   1      30.146  21.837  26.355  1.00  0.00     0.211 HD
ENDBRANCH  11  30
BRANCH  12  32
ATOM     32  O   UNL A   1      33.465  21.228  24.571  1.00  0.00    -0.387 OA
ATOM     33  H   UNL A   1      33.857  21.296  23.687  1.00  0.00     0.211 HD
ENDBRANCH  12  32
ENDBRANCH   5   7
ENDBRANCH   4   5
ENDBRANCH   3   4
ENDBRANCH   2   3
ENDBRANCH   1   2
BRANCH   1  34
ATOM     34  C   UNL A   1      40.017  21.352  26.405  1.00  0.00     0.202 C 
BRANCH  34  35
ATOM     35  C   UNL A   1      41.369  22.038  26.176  1.00  0.00     0.261 C 
BRANCH  35  36
ATOM     36  O   UNL A   1      41.648  23.082  27.122  1.00  0.00    -0.460 OA
BRANCH  36  37
ATOM     37  C   UNL A   1      42.063  24.246  26.572  1.00  0.00     0.338 C 
ATOM     38  O   UNL A   1      42.607  24.397  25.481  1.00  0.00    -0.246 OA
BRANCH  37  39
ATOM     39  C   UNL A   1      41.614  25.386  27.380  1.00  0.00     0.060 A 
ATOM     40  C   UNL A   1      42.483  26.476  27.515  1.00  0.00     0.016 A 
ATOM     41  C   UNL A   1      40.423  25.326  28.107  1.00  0.00     0.016 A 
ATOM     42  C   UNL A   1      42.187  27.494  28.416  1.00  0.00     0.010 A 
ATOM     43  C   UNL A   1      40.136  26.343  29.022  1.00  0.00     0.010 A 
ATOM     44  C   UNL A   1      41.035  27.409  29.207  1.00  0.00    -0.014 A 
BRANCH  44  45
ATOM     45  C   UNL A   1      40.861  28.354  30.333  1.00  0.00     0.031 A 
ATOM     46  C   UNL A   1      41.748  28.220  31.541  1.00  0.00     0.074 A 
ATOM     47  C   UNL A   1      39.953  29.343  30.261  1.00  0.00     0.049 A 
ATOM     48  N   UNL A   1      41.757  28.923  32.643  1.00  0.00    -0.248 NA
ATOM     49  C   UNL A   1      42.762  27.152  31.498  1.00  0.00     0.031 C 
ATOM     50  C   UNL A   1      39.073  29.601  29.121  1.00  0.00     0.029 A 
ATOM     51  N   UNL A   1      39.619  30.313  31.172  1.00  0.00    -0.354 N 
ATOM     52  C   UNL A   1      42.769  28.382  33.428  1.00  0.00     0.074 A 
ATOM     53  C   UNL A   1      43.335  27.276  32.686  1.00  0.00     0.031 C 
ATOM     54  C   UNL A   1      38.291  30.655  29.406  1.00  0.00     0.029 A 
ATOM     55  C   UNL A   1      38.591  31.124  30.757  1.00  0.00     0.049 A 
ATOM     56  H   UNL A   1      40.073  30.418  32.038  1.00  0.00     0.167 HD
ATOM     57  C   UNL A   1      43.193  28.775  34.653  1.00  0.00     0.031 A 
ATOM     58  C   UNL A   1      37.949  32.117  31.405  1.00  0.00     0.031 A 
ATOM     59  C   UNL A   1      42.612  29.863  35.392  1.00  0.00     0.049 A 
ATOM     60  C   UNL A   1      38.385  32.487  32.798  1.00  0.00     0.074 A 
ATOM     61  C   UNL A   1      42.967  30.343  36.641  1.00  0.00     0.029 A 
ATOM     62  N   UNL A   1      41.547  30.638  34.955  1.00  0.00    -0.354 N 
ATOM     63  N   UNL A   1      39.355  31.976  33.521  1.00  0.00    -0.248 NA
ATOM     64  C   UNL A   1      37.647  33.571  33.458  1.00  0.00     0.031 C 
ATOM     65  C   UNL A   1      42.083  31.373  36.980  1.00  0.00     0.029 A 
ATOM     66  C   UNL A   1      41.217  31.576  35.917  1.00  0.00     0.049 A 
ATOM     67  H   UNL A   1      41.094  30.536  34.086  1.00  0.00     0.167 HD
ATOM     68  C   UNL A   1      39.359  32.695  34.712  1.00  0.00     0.074 A 
ATOM     69  C   UNL A   1      38.306  33.684  34.605  1.00  0.00     0.031 C 
ATOM     70  C   UNL A   1      40.163  32.552  35.795  1.00  0.00     0.031 A 
BRANCH  57  71
ATOM     71  C   UNL A   1      44.316  27.995  35.282  1.00  0.00    -0.014 A 
ATOM     72  C   UNL A   1      45.658  28.373  35.099  1.00  0.00     0.010 A 
ATOM     73  C   UNL A   1      44.024  26.885  36.095  1.00  0.00     0.010 A 
ATOM     74  C   UNL A   1      46.689  27.633  35.686  1.00  0.00     0.020 A 
ATOM     75  C   UNL A   1      45.049  26.157  36.706  1.00  0.00     0.020 A 
ATOM     76  C   UNL A   1      46.378  26.527  36.483  1.00  0.00     0.054 A 
BRANCH  76  77
ATOM     77  S   UNL A   1      47.733  25.595  37.247  1.00  0.00     0.124 S 
ATOM     78  O   UNL A   1      47.546  24.265  36.671  1.00  0.00    -0.237 OA
ATOM     79  O   UNL A   1      48.917  26.317  36.789  1.00  0.00    -0.237 OA
ATOM     80  O   UNL A   1      47.461  25.697  38.679  1.00  0.00    -0.744 OA
ENDBRANCH  76  77
ENDBRANCH  57  71
BRANCH  58  81
ATOM     81  C   UNL A   1      36.809  32.812  30.748  1.00  0.00    -0.014 A 
ATOM     82  C   UNL A   1      37.018  33.963  29.971  1.00  0.00     0.010 A 
ATOM     83  C   UNL A   1      35.500  32.313  30.893  1.00  0.00     0.010 A 
ATOM     84  C   UNL A   1      35.939  34.611  29.362  1.00  0.00     0.020 A 
ATOM     85  C   UNL A   1      34.424  32.942  30.263  1.00  0.00     0.020 A 
ATOM     86  C   UNL A   1      34.649  34.094  29.509  1.00  0.00     0.054 A 
BRANCH  86  87
ATOM     87  S   UNL A   1      33.272  34.917  28.661  1.00  0.00     0.124 S 
ATOM     88  O   UNL A   1      32.495  35.441  29.780  1.00  0.00    -0.237 OA
ATOM     89  O   UNL A   1      33.957  35.915  27.843  1.00  0.00    -0.237 OA
ATOM     90  O   UNL A   1      32.638  33.837  27.908  1.00  0.00    -0.744 OA
ENDBRANCH  86  87
ENDBRANCH  58  81
BRANCH  70  91
ATOM     91  C   UNL A   1      39.961  33.508  36.940  1.00  0.00    -0.014 A 
ATOM     92  C   UNL A   1      39.031  33.240  37.960  1.00  0.00     0.010 A 
ATOM     93  C   UNL A   1      40.756  34.666  37.024  1.00  0.00     0.010 A 
ATOM     94  C   UNL A   1      38.879  34.129  39.028  1.00  0.00     0.020 A 
ATOM     95  C   UNL A   1      40.627  35.543  38.104  1.00  0.00     0.020 A 
ATOM     96  C   UNL A   1      39.678  35.275  39.093  1.00  0.00     0.054 A 
BRANCH  96  97
ATOM     97  S   UNL A   1      39.492  36.392  40.510  1.00  0.00     0.124 S 
ATOM     98  O   UNL A   1      38.539  37.373  40.001  1.00  0.00    -0.237 OA
ATOM     99  O   UNL A   1      38.985  35.503  41.554  1.00  0.00    -0.237 OA
ATOM    100  O   UNL A   1      40.845  36.895  40.735  1.00  0.00    -0.744 OA
ENDBRANCH  96  97
ENDBRANCH  70  91
ENDBRANCH  44  45
ENDBRANCH  37  39
ENDBRANCH  36  37
ENDBRANCH  35  36
ENDBRANCH  34  35
ENDBRANCH   1  34
TORSDOF 25
ENDMDL
