MODEL 1
REMARK VINA RESULT:     -11.2      0.000      0.000
REMARK SMILES CC1=CC[C@@H]2C(=O)N(c3ccc(Cl)c(C(=O)OCCOCCOC(=O)c4ccc(-c5c6nc(c(-c7ccc(S(=O)(=O)[O-])cc7)c7ccc([nH]7)c(-c7ccc(S(=O)(=O)[O-])cc7)c7nc(c(-c8ccc(S(=O)(=O)[O-])cc8)c8ccc5[nH]8)C=C7)C=C6)cc4)c3)C(=O)[C@H]2C1
REMARK SMILES IDX 21 1 20 2 19 3 18 4 17 5 15 6 16 7 14 8 9 9 10 10 86 11
REMARK SMILES IDX 11 12 12 13 13 14 8 15 1 16 2 17 3 18 90 19 4 20 89 21 5 22
REMARK SMILES IDX 87 23 6 24 88 25 7 26 22 27 23 28 24 29 25 30 26 31 27 32
REMARK SMILES IDX 85 33 28 34 84 35 29 36 30 37 31 38 78 39 32 40 83 41 77 42
REMARK SMILES IDX 79 43 33 44 82 45 76 46 75 47 34 49 64 50 45 51 63 52 46 53
REMARK SMILES IDX 49 54 62 55 80 56 47 57 48 58 61 60 81 61 50 62 35 63 36 64
REMARK SMILES IDX 44 65 37 66 43 67 38 68 39 69 40 70 41 71 42 72 65 73 66 74
REMARK SMILES IDX 74 75 67 76 73 77 68 78 69 79 70 80 71 81 72 82 51 83 52 84
REMARK SMILES IDX 60 85 53 86 59 87 54 88 55 89 56 90 57 91 58 92
REMARK H PARENT 79 48 49 59
REMARK Flexibility Score: inf
ROOT
ATOM      1  C   UNL A   1      31.873  29.780  25.571  1.00  0.00     0.202 C 
ENDROOT
BRANCH   1   2
ATOM      2  O   UNL A   1      31.765  28.430  26.024  1.00  0.00    -0.374 OA
BRANCH   2   3
ATOM      3  C   UNL A   1      32.866  27.557  25.750  1.00  0.00     0.202 C 
BRANCH   3   4
ATOM      4  C   UNL A   1      33.604  27.829  24.439  1.00  0.00     0.261 C 
BRANCH   4   5
ATOM      5  O   UNL A   1      34.164  26.608  23.932  1.00  0.00    -0.460 OA
BRANCH   5   6
ATOM      6  C   UNL A   1      33.606  26.131  22.799  1.00  0.00     0.339 C 
ATOM      7  O   UNL A   1      34.065  26.199  21.669  1.00  0.00    -0.246 OA
BRANCH   6   8
ATOM      8  C   UNL A   1      32.429  25.297  23.112  1.00  0.00     0.080 A 
ATOM      9  C   UNL A   1      31.674  23.041  23.608  1.00  0.00     0.053 A 
ATOM     10  C   UNL A   1      30.349  23.463  23.486  1.00  0.00     0.028 A 
ATOM     11  C   UNL A   1      32.711  23.959  23.445  1.00  0.00     0.044 A 
ATOM     12  C   UNL A   1      30.066  24.808  23.230  1.00  0.00     0.023 A 
ATOM     13  C   UNL A   1      31.102  25.729  23.026  1.00  0.00     0.055 A 
ATOM     14  Cl  UNL A   1      30.653  27.341  22.607  1.00  0.00    -0.083 Cl
BRANCH   9  15
ATOM     15  N   UNL A   1      31.974  21.680  23.750  1.00  0.00    -0.250 N 
ATOM     16  C   UNL A   1      33.549  16.080  25.509  1.00  0.00     0.039 C 
ATOM     17  C   UNL A   1      33.283  17.300  24.675  1.00  0.00    -0.076 C 
ATOM     18  C   UNL A   1      33.354  17.266  23.324  1.00  0.00    -0.027 C 
ATOM     19  C   UNL A   1      32.931  18.574  25.445  1.00  0.00     0.044 C 
ATOM     20  C   UNL A   1      33.004  18.439  22.431  1.00  0.00     0.041 C 
ATOM     21  C   UNL A   1      33.015  19.768  24.511  1.00  0.00     0.096 C 
ATOM     22  C   UNL A   1      32.229  19.453  23.247  1.00  0.00     0.096 C 
ATOM     23  C   UNL A   1      32.444  21.099  24.914  1.00  0.00     0.238 C 
ATOM     24  C   UNL A   1      31.988  20.813  22.672  1.00  0.00     0.238 C 
ATOM     25  O   UNL A   1      32.487  21.573  26.038  1.00  0.00    -0.274 OA
ATOM     26  O   UNL A   1      31.796  21.053  21.496  1.00  0.00    -0.274 OA
ENDBRANCH   9  15
ENDBRANCH   6   8
ENDBRANCH   5   6
ENDBRANCH   4   5
ENDBRANCH   3   4
ENDBRANCH   2   3
ENDBRANCH   1   2
BRANCH   1  27
ATOM     27  C   UNL A   1      32.256  30.825  26.625  1.00  0.00     0.261 C 
BRANCH  27  28
ATOM     28  O   UNL A   1      33.435  30.457  27.364  1.00  0.00    -0.460 OA
BRANCH  28  29
ATOM     29  C   UNL A   1      34.266  31.494  27.630  1.00  0.00     0.338 C 
ATOM     30  O   UNL A   1      33.955  32.668  27.757  1.00  0.00    -0.246 OA
BRANCH  29  31
ATOM     31  C   UNL A   1      35.634  31.014  27.914  1.00  0.00     0.060 A 
ATOM     32  C   UNL A   1      35.788  29.638  28.129  1.00  0.00     0.016 A 
ATOM     33  C   UNL A   1      36.717  31.882  28.079  1.00  0.00     0.016 A 
ATOM     34  C   UNL A   1      37.001  29.137  28.594  1.00  0.00     0.010 A 
ATOM     35  C   UNL A   1      37.935  31.375  28.550  1.00  0.00     0.010 A 
ATOM     36  C   UNL A   1      38.064  30.009  28.861  1.00  0.00    -0.014 A 
BRANCH  36  37
ATOM     37  C   UNL A   1      39.213  29.498  29.651  1.00  0.00     0.031 A 
ATOM     38  C   UNL A   1      39.341  29.911  31.095  1.00  0.00     0.074 A 
ATOM     39  C   UNL A   1      40.072  28.605  29.126  1.00  0.00     0.049 A 
ATOM     40  N   UNL A   1      40.212  29.529  31.993  1.00  0.00    -0.248 NA
ATOM     41  C   UNL A   1      38.348  30.878  31.597  1.00  0.00     0.031 C 
ATOM     42  C   UNL A   1      40.036  28.099  27.755  1.00  0.00     0.029 A 
ATOM     43  N   UNL A   1      41.136  27.954  29.698  1.00  0.00    -0.354 N 
ATOM     44  C   UNL A   1      39.867  30.194  33.164  1.00  0.00     0.074 A 
ATOM     45  C   UNL A   1      38.736  31.040  32.853  1.00  0.00     0.031 C 
ATOM     46  C   UNL A   1      41.035  27.213  27.591  1.00  0.00     0.029 A 
ATOM     47  C   UNL A   1      41.788  27.101  28.839  1.00  0.00     0.049 A 
ATOM     48  H   UNL A   1      41.408  28.084  30.635  1.00  0.00     0.167 HD
ATOM     49  C   UNL A   1      40.425  30.099  34.394  1.00  0.00     0.031 A 
ATOM     50  C   UNL A   1      42.871  26.323  29.036  1.00  0.00     0.031 A 
ATOM     51  C   UNL A   1      41.560  29.271  34.706  1.00  0.00     0.049 A 
ATOM     52  C   UNL A   1      43.511  26.278  30.400  1.00  0.00     0.074 A 
ATOM     53  C   UNL A   1      42.210  29.122  35.919  1.00  0.00     0.029 A 
ATOM     54  N   UNL A   1      42.210  28.449  33.799  1.00  0.00    -0.354 N 
ATOM     55  N   UNL A   1      43.162  26.908  31.498  1.00  0.00    -0.248 NA
ATOM     56  C   UNL A   1      44.681  25.402  30.555  1.00  0.00     0.031 C 
ATOM     57  C   UNL A   1      43.279  28.237  35.736  1.00  0.00     0.029 A 
ATOM     58  C   UNL A   1      43.261  27.798  34.421  1.00  0.00     0.049 A 
ATOM     59  H   UNL A   1      41.961  28.345  32.852  1.00  0.00     0.167 HD
ATOM     60  C   UNL A   1      44.056  26.484  32.477  1.00  0.00     0.074 A 
ATOM     61  C   UNL A   1      44.944  25.530  31.848  1.00  0.00     0.031 C 
ATOM     62  C   UNL A   1      44.138  26.852  33.780  1.00  0.00     0.031 A 
BRANCH  49  63
ATOM     63  C   UNL A   1      39.817  30.923  35.497  1.00  0.00    -0.014 A 
ATOM     64  C   UNL A   1      38.582  30.562  36.066  1.00  0.00     0.010 A 
ATOM     65  C   UNL A   1      40.504  32.040  36.001  1.00  0.00     0.010 A 
ATOM     66  C   UNL A   1      38.031  31.321  37.102  1.00  0.00     0.020 A 
ATOM     67  C   UNL A   1      39.968  32.790  37.053  1.00  0.00     0.020 A 
ATOM     68  C   UNL A   1      38.729  32.432  37.588  1.00  0.00     0.054 A 
BRANCH  68  69
ATOM     69  S   UNL A   1      38.008  33.379  38.957  1.00  0.00     0.124 S 
ATOM     70  O   UNL A   1      38.553  32.687  40.122  1.00  0.00    -0.237 OA
ATOM     71  O   UNL A   1      38.527  34.725  38.726  1.00  0.00    -0.237 OA
ATOM     72  O   UNL A   1      36.568  33.228  38.762  1.00  0.00    -0.744 OA
ENDBRANCH  68  69
ENDBRANCH  49  63
BRANCH  50  73
ATOM     73  C   UNL A   1      43.441  25.535  27.910  1.00  0.00    -0.014 A 
ATOM     74  C   UNL A   1      43.004  24.225  27.646  1.00  0.00     0.010 A 
ATOM     75  C   UNL A   1      44.463  26.087  27.116  1.00  0.00     0.010 A 
ATOM     76  C   UNL A   1      43.604  23.469  26.634  1.00  0.00     0.020 A 
ATOM     77  C   UNL A   1      45.046  25.346  26.085  1.00  0.00     0.020 A 
ATOM     78  C   UNL A   1      44.625  24.032  25.864  1.00  0.00     0.054 A 
BRANCH  78  79
ATOM     79  S   UNL A   1      45.383  23.045  24.543  1.00  0.00     0.124 S 
ATOM     80  O   UNL A   1      46.033  21.979  25.298  1.00  0.00    -0.237 OA
ATOM     81  O   UNL A   1      44.227  22.642  23.745  1.00  0.00    -0.237 OA
ATOM     82  O   UNL A   1      46.284  23.989  23.887  1.00  0.00    -0.744 OA
ENDBRANCH  78  79
ENDBRANCH  50  73
BRANCH  62  83
ATOM     83  C   UNL A   1      45.205  26.198  34.616  1.00  0.00    -0.014 A 
ATOM     84  C   UNL A   1      46.479  26.777  34.753  1.00  0.00     0.010 A 
ATOM     85  C   UNL A   1      44.920  24.997  35.292  1.00  0.00     0.010 A 
ATOM     86  C   UNL A   1      47.465  26.141  35.514  1.00  0.00     0.020 A 
ATOM     87  C   UNL A   1      45.895  24.373  36.075  1.00  0.00     0.020 A 
ATOM     88  C   UNL A   1      47.168  24.938  36.162  1.00  0.00     0.054 A 
BRANCH  88  89
ATOM     89  S   UNL A   1      48.458  24.136  37.154  1.00  0.00     0.124 S 
ATOM     90  O   UNL A   1      49.678  24.652  36.538  1.00  0.00    -0.237 OA
ATOM     91  O   UNL A   1      48.181  24.625  38.503  1.00  0.00    -0.237 OA
ATOM     92  O   UNL A   1      48.212  22.710  36.953  1.00  0.00    -0.744 OA
ENDBRANCH  88  89
ENDBRANCH  62  83
ENDBRANCH  36  37
ENDBRANCH  29  31
ENDBRANCH  28  29
ENDBRANCH  27  28
ENDBRANCH   1  27
TORSDOF 18
ENDMDL
MODEL 2
REMARK VINA RESULT:     -11.0      3.300      9.842
REMARK SMILES CC1=CC[C@@H]2C(=O)N(c3ccc(Cl)c(C(=O)OCCOCCOC(=O)c4ccc(-c5c6nc(c(-c7ccc(S(=O)(=O)[O-])cc7)c7ccc([nH]7)c(-c7ccc(S(=O)(=O)[O-])cc7)c7nc(c(-c8ccc(S(=O)(=O)[O-])cc8)c8ccc5[nH]8)C=C7)C=C6)cc4)c3)C(=O)[C@H]2C1
REMARK SMILES IDX 21 1 20 2 19 3 18 4 17 5 15 6 16 7 14 8 9 9 10 10 86 11
REMARK SMILES IDX 11 12 12 13 13 14 8 15 1 16 2 17 3 18 90 19 4 20 89 21 5 22
REMARK SMILES IDX 87 23 6 24 88 25 7 26 22 27 23 28 24 29 25 30 26 31 27 32
REMARK SMILES IDX 85 33 28 34 84 35 29 36 30 37 31 38 78 39 32 40 83 41 77 42
REMARK SMILES IDX 79 43 33 44 82 45 76 46 75 47 34 49 64 50 45 51 63 52 46 53
REMARK SMILES IDX 49 54 62 55 80 56 47 57 48 58 61 60 81 61 50 62 35 63 36 64
REMARK SMILES IDX 44 65 37 66 43 67 38 68 39 69 40 70 41 71 42 72 65 73 66 74
REMARK SMILES IDX 74 75 67 76 73 77 68 78 69 79 70 80 71 81 72 82 51 83 52 84
REMARK SMILES IDX 60 85 53 86 59 87 54 88 55 89 56 90 57 91 58 92
REMARK H PARENT 79 48 49 59
REMARK Flexibility Score: inf
ROOT
ATOM      1  C   UNL A   1      38.886  22.487  26.212  1.00  0.00     0.202 C 
ENDROOT
BRANCH   1   2
ATOM      2  O   UNL A   1      37.654  21.894  25.798  1.00  0.00    -0.374 OA
BRANCH   2   3
ATOM      3  C   UNL A   1      37.733  20.699  25.014  1.00  0.00     0.202 C 
BRANCH   3   4
ATOM      4  C   UNL A   1      36.404  19.977  24.791  1.00  0.00     0.261 C 
BRANCH   4   5
ATOM      5  O   UNL A   1      35.345  20.691  25.450  1.00  0.00    -0.460 OA
BRANCH   5   6
ATOM      6  C   UNL A   1      34.095  20.239  25.212  1.00  0.00     0.339 C 
ATOM      7  O   UNL A   1      33.531  19.311  25.769  1.00  0.00    -0.246 OA
BRANCH   6   8
ATOM      8  C   UNL A   1      33.374  21.160  24.311  1.00  0.00     0.080 A 
ATOM      9  C   UNL A   1      32.791  23.484  23.906  1.00  0.00     0.053 A 
ATOM     10  C   UNL A   1      31.901  23.082  22.909  1.00  0.00     0.028 A 
ATOM     11  C   UNL A   1      33.543  22.529  24.589  1.00  0.00     0.044 A 
ATOM     12  C   UNL A   1      31.787  21.727  22.579  1.00  0.00     0.023 A 
ATOM     13  C   UNL A   1      32.510  20.758  23.287  1.00  0.00     0.055 A 
ATOM     14  Cl  UNL A   1      32.221  19.107  22.883  1.00  0.00    -0.083 Cl
BRANCH   9  15
ATOM     15  N   UNL A   1      32.831  24.821  24.323  1.00  0.00    -0.250 N 
ATOM     16  C   UNL A   1      32.232  30.250  26.986  1.00  0.00     0.039 C 
ATOM     17  C   UNL A   1      32.475  29.168  25.974  1.00  0.00    -0.076 C 
ATOM     18  C   UNL A   1      32.961  29.444  24.742  1.00  0.00    -0.027 C 
ATOM     19  C   UNL A   1      32.138  27.745  26.422  1.00  0.00     0.044 C 
ATOM     20  C   UNL A   1      33.314  28.385  23.717  1.00  0.00     0.041 C 
ATOM     21  C   UNL A   1      32.121  26.826  25.213  1.00  0.00     0.096 C 
ATOM     22  C   UNL A   1      33.399  27.045  24.417  1.00  0.00     0.096 C 
ATOM     23  C   UNL A   1      32.108  25.333  25.385  1.00  0.00     0.238 C 
ATOM     24  C   UNL A   1      33.480  25.800  23.592  1.00  0.00     0.238 C 
ATOM     25  O   UNL A   1      31.496  24.728  26.250  1.00  0.00    -0.274 OA
ATOM     26  O   UNL A   1      34.055  25.702  22.524  1.00  0.00    -0.274 OA
ENDBRANCH   9  15
ENDBRANCH   6   8
ENDBRANCH   5   6
ENDBRANCH   4   5
ENDBRANCH   3   4
ENDBRANCH   2   3
ENDBRANCH   1   2
BRANCH   1  27
ATOM     27  C   UNL A   1      38.899  24.014  26.346  1.00  0.00     0.261 C 
BRANCH  27  28
ATOM     28  O   UNL A   1      40.074  24.498  27.022  1.00  0.00    -0.460 OA
BRANCH  28  29
ATOM     29  C   UNL A   1      40.386  25.785  26.732  1.00  0.00     0.338 C 
ATOM     30  O   UNL A   1      40.826  26.212  25.676  1.00  0.00    -0.246 OA
BRANCH  29  31
ATOM     31  C   UNL A   1      39.977  26.686  27.829  1.00  0.00     0.060 A 
ATOM     32  C   UNL A   1      40.540  27.968  27.836  1.00  0.00     0.016 A 
ATOM     33  C   UNL A   1      39.159  26.266  28.881  1.00  0.00     0.016 A 
ATOM     34  C   UNL A   1      40.361  28.802  28.936  1.00  0.00     0.010 A 
ATOM     35  C   UNL A   1      38.982  27.106  29.989  1.00  0.00     0.010 A 
ATOM     36  C   UNL A   1      39.628  28.355  30.043  1.00  0.00    -0.014 A 
BRANCH  36  37
ATOM     37  C   UNL A   1      39.725  29.124  31.310  1.00  0.00     0.031 A 
ATOM     38  C   UNL A   1      40.885  28.852  32.234  1.00  0.00     0.074 A 
ATOM     39  C   UNL A   1      38.858  30.114  31.588  1.00  0.00     0.049 A 
ATOM     40  N   UNL A   1      41.215  29.453  33.349  1.00  0.00    -0.248 NA
ATOM     41  C   UNL A   1      41.799  27.764  31.846  1.00  0.00     0.031 C 
ATOM     42  C   UNL A   1      37.717  30.499  30.760  1.00  0.00     0.029 A 
ATOM     43  N   UNL A   1      38.818  30.988  32.646  1.00  0.00    -0.354 N 
ATOM     44  C   UNL A   1      42.377  28.828  33.787  1.00  0.00     0.074 A 
ATOM     45  C   UNL A   1      42.671  27.771  32.844  1.00  0.00     0.031 C 
ATOM     46  C   UNL A   1      37.085  31.535  31.342  1.00  0.00     0.029 A 
ATOM     47  C   UNL A   1      37.769  31.876  32.588  1.00  0.00     0.049 A 
ATOM     48  H   UNL A   1      39.477  30.981  33.377  1.00  0.00     0.167 HD
ATOM     49  C   UNL A   1      43.146  29.116  34.864  1.00  0.00     0.031 A 
ATOM     50  C   UNL A   1      37.401  32.849  33.445  1.00  0.00     0.031 A 
ATOM     51  C   UNL A   1      42.851  30.156  35.813  1.00  0.00     0.049 A 
ATOM     52  C   UNL A   1      38.241  33.113  34.669  1.00  0.00     0.074 A 
ATOM     53  C   UNL A   1      43.559  30.512  36.949  1.00  0.00     0.029 A 
ATOM     54  N   UNL A   1      41.762  31.010  35.736  1.00  0.00    -0.354 N 
ATOM     55  N   UNL A   1      39.343  32.517  35.059  1.00  0.00    -0.248 NA
ATOM     56  C   UNL A   1      37.795  34.194  35.559  1.00  0.00     0.031 C 
ATOM     57  C   UNL A   1      42.875  31.559  37.579  1.00  0.00     0.029 A 
ATOM     58  C   UNL A   1      41.771  31.886  36.808  1.00  0.00     0.049 A 
ATOM     59  H   UNL A   1      41.082  30.994  35.024  1.00  0.00     0.167 HD
ATOM     60  C   UNL A   1      39.733  33.168  36.226  1.00  0.00     0.074 A 
ATOM     61  C   UNL A   1      38.763  34.216  36.464  1.00  0.00     0.031 C 
ATOM     62  C   UNL A   1      40.796  32.922  37.031  1.00  0.00     0.031 A 
BRANCH  49  63
ATOM     63  C   UNL A   1      44.381  28.283  35.077  1.00  0.00    -0.014 A 
ATOM     64  C   UNL A   1      44.325  27.091  35.823  1.00  0.00     0.010 A 
ATOM     65  C   UNL A   1      45.600  28.670  34.492  1.00  0.00     0.010 A 
ATOM     66  C   UNL A   1      45.472  26.314  36.002  1.00  0.00     0.020 A 
ATOM     67  C   UNL A   1      46.745  27.884  34.650  1.00  0.00     0.020 A 
ATOM     68  C   UNL A   1      46.676  26.717  35.415  1.00  0.00     0.054 A 
BRANCH  68  69
ATOM     69  S   UNL A   1      48.142  25.671  35.634  1.00  0.00     0.124 S 
ATOM     70  O   UNL A   1      47.601  24.549  36.397  1.00  0.00    -0.237 OA
ATOM     71  O   UNL A   1      48.530  25.367  34.258  1.00  0.00    -0.237 OA
ATOM     72  O   UNL A   1      49.073  26.528  36.365  1.00  0.00    -0.744 OA
ENDBRANCH  68  69
ENDBRANCH  49  63
BRANCH  50  73
ATOM     73  C   UNL A   1      36.165  33.639  33.195  1.00  0.00    -0.014 A 
ATOM     74  C   UNL A   1      34.901  33.143  33.560  1.00  0.00     0.010 A 
ATOM     75  C   UNL A   1      36.250  34.885  32.548  1.00  0.00     0.010 A 
ATOM     76  C   UNL A   1      33.742  33.862  33.249  1.00  0.00     0.020 A 
ATOM     77  C   UNL A   1      35.097  35.620  32.261  1.00  0.00     0.020 A 
ATOM     78  C   UNL A   1      33.847  35.094  32.596  1.00  0.00     0.054 A 
BRANCH  78  79
ATOM     79  S   UNL A   1      32.336  36.022  32.214  1.00  0.00     0.124 S 
ATOM     80  O   UNL A   1      32.497  36.289  30.789  1.00  0.00    -0.237 OA
ATOM     81  O   UNL A   1      31.282  35.073  32.567  1.00  0.00    -0.237 OA
ATOM     82  O   UNL A   1      32.426  37.192  33.087  1.00  0.00    -0.744 OA
ENDBRANCH  78  79
ENDBRANCH  50  73
BRANCH  62  83
ATOM     83  C   UNL A   1      40.980  33.819  38.225  1.00  0.00    -0.014 A 
ATOM     84  C   UNL A   1      40.441  33.482  39.480  1.00  0.00     0.010 A 
ATOM     85  C   UNL A   1      41.724  35.007  38.094  1.00  0.00     0.010 A 
ATOM     86  C   UNL A   1      40.601  34.342  40.571  1.00  0.00     0.020 A 
ATOM     87  C   UNL A   1      41.908  35.855  39.190  1.00  0.00     0.020 A 
ATOM     88  C   UNL A   1      41.327  35.527  40.416  1.00  0.00     0.054 A 
BRANCH  88  89
ATOM     89  S   UNL A   1      41.533  36.622  41.848  1.00  0.00     0.124 S 
ATOM     90  O   UNL A   1      41.119  35.758  42.950  1.00  0.00    -0.237 OA
ATOM     91  O   UNL A   1      42.957  36.946  41.805  1.00  0.00    -0.237 OA
ATOM     92  O   UNL A   1      40.638  37.739  41.560  1.00  0.00    -0.744 OA
ENDBRANCH  88  89
ENDBRANCH  62  83
ENDBRANCH  36  37
ENDBRANCH  29  31
ENDBRANCH  28  29
ENDBRANCH  27  28
ENDBRANCH   1  27
TORSDOF 18
ENDMDL
MODEL 3
REMARK VINA RESULT:     -11.0      4.019      8.208
REMARK SMILES CC1=CC[C@@H]2C(=O)N(c3ccc(Cl)c(C(=O)OCCOCCOC(=O)c4ccc(-c5c6nc(c(-c7ccc(S(=O)(=O)[O-])cc7)c7ccc([nH]7)c(-c7ccc(S(=O)(=O)[O-])cc7)c7nc(c(-c8ccc(S(=O)(=O)[O-])cc8)c8ccc5[nH]8)C=C7)C=C6)cc4)c3)C(=O)[C@H]2C1
REMARK SMILES IDX 21 1 20 2 19 3 18 4 17 5 15 6 16 7 14 8 9 9 10 10 86 11
REMARK SMILES IDX 11 12 12 13 13 14 8 15 1 16 2 17 3 18 90 19 4 20 89 21 5 22
REMARK SMILES IDX 87 23 6 24 88 25 7 26 22 27 23 28 24 29 25 30 26 31 27 32
REMARK SMILES IDX 85 33 28 34 84 35 29 36 30 37 31 38 78 39 32 40 83 41 77 42
REMARK SMILES IDX 79 43 33 44 82 45 76 46 75 47 34 49 64 50 45 51 63 52 46 53
REMARK SMILES IDX 49 54 62 55 80 56 47 57 48 58 61 60 81 61 50 62 35 63 36 64
REMARK SMILES IDX 44 65 37 66 43 67 38 68 39 69 40 70 41 71 42 72 65 73 66 74
REMARK SMILES IDX 74 75 67 76 73 77 68 78 69 79 70 80 71 81 72 82 51 83 52 84
REMARK SMILES IDX 60 85 53 86 59 87 54 88 55 89 56 90 57 91 58 92
REMARK H PARENT 79 48 49 59
REMARK Flexibility Score: inf
ROOT
ATOM      1  C   UNL A   1      31.804  29.661  26.855  1.00  0.00     0.202 C 
ENDROOT
BRANCH   1   2
ATOM      2  O   UNL A   1      31.705  28.466  27.631  1.00  0.00    -0.374 OA
BRANCH   2   3
ATOM      3  C   UNL A   1      31.603  27.229  26.918  1.00  0.00     0.202 C 
BRANCH   3   4
ATOM      4  C   UNL A   1      30.750  27.276  25.650  1.00  0.00     0.261 C 
BRANCH   4   5
ATOM      5  O   UNL A   1      30.258  25.961  25.345  1.00  0.00    -0.460 OA
BRANCH   5   6
ATOM      6  C   UNL A   1      29.924  25.743  24.055  1.00  0.00     0.339 C 
ATOM      7  O   UNL A   1      28.949  26.180  23.465  1.00  0.00    -0.246 OA
BRANCH   6   8
ATOM      8  C   UNL A   1      31.025  25.063  23.344  1.00  0.00     0.080 A 
ATOM      9  C   UNL A   1      32.146  22.934  23.001  1.00  0.00     0.053 A 
ATOM     10  C   UNL A   1      33.166  23.588  22.309  1.00  0.00     0.028 A 
ATOM     11  C   UNL A   1      31.066  23.664  23.497  1.00  0.00     0.044 A 
ATOM     12  C   UNL A   1      33.089  24.968  22.091  1.00  0.00     0.023 A 
ATOM     13  C   UNL A   1      32.028  25.715  22.620  1.00  0.00     0.055 A 
ATOM     14  Cl  UNL A   1      32.076  27.424  22.392  1.00  0.00    -0.083 Cl
BRANCH   9  15
ATOM     15  N   UNL A   1      32.266  21.576  23.324  1.00  0.00    -0.250 N 
ATOM     16  C   UNL A   1      33.202  16.099  25.786  1.00  0.00     0.039 C 
ATOM     17  C   UNL A   1      33.033  17.219  24.799  1.00  0.00    -0.076 C 
ATOM     18  C   UNL A   1      32.974  16.989  23.467  1.00  0.00    -0.027 C 
ATOM     19  C   UNL A   1      32.934  18.625  25.393  1.00  0.00     0.044 C 
ATOM     20  C   UNL A   1      32.710  18.066  22.436  1.00  0.00     0.041 C 
ATOM     21  C   UNL A   1      33.097  19.652  24.287  1.00  0.00     0.096 C 
ATOM     22  C   UNL A   1      32.162  19.288  23.143  1.00  0.00     0.096 C 
ATOM     23  C   UNL A   1      32.756  21.097  24.526  1.00  0.00     0.238 C 
ATOM     24  C   UNL A   1      32.060  20.577  22.390  1.00  0.00     0.238 C 
ATOM     25  O   UNL A   1      32.967  21.709  25.560  1.00  0.00    -0.274 OA
ATOM     26  O   UNL A   1      31.796  20.678  21.207  1.00  0.00    -0.274 OA
ENDBRANCH   9  15
ENDBRANCH   6   8
ENDBRANCH   5   6
ENDBRANCH   4   5
ENDBRANCH   3   4
ENDBRANCH   2   3
ENDBRANCH   1   2
BRANCH   1  27
ATOM     27  C   UNL A   1      33.099  30.468  27.006  1.00  0.00     0.261 C 
BRANCH  27  28
ATOM     28  O   UNL A   1      33.968  29.931  28.019  1.00  0.00    -0.460 OA
BRANCH  28  29
ATOM     29  C   UNL A   1      34.953  30.778  28.407  1.00  0.00     0.338 C 
ATOM     30  O   UNL A   1      34.820  31.933  28.781  1.00  0.00    -0.246 OA
BRANCH  29  31
ATOM     31  C   UNL A   1      36.252  30.078  28.480  1.00  0.00     0.060 A 
ATOM     32  C   UNL A   1      36.630  29.577  29.732  1.00  0.00     0.016 A 
ATOM     33  C   UNL A   1      37.129  30.007  27.395  1.00  0.00     0.016 A 
ATOM     34  C   UNL A   1      37.917  29.083  29.925  1.00  0.00     0.010 A 
ATOM     35  C   UNL A   1      38.425  29.512  27.592  1.00  0.00     0.010 A 
ATOM     36  C   UNL A   1      38.840  29.100  28.872  1.00  0.00    -0.014 A 
BRANCH  36  37
ATOM     37  C   UNL A   1      40.274  28.875  29.187  1.00  0.00     0.031 A 
ATOM     38  C   UNL A   1      40.887  27.537  28.858  1.00  0.00     0.074 A 
ATOM     39  C   UNL A   1      41.043  29.871  29.663  1.00  0.00     0.049 A 
ATOM     40  N   UNL A   1      42.129  27.145  28.971  1.00  0.00    -0.248 NA
ATOM     41  C   UNL A   1      39.979  26.508  28.323  1.00  0.00     0.031 C 
ATOM     42  C   UNL A   1      40.580  31.219  29.988  1.00  0.00     0.029 A 
ATOM     43  N   UNL A   1      42.387  29.901  29.940  1.00  0.00    -0.354 N 
ATOM     44  C   UNL A   1      42.156  25.833  28.511  1.00  0.00     0.074 A 
ATOM     45  C   UNL A   1      40.798  25.479  28.159  1.00  0.00     0.031 C 
ATOM     46  C   UNL A   1      41.625  31.947  30.422  1.00  0.00     0.029 A 
ATOM     47  C   UNL A   1      42.825  31.113  30.418  1.00  0.00     0.049 A 
ATOM     48  H   UNL A   1      42.982  29.127  29.809  1.00  0.00     0.167 HD
ATOM     49  C   UNL A   1      43.215  25.000  28.371  1.00  0.00     0.031 A 
ATOM     50  C   UNL A   1      44.054  31.504  30.811  1.00  0.00     0.031 A 
ATOM     51  C   UNL A   1      44.565  25.341  28.732  1.00  0.00     0.049 A 
ATOM     52  C   UNL A   1      45.207  30.539  30.701  1.00  0.00     0.074 A 
ATOM     53  C   UNL A   1      45.704  24.558  28.647  1.00  0.00     0.029 A 
ATOM     54  N   UNL A   1      44.960  26.567  29.244  1.00  0.00    -0.354 N 
ATOM     55  N   UNL A   1      45.213  29.305  30.252  1.00  0.00    -0.248 NA
ATOM     56  C   UNL A   1      46.524  31.027  31.135  1.00  0.00     0.031 C 
ATOM     57  C   UNL A   1      46.782  25.300  29.143  1.00  0.00     0.029 A 
ATOM     58  C   UNL A   1      46.323  26.561  29.489  1.00  0.00     0.049 A 
ATOM     59  H   UNL A   1      44.359  27.330  29.409  1.00  0.00     0.167 HD
ATOM     60  C   UNL A   1      46.536  28.881  30.329  1.00  0.00     0.074 A 
ATOM     61  C   UNL A   1      47.303  29.996  30.844  1.00  0.00     0.031 C 
ATOM     62  C   UNL A   1      47.071  27.678  30.004  1.00  0.00     0.031 A 
BRANCH  49  63
ATOM     63  C   UNL A   1      42.950  23.630  27.809  1.00  0.00    -0.014 A 
ATOM     64  C   UNL A   1      42.356  22.630  28.601  1.00  0.00     0.010 A 
ATOM     65  C   UNL A   1      43.256  23.349  26.466  1.00  0.00     0.010 A 
ATOM     66  C   UNL A   1      42.097  21.366  28.067  1.00  0.00     0.020 A 
ATOM     67  C   UNL A   1      42.978  22.092  25.921  1.00  0.00     0.020 A 
ATOM     68  C   UNL A   1      42.411  21.104  26.730  1.00  0.00     0.054 A 
BRANCH  68  69
ATOM     69  S   UNL A   1      42.032  19.465  26.052  1.00  0.00     0.124 S 
ATOM     70  O   UNL A   1      40.587  19.548  25.852  1.00  0.00    -0.237 OA
ATOM     71  O   UNL A   1      42.834  19.426  24.832  1.00  0.00    -0.237 OA
ATOM     72  O   UNL A   1      42.461  18.547  27.105  1.00  0.00    -0.744 OA
ENDBRANCH  68  69
ENDBRANCH  49  63
BRANCH  50  73
ATOM     73  C   UNL A   1      44.263  32.867  31.370  1.00  0.00    -0.014 A 
ATOM     74  C   UNL A   1      44.052  33.132  32.735  1.00  0.00     0.010 A 
ATOM     75  C   UNL A   1      44.639  33.922  30.519  1.00  0.00     0.010 A 
ATOM     76  C   UNL A   1      44.178  34.434  33.230  1.00  0.00     0.020 A 
ATOM     77  C   UNL A   1      44.794  35.219  31.015  1.00  0.00     0.020 A 
ATOM     78  C   UNL A   1      44.542  35.470  32.366  1.00  0.00     0.054 A 
BRANCH  78  79
ATOM     79  S   UNL A   1      44.717  37.151  33.027  1.00  0.00     0.124 S 
ATOM     80  O   UNL A   1      43.364  37.435  33.491  1.00  0.00    -0.237 OA
ATOM     81  O   UNL A   1      45.723  36.979  34.072  1.00  0.00    -0.237 OA
ATOM     82  O   UNL A   1      45.160  37.927  31.869  1.00  0.00    -0.744 OA
ENDBRANCH  78  79
ENDBRANCH  50  73
BRANCH  62  83
ATOM     83  C   UNL A   1      48.558  27.516  30.169  1.00  0.00    -0.014 A 
ATOM     84  C   UNL A   1      49.101  26.888  31.304  1.00  0.00     0.010 A 
ATOM     85  C   UNL A   1      49.424  27.981  29.161  1.00  0.00     0.010 A 
ATOM     86  C   UNL A   1      50.487  26.770  31.450  1.00  0.00     0.020 A 
ATOM     87  C   UNL A   1      50.808  27.841  29.293  1.00  0.00     0.020 A 
ATOM     88  C   UNL A   1      51.331  27.255  30.447  1.00  0.00     0.054 A 
BRANCH  88  89
ATOM     89  S   UNL A   1      53.126  27.081  30.652  1.00  0.00     0.124 S 
ATOM     90  O   UNL A   1      53.546  26.683  29.311  1.00  0.00    -0.237 OA
ATOM     91  O   UNL A   1      53.535  28.421  31.066  1.00  0.00    -0.237 OA
ATOM     92  O   UNL A   1      53.257  26.052  31.680  1.00  0.00    -0.744 OA
ENDBRANCH  88  89
ENDBRANCH  62  83
ENDBRANCH  36  37
ENDBRANCH  29  31
ENDBRANCH  28  29
ENDBRANCH  27  28
ENDBRANCH   1  27
TORSDOF 18
ENDMDL
