MODEL 1
REMARK VINA RESULT:      -7.6      0.000      0.000
REMARK SMILES CCCn1c(N2CCC[C@@H](C)C2)c(/C=C2/SC(=S)N(CC(=O)OCCOCCOC(=O)c3ccc(-c4c5nc(c(-c6ccc(S(=O)(=O)[O-])cc6)c6ccc([nH]6)c(-c6ccc(S(=O)(=O)[O-])cc6)c6nc(c(-c7ccc(S(=O)(=O)[O-])cc7)c7ccc4[nH]7)C=C6)C=C5)cc3)C2=O)c(C)c(C#N)c1=O
REMARK SMILES IDX 25 1 24 2 23 3 21 4 22 5 20 6 19 7 14 8 15 9 16 10 92 11
REMARK SMILES IDX 17 12 93 13 18 14 13 15 4 16 5 17 99 18 96 19 100 20 94 21
REMARK SMILES IDX 95 22 3 23 2 24 1 25 6 26 7 27 12 28 8 29 10 30 9 31 11 32
REMARK SMILES IDX 97 33 98 34 26 35 27 36 28 37 29 38 30 39 31 40 32 41 33 42
REMARK SMILES IDX 91 43 34 44 90 45 35 46 36 47 37 48 84 49 38 50 89 51 83 52
REMARK SMILES IDX 85 53 39 54 88 55 82 56 81 57 40 59 70 60 51 61 69 62 52 63
REMARK SMILES IDX 55 64 68 65 86 66 53 67 54 68 67 70 87 71 56 72 41 73 42 74
REMARK SMILES IDX 50 75 43 76 49 77 44 78 45 79 46 80 47 81 48 82 71 83 72 84
REMARK SMILES IDX 80 85 73 86 79 87 74 88 75 89 76 90 77 91 78 92 57 93 58 94
REMARK SMILES IDX 66 95 59 96 65 97 60 98 61 99 62 100 63 101 64 102
REMARK H PARENT 85 58 55 69
REMARK Flexibility Score: inf
ROOT
ATOM      1  C   UNL A   1      51.517  26.809  33.851  1.00  0.00     0.202 C 
ENDROOT
BRANCH   1   2
ATOM      2  C   UNL A   1      50.894  25.979  32.715  1.00  0.00     0.261 C 
BRANCH   2   3
ATOM      3  O   UNL A   1      49.455  25.854  32.784  1.00  0.00    -0.462 OA
BRANCH   3   4
ATOM      4  C   UNL A   1      48.787  26.232  31.664  1.00  0.00     0.326 C 
ATOM      5  O   UNL A   1      49.241  26.172  30.524  1.00  0.00    -0.250 OA
BRANCH   4   6
ATOM      6  C   UNL A   1      47.337  26.650  31.899  1.00  0.00     0.250 C 
BRANCH   6   7
ATOM      7  N   UNL A   1      46.236  25.677  31.953  1.00  0.00    -0.282 N 
ATOM      8  C   UNL A   1      44.348  23.189  33.904  1.00  0.00     0.033 C 
ATOM      9  C   UNL A   1      44.948  23.958  32.975  1.00  0.00     0.081 C 
ATOM     10  S   UNL A   1      44.762  23.673  31.283  1.00  0.00    -0.054 SA
ATOM     11  C   UNL A   1      45.828  25.160  33.174  1.00  0.00     0.266 C 
ATOM     12  C   UNL A   1      45.709  25.084  30.827  1.00  0.00     0.148 C 
ATOM     13  O   UNL A   1      46.198  25.560  34.270  1.00  0.00    -0.268 OA
ATOM     14  S   UNL A   1      45.931  25.530  29.237  1.00  0.00    -0.052 S 
BRANCH   8  15
ATOM     15  C   UNL A   1      44.242  23.523  35.330  1.00  0.00     0.021 A 
ATOM     16  N   UNL A   1      45.152  23.793  37.525  1.00  0.00    -0.293 N 
ATOM     17  C   UNL A   1      45.189  23.176  36.249  1.00  0.00     0.119 A 
ATOM     18  C   UNL A   1      44.339  24.912  37.754  1.00  0.00     0.270 A 
ATOM     19  C   UNL A   1      43.139  25.012  36.893  1.00  0.00     0.121 A 
ATOM     20  O   UNL A   1      44.508  25.745  38.640  1.00  0.00    -0.268 OA
ATOM     21  C   UNL A   1      43.060  24.263  35.786  1.00  0.00    -0.017 A 
ATOM     22  C   UNL A   1      41.810  24.109  34.965  1.00  0.00     0.047 C 
BRANCH  16  23
ATOM     23  C   UNL A   1      46.165  23.383  38.517  1.00  0.00     0.127 C 
BRANCH  23  24
ATOM     24  C   UNL A   1      47.234  24.372  39.006  1.00  0.00     0.019 C 
ATOM     25  C   UNL A   1      48.107  24.956  37.904  1.00  0.00     0.006 C 
ENDBRANCH  23  24
ENDBRANCH  16  23
BRANCH  17  26
ATOM     26  N   UNL A   1      46.220  22.276  35.947  1.00  0.00    -0.357 N 
ATOM     27  C   UNL A   1      46.009  20.827  36.073  1.00  0.00     0.118 C 
ATOM     28  C   UNL A   1      47.387  22.660  35.146  1.00  0.00     0.121 C 
ATOM     29  C   UNL A   1      47.245  20.175  36.690  1.00  0.00     0.022 C 
ATOM     30  C   UNL A   1      48.659  22.042  35.743  1.00  0.00     0.005 C 
ATOM     31  C   UNL A   1      48.507  20.523  35.904  1.00  0.00     0.007 C 
ATOM     32  C   UNL A   1      49.873  22.369  34.876  1.00  0.00     0.009 C 
ENDBRANCH  17  26
BRANCH  19  33
ATOM     33  C   UNL A   1      42.097  26.064  37.239  1.00  0.00     0.105 C 
ATOM     34  N   UNL A   1      41.233  26.935  37.525  1.00  0.00    -0.192 NA
ENDBRANCH  19  33
ENDBRANCH   8  15
ENDBRANCH   6   7
ENDBRANCH   4   6
ENDBRANCH   3   4
ENDBRANCH   2   3
ENDBRANCH   1   2
BRANCH   1  35
ATOM     35  O   UNL A   1      50.680  27.069  34.974  1.00  0.00    -0.374 OA
BRANCH  35  36
ATOM     36  C   UNL A   1      51.028  28.183  35.794  1.00  0.00     0.202 C 
BRANCH  36  37
ATOM     37  C   UNL A   1      49.872  28.936  36.447  1.00  0.00     0.261 C 
BRANCH  37  38
ATOM     38  O   UNL A   1      49.278  28.238  37.558  1.00  0.00    -0.460 OA
BRANCH  38  39
ATOM     39  C   UNL A   1      48.134  28.811  37.979  1.00  0.00     0.338 C 
ATOM     40  O   UNL A   1      47.864  29.194  39.108  1.00  0.00    -0.246 OA
BRANCH  39  41
ATOM     41  C   UNL A   1      47.156  29.019  36.926  1.00  0.00     0.060 A 
ATOM     42  C   UNL A   1      47.285  30.185  36.169  1.00  0.00     0.016 A 
ATOM     43  C   UNL A   1      45.970  28.281  36.941  1.00  0.00     0.016 A 
ATOM     44  C   UNL A   1      46.194  30.638  35.439  1.00  0.00     0.010 A 
ATOM     45  C   UNL A   1      44.882  28.733  36.203  1.00  0.00     0.010 A 
ATOM     46  C   UNL A   1      44.983  29.929  35.478  1.00  0.00    -0.014 A 
BRANCH  46  47
ATOM     47  C   UNL A   1      43.822  30.452  34.741  1.00  0.00     0.031 A 
ATOM     48  C   UNL A   1      43.476  29.921  33.383  1.00  0.00     0.074 A 
ATOM     49  C   UNL A   1      43.065  31.384  35.342  1.00  0.00     0.049 A 
ATOM     50  N   UNL A   1      42.445  30.211  32.633  1.00  0.00    -0.248 NA
ATOM     51  C   UNL A   1      44.400  28.941  32.790  1.00  0.00     0.031 C 
ATOM     52  C   UNL A   1      43.327  31.946  36.669  1.00  0.00     0.029 A 
ATOM     53  N   UNL A   1      41.921  32.007  34.928  1.00  0.00    -0.354 N 
ATOM     54  C   UNL A   1      42.584  29.440  31.486  1.00  0.00     0.074 A 
ATOM     55  C   UNL A   1      43.814  28.691  31.624  1.00  0.00     0.031 C 
ATOM     56  C   UNL A   1      42.354  32.819  36.970  1.00  0.00     0.029 A 
ATOM     57  C   UNL A   1      41.416  32.885  35.852  1.00  0.00     0.049 A 
ATOM     58  H   UNL A   1      41.501  31.842  34.052  1.00  0.00     0.167 HD
ATOM     59  C   UNL A   1      41.749  29.365  30.423  1.00  0.00     0.031 A 
ATOM     60  C   UNL A   1      40.313  33.653  35.807  1.00  0.00     0.031 A 
ATOM     61  C   UNL A   1      40.537  30.129  30.298  1.00  0.00     0.049 A 
ATOM     62  C   UNL A   1      39.426  33.579  34.603  1.00  0.00     0.074 A 
ATOM     63  C   UNL A   1      39.615  30.119  29.266  1.00  0.00     0.029 A 
ATOM     64  N   UNL A   1      40.082  31.046  31.233  1.00  0.00    -0.354 N 
ATOM     65  N   UNL A   1      39.559  32.828  33.536  1.00  0.00    -0.248 NA
ATOM     66  C   UNL A   1      38.243  34.446  34.595  1.00  0.00     0.031 C 
ATOM     67  C   UNL A   1      38.618  31.054  29.565  1.00  0.00     0.029 A 
ATOM     68  C   UNL A   1      38.903  31.622  30.796  1.00  0.00     0.049 A 
ATOM     69  H   UNL A   1      40.532  31.256  32.084  1.00  0.00     0.167 HD
ATOM     70  C   UNL A   1      38.471  33.127  32.728  1.00  0.00     0.074 A 
ATOM     71  C   UNL A   1      37.686  34.121  33.433  1.00  0.00     0.031 C 
ATOM     72  C   UNL A   1      38.151  32.621  31.513  1.00  0.00     0.031 A 
BRANCH  59  73
ATOM     73  C   UNL A   1      42.120  28.429  29.307  1.00  0.00    -0.014 A 
ATOM     74  C   UNL A   1      41.690  27.091  29.318  1.00  0.00     0.010 A 
ATOM     75  C   UNL A   1      42.846  28.909  28.201  1.00  0.00     0.010 A 
ATOM     76  C   UNL A   1      41.994  26.242  28.249  1.00  0.00     0.020 A 
ATOM     77  C   UNL A   1      43.141  28.065  27.124  1.00  0.00     0.020 A 
ATOM     78  C   UNL A   1      42.717  26.736  27.159  1.00  0.00     0.054 A 
BRANCH  78  79
ATOM     79  S   UNL A   1      43.076  25.613  25.779  1.00  0.00     0.124 S 
ATOM     80  O   UNL A   1      42.062  25.999  24.801  1.00  0.00    -0.237 OA
ATOM     81  O   UNL A   1      44.450  25.964  25.433  1.00  0.00    -0.237 OA
ATOM     82  O   UNL A   1      42.900  24.282  26.358  1.00  0.00    -0.744 OA
ENDBRANCH  78  79
ENDBRANCH  59  73
BRANCH  60  83
ATOM     83  C   UNL A   1      40.005  34.527  36.964  1.00  0.00    -0.014 A 
ATOM     84  C   UNL A   1      39.352  34.004  38.091  1.00  0.00     0.010 A 
ATOM     85  C   UNL A   1      40.468  35.856  36.985  1.00  0.00     0.010 A 
ATOM     86  C   UNL A   1      39.180  34.793  39.231  1.00  0.00     0.020 A 
ATOM     87  C   UNL A   1      40.311  36.642  38.129  1.00  0.00     0.020 A 
ATOM     88  C   UNL A   1      39.673  36.103  39.247  1.00  0.00     0.054 A 
BRANCH  88  89
ATOM     89  S   UNL A   1      39.520  37.067  40.776  1.00  0.00     0.124 S 
ATOM     90  O   UNL A   1      40.870  37.601  40.937  1.00  0.00    -0.237 OA
ATOM     91  O   UNL A   1      38.490  38.041  40.426  1.00  0.00    -0.237 OA
ATOM     92  O   UNL A   1      39.119  36.074  41.771  1.00  0.00    -0.744 OA
ENDBRANCH  88  89
ENDBRANCH  60  83
BRANCH  72  93
ATOM     93  C   UNL A   1      36.902  33.139  30.861  1.00  0.00    -0.014 A 
ATOM     94  C   UNL A   1      35.691  33.170  31.571  1.00  0.00     0.010 A 
ATOM     95  C   UNL A   1      36.963  33.682  29.566  1.00  0.00     0.010 A 
ATOM     96  C   UNL A   1      34.553  33.736  30.992  1.00  0.00     0.020 A 
ATOM     97  C   UNL A   1      35.831  34.259  28.989  1.00  0.00     0.020 A 
ATOM     98  C   UNL A   1      34.632  34.282  29.707  1.00  0.00     0.054 A 
BRANCH  98  99
ATOM     99  S   UNL A   1      33.153  35.064  29.008  1.00  0.00     0.124 S 
ATOM    100  O   UNL A   1      33.678  36.341  28.530  1.00  0.00    -0.237 OA
ATOM    101  O   UNL A   1      32.758  34.118  27.967  1.00  0.00    -0.237 OA
ATOM    102  O   UNL A   1      32.237  35.155  30.143  1.00  0.00    -0.744 OA
ENDBRANCH  98  99
ENDBRANCH  72  93
ENDBRANCH  46  47
ENDBRANCH  39  41
ENDBRANCH  38  39
ENDBRANCH  37  38
ENDBRANCH  36  37
ENDBRANCH  35  36
ENDBRANCH   1  35
TORSDOF 23
ENDMDL
MODEL 2
REMARK VINA RESULT:      -7.6      7.469     13.306
REMARK SMILES CCCn1c(N2CCC[C@@H](C)C2)c(/C=C2/SC(=S)N(CC(=O)OCCOCCOC(=O)c3ccc(-c4c5nc(c(-c6ccc(S(=O)(=O)[O-])cc6)c6ccc([nH]6)c(-c6ccc(S(=O)(=O)[O-])cc6)c6nc(c(-c7ccc(S(=O)(=O)[O-])cc7)c7ccc4[nH]7)C=C6)C=C5)cc3)C2=O)c(C)c(C#N)c1=O
REMARK SMILES IDX 25 1 24 2 23 3 21 4 22 5 20 6 19 7 14 8 15 9 16 10 92 11
REMARK SMILES IDX 17 12 93 13 18 14 13 15 4 16 5 17 99 18 96 19 100 20 94 21
REMARK SMILES IDX 95 22 3 23 2 24 1 25 6 26 7 27 12 28 8 29 10 30 9 31 11 32
REMARK SMILES IDX 97 33 98 34 26 35 27 36 28 37 29 38 30 39 31 40 32 41 33 42
REMARK SMILES IDX 91 43 34 44 90 45 35 46 36 47 37 48 84 49 38 50 89 51 83 52
REMARK SMILES IDX 85 53 39 54 88 55 82 56 81 57 40 59 70 60 51 61 69 62 52 63
REMARK SMILES IDX 55 64 68 65 86 66 53 67 54 68 67 70 87 71 56 72 41 73 42 74
REMARK SMILES IDX 50 75 43 76 49 77 44 78 45 79 46 80 47 81 48 82 71 83 72 84
REMARK SMILES IDX 80 85 73 86 79 87 74 88 75 89 76 90 77 91 78 92 57 93 58 94
REMARK SMILES IDX 66 95 59 96 65 97 60 98 61 99 62 100 63 101 64 102
REMARK H PARENT 85 58 55 69
REMARK Flexibility Score: inf
ROOT
ATOM      1  C   UNL A   1      49.843  41.646  31.935  1.00  0.00     0.202 C 
ENDROOT
BRANCH   1   2
ATOM      2  C   UNL A   1      48.632  42.470  32.403  1.00  0.00     0.261 C 
BRANCH   2   3
ATOM      3  O   UNL A   1      47.359  41.800  32.259  1.00  0.00    -0.462 OA
BRANCH   3   4
ATOM      4  C   UNL A   1      46.496  42.379  31.384  1.00  0.00     0.326 C 
ATOM      5  O   UNL A   1      45.376  42.792  31.675  1.00  0.00    -0.250 OA
BRANCH   4   6
ATOM      6  C   UNL A   1      47.063  42.596  29.983  1.00  0.00     0.250 C 
BRANCH   6   7
ATOM      7  N   UNL A   1      46.286  42.311  28.768  1.00  0.00    -0.282 N 
ATOM      8  C   UNL A   1      45.427  39.942  26.082  1.00  0.00     0.033 C 
ATOM      9  C   UNL A   1      45.663  40.999  26.885  1.00  0.00     0.081 C 
ATOM     10  S   UNL A   1      45.335  42.620  26.393  1.00  0.00    -0.054 SA
ATOM     11  C   UNL A   1      46.202  41.012  28.287  1.00  0.00     0.266 C 
ATOM     12  C   UNL A   1      45.792  43.303  27.948  1.00  0.00     0.148 C 
ATOM     13  O   UNL A   1      46.595  40.015  28.877  1.00  0.00    -0.268 OA
ATOM     14  S   UNL A   1      45.666  44.932  28.276  1.00  0.00    -0.052 S 
BRANCH   8  15
ATOM     15  C   UNL A   1      45.427  38.540  26.518  1.00  0.00     0.021 A 
ATOM     16  N   UNL A   1      44.340  36.541  27.257  1.00  0.00    -0.293 N 
ATOM     17  C   UNL A   1      44.366  37.955  27.147  1.00  0.00     0.119 A 
ATOM     18  C   UNL A   1      45.233  35.751  26.520  1.00  0.00     0.270 A 
ATOM     19  C   UNL A   1      46.514  36.402  26.166  1.00  0.00     0.121 A 
ATOM     20  O   UNL A   1      45.062  34.572  26.223  1.00  0.00    -0.268 OA
ATOM     21  C   UNL A   1      46.626  37.733  26.269  1.00  0.00    -0.017 A 
ATOM     22  C   UNL A   1      47.928  38.476  26.160  1.00  0.00     0.047 C 
BRANCH  16  23
ATOM     23  C   UNL A   1      43.200  35.928  27.966  1.00  0.00     0.127 C 
BRANCH  23  24
ATOM     24  C   UNL A   1      43.313  35.535  29.446  1.00  0.00     0.019 C 
ATOM     25  C   UNL A   1      42.018  35.032  30.068  1.00  0.00     0.006 C 
ENDBRANCH  23  24
ENDBRANCH  16  23
BRANCH  17  26
ATOM     26  N   UNL A   1      43.285  38.706  27.630  1.00  0.00    -0.357 N 
ATOM     27  C   UNL A   1      42.025  38.772  26.879  1.00  0.00     0.118 C 
ATOM     28  C   UNL A   1      43.190  39.130  29.031  1.00  0.00     0.121 C 
ATOM     29  C   UNL A   1      41.478  40.197  26.907  1.00  0.00     0.022 C 
ATOM     30  C   UNL A   1      42.663  40.570  29.108  1.00  0.00     0.005 C 
ATOM     31  C   UNL A   1      41.341  40.711  28.338  1.00  0.00     0.007 C 
ATOM     32  C   UNL A   1      42.484  40.999  30.562  1.00  0.00     0.009 C 
ENDBRANCH  17  26
BRANCH  19  33
ATOM     33  C   UNL A   1      47.617  35.537  25.576  1.00  0.00     0.105 C 
ATOM     34  N   UNL A   1      48.531  34.821  25.087  1.00  0.00    -0.192 NA
ENDBRANCH  19  33
ENDBRANCH   8  15
ENDBRANCH   6   7
ENDBRANCH   4   6
ENDBRANCH   3   4
ENDBRANCH   2   3
ENDBRANCH   1   2
BRANCH   1  35
ATOM     35  O   UNL A   1      49.858  40.274  32.317  1.00  0.00    -0.374 OA
BRANCH  35  36
ATOM     36  C   UNL A   1      49.811  39.311  31.266  1.00  0.00     0.202 C 
BRANCH  36  37
ATOM     37  C   UNL A   1      48.650  38.319  31.301  1.00  0.00     0.261 C 
BRANCH  37  38
ATOM     38  O   UNL A   1      48.774  37.247  30.347  1.00  0.00    -0.460 OA
BRANCH  38  39
ATOM     39  C   UNL A   1      49.077  36.069  30.926  1.00  0.00     0.338 C 
ATOM     40  O   UNL A   1      50.013  35.824  31.672  1.00  0.00    -0.246 OA
BRANCH  39  41
ATOM     41  C   UNL A   1      48.125  35.010  30.640  1.00  0.00     0.060 A 
ATOM     42  C   UNL A   1      48.093  33.936  31.532  1.00  0.00     0.016 A 
ATOM     43  C   UNL A   1      47.568  34.921  29.362  1.00  0.00     0.016 A 
ATOM     44  C   UNL A   1      47.520  32.739  31.122  1.00  0.00     0.010 A 
ATOM     45  C   UNL A   1      46.988  33.723  28.958  1.00  0.00     0.010 A 
ATOM     46  C   UNL A   1      46.994  32.622  29.826  1.00  0.00    -0.014 A 
BRANCH  46  47
ATOM     47  C   UNL A   1      46.438  31.330  29.392  1.00  0.00     0.031 A 
ATOM     48  C   UNL A   1      47.322  30.281  28.789  1.00  0.00     0.074 A 
ATOM     49  C   UNL A   1      45.129  31.112  29.592  1.00  0.00     0.049 A 
ATOM     50  N   UNL A   1      47.013  29.063  28.428  1.00  0.00    -0.248 NA
ATOM     51  C   UNL A   1      48.731  30.641  28.562  1.00  0.00     0.031 C 
ATOM     52  C   UNL A   1      44.200  32.077  30.184  1.00  0.00     0.029 A 
ATOM     53  N   UNL A   1      44.360  30.010  29.338  1.00  0.00    -0.354 N 
ATOM     54  C   UNL A   1      48.188  28.502  27.946  1.00  0.00     0.074 A 
ATOM     55  C   UNL A   1      49.212  29.521  28.033  1.00  0.00     0.031 C 
ATOM     56  C   UNL A   1      42.985  31.515  30.268  1.00  0.00     0.029 A 
ATOM     57  C   UNL A   1      43.052  30.162  29.722  1.00  0.00     0.049 A 
ATOM     58  H   UNL A   1      44.710  29.190  28.921  1.00  0.00     0.167 HD
ATOM     59  C   UNL A   1      48.387  27.245  27.484  1.00  0.00     0.031 A 
ATOM     60  C   UNL A   1      42.021  29.301  29.650  1.00  0.00     0.031 A 
ATOM     61  C   UNL A   1      47.352  26.250  27.393  1.00  0.00     0.049 A 
ATOM     62  C   UNL A   1      42.259  27.928  29.101  1.00  0.00     0.074 A 
ATOM     63  C   UNL A   1      47.451  24.944  26.949  1.00  0.00     0.029 A 
ATOM     64  N   UNL A   1      46.027  26.455  27.746  1.00  0.00    -0.354 N 
ATOM     65  N   UNL A   1      43.382  27.405  28.669  1.00  0.00    -0.248 NA
ATOM     66  C   UNL A   1      41.101  27.031  29.029  1.00  0.00     0.031 C 
ATOM     67  C   UNL A   1      46.177  24.368  27.005  1.00  0.00     0.029 A 
ATOM     68  C   UNL A   1      45.292  25.307  27.514  1.00  0.00     0.049 A 
ATOM     69  H   UNL A   1      45.663  27.295  28.110  1.00  0.00     0.167 HD
ATOM     70  C   UNL A   1      43.069  26.111  28.280  1.00  0.00     0.074 A 
ATOM     71  C   UNL A   1      41.652  25.928  28.534  1.00  0.00     0.031 C 
ATOM     72  C   UNL A   1      43.881  25.158  27.762  1.00  0.00     0.031 A 
BRANCH  59  73
ATOM     73  C   UNL A   1      49.773  26.875  27.035  1.00  0.00    -0.014 A 
ATOM     74  C   UNL A   1      50.535  25.940  27.756  1.00  0.00     0.010 A 
ATOM     75  C   UNL A   1      50.292  27.414  25.843  1.00  0.00     0.010 A 
ATOM     76  C   UNL A   1      51.803  25.562  27.301  1.00  0.00     0.020 A 
ATOM     77  C   UNL A   1      51.554  27.028  25.379  1.00  0.00     0.020 A 
ATOM     78  C   UNL A   1      52.303  26.108  26.115  1.00  0.00     0.054 A 
BRANCH  78  79
ATOM     79  S   UNL A   1      53.942  25.579  25.542  1.00  0.00     0.124 S 
ATOM     80  O   UNL A   1      53.602  24.599  24.512  1.00  0.00    -0.237 OA
ATOM     81  O   UNL A   1      54.526  26.825  25.056  1.00  0.00    -0.237 OA
ATOM     82  O   UNL A   1      54.568  25.023  26.741  1.00  0.00    -0.744 OA
ENDBRANCH  78  79
ENDBRANCH  59  73
BRANCH  60  83
ATOM     83  C   UNL A   1      40.693  29.736  30.142  1.00  0.00    -0.014 A 
ATOM     84  C   UNL A   1      40.393  29.680  31.512  1.00  0.00     0.010 A 
ATOM     85  C   UNL A   1      39.768  30.315  29.253  1.00  0.00     0.010 A 
ATOM     86  C   UNL A   1      39.193  30.213  31.990  1.00  0.00     0.020 A 
ATOM     87  C   UNL A   1      38.574  30.861  29.730  1.00  0.00     0.020 A 
ATOM     88  C   UNL A   1      38.297  30.812  31.097  1.00  0.00     0.054 A 
BRANCH  88  89
ATOM     89  S   UNL A   1      36.794  31.580  31.761  1.00  0.00     0.124 S 
ATOM     90  O   UNL A   1      36.589  30.832  32.998  1.00  0.00    -0.237 OA
ATOM     91  O   UNL A   1      37.204  32.972  31.923  1.00  0.00    -0.237 OA
ATOM     92  O   UNL A   1      35.798  31.347  30.717  1.00  0.00    -0.744 OA
ENDBRANCH  88  89
ENDBRANCH  60  83
BRANCH  72  93
ATOM     93  C   UNL A   1      43.260  23.835  27.425  1.00  0.00    -0.014 A 
ATOM     94  C   UNL A   1      42.723  23.606  26.147  1.00  0.00     0.010 A 
ATOM     95  C   UNL A   1      43.297  22.787  28.361  1.00  0.00     0.010 A 
ATOM     96  C   UNL A   1      42.229  22.345  25.810  1.00  0.00     0.020 A 
ATOM     97  C   UNL A   1      42.815  21.521  28.022  1.00  0.00     0.020 A 
ATOM     98  C   UNL A   1      42.283  21.309  26.748  1.00  0.00     0.054 A 
BRANCH  98  99
ATOM     99  S   UNL A   1      41.689  19.667  26.257  1.00  0.00     0.124 S 
ATOM    100  O   UNL A   1      40.284  19.928  25.954  1.00  0.00    -0.237 OA
ATOM    101  O   UNL A   1      42.533  19.357  25.106  1.00  0.00    -0.237 OA
ATOM    102  O   UNL A   1      41.927  18.842  27.440  1.00  0.00    -0.744 OA
ENDBRANCH  98  99
ENDBRANCH  72  93
ENDBRANCH  46  47
ENDBRANCH  39  41
ENDBRANCH  38  39
ENDBRANCH  37  38
ENDBRANCH  36  37
ENDBRANCH  35  36
ENDBRANCH   1  35
TORSDOF 23
ENDMDL
MODEL 3
REMARK VINA RESULT:      -7.3      3.165      6.586
REMARK SMILES CCCn1c(N2CCC[C@@H](C)C2)c(/C=C2/SC(=S)N(CC(=O)OCCOCCOC(=O)c3ccc(-c4c5nc(c(-c6ccc(S(=O)(=O)[O-])cc6)c6ccc([nH]6)c(-c6ccc(S(=O)(=O)[O-])cc6)c6nc(c(-c7ccc(S(=O)(=O)[O-])cc7)c7ccc4[nH]7)C=C6)C=C5)cc3)C2=O)c(C)c(C#N)c1=O
REMARK SMILES IDX 25 1 24 2 23 3 21 4 22 5 20 6 19 7 14 8 15 9 16 10 92 11
REMARK SMILES IDX 17 12 93 13 18 14 13 15 4 16 5 17 99 18 96 19 100 20 94 21
REMARK SMILES IDX 95 22 3 23 2 24 1 25 6 26 7 27 12 28 8 29 10 30 9 31 11 32
REMARK SMILES IDX 97 33 98 34 26 35 27 36 28 37 29 38 30 39 31 40 32 41 33 42
REMARK SMILES IDX 91 43 34 44 90 45 35 46 36 47 37 48 84 49 38 50 89 51 83 52
REMARK SMILES IDX 85 53 39 54 88 55 82 56 81 57 40 59 70 60 51 61 69 62 52 63
REMARK SMILES IDX 55 64 68 65 86 66 53 67 54 68 67 70 87 71 56 72 41 73 42 74
REMARK SMILES IDX 50 75 43 76 49 77 44 78 45 79 46 80 47 81 48 82 71 83 72 84
REMARK SMILES IDX 80 85 73 86 79 87 74 88 75 89 76 90 77 91 78 92 57 93 58 94
REMARK SMILES IDX 66 95 59 96 65 97 60 98 61 99 62 100 63 101 64 102
REMARK H PARENT 85 58 55 69
REMARK Flexibility Score: inf
ROOT
ATOM      1  C   UNL A   1      50.804  27.414  33.613  1.00  0.00     0.202 C 
ENDROOT
BRANCH   1   2
ATOM      2  C   UNL A   1      50.618  28.064  32.231  1.00  0.00     0.261 C 
BRANCH   2   3
ATOM      3  O   UNL A   1      49.940  29.341  32.255  1.00  0.00    -0.462 OA
BRANCH   3   4
ATOM      4  C   UNL A   1      48.620  29.301  31.938  1.00  0.00     0.326 C 
ATOM      5  O   UNL A   1      47.702  29.451  32.741  1.00  0.00    -0.250 OA
BRANCH   4   6
ATOM      6  C   UNL A   1      48.329  29.163  30.445  1.00  0.00     0.250 C 
BRANCH   6   7
ATOM      7  N   UNL A   1      46.964  29.221  29.900  1.00  0.00    -0.282 N 
ATOM      8  C   UNL A   1      43.932  31.209  29.255  1.00  0.00     0.033 C 
ATOM      9  C   UNL A   1      44.871  30.269  29.482  1.00  0.00     0.081 C 
ATOM     10  S   UNL A   1      44.497  28.585  29.520  1.00  0.00    -0.054 SA
ATOM     11  C   UNL A   1      46.344  30.449  29.716  1.00  0.00     0.266 C 
ATOM     12  C   UNL A   1      46.174  28.104  29.747  1.00  0.00     0.148 C 
ATOM     13  O   UNL A   1      46.891  31.538  29.818  1.00  0.00    -0.268 OA
ATOM     14  S   UNL A   1      46.639  26.505  29.812  1.00  0.00    -0.052 S 
BRANCH   8  15
ATOM     15  C   UNL A   1      44.212  32.617  28.947  1.00  0.00     0.021 A 
ATOM     16  N   UNL A   1      44.641  34.887  29.570  1.00  0.00    -0.293 N 
ATOM     17  C   UNL A   1      44.067  33.622  29.859  1.00  0.00     0.119 A 
ATOM     18  C   UNL A   1      45.548  35.034  28.512  1.00  0.00     0.270 A 
ATOM     19  C   UNL A   1      45.395  34.065  27.404  1.00  0.00     0.121 A 
ATOM     20  O   UNL A   1      46.384  35.928  28.410  1.00  0.00    -0.268 OA
ATOM     21  C   UNL A   1      44.665  32.958  27.594  1.00  0.00    -0.017 A 
ATOM     22  C   UNL A   1      44.252  32.026  26.490  1.00  0.00     0.047 C 
BRANCH  16  23
ATOM     23  C   UNL A   1      44.448  35.970  30.554  1.00  0.00     0.127 C 
BRANCH  23  24
ATOM     24  C   UNL A   1      45.621  36.478  31.405  1.00  0.00     0.019 C 
ATOM     25  C   UNL A   1      46.532  35.383  31.944  1.00  0.00     0.006 C 
ENDBRANCH  23  24
ENDBRANCH  16  23
BRANCH  17  26
ATOM     26  N   UNL A   1      43.422  33.421  31.087  1.00  0.00    -0.357 N 
ATOM     27  C   UNL A   1      41.957  33.341  31.157  1.00  0.00     0.118 C 
ATOM     28  C   UNL A   1      44.124  32.904  32.266  1.00  0.00     0.121 C 
ATOM     29  C   UNL A   1      41.454  34.103  32.382  1.00  0.00     0.022 C 
ATOM     30  C   UNL A   1      43.664  33.658  33.522  1.00  0.00     0.005 C 
ATOM     31  C   UNL A   1      42.135  33.615  33.658  1.00  0.00     0.007 C 
ATOM     32  C   UNL A   1      44.328  33.079  34.770  1.00  0.00     0.009 C 
ENDBRANCH  17  26
BRANCH  19  33
ATOM     33  C   UNL A   1      46.185  34.307  26.127  1.00  0.00     0.105 C 
ATOM     34  N   UNL A   1      46.840  34.508  25.070  1.00  0.00    -0.192 NA
ENDBRANCH  19  33
ENDBRANCH   8  15
ENDBRANCH   6   7
ENDBRANCH   4   6
ENDBRANCH   3   4
ENDBRANCH   2   3
ENDBRANCH   1   2
BRANCH   1  35
ATOM     35  O   UNL A   1      49.954  26.310  33.908  1.00  0.00    -0.374 OA
BRANCH  35  36
ATOM     36  C   UNL A   1      48.757  26.592  34.630  1.00  0.00     0.202 C 
BRANCH  36  37
ATOM     37  C   UNL A   1      48.625  25.952  36.009  1.00  0.00     0.261 C 
BRANCH  37  38
ATOM     38  O   UNL A   1      48.585  26.905  37.090  1.00  0.00    -0.460 OA
BRANCH  38  39
ATOM     39  C   UNL A   1      47.385  26.945  37.701  1.00  0.00     0.338 C 
ATOM     40  O   UNL A   1      47.136  26.696  38.871  1.00  0.00    -0.246 OA
BRANCH  39  41
ATOM     41  C   UNL A   1      46.301  27.387  36.842  1.00  0.00     0.060 A 
ATOM     42  C   UNL A   1      46.490  28.589  36.157  1.00  0.00     0.016 A 
ATOM     43  C   UNL A   1      45.031  26.825  37.004  1.00  0.00     0.016 A 
ATOM     44  C   UNL A   1      45.383  29.257  35.653  1.00  0.00     0.010 A 
ATOM     45  C   UNL A   1      43.925  27.494  36.491  1.00  0.00     0.010 A 
ATOM     46  C   UNL A   1      44.098  28.726  35.844  1.00  0.00    -0.014 A 
BRANCH  46  47
ATOM     47  C   UNL A   1      42.931  29.475  35.349  1.00  0.00     0.031 A 
ATOM     48  C   UNL A   1      42.282  29.107  34.049  1.00  0.00     0.074 A 
ATOM     49  C   UNL A   1      42.447  30.463  36.118  1.00  0.00     0.049 A 
ATOM     50  N   UNL A   1      41.202  29.606  33.507  1.00  0.00    -0.248 NA
ATOM     51  C   UNL A   1      42.922  28.045  33.256  1.00  0.00     0.031 C 
ATOM     52  C   UNL A   1      43.014  30.876  37.403  1.00  0.00     0.029 A 
ATOM     53  N   UNL A   1      41.367  31.282  35.942  1.00  0.00    -0.354 N 
ATOM     54  C   UNL A   1      41.021  28.912  32.318  1.00  0.00     0.074 A 
ATOM     55  C   UNL A   1      42.118  27.976  32.201  1.00  0.00     0.031 C 
ATOM     56  C   UNL A   1      42.260  31.862  37.913  1.00  0.00     0.029 A 
ATOM     57  C   UNL A   1      41.173  32.155  36.982  1.00  0.00     0.049 A 
ATOM     58  H   UNL A   1      40.787  31.250  35.147  1.00  0.00     0.167 HD
ATOM     59  C   UNL A   1      40.021  29.046  31.415  1.00  0.00     0.031 A 
ATOM     60  C   UNL A   1      40.219  33.084  37.169  1.00  0.00     0.031 A 
ATOM     61  C   UNL A   1      38.946  29.994  31.542  1.00  0.00     0.049 A 
ATOM     62  C   UNL A   1      39.143  33.236  36.138  1.00  0.00     0.074 A 
ATOM     63  C   UNL A   1      37.876  30.202  30.690  1.00  0.00     0.029 A 
ATOM     64  N   UNL A   1      38.809  30.896  32.587  1.00  0.00    -0.354 N 
ATOM     65  N   UNL A   1      38.973  32.557  35.028  1.00  0.00    -0.248 NA
ATOM     66  C   UNL A   1      38.133  34.273  36.379  1.00  0.00     0.031 C 
ATOM     67  C   UNL A   1      37.109  31.253  31.204  1.00  0.00     0.029 A 
ATOM     68  C   UNL A   1      37.684  31.677  32.392  1.00  0.00     0.049 A 
ATOM     69  H   UNL A   1      39.422  30.969  33.354  1.00  0.00     0.167 HD
ATOM     70  C   UNL A   1      37.830  33.079  34.440  1.00  0.00     0.074 A 
ATOM     71  C   UNL A   1      37.346  34.125  35.320  1.00  0.00     0.031 C 
ATOM     72  C   UNL A   1      37.234  32.722  33.277  1.00  0.00     0.031 A 
BRANCH  59  73
ATOM     73  C   UNL A   1      40.043  28.152  30.207  1.00  0.00    -0.014 A 
ATOM     74  C   UNL A   1      40.883  28.438  29.118  1.00  0.00     0.010 A 
ATOM     75  C   UNL A   1      39.268  26.977  30.189  1.00  0.00     0.010 A 
ATOM     76  C   UNL A   1      40.937  27.571  28.021  1.00  0.00     0.020 A 
ATOM     77  C   UNL A   1      39.329  26.103  29.100  1.00  0.00     0.020 A 
ATOM     78  C   UNL A   1      40.159  26.409  28.020  1.00  0.00     0.054 A 
BRANCH  78  79
ATOM     79  S   UNL A   1      40.269  25.296  26.591  1.00  0.00     0.124 S 
ATOM     80  O   UNL A   1      40.834  26.171  25.566  1.00  0.00    -0.237 OA
ATOM     81  O   UNL A   1      41.155  24.242  27.076  1.00  0.00    -0.237 OA
ATOM     82  O   UNL A   1      38.884  24.888  26.359  1.00  0.00    -0.744 OA
ENDBRANCH  78  79
ENDBRANCH  59  73
BRANCH  60  83
ATOM     83  C   UNL A   1      40.254  33.904  38.402  1.00  0.00    -0.014 A 
ATOM     84  C   UNL A   1      40.936  35.130  38.418  1.00  0.00     0.010 A 
ATOM     85  C   UNL A   1      39.506  33.512  39.529  1.00  0.00     0.010 A 
ATOM     86  C   UNL A   1      40.858  35.964  39.537  1.00  0.00     0.020 A 
ATOM     87  C   UNL A   1      39.415  34.350  40.643  1.00  0.00     0.020 A 
ATOM     88  C   UNL A   1      40.087  35.573  40.638  1.00  0.00     0.054 A 
BRANCH  88  89
ATOM     89  S   UNL A   1      39.927  36.719  42.034  1.00  0.00     0.124 S 
ATOM     90  O   UNL A   1      41.311  36.857  42.478  1.00  0.00    -0.237 OA
ATOM     91  O   UNL A   1      39.344  37.899  41.400  1.00  0.00    -0.237 OA
ATOM     92  O   UNL A   1      39.041  36.014  42.958  1.00  0.00    -0.744 OA
ENDBRANCH  88  89
ENDBRANCH  60  83
BRANCH  72  93
ATOM     93  C   UNL A   1      35.996  33.471  32.881  1.00  0.00    -0.014 A 
ATOM     94  C   UNL A   1      34.751  33.129  33.432  1.00  0.00     0.010 A 
ATOM     95  C   UNL A   1      36.096  34.582  32.025  1.00  0.00     0.010 A 
ATOM     96  C   UNL A   1      33.618  33.887  33.131  1.00  0.00     0.020 A 
ATOM     97  C   UNL A   1      34.967  35.349  31.731  1.00  0.00     0.020 A 
ATOM     98  C   UNL A   1      33.735  34.996  32.287  1.00  0.00     0.054 A 
BRANCH  98  99
ATOM     99  S   UNL A   1      32.256  35.995  31.964  1.00  0.00     0.124 S 
ATOM    100  O   UNL A   1      31.199  35.175  32.550  1.00  0.00    -0.237 OA
ATOM    101  O   UNL A   1      32.554  37.238  32.672  1.00  0.00    -0.237 OA
ATOM    102  O   UNL A   1      32.221  36.105  30.507  1.00  0.00    -0.744 OA
ENDBRANCH  98  99
ENDBRANCH  72  93
ENDBRANCH  46  47
ENDBRANCH  39  41
ENDBRANCH  38  39
ENDBRANCH  37  38
ENDBRANCH  36  37
ENDBRANCH  35  36
ENDBRANCH   1  35
TORSDOF 23
ENDMDL
