MODEL 1
REMARK VINA RESULT:     -10.3      0.000      0.000
REMARK SMILES CCn1c(SCC(=O)OCCOCCOC(=O)c2ccc(-c3c4nc(c(-c5ccc(S(=O)(=O)[O-])cc5)c5ccc([nH]5)c(-c5ccc(S(=O)(=O)[O-])cc5)c5nc(c(-c6ccc(S(=O)(=O)[O-])cc6)c6ccc3[nH]6)C=C5)C=C4)cc2)nc2ccc(C)cc2c1=O
REMARK SMILES IDX 12 1 11 2 10 3 9 4 7 5 8 6 6 7 5 8 4 9 3 10 86 11 78 12
REMARK SMILES IDX 85 13 87 14 79 15 84 16 80 17 82 18 81 19 83 20 2 21 1 22
REMARK SMILES IDX 13 23 14 24 15 25 16 26 17 27 18 28 19 29 77 30 20 31 76 32
REMARK SMILES IDX 21 33 22 34 23 35 70 36 24 37 75 38 69 39 71 40 25 41 74 42
REMARK SMILES IDX 68 43 67 44 26 46 56 47 37 48 55 49 38 50 41 51 54 52 72 53
REMARK SMILES IDX 39 54 40 55 53 57 73 58 42 59 27 60 28 61 36 62 29 63 35 64
REMARK SMILES IDX 30 65 31 66 32 67 33 68 34 69 57 70 58 71 66 72 59 73 65 74
REMARK SMILES IDX 60 75 61 76 62 77 63 78 64 79 43 80 44 81 52 82 45 83 51 84
REMARK SMILES IDX 46 85 47 86 48 87 49 88 50 89
REMARK H PARENT 71 45 41 56
REMARK Flexibility Score: inf
ROOT
ATOM      1  O   UNL A   1      31.805  29.559  24.899  1.00  0.00    -0.374 OA
ENDROOT
BRANCH   1   2
ATOM      2  C   UNL A   1      31.321  28.509  24.059  1.00  0.00     0.202 C 
BRANCH   2   3
ATOM      3  C   UNL A   1      32.262  27.954  22.981  1.00  0.00     0.261 C 
BRANCH   3   4
ATOM      4  O   UNL A   1      33.043  26.815  23.422  1.00  0.00    -0.463 OA
BRANCH   4   5
ATOM      5  C   UNL A   1      32.885  25.674  22.697  1.00  0.00     0.316 C 
ATOM      6  O   UNL A   1      33.811  25.056  22.179  1.00  0.00    -0.251 OA
BRANCH   5   7
ATOM      7  C   UNL A   1      31.455  25.205  22.513  1.00  0.00     0.200 C 
BRANCH   7   8
ATOM      8  S   UNL A   1      30.892  23.837  23.488  1.00  0.00    -0.076 SA
BRANCH   8   9
ATOM      9  C   UNL A   1      32.037  22.556  23.811  1.00  0.00     0.171 A 
ATOM     10  N   UNL A   1      32.969  22.468  24.841  1.00  0.00    -0.287 N 
ATOM     11  C   UNL A   1      33.602  21.237  25.104  1.00  0.00     0.262 A 
ATOM     12  N   UNL A   1      31.835  21.582  22.978  1.00  0.00    -0.224 NA
ATOM     13  C   UNL A   1      33.264  20.094  24.248  1.00  0.00     0.066 A 
ATOM     14  O   UNL A   1      34.386  21.053  26.035  1.00  0.00    -0.269 OA
ATOM     15  C   UNL A   1      32.444  20.344  23.164  1.00  0.00     0.079 A 
ATOM     16  C   UNL A   1      33.710  18.798  24.539  1.00  0.00     0.019 A 
ATOM     17  C   UNL A   1      32.120  19.287  22.309  1.00  0.00     0.029 A 
ATOM     18  C   UNL A   1      33.363  17.731  23.701  1.00  0.00    -0.050 A 
ATOM     19  C   UNL A   1      32.575  17.989  22.574  1.00  0.00     0.006 A 
ATOM     20  C   UNL A   1      33.764  16.329  24.056  1.00  0.00     0.044 C 
BRANCH  10  21
ATOM     21  C   UNL A   1      33.361  23.513  25.781  1.00  0.00     0.125 C 
ATOM     22  C   UNL A   1      32.362  23.705  26.908  1.00  0.00     0.028 C 
ENDBRANCH  10  21
ENDBRANCH   8   9
ENDBRANCH   7   8
ENDBRANCH   5   7
ENDBRANCH   4   5
ENDBRANCH   3   4
ENDBRANCH   2   3
ENDBRANCH   1   2
BRANCH   1  23
ATOM     23  C   UNL A   1      32.116  29.229  26.244  1.00  0.00     0.202 C 
BRANCH  23  24
ATOM     24  C   UNL A   1      33.587  29.258  26.670  1.00  0.00     0.261 C 
BRANCH  24  25
ATOM     25  O   UNL A   1      33.811  29.825  27.953  1.00  0.00    -0.460 OA
BRANCH  25  26
ATOM     26  C   UNL A   1      34.701  30.844  27.950  1.00  0.00     0.338 C 
ATOM     27  O   UNL A   1      34.472  32.041  27.900  1.00  0.00    -0.246 OA
BRANCH  26  28
ATOM     28  C   UNL A   1      36.019  30.271  28.233  1.00  0.00     0.060 A 
ATOM     29  C   UNL A   1      37.030  30.274  27.272  1.00  0.00     0.016 A 
ATOM     30  C   UNL A   1      36.207  29.687  29.491  1.00  0.00     0.016 A 
ATOM     31  C   UNL A   1      38.263  29.709  27.591  1.00  0.00     0.010 A 
ATOM     32  C   UNL A   1      37.435  29.124  29.806  1.00  0.00     0.010 A 
ATOM     33  C   UNL A   1      38.475  29.156  28.867  1.00  0.00    -0.014 A 
BRANCH  33  34
ATOM     34  C   UNL A   1      39.834  28.759  29.292  1.00  0.00     0.031 A 
ATOM     35  C   UNL A   1      40.692  29.672  30.108  1.00  0.00     0.074 A 
ATOM     36  C   UNL A   1      40.287  27.564  28.868  1.00  0.00     0.049 A 
ATOM     37  N   UNL A   1      41.896  29.459  30.569  1.00  0.00    -0.248 NA
ATOM     38  C   UNL A   1      40.141  30.994  30.444  1.00  0.00     0.031 C 
ATOM     39  C   UNL A   1      39.521  26.625  28.043  1.00  0.00     0.029 A 
ATOM     40  N   UNL A   1      41.482  26.927  29.074  1.00  0.00    -0.354 N 
ATOM     41  C   UNL A   1      42.244  30.608  31.264  1.00  0.00     0.074 A 
ATOM     42  C   UNL A   1      41.144  31.538  31.124  1.00  0.00     0.031 C 
ATOM     43  C   UNL A   1      40.246  25.514  27.855  1.00  0.00     0.029 A 
ATOM     44  C   UNL A   1      41.542  25.678  28.503  1.00  0.00     0.049 A 
ATOM     45  H   UNL A   1      42.226  27.326  29.582  1.00  0.00     0.167 HD
ATOM     46  C   UNL A   1      43.375  30.844  31.970  1.00  0.00     0.031 A 
ATOM     47  C   UNL A   1      42.527  24.761  28.509  1.00  0.00     0.031 A 
ATOM     48  C   UNL A   1      44.459  29.899  32.080  1.00  0.00     0.049 A 
ATOM     49  C   UNL A   1      43.787  25.070  29.269  1.00  0.00     0.074 A 
ATOM     50  C   UNL A   1      45.634  30.027  32.798  1.00  0.00     0.029 A 
ATOM     51  N   UNL A   1      44.504  28.657  31.460  1.00  0.00    -0.354 N 
ATOM     52  N   UNL A   1      44.075  26.135  29.980  1.00  0.00    -0.248 NA
ATOM     53  C   UNL A   1      44.846  24.055  29.241  1.00  0.00     0.031 C 
ATOM     54  C   UNL A   1      46.423  28.901  32.549  1.00  0.00     0.029 A 
ATOM     55  C   UNL A   1      45.704  28.027  31.750  1.00  0.00     0.049 A 
ATOM     56  H   UNL A   1      43.791  28.281  30.896  1.00  0.00     0.167 HD
ATOM     57  C   UNL A   1      45.341  25.907  30.505  1.00  0.00     0.074 A 
ATOM     58  C   UNL A   1      45.749  24.593  30.051  1.00  0.00     0.031 C 
ATOM     59  C   UNL A   1      46.097  26.716  31.287  1.00  0.00     0.031 A 
BRANCH  46  60
ATOM     60  C   UNL A   1      43.511  32.151  32.710  1.00  0.00    -0.014 A 
ATOM     61  C   UNL A   1      42.971  32.287  34.003  1.00  0.00     0.010 A 
ATOM     62  C   UNL A   1      44.022  33.290  32.062  1.00  0.00     0.010 A 
ATOM     63  C   UNL A   1      42.886  33.544  34.609  1.00  0.00     0.020 A 
ATOM     64  C   UNL A   1      43.967  34.544  32.678  1.00  0.00     0.020 A 
ATOM     65  C   UNL A   1      43.369  34.668  33.933  1.00  0.00     0.054 A 
BRANCH  65  66
ATOM     66  S   UNL A   1      43.171  36.301  34.699  1.00  0.00     0.124 S 
ATOM     67  O   UNL A   1      44.497  36.542  35.258  1.00  0.00    -0.237 OA
ATOM     68  O   UNL A   1      42.801  37.141  33.562  1.00  0.00    -0.237 OA
ATOM     69  O   UNL A   1      42.107  36.092  35.680  1.00  0.00    -0.744 OA
ENDBRANCH  65  66
ENDBRANCH  46  60
BRANCH  47  70
ATOM     70  C   UNL A   1      42.311  23.449  27.837  1.00  0.00    -0.014 A 
ATOM     71  C   UNL A   1      41.822  22.342  28.556  1.00  0.00     0.010 A 
ATOM     72  C   UNL A   1      42.683  23.277  26.493  1.00  0.00     0.010 A 
ATOM     73  C   UNL A   1      41.762  21.078  27.961  1.00  0.00     0.020 A 
ATOM     74  C   UNL A   1      42.589  22.022  25.882  1.00  0.00     0.020 A 
ATOM     75  C   UNL A   1      42.157  20.925  26.630  1.00  0.00     0.054 A 
BRANCH  75  76
ATOM     76  S   UNL A   1      42.116  19.267  25.895  1.00  0.00     0.124 S 
ATOM     77  O   UNL A   1      40.694  19.102  25.606  1.00  0.00    -0.237 OA
ATOM     78  O   UNL A   1      42.983  19.416  24.729  1.00  0.00    -0.237 OA
ATOM     79  O   UNL A   1      42.642  18.410  26.954  1.00  0.00    -0.744 OA
ENDBRANCH  75  76
ENDBRANCH  47  70
BRANCH  59  80
ATOM     80  C   UNL A   1      47.457  26.218  31.709  1.00  0.00    -0.014 A 
ATOM     81  C   UNL A   1      48.564  26.398  30.859  1.00  0.00     0.010 A 
ATOM     82  C   UNL A   1      47.617  25.470  32.889  1.00  0.00     0.010 A 
ATOM     83  C   UNL A   1      49.793  25.807  31.157  1.00  0.00     0.020 A 
ATOM     84  C   UNL A   1      48.856  24.912  33.213  1.00  0.00     0.020 A 
ATOM     85  C   UNL A   1      49.929  25.061  32.331  1.00  0.00     0.054 A 
BRANCH  85  86
ATOM     86  S   UNL A   1      51.524  24.277  32.688  1.00  0.00     0.124 S 
ATOM     87  O   UNL A   1      51.244  22.871  32.416  1.00  0.00    -0.237 OA
ATOM     88  O   UNL A   1      52.423  24.936  31.742  1.00  0.00    -0.237 OA
ATOM     89  O   UNL A   1      51.762  24.606  34.092  1.00  0.00    -0.744 OA
ENDBRANCH  85  86
ENDBRANCH  59  80
ENDBRANCH  33  34
ENDBRANCH  26  28
ENDBRANCH  25  26
ENDBRANCH  24  25
ENDBRANCH  23  24
ENDBRANCH   1  23
TORSDOF 20
ENDMDL
MODEL 2
REMARK VINA RESULT:     -10.3      1.642      1.775
REMARK SMILES CCn1c(SCC(=O)OCCOCCOC(=O)c2ccc(-c3c4nc(c(-c5ccc(S(=O)(=O)[O-])cc5)c5ccc([nH]5)c(-c5ccc(S(=O)(=O)[O-])cc5)c5nc(c(-c6ccc(S(=O)(=O)[O-])cc6)c6ccc3[nH]6)C=C5)C=C4)cc2)nc2ccc(C)cc2c1=O
REMARK SMILES IDX 12 1 11 2 10 3 9 4 7 5 8 6 6 7 5 8 4 9 3 10 86 11 78 12
REMARK SMILES IDX 85 13 87 14 79 15 84 16 80 17 82 18 81 19 83 20 2 21 1 22
REMARK SMILES IDX 13 23 14 24 15 25 16 26 17 27 18 28 19 29 77 30 20 31 76 32
REMARK SMILES IDX 21 33 22 34 23 35 70 36 24 37 75 38 69 39 71 40 25 41 74 42
REMARK SMILES IDX 68 43 67 44 26 46 56 47 37 48 55 49 38 50 41 51 54 52 72 53
REMARK SMILES IDX 39 54 40 55 53 57 73 58 42 59 27 60 28 61 36 62 29 63 35 64
REMARK SMILES IDX 30 65 31 66 32 67 33 68 34 69 57 70 58 71 66 72 59 73 65 74
REMARK SMILES IDX 60 75 61 76 62 77 63 78 64 79 43 80 44 81 52 82 45 83 51 84
REMARK SMILES IDX 46 85 47 86 48 87 49 88 50 89
REMARK H PARENT 71 45 41 56
REMARK Flexibility Score: inf
ROOT
ATOM      1  O   UNL A   1      31.561  29.762  24.977  1.00  0.00    -0.374 OA
ENDROOT
BRANCH   1   2
ATOM      2  C   UNL A   1      30.900  28.847  24.102  1.00  0.00     0.202 C 
BRANCH   2   3
ATOM      3  C   UNL A   1      31.538  28.564  22.735  1.00  0.00     0.261 C 
BRANCH   3   4
ATOM      4  O   UNL A   1      32.644  27.631  22.793  1.00  0.00    -0.463 OA
BRANCH   4   5
ATOM      5  C   UNL A   1      32.540  26.539  21.985  1.00  0.00     0.316 C 
ATOM      6  O   UNL A   1      33.402  26.197  21.180  1.00  0.00    -0.251 OA
BRANCH   5   7
ATOM      7  C   UNL A   1      31.245  25.761  22.097  1.00  0.00     0.200 C 
BRANCH   7   8
ATOM      8  S   UNL A   1      31.204  24.357  23.178  1.00  0.00    -0.076 SA
BRANCH   8   9
ATOM      9  C   UNL A   1      32.590  24.099  24.212  1.00  0.00     0.171 A 
ATOM     10  N   UNL A   1      32.625  23.971  25.597  1.00  0.00    -0.287 N 
ATOM     11  C   UNL A   1      33.789  23.483  26.223  1.00  0.00     0.262 A 
ATOM     12  N   UNL A   1      33.647  23.930  23.476  1.00  0.00    -0.224 NA
ATOM     13  C   UNL A   1      34.939  23.155  25.373  1.00  0.00     0.066 A 
ATOM     14  O   UNL A   1      33.882  23.275  27.432  1.00  0.00    -0.269 OA
ATOM     15  C   UNL A   1      34.838  23.471  24.031  1.00  0.00     0.079 A 
ATOM     16  C   UNL A   1      36.072  22.506  25.884  1.00  0.00     0.019 A 
ATOM     17  C   UNL A   1      35.922  23.197  23.194  1.00  0.00     0.029 A 
ATOM     18  C   UNL A   1      37.148  22.204  25.041  1.00  0.00    -0.050 A 
ATOM     19  C   UNL A   1      37.070  22.568  23.693  1.00  0.00     0.006 A 
ATOM     20  C   UNL A   1      38.325  21.433  25.563  1.00  0.00     0.044 C 
BRANCH  10  21
ATOM     21  C   UNL A   1      31.543  24.225  26.543  1.00  0.00     0.125 C 
ATOM     22  C   UNL A   1      30.608  23.041  26.712  1.00  0.00     0.028 C 
ENDBRANCH  10  21
ENDBRANCH   8   9
ENDBRANCH   7   8
ENDBRANCH   5   7
ENDBRANCH   4   5
ENDBRANCH   3   4
ENDBRANCH   2   3
ENDBRANCH   1   2
BRANCH   1  23
ATOM     23  C   UNL A   1      31.982  29.270  26.241  1.00  0.00     0.202 C 
BRANCH  23  24
ATOM     24  C   UNL A   1      33.482  29.277  26.551  1.00  0.00     0.261 C 
BRANCH  24  25
ATOM     25  O   UNL A   1      33.809  29.787  27.836  1.00  0.00    -0.460 OA
BRANCH  25  26
ATOM     26  C   UNL A   1      34.706  30.798  27.809  1.00  0.00     0.338 C 
ATOM     27  O   UNL A   1      34.488  31.995  27.716  1.00  0.00    -0.246 OA
BRANCH  26  28
ATOM     28  C   UNL A   1      36.017  30.226  28.124  1.00  0.00     0.060 A 
ATOM     29  C   UNL A   1      37.050  30.224  27.186  1.00  0.00     0.016 A 
ATOM     30  C   UNL A   1      36.175  29.646  29.388  1.00  0.00     0.016 A 
ATOM     31  C   UNL A   1      38.274  29.659  27.536  1.00  0.00     0.010 A 
ATOM     32  C   UNL A   1      37.395  29.083  29.734  1.00  0.00     0.010 A 
ATOM     33  C   UNL A   1      38.456  29.110  28.819  1.00  0.00    -0.014 A 
BRANCH  33  34
ATOM     34  C   UNL A   1      39.804  28.714  29.277  1.00  0.00     0.031 A 
ATOM     35  C   UNL A   1      40.634  29.619  30.130  1.00  0.00     0.074 A 
ATOM     36  C   UNL A   1      40.276  27.527  28.849  1.00  0.00     0.049 A 
ATOM     37  N   UNL A   1      41.825  29.405  30.622  1.00  0.00    -0.248 NA
ATOM     38  C   UNL A   1      40.067  30.933  30.470  1.00  0.00     0.031 C 
ATOM     39  C   UNL A   1      39.538  26.597  27.989  1.00  0.00     0.029 A 
ATOM     40  N   UNL A   1      41.468  26.893  29.081  1.00  0.00    -0.354 N 
ATOM     41  C   UNL A   1      42.148  30.545  31.344  1.00  0.00     0.074 A 
ATOM     42  C   UNL A   1      41.048  31.472  31.186  1.00  0.00     0.031 C 
ATOM     43  C   UNL A   1      40.274  25.492  27.806  1.00  0.00     0.029 A 
ATOM     44  C   UNL A   1      41.550  25.653  28.494  1.00  0.00     0.049 A 
ATOM     45  H   UNL A   1      42.194  27.288  29.615  1.00  0.00     0.167 HD
ATOM     46  C   UNL A   1      43.257  30.776  32.085  1.00  0.00     0.031 A 
ATOM     47  C   UNL A   1      42.539  24.740  28.515  1.00  0.00     0.031 A 
ATOM     48  C   UNL A   1      44.342  29.834  32.213  1.00  0.00     0.049 A 
ATOM     49  C   UNL A   1      43.775  25.044  29.314  1.00  0.00     0.074 A 
ATOM     50  C   UNL A   1      45.495  29.957  32.966  1.00  0.00     0.029 A 
ATOM     51  N   UNL A   1      44.411  28.602  31.576  1.00  0.00    -0.354 N 
ATOM     52  N   UNL A   1      44.037  26.100  30.049  1.00  0.00    -0.248 NA
ATOM     53  C   UNL A   1      44.840  24.034  29.302  1.00  0.00     0.031 C 
ATOM     54  C   UNL A   1      46.297  28.839  32.723  1.00  0.00     0.029 A 
ATOM     55  C   UNL A   1      45.605  27.973  31.892  1.00  0.00     0.049 A 
ATOM     56  H   UNL A   1      43.716  28.231  30.988  1.00  0.00     0.167 HD
ATOM     57  C   UNL A   1      45.288  25.870  30.606  1.00  0.00     0.074 A 
ATOM     58  C   UNL A   1      45.716  24.564  30.145  1.00  0.00     0.031 C 
ATOM     59  C   UNL A   1      46.018  26.672  31.421  1.00  0.00     0.031 A 
BRANCH  46  60
ATOM     60  C   UNL A   1      43.365  32.073  32.848  1.00  0.00    -0.014 A 
ATOM     61  C   UNL A   1      42.591  32.275  34.006  1.00  0.00     0.010 A 
ATOM     62  C   UNL A   1      44.103  33.150  32.325  1.00  0.00     0.010 A 
ATOM     63  C   UNL A   1      42.506  33.542  34.592  1.00  0.00     0.020 A 
ATOM     64  C   UNL A   1      44.045  34.411  32.926  1.00  0.00     0.020 A 
ATOM     65  C   UNL A   1      43.220  34.606  34.036  1.00  0.00     0.054 A 
BRANCH  65  66
ATOM     66  S   UNL A   1      43.029  36.259  34.759  1.00  0.00     0.124 S 
ATOM     67  O   UNL A   1      44.308  36.450  35.435  1.00  0.00    -0.237 OA
ATOM     68  O   UNL A   1      42.804  37.096  33.582  1.00  0.00    -0.237 OA
ATOM     69  O   UNL A   1      41.871  36.116  35.640  1.00  0.00    -0.744 OA
ENDBRANCH  65  66
ENDBRANCH  46  60
BRANCH  47  70
ATOM     70  C   UNL A   1      42.349  23.437  27.818  1.00  0.00    -0.014 A 
ATOM     71  C   UNL A   1      41.539  22.431  28.377  1.00  0.00     0.010 A 
ATOM     72  C   UNL A   1      43.055  23.162  26.634  1.00  0.00     0.010 A 
ATOM     73  C   UNL A   1      41.483  21.160  27.799  1.00  0.00     0.020 A 
ATOM     74  C   UNL A   1      42.971  21.904  26.030  1.00  0.00     0.020 A 
ATOM     75  C   UNL A   1      42.209  20.902  26.633  1.00  0.00     0.054 A 
BRANCH  75  76
ATOM     76  S   UNL A   1      42.158  19.231  25.928  1.00  0.00     0.124 S 
ATOM     77  O   UNL A   1      42.761  18.437  26.996  1.00  0.00    -0.237 OA
ATOM     78  O   UNL A   1      40.728  19.019  25.718  1.00  0.00    -0.237 OA
ATOM     79  O   UNL A   1      42.954  19.348  24.711  1.00  0.00    -0.744 OA
ENDBRANCH  75  76
ENDBRANCH  47  70
BRANCH  59  80
ATOM     80  C   UNL A   1      47.368  26.174  31.875  1.00  0.00    -0.014 A 
ATOM     81  C   UNL A   1      48.516  26.472  31.117  1.00  0.00     0.010 A 
ATOM     82  C   UNL A   1      47.485  25.314  32.982  1.00  0.00     0.010 A 
ATOM     83  C   UNL A   1      49.746  25.891  31.431  1.00  0.00     0.020 A 
ATOM     84  C   UNL A   1      48.723  24.763  33.325  1.00  0.00     0.020 A 
ATOM     85  C   UNL A   1      49.839  25.033  32.531  1.00  0.00     0.054 A 
BRANCH  85  86
ATOM     86  S   UNL A   1      51.438  24.265  32.906  1.00  0.00     0.124 S 
ATOM     87  O   UNL A   1      51.166  22.852  32.659  1.00  0.00    -0.237 OA
ATOM     88  O   UNL A   1      52.335  24.911  31.950  1.00  0.00    -0.237 OA
ATOM     89  O   UNL A   1      51.670  24.621  34.303  1.00  0.00    -0.744 OA
ENDBRANCH  85  86
ENDBRANCH  59  80
ENDBRANCH  33  34
ENDBRANCH  26  28
ENDBRANCH  25  26
ENDBRANCH  24  25
ENDBRANCH  23  24
ENDBRANCH   1  23
TORSDOF 20
ENDMDL
MODEL 3
REMARK VINA RESULT:     -10.0      0.785      8.168
REMARK SMILES CCn1c(SCC(=O)OCCOCCOC(=O)c2ccc(-c3c4nc(c(-c5ccc(S(=O)(=O)[O-])cc5)c5ccc([nH]5)c(-c5ccc(S(=O)(=O)[O-])cc5)c5nc(c(-c6ccc(S(=O)(=O)[O-])cc6)c6ccc3[nH]6)C=C5)C=C4)cc2)nc2ccc(C)cc2c1=O
REMARK SMILES IDX 12 1 11 2 10 3 9 4 7 5 8 6 6 7 5 8 4 9 3 10 86 11 78 12
REMARK SMILES IDX 85 13 87 14 79 15 84 16 80 17 82 18 81 19 83 20 2 21 1 22
REMARK SMILES IDX 13 23 14 24 15 25 16 26 17 27 18 28 19 29 77 30 20 31 76 32
REMARK SMILES IDX 21 33 22 34 23 35 70 36 24 37 75 38 69 39 71 40 25 41 74 42
REMARK SMILES IDX 68 43 67 44 26 46 56 47 37 48 55 49 38 50 41 51 54 52 72 53
REMARK SMILES IDX 39 54 40 55 53 57 73 58 42 59 27 60 28 61 36 62 29 63 35 64
REMARK SMILES IDX 30 65 31 66 32 67 33 68 34 69 57 70 58 71 66 72 59 73 65 74
REMARK SMILES IDX 60 75 61 76 62 77 63 78 64 79 43 80 44 81 52 82 45 83 51 84
REMARK SMILES IDX 46 85 47 86 48 87 49 88 50 89
REMARK H PARENT 71 45 41 56
REMARK Flexibility Score: inf
ROOT
ATOM      1  O   UNL A   1      31.683  29.454  24.931  1.00  0.00    -0.374 OA
ENDROOT
BRANCH   1   2
ATOM      2  C   UNL A   1      31.798  28.283  24.120  1.00  0.00     0.202 C 
BRANCH   2   3
ATOM      3  C   UNL A   1      32.806  28.303  22.963  1.00  0.00     0.261 C 
BRANCH   3   4
ATOM      4  O   UNL A   1      33.274  26.987  22.578  1.00  0.00    -0.463 OA
BRANCH   4   5
ATOM      5  C   UNL A   1      32.380  26.216  21.900  1.00  0.00     0.316 C 
ATOM      6  O   UNL A   1      31.477  26.666  21.199  1.00  0.00    -0.251 OA
BRANCH   5   7
ATOM      7  C   UNL A   1      32.525  24.719  22.092  1.00  0.00     0.200 C 
BRANCH   7   8
ATOM      8  S   UNL A   1      31.609  23.951  23.399  1.00  0.00    -0.076 SA
BRANCH   8   9
ATOM      9  C   UNL A   1      32.338  22.571  24.187  1.00  0.00     0.171 A 
ATOM     10  N   UNL A   1      32.849  22.483  25.479  1.00  0.00    -0.287 N 
ATOM     11  C   UNL A   1      33.131  21.218  26.032  1.00  0.00     0.262 A 
ATOM     12  N   UNL A   1      32.252  21.538  23.407  1.00  0.00    -0.224 NA
ATOM     13  C   UNL A   1      32.897  20.036  25.195  1.00  0.00     0.066 A 
ATOM     14  O   UNL A   1      33.520  21.045  27.186  1.00  0.00    -0.269 OA
ATOM     15  C   UNL A   1      32.536  20.260  23.880  1.00  0.00     0.079 A 
ATOM     16  C   UNL A   1      32.985  18.737  25.714  1.00  0.00     0.019 A 
ATOM     17  C   UNL A   1      32.329  19.159  23.044  1.00  0.00     0.029 A 
ATOM     18  C   UNL A   1      32.749  17.633  24.886  1.00  0.00    -0.050 A 
ATOM     19  C   UNL A   1      32.434  17.854  23.541  1.00  0.00     0.006 A 
ATOM     20  C   UNL A   1      32.757  16.244  25.457  1.00  0.00     0.044 C 
BRANCH  10  21
ATOM     21  C   UNL A   1      33.088  23.573  26.419  1.00  0.00     0.125 C 
ATOM     22  C   UNL A   1      33.952  24.680  25.842  1.00  0.00     0.028 C 
ENDBRANCH  10  21
ENDBRANCH   8   9
ENDBRANCH   7   8
ENDBRANCH   5   7
ENDBRANCH   4   5
ENDBRANCH   3   4
ENDBRANCH   2   3
ENDBRANCH   1   2
BRANCH   1  23
ATOM     23  C   UNL A   1      31.748  29.283  26.339  1.00  0.00     0.202 C 
BRANCH  23  24
ATOM     24  C   UNL A   1      32.512  30.330  27.155  1.00  0.00     0.261 C 
BRANCH  24  25
ATOM     25  O   UNL A   1      33.758  29.876  27.665  1.00  0.00    -0.460 OA
BRANCH  25  26
ATOM     26  C   UNL A   1      34.567  30.871  28.092  1.00  0.00     0.338 C 
ATOM     27  O   UNL A   1      34.257  32.006  28.416  1.00  0.00    -0.246 OA
BRANCH  26  28
ATOM     28  C   UNL A   1      35.895  30.291  28.307  1.00  0.00     0.060 A 
ATOM     29  C   UNL A   1      36.870  30.324  27.309  1.00  0.00     0.016 A 
ATOM     30  C   UNL A   1      36.129  29.668  29.539  1.00  0.00     0.016 A 
ATOM     31  C   UNL A   1      38.113  29.750  27.565  1.00  0.00     0.010 A 
ATOM     32  C   UNL A   1      37.368  29.097  29.790  1.00  0.00     0.010 A 
ATOM     33  C   UNL A   1      38.372  29.158  28.814  1.00  0.00    -0.014 A 
BRANCH  33  34
ATOM     34  C   UNL A   1      39.746  28.749  29.176  1.00  0.00     0.031 A 
ATOM     35  C   UNL A   1      40.279  27.401  28.807  1.00  0.00     0.074 A 
ATOM     36  C   UNL A   1      40.477  29.619  29.899  1.00  0.00     0.049 A 
ATOM     37  N   UNL A   1      41.466  26.906  29.040  1.00  0.00    -0.248 NA
ATOM     38  C   UNL A   1      39.372  26.487  28.097  1.00  0.00     0.031 C 
ATOM     39  C   UNL A   1      40.017  30.944  30.325  1.00  0.00     0.029 A 
ATOM     40  N   UNL A   1      41.752  29.534  30.392  1.00  0.00    -0.354 N 
ATOM     41  C   UNL A   1      41.458  25.631  28.492  1.00  0.00     0.074 A 
ATOM     42  C   UNL A   1      40.132  25.407  27.957  1.00  0.00     0.031 C 
ATOM     43  C   UNL A   1      41.012  31.566  30.972  1.00  0.00     0.029 A 
ATOM     44  C   UNL A   1      42.161  30.670  31.048  1.00  0.00     0.049 A 
ATOM     45  H   UNL A   1      42.320  28.736  30.286  1.00  0.00     0.167 HD
ATOM     46  C   UNL A   1      42.480  24.746  28.429  1.00  0.00     0.031 A 
ATOM     47  C   UNL A   1      43.334  30.964  31.639  1.00  0.00     0.031 A 
ATOM     48  C   UNL A   1      43.788  24.996  28.983  1.00  0.00     0.049 A 
ATOM     49  C   UNL A   1      44.436  29.943  31.586  1.00  0.00     0.074 A 
ATOM     50  C   UNL A   1      44.903  24.178  28.942  1.00  0.00     0.029 A 
ATOM     51  N   UNL A   1      44.159  26.142  29.673  1.00  0.00    -0.354 N 
ATOM     52  N   UNL A   1      44.436  28.767  31.004  1.00  0.00    -0.248 NA
ATOM     53  C   UNL A   1      45.696  30.290  32.254  1.00  0.00     0.031 C 
ATOM     54  C   UNL A   1      45.921  24.792  29.676  1.00  0.00     0.029 A 
ATOM     55  C   UNL A   1      45.475  26.035  30.096  1.00  0.00     0.049 A 
ATOM     56  H   UNL A   1      43.574  26.916  29.840  1.00  0.00     0.167 HD
ATOM     57  C   UNL A   1      45.705  28.242  31.214  1.00  0.00     0.074 A 
ATOM     58  C   UNL A   1      46.451  29.241  31.954  1.00  0.00     0.031 C 
ATOM     59  C   UNL A   1      46.203  27.039  30.835  1.00  0.00     0.031 A 
BRANCH  46  60
ATOM     60  C   UNL A   1      42.262  23.434  27.718  1.00  0.00    -0.014 A 
ATOM     61  C   UNL A   1      41.639  22.364  28.389  1.00  0.00     0.010 A 
ATOM     62  C   UNL A   1      42.825  23.207  26.449  1.00  0.00     0.010 A 
ATOM     63  C   UNL A   1      41.634  21.082  27.831  1.00  0.00     0.020 A 
ATOM     64  C   UNL A   1      42.794  21.932  25.875  1.00  0.00     0.020 A 
ATOM     65  C   UNL A   1      42.228  20.872  26.585  1.00  0.00     0.054 A 
BRANCH  65  66
ATOM     66  S   UNL A   1      42.286  19.185  25.918  1.00  0.00     0.124 S 
ATOM     67  O   UNL A   1      42.820  18.426  27.044  1.00  0.00    -0.237 OA
ATOM     68  O   UNL A   1      40.886  18.926  25.587  1.00  0.00    -0.237 OA
ATOM     69  O   UNL A   1      43.177  19.303  24.765  1.00  0.00    -0.744 OA
ENDBRANCH  65  66
ENDBRANCH  46  60
BRANCH  47  70
ATOM     70  C   UNL A   1      43.531  32.308  32.251  1.00  0.00    -0.014 A 
ATOM     71  C   UNL A   1      43.235  32.533  33.608  1.00  0.00     0.010 A 
ATOM     72  C   UNL A   1      43.930  33.394  31.452  1.00  0.00     0.010 A 
ATOM     73  C   UNL A   1      43.277  33.825  34.140  1.00  0.00     0.020 A 
ATOM     74  C   UNL A   1      44.012  34.682  31.990  1.00  0.00     0.020 A 
ATOM     75  C   UNL A   1      43.656  34.893  33.324  1.00  0.00     0.054 A 
BRANCH  75  76
ATOM     76  S   UNL A   1      43.657  36.567  34.024  1.00  0.00     0.124 S 
ATOM     77  O   UNL A   1      42.239  36.774  34.307  1.00  0.00    -0.237 OA
ATOM     78  O   UNL A   1      44.517  36.420  35.195  1.00  0.00    -0.237 OA
ATOM     79  O   UNL A   1      44.206  37.388  32.949  1.00  0.00    -0.744 OA
ENDBRANCH  75  76
ENDBRANCH  47  70
BRANCH  59  80
ATOM     80  C   UNL A   1      47.629  26.717  31.210  1.00  0.00    -0.014 A 
ATOM     81  C   UNL A   1      48.684  27.137  30.380  1.00  0.00     0.010 A 
ATOM     82  C   UNL A   1      47.915  25.898  32.318  1.00  0.00     0.010 A 
ATOM     83  C   UNL A   1      49.992  26.715  30.624  1.00  0.00     0.020 A 
ATOM     84  C   UNL A   1      49.229  25.507  32.590  1.00  0.00     0.020 A 
ATOM     85  C   UNL A   1      50.255  25.896  31.725  1.00  0.00     0.054 A 
BRANCH  85  86
ATOM     86  S   UNL A   1      51.955  25.334  32.009  1.00  0.00     0.124 S 
ATOM     87  O   UNL A   1      52.635  25.784  30.798  1.00  0.00    -0.237 OA
ATOM     88  O   UNL A   1      52.323  26.036  33.237  1.00  0.00    -0.237 OA
ATOM     89  O   UNL A   1      51.820  23.886  32.147  1.00  0.00    -0.744 OA
ENDBRANCH  85  86
ENDBRANCH  59  80
ENDBRANCH  33  34
ENDBRANCH  26  28
ENDBRANCH  25  26
ENDBRANCH  24  25
ENDBRANCH  23  24
ENDBRANCH   1  23
TORSDOF 20
ENDMDL
