MODEL 1
REMARK VINA RESULT:      -9.7      0.000      0.000
REMARK SMILES CCCCOC(=O)c1ccc(N2C[C@H](C(=O)OCCOCCOC(=O)c3ccc(-c4c5nc(c(-c6ccc(S(=O)(=O)[O-])cc6)c6ccc([nH]6)c(-c6ccc(S(=O)(=O)[O-])cc6)c6nc(c(-c7ccc(S(=O)(=O)[O-])cc7)c7ccc4[nH]7)C=C6)C=C5)cc3)CC2=O)cc1
REMARK SMILES IDX 18 1 17 2 15 3 16 4 14 5 12 6 13 7 87 8 86 9 88 10 11 11
REMARK SMILES IDX 8 12 9 13 90 14 10 15 89 16 6 17 7 18 5 19 4 20 3 21 2 22
REMARK SMILES IDX 1 23 19 24 20 25 21 26 22 27 23 28 24 29 25 30 26 31 27 32
REMARK SMILES IDX 85 33 28 34 84 35 29 36 30 37 31 38 78 39 32 40 83 41 77 42
REMARK SMILES IDX 79 43 33 44 82 45 76 46 75 47 34 49 64 50 45 51 63 52 46 53
REMARK SMILES IDX 49 54 62 55 80 56 47 57 48 58 61 60 81 61 50 62 35 63 36 64
REMARK SMILES IDX 44 65 37 66 43 67 38 68 39 69 40 70 41 71 42 72 65 73 66 74
REMARK SMILES IDX 74 75 67 76 73 77 68 78 69 79 70 80 71 81 72 82 51 83 52 84
REMARK SMILES IDX 60 85 53 86 59 87 54 88 55 89 56 90 57 91 58 92
REMARK H PARENT 79 48 49 59
REMARK Flexibility Score: inf
ROOT
ATOM      1  C   UNL A   1      31.789  29.563  26.094  1.00  0.00     0.261 C 
ENDROOT
BRANCH   1   2
ATOM      2  O   UNL A   1      31.993  29.674  24.671  1.00  0.00    -0.463 OA
BRANCH   2   3
ATOM      3  C   UNL A   1      30.965  29.293  23.877  1.00  0.00     0.311 C 
ATOM      4  O   UNL A   1      29.868  29.835  23.831  1.00  0.00    -0.252 OA
BRANCH   3   5
ATOM      5  C   UNL A   1      31.295  28.088  23.025  1.00  0.00     0.128 C 
ATOM      6  N   UNL A   1      32.427  26.105  23.669  1.00  0.00    -0.312 N 
ATOM      7  C   UNL A   1      32.661  27.464  23.263  1.00  0.00     0.141 C 
ATOM      8  C   UNL A   1      31.067  25.793  23.701  1.00  0.00     0.227 C 
ATOM      9  C   UNL A   1      30.276  26.988  23.248  1.00  0.00     0.117 C 
ATOM     10  O   UNL A   1      30.528  24.745  24.025  1.00  0.00    -0.274 OA
BRANCH   6  11
ATOM     11  C   UNL A   1      33.486  25.209  23.982  1.00  0.00     0.044 A 
ATOM     12  C   UNL A   1      35.661  23.530  24.579  1.00  0.00     0.060 A 
ATOM     13  C   UNL A   1      35.044  23.438  23.333  1.00  0.00     0.018 A 
ATOM     14  C   UNL A   1      35.189  24.420  25.539  1.00  0.00     0.018 A 
ATOM     15  C   UNL A   1      33.948  24.265  23.045  1.00  0.00     0.027 A 
ATOM     16  C   UNL A   1      34.111  25.253  25.237  1.00  0.00     0.027 A 
BRANCH  12  17
ATOM     17  C   UNL A   1      36.893  22.795  24.872  1.00  0.00     0.338 C 
ATOM     18  O   UNL A   1      37.766  23.242  25.598  1.00  0.00    -0.246 OA
BRANCH  17  19
ATOM     19  O   UNL A   1      36.830  21.572  24.299  1.00  0.00    -0.462 OA
BRANCH  19  20
ATOM     20  C   UNL A   1      36.339  20.521  25.146  1.00  0.00     0.233 C 
BRANCH  20  21
ATOM     21  C   UNL A   1      35.036  19.935  24.605  1.00  0.00     0.041 C 
BRANCH  21  22
ATOM     22  C   UNL A   1      33.773  20.373  25.349  1.00  0.00     0.000 C 
ATOM     23  C   UNL A   1      32.851  19.217  25.710  1.00  0.00     0.004 C 
ENDBRANCH  21  22
ENDBRANCH  20  21
ENDBRANCH  19  20
ENDBRANCH  17  19
ENDBRANCH  12  17
ENDBRANCH   6  11
ENDBRANCH   3   5
ENDBRANCH   2   3
ENDBRANCH   1   2
BRANCH   1  24
ATOM     24  C   UNL A   1      32.180  30.871  26.787  1.00  0.00     0.202 C 
BRANCH  24  25
ATOM     25  O   UNL A   1      33.438  30.839  27.470  1.00  0.00    -0.374 OA
BRANCH  25  26
ATOM     26  C   UNL A   1      33.956  32.084  27.933  1.00  0.00     0.202 C 
BRANCH  26  27
ATOM     27  C   UNL A   1      35.424  32.068  28.383  1.00  0.00     0.261 C 
BRANCH  27  28
ATOM     28  O   UNL A   1      35.874  30.742  28.718  1.00  0.00    -0.460 OA
BRANCH  28  29
ATOM     29  C   UNL A   1      36.759  30.700  29.747  1.00  0.00     0.338 C 
ATOM     30  O   UNL A   1      36.553  31.038  30.901  1.00  0.00    -0.246 OA
BRANCH  29  31
ATOM     31  C   UNL A   1      38.008  30.026  29.340  1.00  0.00     0.060 A 
ATOM     32  C   UNL A   1      38.927  29.727  30.354  1.00  0.00     0.016 A 
ATOM     33  C   UNL A   1      38.324  29.768  28.003  1.00  0.00     0.016 A 
ATOM     34  C   UNL A   1      40.186  29.227  30.031  1.00  0.00     0.010 A 
ATOM     35  C   UNL A   1      39.594  29.270  27.680  1.00  0.00     0.010 A 
ATOM     36  C   UNL A   1      40.544  29.036  28.691  1.00  0.00    -0.014 A 
BRANCH  36  37
ATOM     37  C   UNL A   1      41.963  28.742  28.366  1.00  0.00     0.031 A 
ATOM     38  C   UNL A   1      42.353  27.337  27.990  1.00  0.00     0.074 A 
ATOM     39  C   UNL A   1      42.881  29.726  28.325  1.00  0.00     0.049 A 
ATOM     40  N   UNL A   1      43.511  26.877  27.592  1.00  0.00    -0.248 NA
ATOM     41  C   UNL A   1      41.292  26.317  28.060  1.00  0.00     0.031 C 
ATOM     42  C   UNL A   1      42.627  31.134  28.627  1.00  0.00     0.029 A 
ATOM     43  N   UNL A   1      44.214  29.686  27.998  1.00  0.00    -0.354 N 
ATOM     44  C   UNL A   1      43.320  25.521  27.357  1.00  0.00     0.074 A 
ATOM     45  C   UNL A   1      41.942  25.224  27.686  1.00  0.00     0.031 C 
ATOM     46  C   UNL A   1      43.769  31.827  28.466  1.00  0.00     0.029 A 
ATOM     47  C   UNL A   1      44.836  30.909  28.068  1.00  0.00     0.049 A 
ATOM     48  H   UNL A   1      44.679  28.859  27.737  1.00  0.00     0.167 HD
ATOM     49  C   UNL A   1      44.205  24.603  26.898  1.00  0.00     0.031 A 
ATOM     50  C   UNL A   1      46.120  31.251  27.842  1.00  0.00     0.031 A 
ATOM     51  C   UNL A   1      45.580  24.886  26.587  1.00  0.00     0.049 A 
ATOM     52  C   UNL A   1      47.105  30.198  27.406  1.00  0.00     0.074 A 
ATOM     53  C   UNL A   1      46.551  24.019  26.115  1.00  0.00     0.029 A 
ATOM     54  N   UNL A   1      46.183  26.125  26.726  1.00  0.00    -0.354 N 
ATOM     55  N   UNL A   1      46.897  28.926  27.160  1.00  0.00    -0.248 NA
ATOM     56  C   UNL A   1      48.496  30.630  27.207  1.00  0.00     0.031 C 
ATOM     57  C   UNL A   1      47.753  24.728  26.006  1.00  0.00     0.029 A 
ATOM     58  C   UNL A   1      47.518  26.044  26.369  1.00  0.00     0.049 A 
ATOM     59  H   UNL A   1      45.730  26.943  27.033  1.00  0.00     0.167 HD
ATOM     60  C   UNL A   1      48.127  28.413  26.757  1.00  0.00     0.074 A 
ATOM     61  C   UNL A   1      49.068  29.513  26.780  1.00  0.00     0.031 C 
ATOM     62  C   UNL A   1      48.445  27.146  26.397  1.00  0.00     0.031 A 
BRANCH  49  63
ATOM     63  C   UNL A   1      43.709  23.195  26.724  1.00  0.00    -0.014 A 
ATOM     64  C   UNL A   1      43.754  22.564  25.467  1.00  0.00     0.010 A 
ATOM     65  C   UNL A   1      43.224  22.481  27.834  1.00  0.00     0.010 A 
ATOM     66  C   UNL A   1      43.290  21.255  25.318  1.00  0.00     0.020 A 
ATOM     67  C   UNL A   1      42.778  21.165  27.691  1.00  0.00     0.020 A 
ATOM     68  C   UNL A   1      42.798  20.566  26.430  1.00  0.00     0.054 A 
BRANCH  68  69
ATOM     69  S   UNL A   1      42.215  18.862  26.214  1.00  0.00     0.124 S 
ATOM     70  O   UNL A   1      43.151  18.348  25.216  1.00  0.00    -0.237 OA
ATOM     71  O   UNL A   1      42.356  18.299  27.554  1.00  0.00    -0.237 OA
ATOM     72  O   UNL A   1      40.839  19.022  25.752  1.00  0.00    -0.744 OA
ENDBRANCH  68  69
ENDBRANCH  49  63
BRANCH  50  73
ATOM     73  C   UNL A   1      46.560  32.658  28.032  1.00  0.00    -0.014 A 
ATOM     74  C   UNL A   1      46.527  33.572  26.964  1.00  0.00     0.010 A 
ATOM     75  C   UNL A   1      47.031  33.087  29.287  1.00  0.00     0.010 A 
ATOM     76  C   UNL A   1      46.974  34.884  27.142  1.00  0.00     0.020 A 
ATOM     77  C   UNL A   1      47.458  34.404  29.473  1.00  0.00     0.020 A 
ATOM     78  C   UNL A   1      47.439  35.291  28.396  1.00  0.00     0.054 A 
BRANCH  78  79
ATOM     79  S   UNL A   1      47.975  37.011  28.620  1.00  0.00     0.124 S 
ATOM     80  O   UNL A   1      46.824  37.601  29.296  1.00  0.00    -0.237 OA
ATOM     81  O   UNL A   1      49.181  36.866  29.432  1.00  0.00    -0.237 OA
ATOM     82  O   UNL A   1      48.206  37.476  27.254  1.00  0.00    -0.744 OA
ENDBRANCH  78  79
ENDBRANCH  50  73
BRANCH  62  83
ATOM     83  C   UNL A   1      49.864  26.880  25.972  1.00  0.00    -0.014 A 
ATOM     84  C   UNL A   1      50.263  27.040  24.633  1.00  0.00     0.010 A 
ATOM     85  C   UNL A   1      50.821  26.516  26.935  1.00  0.00     0.010 A 
ATOM     86  C   UNL A   1      51.591  26.816  24.262  1.00  0.00     0.020 A 
ATOM     87  C   UNL A   1      52.154  26.311  26.572  1.00  0.00     0.020 A 
ATOM     88  C   UNL A   1      52.529  26.450  25.233  1.00  0.00     0.054 A 
BRANCH  88  89
ATOM     89  S   UNL A   1      54.257  26.209  24.738  1.00  0.00     0.124 S 
ATOM     90  O   UNL A   1      54.203  26.481  23.304  1.00  0.00    -0.237 OA
ATOM     91  O   UNL A   1      54.967  27.203  25.540  1.00  0.00    -0.237 OA
ATOM     92  O   UNL A   1      54.530  24.819  25.099  1.00  0.00    -0.744 OA
ENDBRANCH  88  89
ENDBRANCH  62  83
ENDBRANCH  36  37
ENDBRANCH  29  31
ENDBRANCH  28  29
ENDBRANCH  27  28
ENDBRANCH  26  27
ENDBRANCH  25  26
ENDBRANCH  24  25
ENDBRANCH   1  24
TORSDOF 23
ENDMDL
MODEL 2
REMARK VINA RESULT:      -8.8      6.810     10.754
REMARK SMILES CCCCOC(=O)c1ccc(N2C[C@H](C(=O)OCCOCCOC(=O)c3ccc(-c4c5nc(c(-c6ccc(S(=O)(=O)[O-])cc6)c6ccc([nH]6)c(-c6ccc(S(=O)(=O)[O-])cc6)c6nc(c(-c7ccc(S(=O)(=O)[O-])cc7)c7ccc4[nH]7)C=C6)C=C5)cc3)CC2=O)cc1
REMARK SMILES IDX 18 1 17 2 15 3 16 4 14 5 12 6 13 7 87 8 86 9 88 10 11 11
REMARK SMILES IDX 8 12 9 13 90 14 10 15 89 16 6 17 7 18 5 19 4 20 3 21 2 22
REMARK SMILES IDX 1 23 19 24 20 25 21 26 22 27 23 28 24 29 25 30 26 31 27 32
REMARK SMILES IDX 85 33 28 34 84 35 29 36 30 37 31 38 78 39 32 40 83 41 77 42
REMARK SMILES IDX 79 43 33 44 82 45 76 46 75 47 34 49 64 50 45 51 63 52 46 53
REMARK SMILES IDX 49 54 62 55 80 56 47 57 48 58 61 60 81 61 50 62 35 63 36 64
REMARK SMILES IDX 44 65 37 66 43 67 38 68 39 69 40 70 41 71 42 72 65 73 66 74
REMARK SMILES IDX 74 75 67 76 73 77 68 78 69 79 70 80 71 81 72 82 51 83 52 84
REMARK SMILES IDX 60 85 53 86 59 87 54 88 55 89 56 90 57 91 58 92
REMARK H PARENT 79 48 49 59
REMARK Flexibility Score: inf
ROOT
ATOM      1  C   UNL A   1      31.903  29.761  26.197  1.00  0.00     0.261 C 
ENDROOT
BRANCH   1   2
ATOM      2  O   UNL A   1      32.299  29.715  24.812  1.00  0.00    -0.463 OA
BRANCH   2   3
ATOM      3  C   UNL A   1      31.391  29.228  23.934  1.00  0.00     0.311 C 
ATOM      4  O   UNL A   1      30.205  29.532  23.901  1.00  0.00    -0.252 OA
BRANCH   3   5
ATOM      5  C   UNL A   1      31.985  28.230  22.966  1.00  0.00     0.128 C 
ATOM      6  N   UNL A   1      32.915  26.100  23.443  1.00  0.00    -0.312 N 
ATOM      7  C   UNL A   1      33.231  27.503  23.446  1.00  0.00     0.141 C 
ATOM      8  C   UNL A   1      31.614  25.856  23.001  1.00  0.00     0.227 C 
ATOM      9  C   UNL A   1      30.970  27.159  22.621  1.00  0.00     0.117 C 
ATOM     10  O   UNL A   1      31.025  24.789  22.904  1.00  0.00    -0.274 OA
BRANCH   6  11
ATOM     11  C   UNL A   1      33.851  25.107  23.841  1.00  0.00     0.044 A 
ATOM     12  C   UNL A   1      35.611  23.062  24.636  1.00  0.00     0.060 A 
ATOM     13  C   UNL A   1      35.193  24.010  25.569  1.00  0.00     0.018 A 
ATOM     14  C   UNL A   1      35.192  23.140  23.311  1.00  0.00     0.018 A 
ATOM     15  C   UNL A   1      34.330  25.038  25.164  1.00  0.00     0.027 A 
ATOM     16  C   UNL A   1      34.317  24.155  22.923  1.00  0.00     0.027 A 
BRANCH  12  17
ATOM     17  C   UNL A   1      36.391  21.892  25.042  1.00  0.00     0.338 C 
ATOM     18  O   UNL A   1      37.563  21.746  24.735  1.00  0.00    -0.246 OA
BRANCH  17  19
ATOM     19  O   UNL A   1      35.637  21.111  25.847  1.00  0.00    -0.462 OA
BRANCH  19  20
ATOM     20  C   UNL A   1      34.619  20.344  25.183  1.00  0.00     0.233 C 
BRANCH  20  21
ATOM     21  C   UNL A   1      33.241  20.614  25.784  1.00  0.00     0.041 C 
BRANCH  21  22
ATOM     22  C   UNL A   1      32.245  21.289  24.838  1.00  0.00     0.000 C 
ATOM     23  C   UNL A   1      31.413  22.374  25.508  1.00  0.00     0.004 C 
ENDBRANCH  21  22
ENDBRANCH  20  21
ENDBRANCH  19  20
ENDBRANCH  17  19
ENDBRANCH  12  17
ENDBRANCH   6  11
ENDBRANCH   3   5
ENDBRANCH   2   3
ENDBRANCH   1   2
BRANCH   1  24
ATOM     24  C   UNL A   1      31.365  31.152  26.546  1.00  0.00     0.202 C 
BRANCH  24  25
ATOM     25  O   UNL A   1      32.295  32.007  27.218  1.00  0.00    -0.374 OA
BRANCH  25  26
ATOM     26  C   UNL A   1      32.170  33.409  26.989  1.00  0.00     0.202 C 
BRANCH  26  27
ATOM     27  C   UNL A   1      33.000  34.311  27.912  1.00  0.00     0.261 C 
BRANCH  27  28
ATOM     28  O   UNL A   1      32.764  34.028  29.303  1.00  0.00    -0.460 OA
BRANCH  28  29
ATOM     29  C   UNL A   1      33.040  35.065  30.135  1.00  0.00     0.338 C 
ATOM     30  O   UNL A   1      32.422  36.113  30.225  1.00  0.00    -0.246 OA
BRANCH  29  31
ATOM     31  C   UNL A   1      34.124  34.712  31.074  1.00  0.00     0.060 A 
ATOM     32  C   UNL A   1      34.561  35.720  31.944  1.00  0.00     0.016 A 
ATOM     33  C   UNL A   1      34.762  33.469  31.056  1.00  0.00     0.016 A 
ATOM     34  C   UNL A   1      35.675  35.508  32.753  1.00  0.00     0.010 A 
ATOM     35  C   UNL A   1      35.887  33.261  31.867  1.00  0.00     0.010 A 
ATOM     36  C   UNL A   1      36.371  34.294  32.689  1.00  0.00    -0.014 A 
BRANCH  36  37
ATOM     37  C   UNL A   1      37.686  34.189  33.371  1.00  0.00     0.031 A 
ATOM     38  C   UNL A   1      37.724  33.912  34.851  1.00  0.00     0.074 A 
ATOM     39  C   UNL A   1      38.835  34.255  32.672  1.00  0.00     0.049 A 
ATOM     40  N   UNL A   1      38.756  33.701  35.628  1.00  0.00    -0.248 NA
ATOM     41  C   UNL A   1      36.426  33.855  35.545  1.00  0.00     0.031 C 
ATOM     42  C   UNL A   1      38.936  34.478  31.230  1.00  0.00     0.029 A 
ATOM     43  N   UNL A   1      40.137  34.128  33.086  1.00  0.00    -0.354 N 
ATOM     44  C   UNL A   1      38.234  33.477  36.896  1.00  0.00     0.074 A 
ATOM     45  C   UNL A   1      36.797  33.609  36.793  1.00  0.00     0.031 C 
ATOM     46  C   UNL A   1      40.235  34.468  30.879  1.00  0.00     0.029 A 
ATOM     47  C   UNL A   1      41.054  34.256  32.071  1.00  0.00     0.049 A 
ATOM     48  H   UNL A   1      40.390  33.961  34.023  1.00  0.00     0.167 HD
ATOM     49  C   UNL A   1      38.888  33.178  38.045  1.00  0.00     0.031 A 
ATOM     50  C   UNL A   1      42.401  34.210  32.099  1.00  0.00     0.031 A 
ATOM     51  C   UNL A   1      40.317  33.064  38.159  1.00  0.00     0.049 A 
ATOM     52  C   UNL A   1      43.110  33.952  33.403  1.00  0.00     0.074 A 
ATOM     53  C   UNL A   1      41.069  32.762  39.283  1.00  0.00     0.029 A 
ATOM     54  N   UNL A   1      41.212  33.256  37.119  1.00  0.00    -0.354 N 
ATOM     55  N   UNL A   1      42.598  33.713  34.587  1.00  0.00    -0.248 NA
ATOM     56  C   UNL A   1      44.580  33.947  33.370  1.00  0.00     0.031 C 
ATOM     57  C   UNL A   1      42.422  32.812  38.928  1.00  0.00     0.029 A 
ATOM     58  C   UNL A   1      42.509  33.101  37.576  1.00  0.00     0.049 A 
ATOM     59  H   UNL A   1      40.962  33.471  36.191  1.00  0.00     0.167 HD
ATOM     60  C   UNL A   1      43.683  33.508  35.434  1.00  0.00     0.074 A 
ATOM     61  C   UNL A   1      44.877  33.639  34.625  1.00  0.00     0.031 C 
ATOM     62  C   UNL A   1      43.689  33.233  36.761  1.00  0.00     0.031 A 
BRANCH  49  63
ATOM     63  C   UNL A   1      38.055  32.972  39.279  1.00  0.00    -0.014 A 
ATOM     64  C   UNL A   1      37.969  33.972  40.265  1.00  0.00     0.010 A 
ATOM     65  C   UNL A   1      37.324  31.783  39.441  1.00  0.00     0.010 A 
ATOM     66  C   UNL A   1      37.193  33.770  41.409  1.00  0.00     0.020 A 
ATOM     67  C   UNL A   1      36.531  31.586  40.574  1.00  0.00     0.020 A 
ATOM     68  C   UNL A   1      36.484  32.575  41.559  1.00  0.00     0.054 A 
BRANCH  68  69
ATOM     69  S   UNL A   1      35.471  32.342  43.046  1.00  0.00     0.124 S 
ATOM     70  O   UNL A   1      36.397  31.641  43.933  1.00  0.00    -0.237 OA
ATOM     71  O   UNL A   1      35.146  33.712  43.435  1.00  0.00    -0.237 OA
ATOM     72  O   UNL A   1      34.340  31.548  42.573  1.00  0.00    -0.744 OA
ENDBRANCH  68  69
ENDBRANCH  49  63
BRANCH  50  73
ATOM     73  C   UNL A   1      43.179  34.424  30.850  1.00  0.00    -0.014 A 
ATOM     74  C   UNL A   1      43.545  33.337  30.037  1.00  0.00     0.010 A 
ATOM     75  C   UNL A   1      43.571  35.723  30.477  1.00  0.00     0.010 A 
ATOM     76  C   UNL A   1      44.305  33.543  28.882  1.00  0.00     0.020 A 
ATOM     77  C   UNL A   1      44.312  35.934  29.312  1.00  0.00     0.020 A 
ATOM     78  C   UNL A   1      44.686  34.841  28.528  1.00  0.00     0.054 A 
BRANCH  78  79
ATOM     79  S   UNL A   1      45.636  35.094  27.002  1.00  0.00     0.124 S 
ATOM     80  O   UNL A   1      46.253  36.395  27.243  1.00  0.00    -0.237 OA
ATOM     81  O   UNL A   1      46.547  33.952  27.000  1.00  0.00    -0.237 OA
ATOM     82  O   UNL A   1      44.615  35.068  25.957  1.00  0.00    -0.744 OA
ENDBRANCH  78  79
ENDBRANCH  50  73
BRANCH  62  83
ATOM     83  C   UNL A   1      45.025  33.028  37.423  1.00  0.00    -0.014 A 
ATOM     84  C   UNL A   1      45.706  34.097  38.030  1.00  0.00     0.010 A 
ATOM     85  C   UNL A   1      45.579  31.737  37.483  1.00  0.00     0.010 A 
ATOM     86  C   UNL A   1      46.932  33.882  38.665  1.00  0.00     0.020 A 
ATOM     87  C   UNL A   1      46.794  31.514  38.135  1.00  0.00     0.020 A 
ATOM     88  C   UNL A   1      47.471  32.592  38.712  1.00  0.00     0.054 A 
BRANCH  88  89
ATOM     89  S   UNL A   1      49.041  32.327  39.581  1.00  0.00     0.124 S 
ATOM     90  O   UNL A   1      49.526  33.693  39.755  1.00  0.00    -0.237 OA
ATOM     91  O   UNL A   1      48.624  31.648  40.806  1.00  0.00    -0.237 OA
ATOM     92  O   UNL A   1      49.814  31.503  38.654  1.00  0.00    -0.744 OA
ENDBRANCH  88  89
ENDBRANCH  62  83
ENDBRANCH  36  37
ENDBRANCH  29  31
ENDBRANCH  28  29
ENDBRANCH  27  28
ENDBRANCH  26  27
ENDBRANCH  25  26
ENDBRANCH  24  25
ENDBRANCH   1  24
TORSDOF 23
ENDMDL
MODEL 3
REMARK VINA RESULT:      -8.6      9.354     14.522
REMARK SMILES CCCCOC(=O)c1ccc(N2C[C@H](C(=O)OCCOCCOC(=O)c3ccc(-c4c5nc(c(-c6ccc(S(=O)(=O)[O-])cc6)c6ccc([nH]6)c(-c6ccc(S(=O)(=O)[O-])cc6)c6nc(c(-c7ccc(S(=O)(=O)[O-])cc7)c7ccc4[nH]7)C=C6)C=C5)cc3)CC2=O)cc1
REMARK SMILES IDX 18 1 17 2 15 3 16 4 14 5 12 6 13 7 87 8 86 9 88 10 11 11
REMARK SMILES IDX 8 12 9 13 90 14 10 15 89 16 6 17 7 18 5 19 4 20 3 21 2 22
REMARK SMILES IDX 1 23 19 24 20 25 21 26 22 27 23 28 24 29 25 30 26 31 27 32
REMARK SMILES IDX 85 33 28 34 84 35 29 36 30 37 31 38 78 39 32 40 83 41 77 42
REMARK SMILES IDX 79 43 33 44 82 45 76 46 75 47 34 49 64 50 45 51 63 52 46 53
REMARK SMILES IDX 49 54 62 55 80 56 47 57 48 58 61 60 81 61 50 62 35 63 36 64
REMARK SMILES IDX 44 65 37 66 43 67 38 68 39 69 40 70 41 71 42 72 65 73 66 74
REMARK SMILES IDX 74 75 67 76 73 77 68 78 69 79 70 80 71 81 72 82 51 83 52 84
REMARK SMILES IDX 60 85 53 86 59 87 54 88 55 89 56 90 57 91 58 92
REMARK H PARENT 79 48 49 59
REMARK Flexibility Score: inf
ROOT
ATOM      1  C   UNL A   1      32.793  30.557  27.087  1.00  0.00     0.261 C 
ENDROOT
BRANCH   1   2
ATOM      2  O   UNL A   1      33.585  29.792  26.158  1.00  0.00    -0.463 OA
BRANCH   2   3
ATOM      3  C   UNL A   1      32.953  28.792  25.498  1.00  0.00     0.311 C 
ATOM      4  O   UNL A   1      31.739  28.662  25.406  1.00  0.00    -0.252 OA
BRANCH   3   5
ATOM      5  C   UNL A   1      33.911  27.808  24.866  1.00  0.00     0.128 C 
ATOM      6  N   UNL A   1      33.472  25.587  24.155  1.00  0.00    -0.312 N 
ATOM      7  C   UNL A   1      33.776  26.365  25.325  1.00  0.00     0.141 C 
ATOM      8  C   UNL A   1      33.415  26.373  23.003  1.00  0.00     0.227 C 
ATOM      9  C   UNL A   1      33.740  27.796  23.360  1.00  0.00     0.117 C 
ATOM     10  O   UNL A   1      33.156  26.036  21.857  1.00  0.00    -0.274 OA
BRANCH   6  11
ATOM     11  C   UNL A   1      33.272  24.180  24.205  1.00  0.00     0.044 A 
ATOM     12  C   UNL A   1      32.890  21.394  24.182  1.00  0.00     0.060 A 
ATOM     13  C   UNL A   1      31.786  22.238  24.280  1.00  0.00     0.018 A 
ATOM     14  C   UNL A   1      34.179  21.918  24.128  1.00  0.00     0.018 A 
ATOM     15  C   UNL A   1      31.982  23.627  24.310  1.00  0.00     0.027 A 
ATOM     16  C   UNL A   1      34.363  23.301  24.137  1.00  0.00     0.027 A 
BRANCH  12  17
ATOM     17  C   UNL A   1      32.728  19.951  24.001  1.00  0.00     0.338 C 
ATOM     18  O   UNL A   1      32.166  19.471  23.029  1.00  0.00    -0.246 OA
BRANCH  17  19
ATOM     19  O   UNL A   1      33.364  19.301  25.001  1.00  0.00    -0.462 OA
BRANCH  19  20
ATOM     20  C   UNL A   1      32.628  18.221  25.598  1.00  0.00     0.233 C 
BRANCH  20  21
ATOM     21  C   UNL A   1      33.380  16.898  25.468  1.00  0.00     0.041 C 
BRANCH  21  22
ATOM     22  C   UNL A   1      34.568  16.923  24.504  1.00  0.00     0.000 C 
ATOM     23  C   UNL A   1      34.184  16.624  23.062  1.00  0.00     0.004 C 
ENDBRANCH  21  22
ENDBRANCH  20  21
ENDBRANCH  19  20
ENDBRANCH  17  19
ENDBRANCH  12  17
ENDBRANCH   6  11
ENDBRANCH   3   5
ENDBRANCH   2   3
ENDBRANCH   1   2
BRANCH   1  24
ATOM     24  C   UNL A   1      33.588  31.766  27.589  1.00  0.00     0.202 C 
BRANCH  24  25
ATOM     25  O   UNL A   1      34.642  31.456  28.506  1.00  0.00    -0.374 OA
BRANCH  25  26
ATOM     26  C   UNL A   1      35.625  32.464  28.730  1.00  0.00     0.202 C 
BRANCH  26  27
ATOM     27  C   UNL A   1      36.506  32.272  29.972  1.00  0.00     0.261 C 
BRANCH  27  28
ATOM     28  O   UNL A   1      35.839  31.512  30.997  1.00  0.00    -0.460 OA
BRANCH  28  29
ATOM     29  C   UNL A   1      35.135  32.269  31.878  1.00  0.00     0.338 C 
ATOM     30  O   UNL A   1      33.977  32.638  31.761  1.00  0.00    -0.246 OA
BRANCH  29  31
ATOM     31  C   UNL A   1      35.901  32.477  33.123  1.00  0.00     0.060 A 
ATOM     32  C   UNL A   1      35.601  33.626  33.867  1.00  0.00     0.016 A 
ATOM     33  C   UNL A   1      36.943  31.633  33.517  1.00  0.00     0.016 A 
ATOM     34  C   UNL A   1      36.380  33.966  34.970  1.00  0.00     0.010 A 
ATOM     35  C   UNL A   1      37.729  31.982  34.624  1.00  0.00     0.010 A 
ATOM     36  C   UNL A   1      37.475  33.171  35.331  1.00  0.00    -0.014 A 
BRANCH  36  37
ATOM     37  C   UNL A   1      38.427  33.686  36.347  1.00  0.00     0.031 A 
ATOM     38  C   UNL A   1      39.624  34.479  35.894  1.00  0.00     0.074 A 
ATOM     39  C   UNL A   1      38.190  33.522  37.662  1.00  0.00     0.049 A 
ATOM     40  N   UNL A   1      40.533  35.089  36.611  1.00  0.00    -0.248 NA
ATOM     41  C   UNL A   1      39.814  34.613  34.439  1.00  0.00     0.031 C 
ATOM     42  C   UNL A   1      37.048  32.809  38.235  1.00  0.00     0.029 A 
ATOM     43  N   UNL A   1      38.897  33.958  38.755  1.00  0.00    -0.354 N 
ATOM     44  C   UNL A   1      41.397  35.685  35.699  1.00  0.00     0.074 A 
ATOM     45  C   UNL A   1      40.922  35.338  34.377  1.00  0.00     0.031 C 
ATOM     46  C   UNL A   1      37.131  32.862  39.576  1.00  0.00     0.029 A 
ATOM     47  C   UNL A   1      38.338  33.594  39.956  1.00  0.00     0.049 A 
ATOM     48  H   UNL A   1      39.727  34.484  38.684  1.00  0.00     0.167 HD
ATOM     49  C   UNL A   1      42.482  36.461  35.937  1.00  0.00     0.031 A 
ATOM     50  C   UNL A   1      38.753  33.822  41.218  1.00  0.00     0.031 A 
ATOM     51  C   UNL A   1      42.971  36.794  37.247  1.00  0.00     0.049 A 
ATOM     52  C   UNL A   1      40.006  34.623  41.456  1.00  0.00     0.074 A 
ATOM     53  C   UNL A   1      44.063  37.575  37.586  1.00  0.00     0.029 A 
ATOM     54  N   UNL A   1      42.407  36.358  38.436  1.00  0.00    -0.354 N 
ATOM     55  N   UNL A   1      40.792  35.204  40.582  1.00  0.00    -0.248 NA
ATOM     56  C   UNL A   1      40.421  34.808  42.855  1.00  0.00     0.031 C 
ATOM     57  C   UNL A   1      44.182  37.578  38.980  1.00  0.00     0.029 A 
ATOM     58  C   UNL A   1      43.139  36.836  39.510  1.00  0.00     0.049 A 
ATOM     59  H   UNL A   1      41.605  35.792  38.507  1.00  0.00     0.167 HD
ATOM     60  C   UNL A   1      41.782  35.840  41.326  1.00  0.00     0.074 A 
ATOM     61  C   UNL A   1      41.488  35.584  42.721  1.00  0.00     0.031 C 
ATOM     62  C   UNL A   1      42.836  36.574  40.893  1.00  0.00     0.031 A 
BRANCH  49  63
ATOM     63  C   UNL A   1      43.227  36.987  34.743  1.00  0.00    -0.014 A 
ATOM     64  C   UNL A   1      42.950  38.265  34.225  1.00  0.00     0.010 A 
ATOM     65  C   UNL A   1      44.239  36.211  34.151  1.00  0.00     0.010 A 
ATOM     66  C   UNL A   1      43.648  38.743  33.113  1.00  0.00     0.020 A 
ATOM     67  C   UNL A   1      44.953  36.694  33.052  1.00  0.00     0.020 A 
ATOM     68  C   UNL A   1      44.641  37.952  32.530  1.00  0.00     0.054 A 
BRANCH  68  69
ATOM     69  S   UNL A   1      45.545  38.600  31.097  1.00  0.00     0.124 S 
ATOM     70  O   UNL A   1      44.460  39.115  30.265  1.00  0.00    -0.237 OA
ATOM     71  O   UNL A   1      46.413  39.613  31.692  1.00  0.00    -0.237 OA
ATOM     72  O   UNL A   1      46.236  37.429  30.564  1.00  0.00    -0.744 OA
ENDBRANCH  68  69
ENDBRANCH  49  63
BRANCH  50  73
ATOM     73  C   UNL A   1      37.981  33.276  42.365  1.00  0.00    -0.014 A 
ATOM     74  C   UNL A   1      38.230  31.978  42.845  1.00  0.00     0.010 A 
ATOM     75  C   UNL A   1      36.976  34.051  42.973  1.00  0.00     0.010 A 
ATOM     76  C   UNL A   1      37.476  31.459  43.902  1.00  0.00     0.020 A 
ATOM     77  C   UNL A   1      36.236  33.543  44.043  1.00  0.00     0.020 A 
ATOM     78  C   UNL A   1      36.482  32.245  44.493  1.00  0.00     0.054 A 
BRANCH  78  79
ATOM     79  S   UNL A   1      35.542  31.570  45.891  1.00  0.00     0.124 S 
ATOM     80  O   UNL A   1      35.510  30.145  45.576  1.00  0.00    -0.237 OA
ATOM     81  O   UNL A   1      36.363  31.947  47.039  1.00  0.00    -0.237 OA
ATOM     82  O   UNL A   1      34.257  32.261  45.802  1.00  0.00    -0.744 OA
ENDBRANCH  78  79
ENDBRANCH  50  73
BRANCH  62  83
ATOM     83  C   UNL A   1      43.739  37.176  41.934  1.00  0.00    -0.014 A 
ATOM     84  C   UNL A   1      44.876  36.489  42.395  1.00  0.00     0.010 A 
ATOM     85  C   UNL A   1      43.475  38.470  42.419  1.00  0.00     0.010 A 
ATOM     86  C   UNL A   1      45.719  37.076  43.342  1.00  0.00     0.020 A 
ATOM     87  C   UNL A   1      44.328  39.068  43.350  1.00  0.00     0.020 A 
ATOM     88  C   UNL A   1      45.439  38.361  43.816  1.00  0.00     0.054 A 
BRANCH  88  89
ATOM     89  S   UNL A   1      46.571  39.124  45.011  1.00  0.00     0.124 S 
ATOM     90  O   UNL A   1      46.707  38.072  46.015  1.00  0.00    -0.237 OA
ATOM     91  O   UNL A   1      47.764  39.384  44.208  1.00  0.00    -0.237 OA
ATOM     92  O   UNL A   1      45.855  40.318  45.453  1.00  0.00    -0.744 OA
ENDBRANCH  88  89
ENDBRANCH  62  83
ENDBRANCH  36  37
ENDBRANCH  29  31
ENDBRANCH  28  29
ENDBRANCH  27  28
ENDBRANCH  26  27
ENDBRANCH  25  26
ENDBRANCH  24  25
ENDBRANCH   1  24
TORSDOF 23
ENDMDL
