MODEL 1
REMARK VINA RESULT:      -9.4      0.000      0.000
REMARK SMILES O=C(CNC(=O)OCc1ccccc1)NCC(=O)OCCOCCOC(=O)c1ccc(-c2c3nc(c(-c4ccc(S(=O)(=O)[O-])cc4)c4ccc([nH]4)c(-c4ccc(S(=O)(=O)[O-])cc4)c4nc(c(-c5ccc(S(=O)(=O)[O-])cc5)c5ccc2[nH]5)C=C4)C=C3)cc1
REMARK SMILES IDX 20 1 19 2 17 3 18 4 16 5 15 6 1 7 2 8 3 10 4 11 5 12 6 14
REMARK SMILES IDX 7 15 8 16 9 17 10 18 14 19 11 20 13 21 12 22 21 23 22 24
REMARK SMILES IDX 23 25 24 26 25 27 26 28 27 29 28 30 29 31 87 32 30 33 86 34
REMARK SMILES IDX 31 35 32 36 33 37 80 38 34 39 85 40 79 41 81 42 35 43 84 44
REMARK SMILES IDX 78 45 77 46 36 48 66 49 47 50 65 51 48 52 51 53 64 54 82 55
REMARK SMILES IDX 49 56 50 57 63 59 83 60 52 61 37 62 38 63 46 64 39 65 45 66
REMARK SMILES IDX 40 67 41 68 42 69 43 70 44 71 67 72 68 73 76 74 69 75 75 76
REMARK SMILES IDX 70 77 71 78 72 79 73 80 74 81 53 82 54 83 62 84 55 85 61 86
REMARK SMILES IDX 56 87 57 88 58 89 59 90 60 91
REMARK H PARENT 15 9 4 13 81 47 51 58
REMARK Flexibility Score: inf
ROOT
ATOM      1  C   UNL A   1      42.094  20.124  26.405  1.00  0.00     0.261 C 
ENDROOT
BRANCH   1   2
ATOM      2  O   UNL A   1      42.286  18.897  25.682  1.00  0.00    -0.462 OA
BRANCH   2   3
ATOM      3  C   UNL A   1      43.317  18.122  26.117  1.00  0.00     0.325 C 
ATOM      4  O   UNL A   1      43.207  17.162  26.872  1.00  0.00    -0.250 OA
BRANCH   3   5
ATOM      5  C   UNL A   1      44.649  18.474  25.454  1.00  0.00     0.238 C 
BRANCH   5   6
ATOM      6  N   UNL A   1      45.011  19.873  25.285  1.00  0.00    -0.344 N 
ATOM      7  O   UNL A   1      47.130  19.475  24.520  1.00  0.00    -0.273 OA
ATOM      8  C   UNL A   1      46.215  20.260  24.739  1.00  0.00     0.240 C 
ATOM      9  H   UNL A   1      44.373  20.567  25.572  1.00  0.00     0.164 HD
BRANCH   8  10
ATOM     10  C   UNL A   1      46.338  21.767  24.492  1.00  0.00     0.219 C 
BRANCH  10  11
ATOM     11  N   UNL A   1      45.046  22.276  24.049  1.00  0.00    -0.312 N 
ATOM     12  C   UNL A   1      44.061  22.816  24.814  1.00  0.00     0.407 C 
ATOM     13  H   UNL A   1      44.866  22.223  23.083  1.00  0.00     0.167 HD
ATOM     14  O   UNL A   1      42.982  23.123  24.320  1.00  0.00    -0.225 OA
BRANCH  12  15
ATOM     15  O   UNL A   1      44.396  22.929  26.119  1.00  0.00    -0.445 OA
BRANCH  15  16
ATOM     16  C   UNL A   1      44.251  24.245  26.673  1.00  0.00     0.270 C 
BRANCH  16  17
ATOM     17  C   UNL A   1      44.208  24.219  28.181  1.00  0.00    -0.011 A 
ATOM     18  C   UNL A   1      44.932  25.154  28.934  1.00  0.00     0.007 A 
ATOM     19  C   UNL A   1      43.438  23.258  28.853  1.00  0.00     0.007 A 
ATOM     20  C   UNL A   1      44.890  25.124  30.329  1.00  0.00     0.000 A 
ATOM     21  C   UNL A   1      43.397  23.229  30.248  1.00  0.00     0.000 A 
ATOM     22  C   UNL A   1      44.123  24.162  30.986  1.00  0.00     0.000 A 
ENDBRANCH  16  17
ENDBRANCH  15  16
ENDBRANCH  12  15
ENDBRANCH  10  11
ENDBRANCH   8  10
ENDBRANCH   5   6
ENDBRANCH   3   5
ENDBRANCH   2   3
ENDBRANCH   1   2
BRANCH   1  23
ATOM     23  C   UNL A   1      40.654  20.264  26.911  1.00  0.00     0.202 C 
BRANCH  23  24
ATOM     24  O   UNL A   1      39.703  20.878  26.045  1.00  0.00    -0.374 OA
BRANCH  24  25
ATOM     25  C   UNL A   1      39.247  22.192  26.356  1.00  0.00     0.202 C 
BRANCH  25  26
ATOM     26  C   UNL A   1      40.286  23.288  26.639  1.00  0.00     0.261 C 
BRANCH  26  27
ATOM     27  O   UNL A   1      39.870  24.607  26.248  1.00  0.00    -0.460 OA
BRANCH  27  28
ATOM     28  C   UNL A   1      40.885  25.510  26.205  1.00  0.00     0.338 C 
ATOM     29  O   UNL A   1      41.503  25.866  25.214  1.00  0.00    -0.246 OA
BRANCH  28  30
ATOM     30  C   UNL A   1      41.064  26.177  27.508  1.00  0.00     0.060 A 
ATOM     31  C   UNL A   1      40.106  25.915  28.496  1.00  0.00     0.016 A 
ATOM     32  C   UNL A   1      42.053  27.140  27.716  1.00  0.00     0.016 A 
ATOM     33  C   UNL A   1      40.085  26.668  29.665  1.00  0.00     0.010 A 
ATOM     34  C   UNL A   1      42.029  27.897  28.895  1.00  0.00     0.010 A 
ATOM     35  C   UNL A   1      41.014  27.700  29.850  1.00  0.00    -0.014 A 
BRANCH  35  36
ATOM     36  C   UNL A   1      40.801  28.665  30.959  1.00  0.00     0.031 A 
ATOM     37  C   UNL A   1      41.710  28.617  32.161  1.00  0.00     0.074 A 
ATOM     38  C   UNL A   1      39.861  29.623  30.865  1.00  0.00     0.049 A 
ATOM     39  N   UNL A   1      41.728  29.388  33.218  1.00  0.00    -0.248 NA
ATOM     40  C   UNL A   1      42.735  27.559  32.172  1.00  0.00     0.031 C 
ATOM     41  C   UNL A   1      38.949  29.805  29.736  1.00  0.00     0.029 A 
ATOM     42  N   UNL A   1      39.528  30.634  31.732  1.00  0.00    -0.354 N 
ATOM     43  C   UNL A   1      42.756  28.905  34.023  1.00  0.00     0.074 A 
ATOM     44  C   UNL A   1      43.311  27.751  33.351  1.00  0.00     0.031 C 
ATOM     45  C   UNL A   1      38.165  30.870  29.976  1.00  0.00     0.029 A 
ATOM     46  C   UNL A   1      38.495  31.424  31.288  1.00  0.00     0.049 A 
ATOM     47  H   UNL A   1      39.985  30.779  32.592  1.00  0.00     0.167 HD
ATOM     48  C   UNL A   1      43.205  29.384  35.209  1.00  0.00     0.031 A 
ATOM     49  C   UNL A   1      37.875  32.467  31.876  1.00  0.00     0.031 A 
ATOM     50  C   UNL A   1      42.647  30.529  35.879  1.00  0.00     0.049 A 
ATOM     51  C   UNL A   1      38.349  32.939  33.226  1.00  0.00     0.074 A 
ATOM     52  C   UNL A   1      43.045  31.105  37.074  1.00  0.00     0.029 A 
ATOM     53  N   UNL A   1      41.568  31.270  35.420  1.00  0.00    -0.354 N 
ATOM     54  N   UNL A   1      39.341  32.489  33.958  1.00  0.00    -0.248 NA
ATOM     55  C   UNL A   1      37.624  34.069  33.823  1.00  0.00     0.031 C 
ATOM     56  C   UNL A   1      42.165  32.150  37.370  1.00  0.00     0.029 A 
ATOM     57  C   UNL A   1      41.264  32.274  36.325  1.00  0.00     0.049 A 
ATOM     58  H   UNL A   1      41.088  31.105  34.577  1.00  0.00     0.167 HD
ATOM     59  C   UNL A   1      39.374  33.299  35.090  1.00  0.00     0.074 A 
ATOM     60  C   UNL A   1      38.320  34.280  34.931  1.00  0.00     0.031 C 
ATOM     61  C   UNL A   1      40.203  33.237  36.163  1.00  0.00     0.031 A 
BRANCH  48  62
ATOM     62  C   UNL A   1      44.339  28.646  35.876  1.00  0.00    -0.014 A 
ATOM     63  C   UNL A   1      45.682  29.000  35.650  1.00  0.00     0.010 A 
ATOM     64  C   UNL A   1      44.052  27.602  36.776  1.00  0.00     0.010 A 
ATOM     65  C   UNL A   1      46.715  28.301  36.280  1.00  0.00     0.020 A 
ATOM     66  C   UNL A   1      45.081  26.921  37.432  1.00  0.00     0.020 A 
ATOM     67  C   UNL A   1      46.408  27.263  37.166  1.00  0.00     0.054 A 
BRANCH  67  68
ATOM     68  S   UNL A   1      47.769  26.388  37.986  1.00  0.00     0.124 S 
ATOM     69  O   UNL A   1      47.118  25.151  38.412  1.00  0.00    -0.237 OA
ATOM     70  O   UNL A   1      48.748  26.245  36.911  1.00  0.00    -0.237 OA
ATOM     71  O   UNL A   1      48.161  27.289  39.067  1.00  0.00    -0.744 OA
ENDBRANCH  67  68
ENDBRANCH  48  62
BRANCH  49  72
ATOM     72  C   UNL A   1      36.727  33.130  31.197  1.00  0.00    -0.014 A 
ATOM     73  C   UNL A   1      36.933  33.999  30.112  1.00  0.00     0.010 A 
ATOM     74  C   UNL A   1      35.412  32.895  31.642  1.00  0.00     0.010 A 
ATOM     75  C   UNL A   1      35.850  34.636  29.498  1.00  0.00     0.020 A 
ATOM     76  C   UNL A   1      34.325  33.503  31.010  1.00  0.00     0.020 A 
ATOM     77  C   UNL A   1      34.551  34.379  29.948  1.00  0.00     0.054 A 
BRANCH  77  78
ATOM     78  S   UNL A   1      33.159  35.177  29.103  1.00  0.00     0.124 S 
ATOM     79  O   UNL A   1      32.749  34.147  28.152  1.00  0.00    -0.237 OA
ATOM     80  O   UNL A   1      32.230  35.431  30.201  1.00  0.00    -0.237 OA
ATOM     81  O   UNL A   1      33.757  36.372  28.512  1.00  0.00    -0.744 OA
ENDBRANCH  77  78
ENDBRANCH  49  72
BRANCH  61  82
ATOM     82  C   UNL A   1      40.019  34.277  37.240  1.00  0.00    -0.014 A 
ATOM     83  C   UNL A   1      40.404  35.615  37.040  1.00  0.00     0.010 A 
ATOM     84  C   UNL A   1      39.426  33.914  38.464  1.00  0.00     0.010 A 
ATOM     85  C   UNL A   1      40.247  36.557  38.061  1.00  0.00     0.020 A 
ATOM     86  C   UNL A   1      39.235  34.860  39.474  1.00  0.00     0.020 A 
ATOM     87  C   UNL A   1      39.667  36.172  39.273  1.00  0.00     0.054 A 
BRANCH  87  88
ATOM     88  S   UNL A   1      39.461  37.416  40.578  1.00  0.00     0.124 S 
ATOM     89  O   UNL A   1      38.613  36.714  41.536  1.00  0.00    -0.237 OA
ATOM     90  O   UNL A   1      40.836  37.654  41.012  1.00  0.00    -0.237 OA
ATOM     91  O   UNL A   1      38.828  38.539  39.891  1.00  0.00    -0.744 OA
ENDBRANCH  87  88
ENDBRANCH  61  82
ENDBRANCH  35  36
ENDBRANCH  28  30
ENDBRANCH  27  28
ENDBRANCH  26  27
ENDBRANCH  25  26
ENDBRANCH  24  25
ENDBRANCH  23  24
ENDBRANCH   1  23
TORSDOF 23
ENDMDL
MODEL 2
REMARK VINA RESULT:      -8.5      0.664      8.170
REMARK SMILES O=C(CNC(=O)OCc1ccccc1)NCC(=O)OCCOCCOC(=O)c1ccc(-c2c3nc(c(-c4ccc(S(=O)(=O)[O-])cc4)c4ccc([nH]4)c(-c4ccc(S(=O)(=O)[O-])cc4)c4nc(c(-c5ccc(S(=O)(=O)[O-])cc5)c5ccc2[nH]5)C=C4)C=C3)cc1
REMARK SMILES IDX 20 1 19 2 17 3 18 4 16 5 15 6 1 7 2 8 3 10 4 11 5 12 6 14
REMARK SMILES IDX 7 15 8 16 9 17 10 18 14 19 11 20 13 21 12 22 21 23 22 24
REMARK SMILES IDX 23 25 24 26 25 27 26 28 27 29 28 30 29 31 87 32 30 33 86 34
REMARK SMILES IDX 31 35 32 36 33 37 80 38 34 39 85 40 79 41 81 42 35 43 84 44
REMARK SMILES IDX 78 45 77 46 36 48 66 49 47 50 65 51 48 52 51 53 64 54 82 55
REMARK SMILES IDX 49 56 50 57 63 59 83 60 52 61 37 62 38 63 46 64 39 65 45 66
REMARK SMILES IDX 40 67 41 68 42 69 43 70 44 71 67 72 68 73 76 74 69 75 75 76
REMARK SMILES IDX 70 77 71 78 72 79 73 80 74 81 53 82 54 83 62 84 55 85 61 86
REMARK SMILES IDX 56 87 57 88 58 89 59 90 60 91
REMARK H PARENT 15 9 4 13 81 47 51 58
REMARK Flexibility Score: inf
ROOT
ATOM      1  C   UNL A   1      41.684  20.075  25.939  1.00  0.00     0.261 C 
ENDROOT
BRANCH   1   2
ATOM      2  O   UNL A   1      41.883  18.653  25.865  1.00  0.00    -0.462 OA
BRANCH   2   3
ATOM      3  C   UNL A   1      43.072  18.206  26.355  1.00  0.00     0.325 C 
ATOM      4  O   UNL A   1      43.206  17.525  27.366  1.00  0.00    -0.250 OA
BRANCH   3   5
ATOM      5  C   UNL A   1      44.250  18.518  25.433  1.00  0.00     0.238 C 
BRANCH   5   6
ATOM      6  N   UNL A   1      44.760  19.879  25.364  1.00  0.00    -0.344 N 
ATOM      7  O   UNL A   1      46.951  19.293  25.064  1.00  0.00    -0.273 OA
ATOM      8  C   UNL A   1      46.082  20.157  25.093  1.00  0.00     0.240 C 
ATOM      9  H   UNL A   1      44.138  20.627  25.518  1.00  0.00     0.164 HD
BRANCH   8  10
ATOM     10  C   UNL A   1      46.384  21.646  24.899  1.00  0.00     0.219 C 
BRANCH  10  11
ATOM     11  N   UNL A   1      45.234  22.279  24.267  1.00  0.00    -0.312 N 
ATOM     12  C   UNL A   1      44.140  22.808  24.875  1.00  0.00     0.407 C 
ATOM     13  H   UNL A   1      45.252  22.330  23.284  1.00  0.00     0.167 HD
ATOM     14  O   UNL A   1      43.199  23.231  24.212  1.00  0.00    -0.225 OA
BRANCH  12  15
ATOM     15  O   UNL A   1      44.207  22.774  26.224  1.00  0.00    -0.445 OA
BRANCH  15  16
ATOM     16  C   UNL A   1      43.714  23.947  26.889  1.00  0.00     0.270 C 
BRANCH  16  17
ATOM     17  C   UNL A   1      44.767  24.583  27.763  1.00  0.00    -0.011 A 
ATOM     18  C   UNL A   1      46.034  24.889  27.248  1.00  0.00     0.007 A 
ATOM     19  C   UNL A   1      44.491  24.880  29.105  1.00  0.00     0.007 A 
ATOM     20  C   UNL A   1      47.005  25.476  28.062  1.00  0.00     0.000 A 
ATOM     21  C   UNL A   1      45.462  25.466  29.918  1.00  0.00     0.000 A 
ATOM     22  C   UNL A   1      46.719  25.764  29.396  1.00  0.00     0.000 A 
ENDBRANCH  16  17
ENDBRANCH  15  16
ENDBRANCH  12  15
ENDBRANCH  10  11
ENDBRANCH   8  10
ENDBRANCH   5   6
ENDBRANCH   3   5
ENDBRANCH   2   3
ENDBRANCH   1   2
BRANCH   1  23
ATOM     23  C   UNL A   1      40.441  20.432  26.760  1.00  0.00     0.202 C 
BRANCH  23  24
ATOM     24  O   UNL A   1      39.408  21.171  26.112  1.00  0.00    -0.374 OA
BRANCH  24  25
ATOM     25  C   UNL A   1      39.187  22.522  26.506  1.00  0.00     0.202 C 
BRANCH  25  26
ATOM     26  C   UNL A   1      40.329  23.537  26.341  1.00  0.00     0.261 C 
BRANCH  26  27
ATOM     27  O   UNL A   1      39.892  24.904  26.260  1.00  0.00    -0.460 OA
BRANCH  27  28
ATOM     28  C   UNL A   1      40.911  25.800  26.185  1.00  0.00     0.338 C 
ATOM     29  O   UNL A   1      41.467  26.189  25.171  1.00  0.00    -0.246 OA
BRANCH  28  30
ATOM     30  C   UNL A   1      41.181  26.414  27.498  1.00  0.00     0.060 A 
ATOM     31  C   UNL A   1      40.304  26.098  28.543  1.00  0.00     0.016 A 
ATOM     32  C   UNL A   1      42.173  27.381  27.672  1.00  0.00     0.016 A 
ATOM     33  C   UNL A   1      40.364  26.801  29.742  1.00  0.00     0.010 A 
ATOM     34  C   UNL A   1      42.231  28.088  28.881  1.00  0.00     0.010 A 
ATOM     35  C   UNL A   1      41.294  27.837  29.901  1.00  0.00    -0.014 A 
BRANCH  35  36
ATOM     36  C   UNL A   1      41.155  28.752  31.063  1.00  0.00     0.031 A 
ATOM     37  C   UNL A   1      40.062  29.791  31.055  1.00  0.00     0.074 A 
ATOM     38  C   UNL A   1      41.939  28.610  32.147  1.00  0.00     0.049 A 
ATOM     39  N   UNL A   1      39.737  30.659  31.978  1.00  0.00    -0.248 NA
ATOM     40  C   UNL A   1      39.224  29.859  29.845  1.00  0.00     0.031 C 
ATOM     41  C   UNL A   1      43.002  27.616  32.297  1.00  0.00     0.029 A 
ATOM     42  N   UNL A   1      41.954  29.299  33.334  1.00  0.00    -0.354 N 
ATOM     43  C   UNL A   1      38.667  31.382  31.460  1.00  0.00     0.074 A 
ATOM     44  C   UNL A   1      38.423  30.877  30.127  1.00  0.00     0.031 C 
ATOM     45  C   UNL A   1      43.559  27.754  33.512  1.00  0.00     0.029 A 
ATOM     46  C   UNL A   1      42.918  28.866  34.212  1.00  0.00     0.049 A 
ATOM     47  H   UNL A   1      41.333  30.035  33.538  1.00  0.00     0.167 HD
ATOM     48  C   UNL A   1      37.945  32.369  32.044  1.00  0.00     0.031 A 
ATOM     49  C   UNL A   1      43.257  29.320  35.435  1.00  0.00     0.031 A 
ATOM     50  C   UNL A   1      38.192  32.875  33.368  1.00  0.00     0.049 A 
ATOM     51  C   UNL A   1      42.482  30.464  36.035  1.00  0.00     0.074 A 
ATOM     52  C   UNL A   1      37.503  33.859  34.057  1.00  0.00     0.029 A 
ATOM     53  N   UNL A   1      39.211  32.443  34.204  1.00  0.00    -0.354 N 
ATOM     54  N   UNL A   1      41.454  31.115  35.543  1.00  0.00    -0.248 NA
ATOM     55  C   UNL A   1      42.907  30.926  37.364  1.00  0.00     0.031 C 
ATOM     56  C   UNL A   1      38.147  34.069  35.280  1.00  0.00     0.029 A 
ATOM     57  C   UNL A   1      39.192  33.166  35.387  1.00  0.00     0.049 A 
ATOM     58  H   UNL A   1      39.854  31.730  33.989  1.00  0.00     0.167 HD
ATOM     59  C   UNL A   1      41.095  32.046  36.514  1.00  0.00     0.074 A 
ATOM     60  C   UNL A   1      41.999  31.855  37.630  1.00  0.00     0.031 C 
ATOM     61  C   UNL A   1      40.106  32.975  36.486  1.00  0.00     0.031 A 
BRANCH  48  62
ATOM     62  C   UNL A   1      36.835  32.994  31.235  1.00  0.00    -0.014 A 
ATOM     63  C   UNL A   1      37.065  33.511  29.946  1.00  0.00     0.010 A 
ATOM     64  C   UNL A   1      35.530  33.030  31.760  1.00  0.00     0.010 A 
ATOM     65  C   UNL A   1      36.020  34.085  29.216  1.00  0.00     0.020 A 
ATOM     66  C   UNL A   1      34.475  33.575  31.020  1.00  0.00     0.020 A 
ATOM     67  C   UNL A   1      34.731  34.115  29.759  1.00  0.00     0.054 A 
BRANCH  67  68
ATOM     68  S   UNL A   1      33.392  34.846  28.780  1.00  0.00     0.124 S 
ATOM     69  O   UNL A   1      32.372  35.089  29.798  1.00  0.00    -0.237 OA
ATOM     70  O   UNL A   1      34.021  36.041  28.223  1.00  0.00    -0.237 OA
ATOM     71  O   UNL A   1      33.064  33.807  27.807  1.00  0.00    -0.744 OA
ENDBRANCH  67  68
ENDBRANCH  48  62
BRANCH  49  72
ATOM     72  C   UNL A   1      44.394  28.701  36.171  1.00  0.00    -0.014 A 
ATOM     73  C   UNL A   1      44.186  27.624  37.050  1.00  0.00     0.010 A 
ATOM     74  C   UNL A   1      45.701  29.196  35.997  1.00  0.00     0.010 A 
ATOM     75  C   UNL A   1      45.257  27.067  37.755  1.00  0.00     0.020 A 
ATOM     76  C   UNL A   1      46.778  28.621  36.675  1.00  0.00     0.020 A 
ATOM     77  C   UNL A   1      46.548  27.566  37.558  1.00  0.00     0.054 A 
BRANCH  77  78
ATOM     78  S   UNL A   1      47.929  26.794  38.446  1.00  0.00     0.124 S 
ATOM     79  O   UNL A   1      48.925  26.643  37.388  1.00  0.00    -0.237 OA
ATOM     80  O   UNL A   1      48.239  27.788  39.470  1.00  0.00    -0.237 OA
ATOM     81  O   UNL A   1      47.357  25.548  38.949  1.00  0.00    -0.744 OA
ENDBRANCH  77  78
ENDBRANCH  49  72
BRANCH  61  82
ATOM     82  C   UNL A   1      39.933  33.840  37.709  1.00  0.00    -0.014 A 
ATOM     83  C   UNL A   1      40.494  35.128  37.782  1.00  0.00     0.010 A 
ATOM     84  C   UNL A   1      39.173  33.365  38.795  1.00  0.00     0.010 A 
ATOM     85  C   UNL A   1      40.343  35.902  38.936  1.00  0.00     0.020 A 
ATOM     86  C   UNL A   1      38.989  34.150  39.936  1.00  0.00     0.020 A 
ATOM     87  C   UNL A   1      39.594  35.406  40.007  1.00  0.00     0.054 A 
BRANCH  87  88
ATOM     88  S   UNL A   1      39.400  36.436  41.489  1.00  0.00     0.124 S 
ATOM     89  O   UNL A   1      38.141  35.941  42.040  1.00  0.00    -0.237 OA
ATOM     90  O   UNL A   1      40.595  36.111  42.263  1.00  0.00    -0.237 OA
ATOM     91  O   UNL A   1      39.356  37.798  40.962  1.00  0.00    -0.744 OA
ENDBRANCH  87  88
ENDBRANCH  61  82
ENDBRANCH  35  36
ENDBRANCH  28  30
ENDBRANCH  27  28
ENDBRANCH  26  27
ENDBRANCH  25  26
ENDBRANCH  24  25
ENDBRANCH  23  24
ENDBRANCH   1  23
TORSDOF 23
ENDMDL
MODEL 3
REMARK VINA RESULT:      -8.5      3.721      5.890
REMARK SMILES O=C(CNC(=O)OCc1ccccc1)NCC(=O)OCCOCCOC(=O)c1ccc(-c2c3nc(c(-c4ccc(S(=O)(=O)[O-])cc4)c4ccc([nH]4)c(-c4ccc(S(=O)(=O)[O-])cc4)c4nc(c(-c5ccc(S(=O)(=O)[O-])cc5)c5ccc2[nH]5)C=C4)C=C3)cc1
REMARK SMILES IDX 20 1 19 2 17 3 18 4 16 5 15 6 1 7 2 8 3 10 4 11 5 12 6 14
REMARK SMILES IDX 7 15 8 16 9 17 10 18 14 19 11 20 13 21 12 22 21 23 22 24
REMARK SMILES IDX 23 25 24 26 25 27 26 28 27 29 28 30 29 31 87 32 30 33 86 34
REMARK SMILES IDX 31 35 32 36 33 37 80 38 34 39 85 40 79 41 81 42 35 43 84 44
REMARK SMILES IDX 78 45 77 46 36 48 66 49 47 50 65 51 48 52 51 53 64 54 82 55
REMARK SMILES IDX 49 56 50 57 63 59 83 60 52 61 37 62 38 63 46 64 39 65 45 66
REMARK SMILES IDX 40 67 41 68 42 69 43 70 44 71 67 72 68 73 76 74 69 75 75 76
REMARK SMILES IDX 70 77 71 78 72 79 73 80 74 81 53 82 54 83 62 84 55 85 61 86
REMARK SMILES IDX 56 87 57 88 58 89 59 90 60 91
REMARK H PARENT 15 9 4 13 81 47 51 58
REMARK Flexibility Score: inf
ROOT
ATOM      1  C   UNL A   1      37.077  23.393  26.175  1.00  0.00     0.261 C 
ENDROOT
BRANCH   1   2
ATOM      2  O   UNL A   1      35.703  23.699  25.883  1.00  0.00    -0.462 OA
BRANCH   2   3
ATOM      3  C   UNL A   1      34.788  22.872  26.460  1.00  0.00     0.325 C 
ATOM      4  O   UNL A   1      34.605  22.757  27.667  1.00  0.00    -0.250 OA
BRANCH   3   5
ATOM      5  C   UNL A   1      33.884  22.180  25.440  1.00  0.00     0.238 C 
BRANCH   5   6
ATOM      6  N   UNL A   1      33.124  22.989  24.498  1.00  0.00    -0.344 N 
ATOM      7  O   UNL A   1      32.104  21.229  23.450  1.00  0.00    -0.273 OA
ATOM      8  C   UNL A   1      32.214  22.438  23.623  1.00  0.00     0.240 C 
ATOM      9  H   UNL A   1      33.267  23.963  24.487  1.00  0.00     0.164 HD
BRANCH   8  10
ATOM     10  C   UNL A   1      31.399  23.467  22.834  1.00  0.00     0.219 C 
BRANCH  10  11
ATOM     11  N   UNL A   1      32.295  24.189  21.939  1.00  0.00    -0.312 N 
ATOM     12  C   UNL A   1      32.854  25.411  22.134  1.00  0.00     0.407 C 
ATOM     13  H   UNL A   1      32.521  23.737  21.095  1.00  0.00     0.167 HD
ATOM     14  O   UNL A   1      33.521  25.942  21.253  1.00  0.00    -0.225 OA
BRANCH  12  15
ATOM     15  O   UNL A   1      32.564  25.947  23.340  1.00  0.00    -0.445 OA
BRANCH  15  16
ATOM     16  C   UNL A   1      33.661  26.605  23.994  1.00  0.00     0.270 C 
BRANCH  16  17
ATOM     17  C   UNL A   1      33.206  27.401  25.192  1.00  0.00    -0.011 A 
ATOM     18  C   UNL A   1      34.134  27.868  26.134  1.00  0.00     0.007 A 
ATOM     19  C   UNL A   1      31.847  27.689  25.379  1.00  0.00     0.007 A 
ATOM     20  C   UNL A   1      33.707  28.604  27.241  1.00  0.00     0.000 A 
ATOM     21  C   UNL A   1      31.422  28.424  26.487  1.00  0.00     0.000 A 
ATOM     22  C   UNL A   1      32.352  28.881  27.418  1.00  0.00     0.000 A 
ENDBRANCH  16  17
ENDBRANCH  15  16
ENDBRANCH  12  15
ENDBRANCH  10  11
ENDBRANCH   8  10
ENDBRANCH   5   6
ENDBRANCH   3   5
ENDBRANCH   2   3
ENDBRANCH   1   2
BRANCH   1  23
ATOM     23  C   UNL A   1      37.436  21.960  25.769  1.00  0.00     0.202 C 
BRANCH  23  24
ATOM     24  O   UNL A   1      38.800  21.681  25.460  1.00  0.00    -0.374 OA
BRANCH  24  25
ATOM     25  C   UNL A   1      39.776  21.827  26.488  1.00  0.00     0.202 C 
BRANCH  25  26
ATOM     26  C   UNL A   1      41.056  22.622  26.185  1.00  0.00     0.261 C 
BRANCH  26  27
ATOM     27  O   UNL A   1      41.534  23.407  27.289  1.00  0.00    -0.460 OA
BRANCH  27  28
ATOM     28  C   UNL A   1      42.142  24.564  26.914  1.00  0.00     0.338 C 
ATOM     29  O   UNL A   1      42.914  24.713  25.980  1.00  0.00    -0.246 OA
BRANCH  28  30
ATOM     30  C   UNL A   1      41.622  25.714  27.677  1.00  0.00     0.060 A 
ATOM     31  C   UNL A   1      42.459  26.831  27.796  1.00  0.00     0.016 A 
ATOM     32  C   UNL A   1      40.416  25.652  28.377  1.00  0.00     0.016 A 
ATOM     33  C   UNL A   1      42.131  27.858  28.675  1.00  0.00     0.010 A 
ATOM     34  C   UNL A   1      40.089  26.688  29.262  1.00  0.00     0.010 A 
ATOM     35  C   UNL A   1      40.969  27.770  29.454  1.00  0.00    -0.014 A 
BRANCH  35  36
ATOM     36  C   UNL A   1      40.785  28.724  30.577  1.00  0.00     0.031 A 
ATOM     37  C   UNL A   1      41.708  28.646  31.767  1.00  0.00     0.074 A 
ATOM     38  C   UNL A   1      39.862  29.700  30.505  1.00  0.00     0.049 A 
ATOM     39  N   UNL A   1      41.751  29.403  32.833  1.00  0.00    -0.248 NA
ATOM     40  C   UNL A   1      42.714  27.571  31.754  1.00  0.00     0.031 C 
ATOM     41  C   UNL A   1      38.940  29.912  29.389  1.00  0.00     0.029 A 
ATOM     42  N   UNL A   1      39.556  30.706  31.388  1.00  0.00    -0.354 N 
ATOM     43  C   UNL A   1      42.779  28.893  33.620  1.00  0.00     0.074 A 
ATOM     44  C   UNL A   1      43.306  27.738  32.928  1.00  0.00     0.031 C 
ATOM     45  C   UNL A   1      38.177  30.986  29.651  1.00  0.00     0.029 A 
ATOM     46  C   UNL A   1      38.532  31.519  30.966  1.00  0.00     0.049 A 
ATOM     47  H   UNL A   1      40.025  30.833  32.244  1.00  0.00     0.167 HD
ATOM     48  C   UNL A   1      43.250  29.350  34.806  1.00  0.00     0.031 A 
ATOM     49  C   UNL A   1      37.937  32.565  31.573  1.00  0.00     0.031 A 
ATOM     50  C   UNL A   1      42.720  30.496  35.497  1.00  0.00     0.049 A 
ATOM     51  C   UNL A   1      38.434  33.012  32.923  1.00  0.00     0.074 A 
ATOM     52  C   UNL A   1      43.141  31.050  36.694  1.00  0.00     0.029 A 
ATOM     53  N   UNL A   1      41.649  31.261  35.059  1.00  0.00    -0.354 N 
ATOM     54  N   UNL A   1      39.427  32.537  33.638  1.00  0.00    -0.248 NA
ATOM     55  C   UNL A   1      37.736  34.148  33.542  1.00  0.00     0.031 C 
ATOM     56  C   UNL A   1      42.282  32.107  37.013  1.00  0.00     0.029 A 
ATOM     57  C   UNL A   1      41.372  32.259  35.980  1.00  0.00     0.049 A 
ATOM     58  H   UNL A   1      41.157  31.115  34.220  1.00  0.00     0.167 HD
ATOM     59  C   UNL A   1      39.487  33.332  34.779  1.00  0.00     0.074 A 
ATOM     60  C   UNL A   1      38.448  34.333  34.645  1.00  0.00     0.031 C 
ATOM     61  C   UNL A   1      40.326  33.242  35.842  1.00  0.00     0.031 A 
BRANCH  48  62
ATOM     62  C   UNL A   1      44.378  28.583  35.452  1.00  0.00    -0.014 A 
ATOM     63  C   UNL A   1      45.724  28.922  35.220  1.00  0.00     0.010 A 
ATOM     64  C   UNL A   1      44.083  27.530  36.336  1.00  0.00     0.010 A 
ATOM     65  C   UNL A   1      46.752  28.197  35.830  1.00  0.00     0.020 A 
ATOM     66  C   UNL A   1      45.108  26.822  36.973  1.00  0.00     0.020 A 
ATOM     67  C   UNL A   1      46.437  27.150  36.701  1.00  0.00     0.054 A 
BRANCH  67  68
ATOM     68  S   UNL A   1      47.791  26.241  37.494  1.00  0.00     0.124 S 
ATOM     69  O   UNL A   1      48.590  27.324  38.061  1.00  0.00    -0.237 OA
ATOM     70  O   UNL A   1      47.088  25.404  38.464  1.00  0.00    -0.237 OA
ATOM     71  O   UNL A   1      48.418  25.517  36.390  1.00  0.00    -0.744 OA
ENDBRANCH  67  68
ENDBRANCH  48  62
BRANCH  49  72
ATOM     72  C   UNL A   1      36.793  33.256  30.915  1.00  0.00    -0.014 A 
ATOM     73  C   UNL A   1      36.962  33.932  29.694  1.00  0.00     0.010 A 
ATOM     74  C   UNL A   1      35.520  33.244  31.517  1.00  0.00     0.010 A 
ATOM     75  C   UNL A   1      35.888  34.599  29.098  1.00  0.00     0.020 A 
ATOM     76  C   UNL A   1      34.436  33.881  30.908  1.00  0.00     0.020 A 
ATOM     77  C   UNL A   1      34.629  34.564  29.707  1.00  0.00     0.054 A 
BRANCH  77  78
ATOM     78  S   UNL A   1      33.239  35.393  28.889  1.00  0.00     0.124 S 
ATOM     79  O   UNL A   1      33.917  36.419  28.101  1.00  0.00    -0.237 OA
ATOM     80  O   UNL A   1      32.631  34.306  28.125  1.00  0.00    -0.237 OA
ATOM     81  O   UNL A   1      32.434  35.890  30.002  1.00  0.00    -0.744 OA
ENDBRANCH  77  78
ENDBRANCH  49  72
BRANCH  61  82
ATOM     82  C   UNL A   1      40.173  34.272  36.933  1.00  0.00    -0.014 A 
ATOM     83  C   UNL A   1      39.397  34.016  38.078  1.00  0.00     0.010 A 
ATOM     84  C   UNL A   1      40.838  35.507  36.823  1.00  0.00     0.010 A 
ATOM     85  C   UNL A   1      39.248  34.994  39.066  1.00  0.00     0.020 A 
ATOM     86  C   UNL A   1      40.722  36.474  37.825  1.00  0.00     0.020 A 
ATOM     87  C   UNL A   1      39.909  36.219  38.931  1.00  0.00     0.054 A 
BRANCH  87  88
ATOM     88  S   UNL A   1      39.711  37.466  40.233  1.00  0.00     0.124 S 
ATOM     89  O   UNL A   1      40.227  36.765  41.406  1.00  0.00    -0.237 OA
ATOM     90  O   UNL A   1      40.537  38.569  39.747  1.00  0.00    -0.237 OA
ATOM     91  O   UNL A   1      38.275  37.730  40.247  1.00  0.00    -0.744 OA
ENDBRANCH  87  88
ENDBRANCH  61  82
ENDBRANCH  35  36
ENDBRANCH  28  30
ENDBRANCH  27  28
ENDBRANCH  26  27
ENDBRANCH  25  26
ENDBRANCH  24  25
ENDBRANCH  23  24
ENDBRANCH   1  23
TORSDOF 23
ENDMDL
