MODEL 1
REMARK VINA RESULT:     -11.9      0.000      0.000
REMARK SMILES C[C@@H]1C(C(=O)OCCOCCOC(=O)c2ccc(-c3c4nc(c(-c5ccc(S(=O)(=O)[O-])cc5)c5ccc([nH]5)c(-c5ccc(S(=O)(=O)[O-])cc5)c5nc(c(-c6ccc(S(=O)(=O)[O-])cc6)c6ccc3[nH]6)C=C5)C=C4)cc2)=NC2=C1C(=O)C[C@H](c1ccccc1)C2
REMARK SMILES IDX 10 1 9 2 8 3 7 4 6 5 4 6 5 7 3 8 1 9 2 10 77 11 75 12 76 13
REMARK SMILES IDX 78 14 88 15 79 16 80 17 81 18 82 19 83 20 87 21 84 22 86 23
REMARK SMILES IDX 85 24 11 25 12 26 13 27 14 28 15 29 16 30 74 31 17 32 73 33
REMARK SMILES IDX 18 34 19 35 20 36 67 37 21 38 72 39 66 40 68 41 22 42 71 43
REMARK SMILES IDX 65 44 64 45 23 47 53 48 34 49 52 50 35 51 38 52 51 53 69 54
REMARK SMILES IDX 36 55 37 56 50 58 70 59 39 60 24 61 25 62 33 63 26 64 32 65
REMARK SMILES IDX 27 66 28 67 29 68 30 69 31 70 54 71 55 72 63 73 56 74 62 75
REMARK SMILES IDX 57 76 58 77 59 78 60 79 61 80 40 81 41 82 49 83 42 84 48 85
REMARK SMILES IDX 43 86 44 87 45 88 46 89 47 90
REMARK H PARENT 68 46 38 57
REMARK Flexibility Score: inf
ROOT
ATOM      1  C   UNL A   1      36.516  23.070  25.427  1.00  0.00     0.202 C 
ENDROOT
BRANCH   1   2
ATOM      2  O   UNL A   1      35.220  22.481  25.403  1.00  0.00    -0.374 OA
BRANCH   2   3
ATOM      3  C   UNL A   1      34.786  21.985  26.669  1.00  0.00     0.202 C 
BRANCH   3   4
ATOM      4  C   UNL A   1      33.410  22.551  27.040  1.00  0.00     0.261 C 
BRANCH   4   5
ATOM      5  O   UNL A   1      33.114  23.708  26.225  1.00  0.00    -0.459 OA
BRANCH   5   6
ATOM      6  C   UNL A   1      31.880  24.253  26.344  1.00  0.00     0.353 C 
ATOM      7  O   UNL A   1      31.190  24.311  27.343  1.00  0.00    -0.245 OA
BRANCH   6   8
ATOM      8  C   UNL A   1      31.539  24.984  25.046  1.00  0.00     0.133 C 
ATOM      9  C   UNL A   1      31.184  23.490  23.113  1.00  0.00     0.020 C 
ATOM     10  C   UNL A   1      32.130  24.514  23.734  1.00  0.00     0.078 C 
ATOM     11  C   UNL A   1      31.991  25.853  23.107  1.00  0.00     0.026 C 
ATOM     12  N   UNL A   1      30.796  26.065  24.989  1.00  0.00    -0.249 NA
ATOM     13  C   UNL A   1      31.094  26.596  23.754  1.00  0.00     0.049 C 
ATOM     14  C   UNL A   1      32.965  26.533  22.250  1.00  0.00     0.161 C 
ATOM     15  C   UNL A   1      30.833  28.017  23.360  1.00  0.00     0.065 C 
ATOM     16  O   UNL A   1      33.646  25.866  21.476  1.00  0.00    -0.294 OA
ATOM     17  C   UNL A   1      33.177  28.046  22.438  1.00  0.00     0.089 C 
ATOM     18  C   UNL A   1      32.164  28.793  23.373  1.00  0.00     0.033 C 
BRANCH  18  19
ATOM     19  C   UNL A   1      32.655  29.137  24.792  1.00  0.00    -0.044 A 
ATOM     20  C   UNL A   1      31.944  30.013  25.640  1.00  0.00     0.004 A 
ATOM     21  C   UNL A   1      33.861  28.624  25.292  1.00  0.00     0.004 A 
ATOM     22  C   UNL A   1      32.323  30.238  26.965  1.00  0.00     0.000 A 
ATOM     23  C   UNL A   1      34.249  28.855  26.623  1.00  0.00     0.000 A 
ATOM     24  C   UNL A   1      33.460  29.629  27.470  1.00  0.00     0.000 A 
ENDBRANCH  18  19
ENDBRANCH   6   8
ENDBRANCH   5   6
ENDBRANCH   4   5
ENDBRANCH   3   4
ENDBRANCH   2   3
ENDBRANCH   1   2
BRANCH   1  25
ATOM     25  C   UNL A   1      37.584  22.059  25.774  1.00  0.00     0.261 C 
BRANCH  25  26
ATOM     26  O   UNL A   1      38.828  22.728  25.730  1.00  0.00    -0.460 OA
BRANCH  26  27
ATOM     27  C   UNL A   1      39.778  22.470  26.637  1.00  0.00     0.338 C 
ATOM     28  O   UNL A   1      39.987  21.434  27.256  1.00  0.00    -0.246 OA
BRANCH  27  29
ATOM     29  C   UNL A   1      40.381  23.786  26.852  1.00  0.00     0.060 A 
ATOM     30  C   UNL A   1      41.529  23.846  27.639  1.00  0.00     0.016 A 
ATOM     31  C   UNL A   1      39.593  24.921  26.581  1.00  0.00     0.016 A 
ATOM     32  C   UNL A   1      41.774  25.014  28.331  1.00  0.00     0.010 A 
ATOM     33  C   UNL A   1      39.775  26.033  27.350  1.00  0.00     0.010 A 
ATOM     34  C   UNL A   1      40.841  26.052  28.244  1.00  0.00    -0.014 A 
BRANCH  34  35
ATOM     35  C   UNL A   1      41.065  27.274  28.979  1.00  0.00     0.031 A 
ATOM     36  C   UNL A   1      42.197  28.040  28.417  1.00  0.00     0.074 A 
ATOM     37  C   UNL A   1      40.198  27.740  29.892  1.00  0.00     0.049 A 
ATOM     38  N   UNL A   1      43.420  28.063  28.835  1.00  0.00    -0.248 NA
ATOM     39  C   UNL A   1      42.012  28.607  27.065  1.00  0.00     0.031 C 
ATOM     40  C   UNL A   1      38.866  27.221  30.213  1.00  0.00     0.029 A 
ATOM     41  N   UNL A   1      40.285  28.868  30.640  1.00  0.00    -0.354 N 
ATOM     42  C   UNL A   1      44.074  28.882  27.923  1.00  0.00     0.074 A 
ATOM     43  C   UNL A   1      43.276  28.856  26.729  1.00  0.00     0.031 C 
ATOM     44  C   UNL A   1      38.190  28.154  30.924  1.00  0.00     0.029 A 
ATOM     45  C   UNL A   1      39.082  29.269  31.205  1.00  0.00     0.049 A 
ATOM     46  H   UNL A   1      41.128  29.361  30.771  1.00  0.00     0.167 HD
ATOM     47  C   UNL A   1      44.943  29.846  28.336  1.00  0.00     0.031 A 
ATOM     48  C   UNL A   1      38.839  30.472  31.782  1.00  0.00     0.031 A 
ATOM     49  C   UNL A   1      45.300  29.659  29.721  1.00  0.00     0.049 A 
ATOM     50  C   UNL A   1      40.156  31.085  32.096  1.00  0.00     0.074 A 
ATOM     51  C   UNL A   1      45.951  28.688  30.452  1.00  0.00     0.029 A 
ATOM     52  N   UNL A   1      44.577  30.420  30.611  1.00  0.00    -0.354 N 
ATOM     53  N   UNL A   1      40.988  30.594  32.972  1.00  0.00    -0.248 NA
ATOM     54  C   UNL A   1      40.740  32.034  31.156  1.00  0.00     0.031 C 
ATOM     55  C   UNL A   1      45.355  28.717  31.747  1.00  0.00     0.029 A 
ATOM     56  C   UNL A   1      44.393  29.729  31.778  1.00  0.00     0.049 A 
ATOM     57  H   UNL A   1      44.243  31.328  30.434  1.00  0.00     0.167 HD
ATOM     58  C   UNL A   1      42.246  30.831  32.440  1.00  0.00     0.074 A 
ATOM     59  C   UNL A   1      42.038  31.848  31.416  1.00  0.00     0.031 C 
ATOM     60  C   UNL A   1      43.275  29.963  32.675  1.00  0.00     0.031 A 
BRANCH  47  61
ATOM     61  C   UNL A   1      45.035  31.217  27.681  1.00  0.00    -0.014 A 
ATOM     62  C   UNL A   1      46.284  31.631  27.180  1.00  0.00     0.010 A 
ATOM     63  C   UNL A   1      44.042  32.214  27.790  1.00  0.00     0.010 A 
ATOM     64  C   UNL A   1      46.550  32.980  26.906  1.00  0.00     0.020 A 
ATOM     65  C   UNL A   1      44.280  33.552  27.484  1.00  0.00     0.020 A 
ATOM     66  C   UNL A   1      45.547  33.934  27.081  1.00  0.00     0.054 A 
BRANCH  66  67
ATOM     67  S   UNL A   1      45.924  35.686  26.856  1.00  0.00     0.124 S 
ATOM     68  O   UNL A   1      46.660  35.671  25.596  1.00  0.00    -0.237 OA
ATOM     69  O   UNL A   1      44.592  36.282  26.812  1.00  0.00    -0.237 OA
ATOM     70  O   UNL A   1      46.713  36.020  28.040  1.00  0.00    -0.744 OA
ENDBRANCH  66  67
ENDBRANCH  47  61
BRANCH  48  71
ATOM     71  C   UNL A   1      37.575  31.248  31.809  1.00  0.00    -0.014 A 
ATOM     72  C   UNL A   1      36.897  31.474  33.022  1.00  0.00     0.010 A 
ATOM     73  C   UNL A   1      37.184  32.005  30.687  1.00  0.00     0.010 A 
ATOM     74  C   UNL A   1      35.916  32.473  33.125  1.00  0.00     0.020 A 
ATOM     75  C   UNL A   1      36.199  32.995  30.780  1.00  0.00     0.020 A 
ATOM     76  C   UNL A   1      35.589  33.243  32.007  1.00  0.00     0.054 A 
BRANCH  76  77
ATOM     77  S   UNL A   1      34.460  34.656  32.196  1.00  0.00     0.124 S 
ATOM     78  O   UNL A   1      35.265  35.597  32.967  1.00  0.00    -0.237 OA
ATOM     79  O   UNL A   1      34.193  35.037  30.812  1.00  0.00    -0.237 OA
ATOM     80  O   UNL A   1      33.317  34.089  32.910  1.00  0.00    -0.744 OA
ENDBRANCH  76  77
ENDBRANCH  48  71
BRANCH  60  81
ATOM     81  C   UNL A   1      43.153  29.038  33.860  1.00  0.00    -0.014 A 
ATOM     82  C   UNL A   1      43.521  29.385  35.175  1.00  0.00     0.010 A 
ATOM     83  C   UNL A   1      42.530  27.798  33.639  1.00  0.00     0.010 A 
ATOM     84  C   UNL A   1      43.288  28.497  36.236  1.00  0.00     0.020 A 
ATOM     85  C   UNL A   1      42.280  26.919  34.693  1.00  0.00     0.020 A 
ATOM     86  C   UNL A   1      42.669  27.268  35.987  1.00  0.00     0.054 A 
BRANCH  86  87
ATOM     87  S   UNL A   1      42.327  26.142  37.367  1.00  0.00     0.124 S 
ATOM     88  O   UNL A   1      43.258  26.605  38.393  1.00  0.00    -0.237 OA
ATOM     89  O   UNL A   1      40.913  26.386  37.643  1.00  0.00    -0.237 OA
ATOM     90  O   UNL A   1      42.621  24.819  36.818  1.00  0.00    -0.744 OA
ENDBRANCH  86  87
ENDBRANCH  60  81
ENDBRANCH  34  35
ENDBRANCH  27  29
ENDBRANCH  26  27
ENDBRANCH  25  26
ENDBRANCH   1  25
TORSDOF 18
ENDMDL
MODEL 2
REMARK VINA RESULT:     -11.8      2.553      9.191
REMARK SMILES C[C@@H]1C(C(=O)OCCOCCOC(=O)c2ccc(-c3c4nc(c(-c5ccc(S(=O)(=O)[O-])cc5)c5ccc([nH]5)c(-c5ccc(S(=O)(=O)[O-])cc5)c5nc(c(-c6ccc(S(=O)(=O)[O-])cc6)c6ccc3[nH]6)C=C5)C=C4)cc2)=NC2=C1C(=O)C[C@H](c1ccccc1)C2
REMARK SMILES IDX 10 1 9 2 8 3 7 4 6 5 4 6 5 7 3 8 1 9 2 10 77 11 75 12 76 13
REMARK SMILES IDX 78 14 88 15 79 16 80 17 81 18 82 19 83 20 87 21 84 22 86 23
REMARK SMILES IDX 85 24 11 25 12 26 13 27 14 28 15 29 16 30 74 31 17 32 73 33
REMARK SMILES IDX 18 34 19 35 20 36 67 37 21 38 72 39 66 40 68 41 22 42 71 43
REMARK SMILES IDX 65 44 64 45 23 47 53 48 34 49 52 50 35 51 38 52 51 53 69 54
REMARK SMILES IDX 36 55 37 56 50 58 70 59 39 60 24 61 25 62 33 63 26 64 32 65
REMARK SMILES IDX 27 66 28 67 29 68 30 69 31 70 54 71 55 72 63 73 56 74 62 75
REMARK SMILES IDX 57 76 58 77 59 78 60 79 61 80 40 81 41 82 49 83 42 84 48 85
REMARK SMILES IDX 43 86 44 87 45 88 46 89 47 90
REMARK H PARENT 68 46 38 57
REMARK Flexibility Score: inf
ROOT
ATOM      1  C   UNL A   1      32.702  30.154  25.751  1.00  0.00     0.202 C 
ENDROOT
BRANCH   1   2
ATOM      2  O   UNL A   1      32.611  28.735  25.667  1.00  0.00    -0.374 OA
BRANCH   2   3
ATOM      3  C   UNL A   1      33.747  28.117  25.064  1.00  0.00     0.202 C 
BRANCH   3   4
ATOM      4  C   UNL A   1      33.760  28.348  23.548  1.00  0.00     0.261 C 
BRANCH   4   5
ATOM      5  O   UNL A   1      32.640  27.670  22.935  1.00  0.00    -0.459 OA
BRANCH   5   6
ATOM      6  C   UNL A   1      32.893  26.501  22.298  1.00  0.00     0.353 C 
ATOM      7  O   UNL A   1      33.690  26.306  21.400  1.00  0.00    -0.245 OA
BRANCH   6   8
ATOM      8  C   UNL A   1      32.149  25.377  23.018  1.00  0.00     0.133 C 
ATOM      9  C   UNL A   1      29.761  25.851  23.426  1.00  0.00     0.020 C 
ATOM     10  C   UNL A   1      31.129  25.708  24.087  1.00  0.00     0.078 C 
ATOM     11  C   UNL A   1      31.291  24.390  24.752  1.00  0.00     0.026 C 
ATOM     12  N   UNL A   1      32.382  24.101  22.819  1.00  0.00    -0.249 NA
ATOM     13  C   UNL A   1      31.827  23.495  23.924  1.00  0.00     0.049 C 
ATOM     14  C   UNL A   1      31.360  24.130  26.192  1.00  0.00     0.161 C 
ATOM     15  C   UNL A   1      32.163  22.112  24.386  1.00  0.00     0.065 C 
ATOM     16  O   UNL A   1      30.683  24.815  26.955  1.00  0.00    -0.294 OA
ATOM     17  C   UNL A   1      32.370  23.086  26.701  1.00  0.00     0.089 C 
ATOM     18  C   UNL A   1      33.085  22.205  25.619  1.00  0.00     0.033 C 
BRANCH  18  19
ATOM     19  C   UNL A   1      34.536  22.582  25.265  1.00  0.00    -0.044 A 
ATOM     20  C   UNL A   1      35.151  22.160  24.068  1.00  0.00     0.004 A 
ATOM     21  C   UNL A   1      35.330  23.332  26.146  1.00  0.00     0.004 A 
ATOM     22  C   UNL A   1      36.423  22.593  23.690  1.00  0.00     0.000 A 
ATOM     23  C   UNL A   1      36.615  23.763  25.772  1.00  0.00     0.000 A 
ATOM     24  C   UNL A   1      37.145  23.426  24.529  1.00  0.00     0.000 A 
ENDBRANCH  18  19
ENDBRANCH   6   8
ENDBRANCH   5   6
ENDBRANCH   4   5
ENDBRANCH   3   4
ENDBRANCH   2   3
ENDBRANCH   1   2
BRANCH   1  25
ATOM     25  C   UNL A   1      32.531  30.641  27.171  1.00  0.00     0.261 C 
BRANCH  25  26
ATOM     26  O   UNL A   1      33.780  30.498  27.818  1.00  0.00    -0.460 OA
BRANCH  26  27
ATOM     27  C   UNL A   1      34.445  31.567  28.271  1.00  0.00     0.338 C 
ATOM     28  O   UNL A   1      33.999  32.627  28.691  1.00  0.00    -0.246 OA
BRANCH  27  29
ATOM     29  C   UNL A   1      35.836  31.235  27.957  1.00  0.00     0.060 A 
ATOM     30  C   UNL A   1      36.111  29.928  27.561  1.00  0.00     0.016 A 
ATOM     31  C   UNL A   1      36.838  32.111  28.415  1.00  0.00     0.016 A 
ATOM     32  C   UNL A   1      37.370  29.429  27.824  1.00  0.00     0.010 A 
ATOM     33  C   UNL A   1      38.044  31.584  28.774  1.00  0.00     0.010 A 
ATOM     34  C   UNL A   1      38.282  30.238  28.509  1.00  0.00    -0.014 A 
BRANCH  34  35
ATOM     35  C   UNL A   1      39.597  29.727  28.815  1.00  0.00     0.031 A 
ATOM     36  C   UNL A   1      39.825  29.669  30.274  1.00  0.00     0.074 A 
ATOM     37  C   UNL A   1      40.389  29.164  27.889  1.00  0.00     0.049 A 
ATOM     38  N   UNL A   1      40.452  30.529  31.009  1.00  0.00    -0.248 NA
ATOM     39  C   UNL A   1      39.011  28.703  31.040  1.00  0.00     0.031 C 
ATOM     40  C   UNL A   1      40.058  28.841  26.499  1.00  0.00     0.029 A 
ATOM     41  N   UNL A   1      41.631  28.641  28.046  1.00  0.00    -0.354 N 
ATOM     42  C   UNL A   1      40.320  30.030  32.299  1.00  0.00     0.074 A 
ATOM     43  C   UNL A   1      39.165  29.176  32.274  1.00  0.00     0.031 C 
ATOM     44  C   UNL A   1      40.989  27.988  26.011  1.00  0.00     0.029 A 
ATOM     45  C   UNL A   1      42.032  27.809  27.010  1.00  0.00     0.049 A 
ATOM     46  H   UNL A   1      42.199  28.836  28.826  1.00  0.00     0.167 HD
ATOM     47  C   UNL A   1      41.381  29.990  33.153  1.00  0.00     0.031 A 
ATOM     48  C   UNL A   1      43.103  26.978  27.030  1.00  0.00     0.031 A 
ATOM     49  C   UNL A   1      42.471  30.796  32.659  1.00  0.00     0.049 A 
ATOM     50  C   UNL A   1      43.993  27.431  28.131  1.00  0.00     0.074 A 
ATOM     51  C   UNL A   1      42.670  32.134  32.393  1.00  0.00     0.029 A 
ATOM     52  N   UNL A   1      43.440  30.098  31.975  1.00  0.00    -0.354 N 
ATOM     53  N   UNL A   1      44.615  28.577  28.128  1.00  0.00    -0.248 NA
ATOM     54  C   UNL A   1      43.894  26.786  29.435  1.00  0.00     0.031 C 
ATOM     55  C   UNL A   1      43.590  32.177  31.304  1.00  0.00     0.029 A 
ATOM     56  C   UNL A   1      43.954  30.871  30.970  1.00  0.00     0.049 A 
ATOM     57  H   UNL A   1      43.722  29.178  32.181  1.00  0.00     0.167 HD
ATOM     58  C   UNL A   1      44.605  28.991  29.452  1.00  0.00     0.074 A 
ATOM     59  C   UNL A   1      44.296  27.790  30.220  1.00  0.00     0.031 C 
ATOM     60  C   UNL A   1      44.548  30.319  29.765  1.00  0.00     0.031 A 
BRANCH  47  61
ATOM     61  C   UNL A   1      41.632  28.836  34.112  1.00  0.00    -0.014 A 
ATOM     62  C   UNL A   1      41.739  29.125  35.486  1.00  0.00     0.010 A 
ATOM     63  C   UNL A   1      42.047  27.547  33.708  1.00  0.00     0.010 A 
ATOM     64  C   UNL A   1      42.322  28.215  36.380  1.00  0.00     0.020 A 
ATOM     65  C   UNL A   1      42.592  26.620  34.593  1.00  0.00     0.020 A 
ATOM     66  C   UNL A   1      42.764  26.976  35.918  1.00  0.00     0.054 A 
BRANCH  66  67
ATOM     67  S   UNL A   1      43.635  25.857  37.039  1.00  0.00     0.124 S 
ATOM     68  O   UNL A   1      45.025  26.247  36.825  1.00  0.00    -0.237 OA
ATOM     69  O   UNL A   1      43.062  26.215  38.333  1.00  0.00    -0.237 OA
ATOM     70  O   UNL A   1      43.271  24.530  36.546  1.00  0.00    -0.744 OA
ENDBRANCH  66  67
ENDBRANCH  47  61
BRANCH  48  71
ATOM     71  C   UNL A   1      43.265  25.660  26.370  1.00  0.00    -0.014 A 
ATOM     72  C   UNL A   1      44.255  25.465  25.388  1.00  0.00     0.010 A 
ATOM     73  C   UNL A   1      42.636  24.517  26.904  1.00  0.00     0.010 A 
ATOM     74  C   UNL A   1      44.652  24.173  25.009  1.00  0.00     0.020 A 
ATOM     75  C   UNL A   1      43.019  23.226  26.523  1.00  0.00     0.020 A 
ATOM     76  C   UNL A   1      44.046  23.060  25.597  1.00  0.00     0.054 A 
BRANCH  76  77
ATOM     77  S   UNL A   1      44.696  21.399  25.243  1.00  0.00     0.124 S 
ATOM     78  O   UNL A   1      46.040  21.465  25.807  1.00  0.00    -0.237 OA
ATOM     79  O   UNL A   1      43.757  20.532  25.948  1.00  0.00    -0.237 OA
ATOM     80  O   UNL A   1      44.641  21.312  23.785  1.00  0.00    -0.744 OA
ENDBRANCH  76  77
ENDBRANCH  48  71
BRANCH  60  81
ATOM     81  C   UNL A   1      44.962  31.306  28.701  1.00  0.00    -0.014 A 
ATOM     82  C   UNL A   1      44.113  31.765  27.676  1.00  0.00     0.010 A 
ATOM     83  C   UNL A   1      46.243  31.873  28.822  1.00  0.00     0.010 A 
ATOM     84  C   UNL A   1      44.550  32.754  26.781  1.00  0.00     0.020 A 
ATOM     85  C   UNL A   1      46.675  32.869  27.946  1.00  0.00     0.020 A 
ATOM     86  C   UNL A   1      45.830  33.299  26.923  1.00  0.00     0.054 A 
BRANCH  86  87
ATOM     87  S   UNL A   1      46.374  34.611  25.793  1.00  0.00     0.124 S 
ATOM     88  O   UNL A   1      46.198  35.816  26.597  1.00  0.00    -0.237 OA
ATOM     89  O   UNL A   1      47.760  34.240  25.509  1.00  0.00    -0.237 OA
ATOM     90  O   UNL A   1      45.466  34.489  24.654  1.00  0.00    -0.744 OA
ENDBRANCH  86  87
ENDBRANCH  60  81
ENDBRANCH  34  35
ENDBRANCH  27  29
ENDBRANCH  26  27
ENDBRANCH  25  26
ENDBRANCH   1  25
TORSDOF 18
ENDMDL
MODEL 3
REMARK VINA RESULT:     -11.7      3.955      8.004
REMARK SMILES C[C@@H]1C(C(=O)OCCOCCOC(=O)c2ccc(-c3c4nc(c(-c5ccc(S(=O)(=O)[O-])cc5)c5ccc([nH]5)c(-c5ccc(S(=O)(=O)[O-])cc5)c5nc(c(-c6ccc(S(=O)(=O)[O-])cc6)c6ccc3[nH]6)C=C5)C=C4)cc2)=NC2=C1C(=O)C[C@H](c1ccccc1)C2
REMARK SMILES IDX 10 1 9 2 8 3 7 4 6 5 4 6 5 7 3 8 1 9 2 10 77 11 75 12 76 13
REMARK SMILES IDX 78 14 88 15 79 16 80 17 81 18 82 19 83 20 87 21 84 22 86 23
REMARK SMILES IDX 85 24 11 25 12 26 13 27 14 28 15 29 16 30 74 31 17 32 73 33
REMARK SMILES IDX 18 34 19 35 20 36 67 37 21 38 72 39 66 40 68 41 22 42 71 43
REMARK SMILES IDX 65 44 64 45 23 47 53 48 34 49 52 50 35 51 38 52 51 53 69 54
REMARK SMILES IDX 36 55 37 56 50 58 70 59 39 60 24 61 25 62 33 63 26 64 32 65
REMARK SMILES IDX 27 66 28 67 29 68 30 69 31 70 54 71 55 72 63 73 56 74 62 75
REMARK SMILES IDX 57 76 58 77 59 78 60 79 61 80 40 81 41 82 49 83 42 84 48 85
REMARK SMILES IDX 43 86 44 87 45 88 46 89 47 90
REMARK H PARENT 68 46 38 57
REMARK Flexibility Score: inf
ROOT
ATOM      1  C   UNL A   1      42.360  20.296  26.172  1.00  0.00     0.202 C 
ENDROOT
BRANCH   1   2
ATOM      2  O   UNL A   1      42.896  21.359  25.390  1.00  0.00    -0.374 OA
BRANCH   2   3
ATOM      3  C   UNL A   1      44.023  22.002  25.984  1.00  0.00     0.202 C 
BRANCH   3   4
ATOM      4  C   UNL A   1      45.321  21.610  25.268  1.00  0.00     0.261 C 
BRANCH   4   5
ATOM      5  O   UNL A   1      46.394  22.491  25.672  1.00  0.00    -0.459 OA
BRANCH   5   6
ATOM      6  C   UNL A   1      46.644  23.567  24.889  1.00  0.00     0.353 C 
ATOM      7  O   UNL A   1      46.836  23.579  23.688  1.00  0.00    -0.245 OA
BRANCH   6   8
ATOM      8  C   UNL A   1      46.457  24.835  25.721  1.00  0.00     0.133 C 
ATOM      9  C   UNL A   1      44.179  25.779  25.623  1.00  0.00     0.020 C 
ATOM     10  C   UNL A   1      45.626  25.979  25.183  1.00  0.00     0.078 C 
ATOM     11  C   UNL A   1      46.330  26.982  26.023  1.00  0.00     0.026 C 
ATOM     12  N   UNL A   1      47.037  25.039  26.881  1.00  0.00    -0.249 NA
ATOM     13  C   UNL A   1      46.941  26.403  27.054  1.00  0.00     0.049 C 
ATOM     14  C   UNL A   1      46.770  28.320  25.619  1.00  0.00     0.161 C 
ATOM     15  C   UNL A   1      47.784  27.195  28.003  1.00  0.00     0.065 C 
ATOM     16  O   UNL A   1      46.082  28.961  24.829  1.00  0.00    -0.294 OA
ATOM     17  C   UNL A   1      48.140  28.820  26.111  1.00  0.00     0.089 C 
ATOM     18  C   UNL A   1      48.860  27.955  27.203  1.00  0.00     0.033 C 
BRANCH  18  19
ATOM     19  C   UNL A   1      50.013  27.052  26.723  1.00  0.00    -0.044 A 
ATOM     20  C   UNL A   1      50.720  26.207  27.604  1.00  0.00     0.004 A 
ATOM     21  C   UNL A   1      50.442  27.064  25.388  1.00  0.00     0.004 A 
ATOM     22  C   UNL A   1      51.686  25.304  27.155  1.00  0.00     0.000 A 
ATOM     23  C   UNL A   1      51.420  26.162  24.934  1.00  0.00     0.000 A 
ATOM     24  C   UNL A   1      52.014  25.256  25.811  1.00  0.00     0.000 A 
ENDBRANCH  18  19
ENDBRANCH   6   8
ENDBRANCH   5   6
ENDBRANCH   4   5
ENDBRANCH   3   4
ENDBRANCH   2   3
ENDBRANCH   1   2
BRANCH   1  25
ATOM     25  C   UNL A   1      40.870  20.445  26.371  1.00  0.00     0.261 C 
BRANCH  25  26
ATOM     26  O   UNL A   1      40.656  21.667  27.050  1.00  0.00    -0.460 OA
BRANCH  26  27
ATOM     27  C   UNL A   1      39.709  22.521  26.645  1.00  0.00     0.338 C 
ATOM     28  O   UNL A   1      38.655  22.282  26.071  1.00  0.00    -0.246 OA
BRANCH  27  29
ATOM     29  C   UNL A   1      40.333  23.825  26.879  1.00  0.00     0.060 A 
ATOM     30  C   UNL A   1      41.448  23.864  27.713  1.00  0.00     0.016 A 
ATOM     31  C   UNL A   1      39.583  24.974  26.568  1.00  0.00     0.016 A 
ATOM     32  C   UNL A   1      41.689  25.030  28.408  1.00  0.00     0.010 A 
ATOM     33  C   UNL A   1      39.757  26.088  27.338  1.00  0.00     0.010 A 
ATOM     34  C   UNL A   1      40.785  26.088  28.277  1.00  0.00    -0.014 A 
BRANCH  34  35
ATOM     35  C   UNL A   1      41.006  27.309  29.014  1.00  0.00     0.031 A 
ATOM     36  C   UNL A   1      42.148  28.070  28.465  1.00  0.00     0.074 A 
ATOM     37  C   UNL A   1      40.130  27.779  29.916  1.00  0.00     0.049 A 
ATOM     38  N   UNL A   1      43.366  28.087  28.898  1.00  0.00    -0.248 NA
ATOM     39  C   UNL A   1      41.983  28.637  27.111  1.00  0.00     0.031 C 
ATOM     40  C   UNL A   1      38.792  27.267  30.221  1.00  0.00     0.029 A 
ATOM     41  N   UNL A   1      40.213  28.908  30.664  1.00  0.00    -0.354 N 
ATOM     42  C   UNL A   1      44.035  28.902  27.994  1.00  0.00     0.074 A 
ATOM     43  C   UNL A   1      43.251  28.880  26.790  1.00  0.00     0.031 C 
ATOM     44  C   UNL A   1      38.112  28.203  30.923  1.00  0.00     0.029 A 
ATOM     45  C   UNL A   1      39.005  29.314  31.214  1.00  0.00     0.049 A 
ATOM     46  H   UNL A   1      41.056  29.396  30.805  1.00  0.00     0.167 HD
ATOM     47  C   UNL A   1      44.904  29.863  28.417  1.00  0.00     0.031 A 
ATOM     48  C   UNL A   1      38.761  30.518  31.789  1.00  0.00     0.031 A 
ATOM     49  C   UNL A   1      45.243  29.674  29.807  1.00  0.00     0.049 A 
ATOM     50  C   UNL A   1      40.076  31.125  32.118  1.00  0.00     0.074 A 
ATOM     51  C   UNL A   1      45.880  28.701  30.546  1.00  0.00     0.029 A 
ATOM     52  N   UNL A   1      44.513  30.439  30.688  1.00  0.00    -0.354 N 
ATOM     53  N   UNL A   1      40.895  30.631  33.005  1.00  0.00    -0.248 NA
ATOM     54  C   UNL A   1      40.677  32.071  31.185  1.00  0.00     0.031 C 
ATOM     55  C   UNL A   1      45.268  28.733  31.833  1.00  0.00     0.029 A 
ATOM     56  C   UNL A   1      44.311  29.750  31.852  1.00  0.00     0.049 A 
ATOM     57  H   UNL A   1      44.184  31.349  30.506  1.00  0.00     0.167 HD
ATOM     58  C   UNL A   1      42.162  30.862  32.488  1.00  0.00     0.074 A 
ATOM     59  C   UNL A   1      41.970  31.880  31.461  1.00  0.00     0.031 C 
ATOM     60  C   UNL A   1      43.183  29.989  32.735  1.00  0.00     0.031 A 
BRANCH  47  61
ATOM     61  C   UNL A   1      45.010  31.233  27.764  1.00  0.00    -0.014 A 
ATOM     62  C   UNL A   1      46.295  31.742  27.494  1.00  0.00     0.010 A 
ATOM     63  C   UNL A   1      43.940  32.149  27.666  1.00  0.00     0.010 A 
ATOM     64  C   UNL A   1      46.502  33.107  27.246  1.00  0.00     0.020 A 
ATOM     65  C   UNL A   1      44.127  33.499  27.382  1.00  0.00     0.020 A 
ATOM     66  C   UNL A   1      45.414  33.979  27.214  1.00  0.00     0.054 A 
BRANCH  66  67
ATOM     67  S   UNL A   1      45.689  35.754  27.026  1.00  0.00     0.124 S 
ATOM     68  O   UNL A   1      46.539  36.045  28.176  1.00  0.00    -0.237 OA
ATOM     69  O   UNL A   1      46.335  35.827  25.719  1.00  0.00    -0.237 OA
ATOM     70  O   UNL A   1      44.341  36.316  27.084  1.00  0.00    -0.744 OA
ENDBRANCH  66  67
ENDBRANCH  47  61
BRANCH  48  71
ATOM     71  C   UNL A   1      37.500  31.300  31.800  1.00  0.00    -0.014 A 
ATOM     72  C   UNL A   1      36.818  31.545  33.006  1.00  0.00     0.010 A 
ATOM     73  C   UNL A   1      37.118  32.045  30.666  1.00  0.00     0.010 A 
ATOM     74  C   UNL A   1      35.840  32.549  33.092  1.00  0.00     0.020 A 
ATOM     75  C   UNL A   1      36.136  33.040  30.742  1.00  0.00     0.020 A 
ATOM     76  C   UNL A   1      35.522  33.307  31.963  1.00  0.00     0.054 A 
BRANCH  76  77
ATOM     77  S   UNL A   1      34.398  34.727  32.128  1.00  0.00     0.124 S 
ATOM     78  O   UNL A   1      35.213  35.682  32.871  1.00  0.00    -0.237 OA
ATOM     79  O   UNL A   1      34.122  35.077  30.739  1.00  0.00    -0.237 OA
ATOM     80  O   UNL A   1      33.260  34.180  32.864  1.00  0.00    -0.744 OA
ENDBRANCH  76  77
ENDBRANCH  48  71
BRANCH  60  81
ATOM     81  C   UNL A   1      43.042  29.066  33.920  1.00  0.00    -0.014 A 
ATOM     82  C   UNL A   1      43.342  29.430  35.246  1.00  0.00     0.010 A 
ATOM     83  C   UNL A   1      42.472  27.804  33.679  1.00  0.00     0.010 A 
ATOM     84  C   UNL A   1      43.095  28.538  36.302  1.00  0.00     0.020 A 
ATOM     85  C   UNL A   1      42.207  26.921  34.726  1.00  0.00     0.020 A 
ATOM     86  C   UNL A   1      42.528  27.288  36.033  1.00  0.00     0.054 A 
BRANCH  86  87
ATOM     87  S   UNL A   1      42.167  26.156  37.404  1.00  0.00     0.124 S 
ATOM     88  O   UNL A   1      40.788  26.497  37.743  1.00  0.00    -0.237 OA
ATOM     89  O   UNL A   1      42.360  24.840  36.798  1.00  0.00    -0.237 OA
ATOM     90  O   UNL A   1      43.159  26.511  38.419  1.00  0.00    -0.744 OA
ENDBRANCH  86  87
ENDBRANCH  60  81
ENDBRANCH  34  35
ENDBRANCH  27  29
ENDBRANCH  26  27
ENDBRANCH  25  26
ENDBRANCH   1  25
TORSDOF 18
ENDMDL
