MODEL 1
REMARK VINA RESULT:     -11.8      0.000      0.000
REMARK SMILES CCOC(=O)c1c(NC(=O)[C@@H]2[C@@H](C(=O)OCCOCCOC(=O)c3ccc(-c4c5nc(c(-c6ccc(S(=O)(=O)[O-])cc6)c6ccc([nH]6)c(-c6ccc(S(=O)(=O)[O-])cc6)c6nc(c(-c7ccc(S(=O)(=O)[O-])cc7)c7ccc4[nH]7)C=C6)C=C5)cc3)[C@@H]3C=C[C@H]2CC3)sc2c1CCC2
REMARK SMILES IDX 17 1 16 2 15 3 13 4 14 5 12 6 11 7 87 8 84 9 86 10 88 11
REMARK SMILES IDX 85 12 89 13 9 14 8 15 10 17 7 18 6 19 92 20 90 21 91 22
REMARK SMILES IDX 93 23 95 24 94 25 4 26 5 27 3 28 2 29 1 30 18 31 19 32 20 33
REMARK SMILES IDX 21 34 22 35 23 36 24 37 25 38 83 39 26 40 82 41 27 42 28 43
REMARK SMILES IDX 29 44 76 45 30 46 81 47 75 48 77 49 31 50 80 51 74 52 73 53
REMARK SMILES IDX 32 55 62 56 43 57 61 58 44 59 47 60 60 61 78 62 45 63 46 64
REMARK SMILES IDX 59 66 79 67 48 68 33 69 34 70 42 71 35 72 41 73 36 74 37 75
REMARK SMILES IDX 38 76 39 77 40 78 63 79 64 80 72 81 65 82 71 83 66 84 67 85
REMARK SMILES IDX 68 86 69 87 70 88 49 89 50 90 58 91 51 92 57 93 52 94 53 95
REMARK SMILES IDX 54 96 55 97 56 98
REMARK H PARENT 8 16 77 54 47 65
REMARK Flexibility Score: inf
ROOT
ATOM      1  C   UNL A   1      38.300  21.421  25.647  1.00  0.00     0.202 C 
ENDROOT
BRANCH   1   2
ATOM      2  C   UNL A   1      37.146  22.370  25.270  1.00  0.00     0.261 C 
BRANCH   2   3
ATOM      3  O   UNL A   1      36.054  21.810  24.506  1.00  0.00    -0.463 OA
BRANCH   3   4
ATOM      4  C   UNL A   1      35.636  22.626  23.514  1.00  0.00     0.310 C 
ATOM      5  O   UNL A   1      36.417  23.202  22.757  1.00  0.00    -0.252 OA
BRANCH   4   6
ATOM      6  C   UNL A   1      34.146  22.887  23.419  1.00  0.00     0.119 C 
ATOM      7  C   UNL A   1      33.586  24.262  23.757  1.00  0.00     0.100 C 
ATOM      8  C   UNL A   1      32.253  24.037  24.555  1.00  0.00     0.025 C 
ATOM      9  C   UNL A   1      33.087  21.754  23.639  1.00  0.00     0.026 C 
ATOM     10  C   UNL A   1      31.290  23.393  23.580  1.00  0.00    -0.027 C 
ATOM     11  C   UNL A   1      32.472  22.991  25.701  1.00  0.00     0.009 C 
ATOM     12  C   UNL A   1      31.728  22.223  23.085  1.00  0.00    -0.027 C 
ATOM     13  C   UNL A   1      32.696  21.587  25.102  1.00  0.00     0.009 C 
BRANCH   7  14
ATOM     14  C   UNL A   1      33.340  25.245  22.544  1.00  0.00     0.229 C 
ATOM     15  N   UNL A   1      32.930  26.564  22.534  1.00  0.00    -0.317 N 
ATOM     16  H   UNL A   1      32.656  26.865  21.637  1.00  0.00     0.170 HD
ATOM     17  O   UNL A   1      33.411  24.730  21.410  1.00  0.00    -0.274 OA
BRANCH  15  18
ATOM     18  C   UNL A   1      32.812  27.568  23.487  1.00  0.00     0.110 A 
ATOM     19  C   UNL A   1      31.721  28.140  24.157  1.00  0.00     0.098 A 
ATOM     20  C   UNL A   1      32.228  28.787  25.334  1.00  0.00    -0.017 A 
ATOM     21  S   UNL A   1      34.033  28.809  23.674  1.00  0.00    -0.122 S 
ATOM     22  C   UNL A   1      33.592  28.864  25.292  1.00  0.00     0.011 A 
ATOM     23  C   UNL A   1      31.728  29.443  26.571  1.00  0.00     0.038 C 
ATOM     24  C   UNL A   1      34.232  29.323  26.536  1.00  0.00     0.047 C 
ATOM     25  C   UNL A   1      33.038  30.070  27.183  1.00  0.00     0.010 C 
BRANCH  19  26
ATOM     26  C   UNL A   1      30.355  28.097  23.710  1.00  0.00     0.341 C 
ATOM     27  O   UNL A   1      29.806  27.109  23.236  1.00  0.00    -0.246 OA
BRANCH  26  28
ATOM     28  O   UNL A   1      29.843  29.358  23.729  1.00  0.00    -0.462 OA
BRANCH  28  29
ATOM     29  C   UNL A   1      29.036  29.771  22.624  1.00  0.00     0.230 C 
ATOM     30  C   UNL A   1      27.550  29.675  22.927  1.00  0.00     0.049 C 
ENDBRANCH  28  29
ENDBRANCH  26  28
ENDBRANCH  19  26
ENDBRANCH  15  18
ENDBRANCH   7  14
ENDBRANCH   4   6
ENDBRANCH   3   4
ENDBRANCH   2   3
ENDBRANCH   1   2
BRANCH   1  31
ATOM     31  O   UNL A   1      39.559  21.935  26.061  1.00  0.00    -0.374 OA
BRANCH  31  32
ATOM     32  C   UNL A   1      40.500  21.119  26.740  1.00  0.00     0.202 C 
BRANCH  32  33
ATOM     33  C   UNL A   1      41.994  21.370  26.619  1.00  0.00     0.261 C 
BRANCH  33  34
ATOM     34  O   UNL A   1      42.423  22.679  26.919  1.00  0.00    -0.460 OA
BRANCH  34  35
ATOM     35  C   UNL A   1      42.689  23.383  25.800  1.00  0.00     0.338 C 
ATOM     36  O   UNL A   1      43.073  22.932  24.734  1.00  0.00    -0.246 OA
BRANCH  35  37
ATOM     37  C   UNL A   1      42.676  24.803  26.143  1.00  0.00     0.060 A 
ATOM     38  C   UNL A   1      43.312  25.136  27.334  1.00  0.00     0.016 A 
ATOM     39  C   UNL A   1      41.821  25.696  25.472  1.00  0.00     0.016 A 
ATOM     40  C   UNL A   1      42.943  26.305  27.951  1.00  0.00     0.010 A 
ATOM     41  C   UNL A   1      41.450  26.866  26.095  1.00  0.00     0.010 A 
ATOM     42  C   UNL A   1      41.965  27.119  27.358  1.00  0.00    -0.014 A 
BRANCH  42  43
ATOM     43  C   UNL A   1      41.651  28.351  28.041  1.00  0.00     0.031 A 
ATOM     44  C   UNL A   1      42.736  29.342  27.883  1.00  0.00     0.074 A 
ATOM     45  C   UNL A   1      40.516  28.578  28.722  1.00  0.00     0.049 A 
ATOM     46  N   UNL A   1      43.625  29.652  28.764  1.00  0.00    -0.248 NA
ATOM     47  C   UNL A   1      43.011  29.853  26.530  1.00  0.00     0.031 C 
ATOM     48  C   UNL A   1      39.284  27.790  28.755  1.00  0.00     0.029 A 
ATOM     49  N   UNL A   1      40.214  29.651  29.496  1.00  0.00    -0.354 N 
ATOM     50  C   UNL A   1      44.447  30.580  28.144  1.00  0.00     0.074 A 
ATOM     51  C   UNL A   1      44.154  30.507  26.733  1.00  0.00     0.031 C 
ATOM     52  C   UNL A   1      38.299  28.531  29.322  1.00  0.00     0.029 A 
ATOM     53  C   UNL A   1      38.871  29.771  29.823  1.00  0.00     0.049 A 
ATOM     54  H   UNL A   1      40.895  30.293  29.802  1.00  0.00     0.167 HD
ATOM     55  C   UNL A   1      45.100  31.528  28.865  1.00  0.00     0.031 A 
ATOM     56  C   UNL A   1      38.286  30.845  30.414  1.00  0.00     0.031 A 
ATOM     57  C   UNL A   1      45.163  31.189  30.262  1.00  0.00     0.049 A 
ATOM     58  C   UNL A   1      39.363  31.595  31.110  1.00  0.00     0.074 A 
ATOM     59  C   UNL A   1      45.713  30.142  30.976  1.00  0.00     0.029 A 
ATOM     60  N   UNL A   1      44.221  31.760  31.087  1.00  0.00    -0.354 N 
ATOM     61  N   UNL A   1      40.014  31.119  32.135  1.00  0.00    -0.248 NA
ATOM     62  C   UNL A   1      40.040  32.660  30.385  1.00  0.00     0.031 C 
ATOM     63  C   UNL A   1      44.762  29.850  31.999  1.00  0.00     0.029 A 
ATOM     64  C   UNL A   1      43.723  30.779  31.908  1.00  0.00     0.049 A 
ATOM     65  H   UNL A   1      43.951  32.707  31.087  1.00  0.00     0.167 HD
ATOM     66  C   UNL A   1      41.333  31.496  31.928  1.00  0.00     0.074 A 
ATOM     67  C   UNL A   1      41.272  32.520  30.885  1.00  0.00     0.031 C 
ATOM     68  C   UNL A   1      42.367  30.753  32.422  1.00  0.00     0.031 A 
BRANCH  55  69
ATOM     69  C   UNL A   1      45.276  32.931  28.351  1.00  0.00    -0.014 A 
ATOM     70  C   UNL A   1      46.521  33.567  28.494  1.00  0.00     0.010 A 
ATOM     71  C   UNL A   1      44.181  33.736  27.965  1.00  0.00     0.010 A 
ATOM     72  C   UNL A   1      46.651  34.947  28.290  1.00  0.00     0.020 A 
ATOM     73  C   UNL A   1      44.309  35.099  27.717  1.00  0.00     0.020 A 
ATOM     74  C   UNL A   1      45.541  35.703  27.905  1.00  0.00     0.054 A 
BRANCH  74  75
ATOM     75  S   UNL A   1      45.703  37.491  27.705  1.00  0.00     0.124 S 
ATOM     76  O   UNL A   1      46.166  37.600  26.326  1.00  0.00    -0.237 OA
ATOM     77  O   UNL A   1      44.341  37.952  27.958  1.00  0.00    -0.237 OA
ATOM     78  O   UNL A   1      46.680  37.864  28.726  1.00  0.00    -0.744 OA
ENDBRANCH  74  75
ENDBRANCH  55  69
BRANCH  56  79
ATOM     79  C   UNL A   1      36.964  31.448  30.110  1.00  0.00    -0.014 A 
ATOM     80  C   UNL A   1      36.206  32.083  31.114  1.00  0.00     0.010 A 
ATOM     81  C   UNL A   1      36.585  31.667  28.770  1.00  0.00     0.010 A 
ATOM     82  C   UNL A   1      35.151  32.955  30.786  1.00  0.00     0.020 A 
ATOM     83  C   UNL A   1      35.533  32.531  28.436  1.00  0.00     0.020 A 
ATOM     84  C   UNL A   1      34.835  33.190  29.446  1.00  0.00     0.054 A 
BRANCH  84  85
ATOM     85  S   UNL A   1      33.596  34.453  29.024  1.00  0.00     0.124 S 
ATOM     86  O   UNL A   1      33.026  34.778  30.327  1.00  0.00    -0.237 OA
ATOM     87  O   UNL A   1      34.406  35.501  28.409  1.00  0.00    -0.237 OA
ATOM     88  O   UNL A   1      32.694  33.757  28.108  1.00  0.00    -0.744 OA
ENDBRANCH  84  85
ENDBRANCH  56  79
BRANCH  68  89
ATOM     89  C   UNL A   1      42.054  29.678  33.442  1.00  0.00    -0.014 A 
ATOM     90  C   UNL A   1      41.728  28.344  33.120  1.00  0.00     0.010 A 
ATOM     91  C   UNL A   1      42.234  30.011  34.796  1.00  0.00     0.010 A 
ATOM     92  C   UNL A   1      41.562  27.381  34.131  1.00  0.00     0.020 A 
ATOM     93  C   UNL A   1      42.089  29.056  35.804  1.00  0.00     0.020 A 
ATOM     94  C   UNL A   1      41.742  27.746  35.469  1.00  0.00     0.054 A 
BRANCH  94  95
ATOM     95  S   UNL A   1      41.561  26.499  36.776  1.00  0.00     0.124 S 
ATOM     96  O   UNL A   1      41.410  25.261  36.016  1.00  0.00    -0.237 OA
ATOM     97  O   UNL A   1      42.809  26.630  37.525  1.00  0.00    -0.237 OA
ATOM     98  O   UNL A   1      40.365  26.927  37.502  1.00  0.00    -0.744 OA
ENDBRANCH  94  95
ENDBRANCH  68  89
ENDBRANCH  42  43
ENDBRANCH  35  37
ENDBRANCH  34  35
ENDBRANCH  33  34
ENDBRANCH  32  33
ENDBRANCH  31  32
ENDBRANCH   1  31
TORSDOF 22
ENDMDL
MODEL 2
REMARK VINA RESULT:     -11.2      1.024      1.914
REMARK SMILES CCOC(=O)c1c(NC(=O)[C@@H]2[C@@H](C(=O)OCCOCCOC(=O)c3ccc(-c4c5nc(c(-c6ccc(S(=O)(=O)[O-])cc6)c6ccc([nH]6)c(-c6ccc(S(=O)(=O)[O-])cc6)c6nc(c(-c7ccc(S(=O)(=O)[O-])cc7)c7ccc4[nH]7)C=C6)C=C5)cc3)[C@@H]3C=C[C@H]2CC3)sc2c1CCC2
REMARK SMILES IDX 17 1 16 2 15 3 13 4 14 5 12 6 11 7 87 8 84 9 86 10 88 11
REMARK SMILES IDX 85 12 89 13 9 14 8 15 10 17 7 18 6 19 92 20 90 21 91 22
REMARK SMILES IDX 93 23 95 24 94 25 4 26 5 27 3 28 2 29 1 30 18 31 19 32 20 33
REMARK SMILES IDX 21 34 22 35 23 36 24 37 25 38 83 39 26 40 82 41 27 42 28 43
REMARK SMILES IDX 29 44 76 45 30 46 81 47 75 48 77 49 31 50 80 51 74 52 73 53
REMARK SMILES IDX 32 55 62 56 43 57 61 58 44 59 47 60 60 61 78 62 45 63 46 64
REMARK SMILES IDX 59 66 79 67 48 68 33 69 34 70 42 71 35 72 41 73 36 74 37 75
REMARK SMILES IDX 38 76 39 77 40 78 63 79 64 80 72 81 65 82 71 83 66 84 67 85
REMARK SMILES IDX 68 86 69 87 70 88 49 89 50 90 58 91 51 92 57 93 52 94 53 95
REMARK SMILES IDX 54 96 55 97 56 98
REMARK H PARENT 8 16 77 54 47 65
REMARK Flexibility Score: inf
ROOT
ATOM      1  C   UNL A   1      38.472  21.477  25.723  1.00  0.00     0.202 C 
ENDROOT
BRANCH   1   2
ATOM      2  C   UNL A   1      37.319  21.915  24.799  1.00  0.00     0.261 C 
BRANCH   2   3
ATOM      3  O   UNL A   1      36.031  22.143  25.414  1.00  0.00    -0.463 OA
BRANCH   3   4
ATOM      4  C   UNL A   1      35.311  23.096  24.783  1.00  0.00     0.310 C 
ATOM      5  O   UNL A   1      35.833  24.067  24.236  1.00  0.00    -0.252 OA
BRANCH   4   6
ATOM      6  C   UNL A   1      33.801  22.977  24.851  1.00  0.00     0.119 C 
ATOM      7  C   UNL A   1      32.923  24.171  24.507  1.00  0.00     0.100 C 
ATOM      8  C   UNL A   1      31.742  24.192  25.541  1.00  0.00     0.025 C 
ATOM      9  C   UNL A   1      33.089  21.991  25.838  1.00  0.00     0.026 C 
ATOM     10  C   UNL A   1      30.926  22.946  25.263  1.00  0.00    -0.027 C 
ATOM     11  C   UNL A   1      32.289  24.033  27.000  1.00  0.00     0.009 C 
ATOM     12  C   UNL A   1      31.626  21.806  25.391  1.00  0.00    -0.027 C 
ATOM     13  C   UNL A   1      32.838  22.606  27.209  1.00  0.00     0.009 C 
BRANCH   7  14
ATOM     14  C   UNL A   1      32.361  24.237  23.031  1.00  0.00     0.229 C 
ATOM     15  N   UNL A   1      31.456  25.110  22.459  1.00  0.00    -0.317 N 
ATOM     16  H   UNL A   1      31.129  24.792  21.586  1.00  0.00     0.170 HD
ATOM     17  O   UNL A   1      32.689  23.291  22.287  1.00  0.00    -0.274 OA
BRANCH  15  18
ATOM     18  C   UNL A   1      30.897  26.329  22.820  1.00  0.00     0.110 A 
ATOM     19  C   UNL A   1      31.373  27.647  22.818  1.00  0.00     0.098 A 
ATOM     20  C   UNL A   1      30.233  28.519  22.850  1.00  0.00    -0.017 A 
ATOM     21  S   UNL A   1      29.569  26.433  23.956  1.00  0.00    -0.122 S 
ATOM     22  C   UNL A   1      29.096  27.814  23.128  1.00  0.00     0.011 A 
ATOM     23  C   UNL A   1      29.906  29.963  22.718  1.00  0.00     0.038 C 
ATOM     24  C   UNL A   1      27.840  28.569  22.985  1.00  0.00     0.047 C 
ATOM     25  C   UNL A   1      28.385  30.013  23.129  1.00  0.00     0.010 C 
BRANCH  19  26
ATOM     26  C   UNL A   1      32.759  28.031  22.815  1.00  0.00     0.341 C 
ATOM     27  O   UNL A   1      33.632  27.491  22.145  1.00  0.00    -0.246 OA
BRANCH  26  28
ATOM     28  O   UNL A   1      32.966  28.952  23.796  1.00  0.00    -0.462 OA
BRANCH  28  29
ATOM     29  C   UNL A   1      33.692  28.543  24.957  1.00  0.00     0.230 C 
ATOM     30  C   UNL A   1      33.117  29.134  26.234  1.00  0.00     0.049 C 
ENDBRANCH  28  29
ENDBRANCH  26  28
ENDBRANCH  19  26
ENDBRANCH  15  18
ENDBRANCH   7  14
ENDBRANCH   4   6
ENDBRANCH   3   4
ENDBRANCH   2   3
ENDBRANCH   1   2
BRANCH   1  31
ATOM     31  O   UNL A   1      39.362  22.435  26.282  1.00  0.00    -0.374 OA
BRANCH  31  32
ATOM     32  C   UNL A   1      40.335  22.062  27.243  1.00  0.00     0.202 C 
BRANCH  32  33
ATOM     33  C   UNL A   1      41.732  21.634  26.826  1.00  0.00     0.261 C 
BRANCH  33  34
ATOM     34  O   UNL A   1      42.723  22.635  26.884  1.00  0.00    -0.460 OA
BRANCH  34  35
ATOM     35  C   UNL A   1      42.776  23.348  25.740  1.00  0.00     0.338 C 
ATOM     36  O   UNL A   1      43.026  22.917  24.627  1.00  0.00    -0.246 OA
BRANCH  35  37
ATOM     37  C   UNL A   1      42.722  24.766  26.087  1.00  0.00     0.060 A 
ATOM     38  C   UNL A   1      43.409  25.127  27.241  1.00  0.00     0.016 A 
ATOM     39  C   UNL A   1      41.794  25.623  25.466  1.00  0.00     0.016 A 
ATOM     40  C   UNL A   1      43.026  26.279  27.880  1.00  0.00     0.010 A 
ATOM     41  C   UNL A   1      41.410  26.776  26.110  1.00  0.00     0.010 A 
ATOM     42  C   UNL A   1      41.983  27.051  27.344  1.00  0.00    -0.014 A 
BRANCH  42  43
ATOM     43  C   UNL A   1      41.656  28.269  28.046  1.00  0.00     0.031 A 
ATOM     44  C   UNL A   1      42.739  29.267  27.920  1.00  0.00     0.074 A 
ATOM     45  C   UNL A   1      40.512  28.478  28.716  1.00  0.00     0.049 A 
ATOM     46  N   UNL A   1      43.616  29.563  28.817  1.00  0.00    -0.248 NA
ATOM     47  C   UNL A   1      43.029  29.804  26.580  1.00  0.00     0.031 C 
ATOM     48  C   UNL A   1      39.283  27.686  28.719  1.00  0.00     0.029 A 
ATOM     49  N   UNL A   1      40.196  29.536  29.507  1.00  0.00    -0.354 N 
ATOM     50  C   UNL A   1      44.442  30.505  28.225  1.00  0.00     0.074 A 
ATOM     51  C   UNL A   1      44.167  30.458  26.810  1.00  0.00     0.031 C 
ATOM     52  C   UNL A   1      38.288  28.413  29.288  1.00  0.00     0.029 A 
ATOM     53  C   UNL A   1      38.849  29.645  29.819  1.00  0.00     0.049 A 
ATOM     54  H   UNL A   1      40.871  30.174  29.834  1.00  0.00     0.167 HD
ATOM     55  C   UNL A   1      45.083  31.442  28.972  1.00  0.00     0.031 A 
ATOM     56  C   UNL A   1      38.253  30.706  30.423  1.00  0.00     0.031 A 
ATOM     57  C   UNL A   1      45.129  31.077  30.364  1.00  0.00     0.049 A 
ATOM     58  C   UNL A   1      39.319  31.447  31.146  1.00  0.00     0.074 A 
ATOM     59  C   UNL A   1      45.675  30.018  31.065  1.00  0.00     0.029 A 
ATOM     60  N   UNL A   1      44.175  31.629  31.187  1.00  0.00    -0.354 N 
ATOM     61  N   UNL A   1      39.958  30.954  32.170  1.00  0.00    -0.248 NA
ATOM     62  C   UNL A   1      40.000  32.527  30.450  1.00  0.00     0.031 C 
ATOM     63  C   UNL A   1      44.713  29.704  32.069  1.00  0.00     0.029 A 
ATOM     64  C   UNL A   1      43.671  30.631  31.983  1.00  0.00     0.049 A 
ATOM     65  H   UNL A   1      43.901  32.575  31.201  1.00  0.00     0.167 HD
ATOM     66  C   UNL A   1      41.279  31.339  31.986  1.00  0.00     0.074 A 
ATOM     67  C   UNL A   1      41.226  32.382  30.963  1.00  0.00     0.031 C 
ATOM     68  C   UNL A   1      42.309  30.590  32.479  1.00  0.00     0.031 A 
BRANCH  55  69
ATOM     69  C   UNL A   1      45.260  32.854  28.486  1.00  0.00    -0.014 A 
ATOM     70  C   UNL A   1      46.537  33.440  28.518  1.00  0.00     0.010 A 
ATOM     71  C   UNL A   1      44.164  33.712  28.243  1.00  0.00     0.010 A 
ATOM     72  C   UNL A   1      46.701  34.821  28.345  1.00  0.00     0.020 A 
ATOM     73  C   UNL A   1      44.319  35.078  28.026  1.00  0.00     0.020 A 
ATOM     74  C   UNL A   1      45.587  35.629  28.103  1.00  0.00     0.054 A 
BRANCH  74  75
ATOM     75  S   UNL A   1      45.798  37.417  27.943  1.00  0.00     0.124 S 
ATOM     76  O   UNL A   1      45.675  37.607  26.502  1.00  0.00    -0.237 OA
ATOM     77  O   UNL A   1      44.694  37.929  28.750  1.00  0.00    -0.237 OA
ATOM     78  O   UNL A   1      47.130  37.655  28.496  1.00  0.00    -0.744 OA
ENDBRANCH  74  75
ENDBRANCH  55  69
BRANCH  56  79
ATOM     79  C   UNL A   1      36.932  31.310  30.114  1.00  0.00    -0.014 A 
ATOM     80  C   UNL A   1      36.206  32.013  31.095  1.00  0.00     0.010 A 
ATOM     81  C   UNL A   1      36.525  31.457  28.772  1.00  0.00     0.010 A 
ATOM     82  C   UNL A   1      35.156  32.880  30.742  1.00  0.00     0.020 A 
ATOM     83  C   UNL A   1      35.478  32.315  28.412  1.00  0.00     0.020 A 
ATOM     84  C   UNL A   1      34.813  33.041  29.397  1.00  0.00     0.054 A 
BRANCH  84  85
ATOM     85  S   UNL A   1      33.581  34.297  28.930  1.00  0.00     0.124 S 
ATOM     86  O   UNL A   1      32.932  34.585  30.204  1.00  0.00    -0.237 OA
ATOM     87  O   UNL A   1      34.410  35.369  28.385  1.00  0.00    -0.237 OA
ATOM     88  O   UNL A   1      32.744  33.608  27.948  1.00  0.00    -0.744 OA
ENDBRANCH  84  85
ENDBRANCH  56  79
BRANCH  68  89
ATOM     89  C   UNL A   1      41.987  29.495  33.475  1.00  0.00    -0.014 A 
ATOM     90  C   UNL A   1      41.562  28.198  33.123  1.00  0.00     0.010 A 
ATOM     91  C   UNL A   1      42.263  29.761  34.828  1.00  0.00     0.010 A 
ATOM     92  C   UNL A   1      41.392  27.206  34.105  1.00  0.00     0.020 A 
ATOM     93  C   UNL A   1      42.115  28.776  35.806  1.00  0.00     0.020 A 
ATOM     94  C   UNL A   1      41.670  27.505  35.443  1.00  0.00     0.054 A 
BRANCH  94  95
ATOM     95  S   UNL A   1      41.484  26.218  36.711  1.00  0.00     0.124 S 
ATOM     96  O   UNL A   1      42.804  26.194  37.336  1.00  0.00    -0.237 OA
ATOM     97  O   UNL A   1      40.403  26.738  37.546  1.00  0.00    -0.237 OA
ATOM     98  O   UNL A   1      41.143  25.021  35.945  1.00  0.00    -0.744 OA
ENDBRANCH  94  95
ENDBRANCH  68  89
ENDBRANCH  42  43
ENDBRANCH  35  37
ENDBRANCH  34  35
ENDBRANCH  33  34
ENDBRANCH  32  33
ENDBRANCH  31  32
ENDBRANCH   1  31
TORSDOF 22
ENDMDL
MODEL 3
REMARK VINA RESULT:     -11.1      1.576      2.316
REMARK SMILES CCOC(=O)c1c(NC(=O)[C@@H]2[C@@H](C(=O)OCCOCCOC(=O)c3ccc(-c4c5nc(c(-c6ccc(S(=O)(=O)[O-])cc6)c6ccc([nH]6)c(-c6ccc(S(=O)(=O)[O-])cc6)c6nc(c(-c7ccc(S(=O)(=O)[O-])cc7)c7ccc4[nH]7)C=C6)C=C5)cc3)[C@@H]3C=C[C@H]2CC3)sc2c1CCC2
REMARK SMILES IDX 17 1 16 2 15 3 13 4 14 5 12 6 11 7 87 8 84 9 86 10 88 11
REMARK SMILES IDX 85 12 89 13 9 14 8 15 10 17 7 18 6 19 92 20 90 21 91 22
REMARK SMILES IDX 93 23 95 24 94 25 4 26 5 27 3 28 2 29 1 30 18 31 19 32 20 33
REMARK SMILES IDX 21 34 22 35 23 36 24 37 25 38 83 39 26 40 82 41 27 42 28 43
REMARK SMILES IDX 29 44 76 45 30 46 81 47 75 48 77 49 31 50 80 51 74 52 73 53
REMARK SMILES IDX 32 55 62 56 43 57 61 58 44 59 47 60 60 61 78 62 45 63 46 64
REMARK SMILES IDX 59 66 79 67 48 68 33 69 34 70 42 71 35 72 41 73 36 74 37 75
REMARK SMILES IDX 38 76 39 77 40 78 63 79 64 80 72 81 65 82 71 83 66 84 67 85
REMARK SMILES IDX 68 86 69 87 70 88 49 89 50 90 58 91 51 92 57 93 52 94 53 95
REMARK SMILES IDX 54 96 55 97 56 98
REMARK H PARENT 8 16 77 54 47 65
REMARK Flexibility Score: inf
ROOT
ATOM      1  C   UNL A   1      37.767  22.368  25.988  1.00  0.00     0.202 C 
ENDROOT
BRANCH   1   2
ATOM      2  C   UNL A   1      37.224  23.795  25.781  1.00  0.00     0.261 C 
BRANCH   2   3
ATOM      3  O   UNL A   1      36.159  23.963  24.818  1.00  0.00    -0.463 OA
BRANCH   3   4
ATOM      4  C   UNL A   1      34.991  24.328  25.387  1.00  0.00     0.310 C 
ATOM      5  O   UNL A   1      34.882  25.332  26.091  1.00  0.00    -0.252 OA
BRANCH   4   6
ATOM      6  C   UNL A   1      33.812  23.392  25.204  1.00  0.00     0.119 C 
ATOM      7  C   UNL A   1      33.015  22.918  26.411  1.00  0.00     0.100 C 
ATOM      8  C   UNL A   1      32.685  21.400  26.183  1.00  0.00     0.025 C 
ATOM      9  C   UNL A   1      33.737  22.373  24.016  1.00  0.00     0.026 C 
ATOM     10  C   UNL A   1      31.754  21.353  24.990  1.00  0.00    -0.027 C 
ATOM     11  C   UNL A   1      33.975  20.619  25.757  1.00  0.00     0.009 C 
ATOM     12  C   UNL A   1      32.285  21.878  23.872  1.00  0.00    -0.027 C 
ATOM     13  C   UNL A   1      34.406  21.042  24.337  1.00  0.00     0.009 C 
BRANCH   7  14
ATOM     14  C   UNL A   1      31.696  23.721  26.749  1.00  0.00     0.229 C 
ATOM     15  N   UNL A   1      31.288  24.977  26.344  1.00  0.00    -0.317 N 
ATOM     16  H   UNL A   1      30.526  25.312  26.872  1.00  0.00     0.170 HD
ATOM     17  O   UNL A   1      30.953  23.201  27.605  1.00  0.00    -0.274 OA
BRANCH  15  18
ATOM     18  C   UNL A   1      31.693  25.880  25.369  1.00  0.00     0.110 A 
ATOM     19  C   UNL A   1      32.109  27.218  25.406  1.00  0.00     0.098 A 
ATOM     20  C   UNL A   1      32.830  27.480  24.193  1.00  0.00    -0.017 A 
ATOM     21  S   UNL A   1      31.214  25.703  23.694  1.00  0.00    -0.122 S 
ATOM     22  C   UNL A   1      32.661  26.457  23.302  1.00  0.00     0.011 A 
ATOM     23  C   UNL A   1      33.672  28.541  23.581  1.00  0.00     0.038 C 
ATOM     24  C   UNL A   1      33.516  26.520  22.105  1.00  0.00     0.047 C 
ATOM     25  C   UNL A   1      33.842  28.036  22.098  1.00  0.00     0.010 C 
BRANCH  19  26
ATOM     26  C   UNL A   1      31.827  28.148  26.466  1.00  0.00     0.341 C 
ATOM     27  O   UNL A   1      31.504  27.831  27.605  1.00  0.00    -0.246 OA
BRANCH  26  28
ATOM     28  O   UNL A   1      31.800  29.408  25.953  1.00  0.00    -0.462 OA
BRANCH  28  29
ATOM     29  C   UNL A   1      31.972  30.503  26.855  1.00  0.00     0.230 C 
ATOM     30  C   UNL A   1      31.195  31.736  26.422  1.00  0.00     0.049 C 
ENDBRANCH  28  29
ENDBRANCH  26  28
ENDBRANCH  19  26
ENDBRANCH  15  18
ENDBRANCH   7  14
ENDBRANCH   4   6
ENDBRANCH   3   4
ENDBRANCH   2   3
ENDBRANCH   1   2
BRANCH   1  31
ATOM     31  O   UNL A   1      39.098  22.034  25.616  1.00  0.00    -0.374 OA
BRANCH  31  32
ATOM     32  C   UNL A   1      39.965  21.358  26.512  1.00  0.00     0.202 C 
BRANCH  32  33
ATOM     33  C   UNL A   1      41.462  21.287  26.259  1.00  0.00     0.261 C 
BRANCH  33  34
ATOM     34  O   UNL A   1      41.956  22.145  25.256  1.00  0.00    -0.460 OA
BRANCH  34  35
ATOM     35  C   UNL A   1      42.957  22.923  25.716  1.00  0.00     0.338 C 
ATOM     36  O   UNL A   1      44.152  22.708  25.604  1.00  0.00    -0.246 OA
BRANCH  35  37
ATOM     37  C   UNL A   1      42.376  23.946  26.583  1.00  0.00     0.060 A 
ATOM     38  C   UNL A   1      41.615  24.914  25.937  1.00  0.00     0.016 A 
ATOM     39  C   UNL A   1      42.816  24.097  27.910  1.00  0.00     0.016 A 
ATOM     40  C   UNL A   1      41.451  26.122  26.566  1.00  0.00     0.010 A 
ATOM     41  C   UNL A   1      42.653  25.310  28.537  1.00  0.00     0.010 A 
ATOM     42  C   UNL A   1      42.032  26.328  27.827  1.00  0.00    -0.014 A 
BRANCH  42  43
ATOM     43  C   UNL A   1      41.790  27.609  28.449  1.00  0.00     0.031 A 
ATOM     44  C   UNL A   1      42.922  28.533  28.229  1.00  0.00     0.074 A 
ATOM     45  C   UNL A   1      40.677  27.927  29.128  1.00  0.00     0.049 A 
ATOM     46  N   UNL A   1      43.837  28.841  29.084  1.00  0.00    -0.248 NA
ATOM     47  C   UNL A   1      43.206  28.959  26.849  1.00  0.00     0.031 C 
ATOM     48  C   UNL A   1      39.407  27.206  29.213  1.00  0.00     0.029 A 
ATOM     49  N   UNL A   1      40.439  29.053  29.848  1.00  0.00    -0.354 N 
ATOM     50  C   UNL A   1      44.696  29.693  28.409  1.00  0.00     0.074 A 
ATOM     51  C   UNL A   1      44.383  29.563  27.007  1.00  0.00     0.031 C 
ATOM     52  C   UNL A   1      38.468  28.025  29.751  1.00  0.00     0.029 A 
ATOM     53  C   UNL A   1      39.108  29.259  30.181  1.00  0.00     0.049 A 
ATOM     54  H   UNL A   1      41.155  29.673  30.115  1.00  0.00     0.167 HD
ATOM     55  C   UNL A   1      45.406  30.642  29.074  1.00  0.00     0.031 A 
ATOM     56  C   UNL A   1      38.586  30.390  30.722  1.00  0.00     0.031 A 
ATOM     57  C   UNL A   1      45.468  30.371  30.487  1.00  0.00     0.049 A 
ATOM     58  C   UNL A   1      39.708  31.118  31.368  1.00  0.00     0.074 A 
ATOM     59  C   UNL A   1      45.973  29.335  31.248  1.00  0.00     0.029 A 
ATOM     60  N   UNL A   1      44.567  31.032  31.289  1.00  0.00    -0.354 N 
ATOM     61  N   UNL A   1      40.346  30.662  32.409  1.00  0.00    -0.248 NA
ATOM     62  C   UNL A   1      40.429  32.108  30.583  1.00  0.00     0.031 C 
ATOM     63  C   UNL A   1      45.022  29.145  32.293  1.00  0.00     0.029 A 
ATOM     64  C   UNL A   1      44.030  30.121  32.164  1.00  0.00     0.049 A 
ATOM     65  H   UNL A   1      44.345  31.990  31.243  1.00  0.00     0.167 HD
ATOM     66  C   UNL A   1      41.680  30.960  32.170  1.00  0.00     0.074 A 
ATOM     67  C   UNL A   1      41.658  31.931  31.077  1.00  0.00     0.031 C 
ATOM     68  C   UNL A   1      42.681  30.191  32.692  1.00  0.00     0.031 A 
BRANCH  55  69
ATOM     69  C   UNL A   1      45.647  32.005  28.486  1.00  0.00    -0.014 A 
ATOM     70  C   UNL A   1      46.951  32.530  28.472  1.00  0.00     0.010 A 
ATOM     71  C   UNL A   1      44.591  32.893  28.184  1.00  0.00     0.010 A 
ATOM     72  C   UNL A   1      47.178  33.885  28.199  1.00  0.00     0.020 A 
ATOM     73  C   UNL A   1      44.809  34.231  27.867  1.00  0.00     0.020 A 
ATOM     74  C   UNL A   1      46.102  34.726  27.901  1.00  0.00     0.054 A 
BRANCH  74  75
ATOM     75  S   UNL A   1      46.396  36.485  27.610  1.00  0.00     0.124 S 
ATOM     76  O   UNL A   1      46.625  36.980  28.963  1.00  0.00    -0.237 OA
ATOM     77  O   UNL A   1      47.566  36.459  26.736  1.00  0.00    -0.237 OA
ATOM     78  O   UNL A   1      45.161  36.939  26.976  1.00  0.00    -0.744 OA
ENDBRANCH  74  75
ENDBRANCH  55  69
BRANCH  56  79
ATOM     79  C   UNL A   1      37.292  31.044  30.400  1.00  0.00    -0.014 A 
ATOM     80  C   UNL A   1      36.467  31.564  31.417  1.00  0.00     0.010 A 
ATOM     81  C   UNL A   1      37.012  31.428  29.073  1.00  0.00     0.010 A 
ATOM     82  C   UNL A   1      35.443  32.483  31.123  1.00  0.00     0.020 A 
ATOM     83  C   UNL A   1      35.992  32.340  28.772  1.00  0.00     0.020 A 
ATOM     84  C   UNL A   1      35.227  32.882  29.802  1.00  0.00     0.054 A 
BRANCH  84  85
ATOM     85  S   UNL A   1      34.028  34.205  29.449  1.00  0.00     0.124 S 
ATOM     86  O   UNL A   1      34.836  35.167  28.707  1.00  0.00    -0.237 OA
ATOM     87  O   UNL A   1      33.004  33.509  28.675  1.00  0.00    -0.237 OA
ATOM     88  O   UNL A   1      33.602  34.646  30.777  1.00  0.00    -0.744 OA
ENDBRANCH  84  85
ENDBRANCH  56  79
BRANCH  68  89
ATOM     89  C   UNL A   1      42.326  29.187  33.770  1.00  0.00    -0.014 A 
ATOM     90  C   UNL A   1      41.836  27.889  33.519  1.00  0.00     0.010 A 
ATOM     91  C   UNL A   1      42.636  29.537  35.096  1.00  0.00     0.010 A 
ATOM     92  C   UNL A   1      41.638  26.980  34.573  1.00  0.00     0.020 A 
ATOM     93  C   UNL A   1      42.460  28.633  36.145  1.00  0.00     0.020 A 
ATOM     94  C   UNL A   1      41.951  27.361  35.882  1.00  0.00     0.054 A 
BRANCH  94  95
ATOM     95  S   UNL A   1      41.728  26.180  37.243  1.00  0.00     0.124 S 
ATOM     96  O   UNL A   1      40.430  26.565  37.789  1.00  0.00    -0.237 OA
ATOM     97  O   UNL A   1      41.766  24.888  36.561  1.00  0.00    -0.237 OA
ATOM     98  O   UNL A   1      42.868  26.440  38.121  1.00  0.00    -0.744 OA
ENDBRANCH  94  95
ENDBRANCH  68  89
ENDBRANCH  42  43
ENDBRANCH  35  37
ENDBRANCH  34  35
ENDBRANCH  33  34
ENDBRANCH  32  33
ENDBRANCH  31  32
ENDBRANCH   1  31
TORSDOF 22
ENDMDL
