MODEL 1
REMARK VINA RESULT:     -11.3      0.000      0.000
REMARK SMILES COc1ccc(NC(=O)[C@@H]2[C@@H](C(=O)OCCOCCOC(=O)c3ccc(-c4c5nc(c(-c6ccc(S(=O)(=O)[O-])cc6)c6ccc([nH]6)c(-c6ccc(S(=O)(=O)[O-])cc6)c6nc(c(-c7ccc(S(=O)(=O)[O-])cc7)c7ccc4[nH]7)C=C6)C=C5)cc3)[C@@H]3CC[C@H]2C3=C(C)C)cc1
REMARK SMILES IDX 17 1 16 2 15 3 14 4 12 5 13 6 11 7 10 8 86 9 83 10 85 11
REMARK SMILES IDX 87 12 84 13 88 14 89 15 90 16 8 17 7 18 9 20 6 21 3 22 4 23
REMARK SMILES IDX 92 24 5 25 91 26 2 27 1 28 18 29 19 30 20 31 21 32 22 33
REMARK SMILES IDX 23 34 24 35 82 36 25 37 81 38 26 39 27 40 28 41 75 42 29 43
REMARK SMILES IDX 80 44 74 45 76 46 30 47 79 48 73 49 72 50 31 52 61 53 42 54
REMARK SMILES IDX 60 55 43 56 46 57 59 58 77 59 44 60 45 61 58 63 78 64 47 65
REMARK SMILES IDX 32 66 33 67 41 68 34 69 40 70 35 71 36 72 37 73 38 74 39 75
REMARK SMILES IDX 62 76 63 77 71 78 64 79 70 80 65 81 66 82 67 83 68 84 69 85
REMARK SMILES IDX 48 86 49 87 57 88 50 89 56 90 51 91 52 92 53 93 54 94 55 95
REMARK H PARENT 7 19 76 51 46 62
REMARK Flexibility Score: inf
ROOT
ATOM      1  O   UNL A   1      33.660  30.433  27.625  1.00  0.00    -0.374 OA
ENDROOT
BRANCH   1   2
ATOM      2  C   UNL A   1      32.509  30.644  26.802  1.00  0.00     0.202 C 
BRANCH   2   3
ATOM      3  C   UNL A   1      31.902  29.391  26.157  1.00  0.00     0.261 C 
BRANCH   3   4
ATOM      4  O   UNL A   1      32.876  28.356  25.887  1.00  0.00    -0.463 OA
BRANCH   4   5
ATOM      5  C   UNL A   1      32.342  27.120  25.700  1.00  0.00     0.310 C 
ATOM      6  O   UNL A   1      31.223  26.793  26.083  1.00  0.00    -0.252 OA
BRANCH   5   7
ATOM      7  C   UNL A   1      33.231  26.150  24.945  1.00  0.00     0.119 C 
ATOM      8  C   UNL A   1      32.494  25.399  23.784  1.00  0.00     0.101 C 
ATOM      9  C   UNL A   1      33.073  24.004  23.958  1.00  0.00     0.029 C 
ATOM     10  C   UNL A   1      33.915  25.018  25.779  1.00  0.00     0.030 C 
ATOM     11  C   UNL A   1      34.610  23.964  23.756  1.00  0.00     0.009 C 
ATOM     12  C   UNL A   1      33.069  23.830  25.445  1.00  0.00    -0.064 C 
ATOM     13  C   UNL A   1      35.182  24.592  25.036  1.00  0.00     0.009 C 
ATOM     14  C   UNL A   1      32.665  22.719  26.084  1.00  0.00    -0.077 C 
ATOM     15  C   UNL A   1      33.269  22.262  27.377  1.00  0.00     0.039 C 
ATOM     16  C   UNL A   1      31.701  21.754  25.442  1.00  0.00     0.039 C 
BRANCH   8  17
ATOM     17  C   UNL A   1      32.698  26.096  22.427  1.00  0.00     0.228 C 
ATOM     18  N   UNL A   1      32.031  27.207  21.983  1.00  0.00    -0.326 N 
ATOM     19  H   UNL A   1      32.384  27.590  21.148  1.00  0.00     0.169 HD
ATOM     20  O   UNL A   1      33.528  25.632  21.634  1.00  0.00    -0.274 OA
BRANCH  18  21
ATOM     21  C   UNL A   1      30.931  27.890  22.517  1.00  0.00     0.041 A 
ATOM     22  C   UNL A   1      28.597  29.350  22.979  1.00  0.00     0.119 A 
ATOM     23  C   UNL A   1      28.629  27.976  23.229  1.00  0.00     0.048 A 
ATOM     24  C   UNL A   1      29.781  30.016  22.667  1.00  0.00     0.048 A 
ATOM     25  C   UNL A   1      29.802  27.242  23.006  1.00  0.00     0.030 A 
ATOM     26  C   UNL A   1      30.957  29.287  22.464  1.00  0.00     0.030 A 
BRANCH  22  27
ATOM     27  O   UNL A   1      27.367  29.946  23.059  1.00  0.00    -0.497 OA
ATOM     28  C   UNL A   1      27.361  31.248  23.643  1.00  0.00     0.278 C 
ENDBRANCH  22  27
ENDBRANCH  18  21
ENDBRANCH   8  17
ENDBRANCH   5   7
ENDBRANCH   4   5
ENDBRANCH   3   4
ENDBRANCH   2   3
ENDBRANCH   1   2
BRANCH   1  29
ATOM     29  C   UNL A   1      34.296  31.597  28.150  1.00  0.00     0.202 C 
BRANCH  29  30
ATOM     30  C   UNL A   1      35.457  31.331  29.114  1.00  0.00     0.261 C 
BRANCH  30  31
ATOM     31  O   UNL A   1      36.336  30.307  28.623  1.00  0.00    -0.460 OA
BRANCH  31  32
ATOM     32  C   UNL A   1      36.983  29.621  29.591  1.00  0.00     0.338 C 
ATOM     33  O   UNL A   1      36.565  29.365  30.714  1.00  0.00    -0.246 OA
BRANCH  32  34
ATOM     34  C   UNL A   1      38.266  29.114  29.082  1.00  0.00     0.060 A 
ATOM     35  C   UNL A   1      39.198  28.622  29.999  1.00  0.00     0.016 A 
ATOM     36  C   UNL A   1      38.610  29.266  27.738  1.00  0.00     0.016 A 
ATOM     37  C   UNL A   1      40.498  28.336  29.577  1.00  0.00     0.010 A 
ATOM     38  C   UNL A   1      39.903  28.950  27.310  1.00  0.00     0.010 A 
ATOM     39  C   UNL A   1      40.870  28.534  28.237  1.00  0.00    -0.014 A 
BRANCH  39  40
ATOM     40  C   UNL A   1      42.300  28.435  27.845  1.00  0.00     0.031 A 
ATOM     41  C   UNL A   1      43.219  29.609  28.077  1.00  0.00     0.074 A 
ATOM     42  C   UNL A   1      42.787  27.296  27.319  1.00  0.00     0.049 A 
ATOM     43  N   UNL A   1      44.507  29.704  27.866  1.00  0.00    -0.248 NA
ATOM     44  C   UNL A   1      42.606  30.838  28.610  1.00  0.00     0.031 C 
ATOM     45  C   UNL A   1      42.005  26.093  27.037  1.00  0.00     0.029 A 
ATOM     46  N   UNL A   1      44.063  26.966  26.936  1.00  0.00    -0.354 N 
ATOM     47  C   UNL A   1      44.858  30.998  28.237  1.00  0.00     0.074 A 
ATOM     48  C   UNL A   1      43.642  31.664  28.646  1.00  0.00     0.031 C 
ATOM     49  C   UNL A   1      42.822  25.147  26.543  1.00  0.00     0.029 A 
ATOM     50  C   UNL A   1      44.179  25.683  26.455  1.00  0.00     0.049 A 
ATOM     51  H   UNL A   1      44.823  27.588  26.998  1.00  0.00     0.167 HD
ATOM     52  C   UNL A   1      46.084  31.577  28.253  1.00  0.00     0.031 A 
ATOM     53  C   UNL A   1      45.256  25.013  26.000  1.00  0.00     0.031 A 
ATOM     54  C   UNL A   1      47.296  30.917  27.850  1.00  0.00     0.049 A 
ATOM     55  C   UNL A   1      46.604  25.681  26.009  1.00  0.00     0.074 A 
ATOM     56  C   UNL A   1      48.591  31.408  27.868  1.00  0.00     0.029 A 
ATOM     57  N   UNL A   1      47.365  29.625  27.354  1.00  0.00    -0.354 N 
ATOM     58  N   UNL A   1      46.922  26.886  26.416  1.00  0.00    -0.248 NA
ATOM     59  C   UNL A   1      47.740  24.892  25.512  1.00  0.00     0.031 C 
ATOM     60  C   UNL A   1      49.438  30.427  27.341  1.00  0.00     0.029 A 
ATOM     61  C   UNL A   1      48.677  29.308  27.040  1.00  0.00     0.049 A 
ATOM     62  H   UNL A   1      46.596  29.021  27.240  1.00  0.00     0.167 HD
ATOM     63  C   UNL A   1      48.299  26.994  26.241  1.00  0.00     0.074 A 
ATOM     64  C   UNL A   1      48.753  25.726  25.706  1.00  0.00     0.031 C 
ATOM     65  C   UNL A   1      49.112  28.045  26.502  1.00  0.00     0.031 A 
BRANCH  52  66
ATOM     66  C   UNL A   1      46.168  33.008  28.715  1.00  0.00    -0.014 A 
ATOM     67  C   UNL A   1      46.297  33.323  30.080  1.00  0.00     0.010 A 
ATOM     68  C   UNL A   1      46.154  34.049  27.770  1.00  0.00     0.010 A 
ATOM     69  C   UNL A   1      46.368  34.656  30.494  1.00  0.00     0.020 A 
ATOM     70  C   UNL A   1      46.248  35.383  28.179  1.00  0.00     0.020 A 
ATOM     71  C   UNL A   1      46.335  35.679  29.541  1.00  0.00     0.054 A 
BRANCH  71  72
ATOM     72  S   UNL A   1      46.443  37.400  30.103  1.00  0.00     0.124 S 
ATOM     73  O   UNL A   1      45.892  37.310  31.453  1.00  0.00    -0.237 OA
ATOM     74  O   UNL A   1      47.874  37.676  30.026  1.00  0.00    -0.237 OA
ATOM     75  O   UNL A   1      45.619  38.130  29.142  1.00  0.00    -0.744 OA
ENDBRANCH  71  72
ENDBRANCH  52  66
BRANCH  53  76
ATOM     76  C   UNL A   1      45.101  23.618  25.509  1.00  0.00    -0.014 A 
ATOM     77  C   UNL A   1      44.684  23.363  24.191  1.00  0.00     0.010 A 
ATOM     78  C   UNL A   1      45.388  22.534  26.359  1.00  0.00     0.010 A 
ATOM     79  C   UNL A   1      44.550  22.049  23.733  1.00  0.00     0.020 A 
ATOM     80  C   UNL A   1      45.278  21.219  25.897  1.00  0.00     0.020 A 
ATOM     81  C   UNL A   1      44.850  20.985  24.589  1.00  0.00     0.054 A 
BRANCH  81  82
ATOM     82  S   UNL A   1      44.734  19.288  23.956  1.00  0.00     0.124 S 
ATOM     83  O   UNL A   1      46.023  18.729  24.348  1.00  0.00    -0.237 OA
ATOM     84  O   UNL A   1      43.572  18.762  24.670  1.00  0.00    -0.237 OA
ATOM     85  O   UNL A   1      44.540  19.474  22.519  1.00  0.00    -0.744 OA
ENDBRANCH  81  82
ENDBRANCH  53  76
BRANCH  65  86
ATOM     86  C   UNL A   1      50.582  27.868  26.231  1.00  0.00    -0.014 A 
ATOM     87  C   UNL A   1      51.450  27.389  27.227  1.00  0.00     0.010 A 
ATOM     88  C   UNL A   1      51.090  28.136  24.947  1.00  0.00     0.010 A 
ATOM     89  C   UNL A   1      52.809  27.209  26.952  1.00  0.00     0.020 A 
ATOM     90  C   UNL A   1      52.444  27.936  24.662  1.00  0.00     0.020 A 
ATOM     91  C   UNL A   1      53.297  27.487  25.672  1.00  0.00     0.054 A 
BRANCH  91  92
ATOM     92  S   UNL A   1      55.056  27.206  25.325  1.00  0.00     0.124 S 
ATOM     93  O   UNL A   1      55.521  26.614  26.577  1.00  0.00    -0.237 OA
ATOM     94  O   UNL A   1      55.021  26.303  24.177  1.00  0.00    -0.237 OA
ATOM     95  O   UNL A   1      55.570  28.545  25.040  1.00  0.00    -0.744 OA
ENDBRANCH  91  92
ENDBRANCH  65  86
ENDBRANCH  39  40
ENDBRANCH  32  34
ENDBRANCH  31  32
ENDBRANCH  30  31
ENDBRANCH  29  30
ENDBRANCH   1  29
TORSDOF 20
ENDMDL
MODEL 2
REMARK VINA RESULT:     -11.2      6.583     11.889
REMARK SMILES COc1ccc(NC(=O)[C@@H]2[C@@H](C(=O)OCCOCCOC(=O)c3ccc(-c4c5nc(c(-c6ccc(S(=O)(=O)[O-])cc6)c6ccc([nH]6)c(-c6ccc(S(=O)(=O)[O-])cc6)c6nc(c(-c7ccc(S(=O)(=O)[O-])cc7)c7ccc4[nH]7)C=C6)C=C5)cc3)[C@@H]3CC[C@H]2C3=C(C)C)cc1
REMARK SMILES IDX 17 1 16 2 15 3 14 4 12 5 13 6 11 7 10 8 86 9 83 10 85 11
REMARK SMILES IDX 87 12 84 13 88 14 89 15 90 16 8 17 7 18 9 20 6 21 3 22 4 23
REMARK SMILES IDX 92 24 5 25 91 26 2 27 1 28 18 29 19 30 20 31 21 32 22 33
REMARK SMILES IDX 23 34 24 35 82 36 25 37 81 38 26 39 27 40 28 41 75 42 29 43
REMARK SMILES IDX 80 44 74 45 76 46 30 47 79 48 73 49 72 50 31 52 61 53 42 54
REMARK SMILES IDX 60 55 43 56 46 57 59 58 77 59 44 60 45 61 58 63 78 64 47 65
REMARK SMILES IDX 32 66 33 67 41 68 34 69 40 70 35 71 36 72 37 73 38 74 39 75
REMARK SMILES IDX 62 76 63 77 71 78 64 79 70 80 65 81 66 82 67 83 68 84 69 85
REMARK SMILES IDX 48 86 49 87 57 88 50 89 56 90 51 91 52 92 53 93 54 94 55 95
REMARK H PARENT 7 19 76 51 46 62
REMARK Flexibility Score: inf
ROOT
ATOM      1  O   UNL A   1      38.704  22.228  26.539  1.00  0.00    -0.374 OA
ENDROOT
BRANCH   1   2
ATOM      2  C   UNL A   1      37.890  22.004  25.383  1.00  0.00     0.202 C 
BRANCH   2   3
ATOM      3  C   UNL A   1      36.435  22.483  25.479  1.00  0.00     0.261 C 
BRANCH   3   4
ATOM      4  O   UNL A   1      36.136  23.589  24.596  1.00  0.00    -0.463 OA
BRANCH   4   5
ATOM      5  C   UNL A   1      35.742  23.219  23.349  1.00  0.00     0.310 C 
ATOM      6  O   UNL A   1      36.516  23.007  22.421  1.00  0.00    -0.252 OA
BRANCH   5   7
ATOM      7  C   UNL A   1      34.243  23.055  23.178  1.00  0.00     0.119 C 
ATOM      8  C   UNL A   1      33.463  24.413  23.156  1.00  0.00     0.101 C 
ATOM      9  C   UNL A   1      32.250  24.038  23.993  1.00  0.00     0.029 C 
ATOM     10  C   UNL A   1      33.499  22.186  24.243  1.00  0.00     0.030 C 
ATOM     11  C   UNL A   1      31.408  22.905  23.352  1.00  0.00     0.009 C 
ATOM     12  C   UNL A   1      32.851  23.229  25.099  1.00  0.00    -0.064 C 
ATOM     13  C   UNL A   1      32.233  21.631  23.591  1.00  0.00     0.009 C 
ATOM     14  C   UNL A   1      32.532  23.354  26.399  1.00  0.00    -0.077 C 
ATOM     15  C   UNL A   1      32.548  22.198  27.352  1.00  0.00     0.039 C 
ATOM     16  C   UNL A   1      31.953  24.635  26.943  1.00  0.00     0.039 C 
BRANCH   8  17
ATOM     17  C   UNL A   1      33.218  24.913  21.721  1.00  0.00     0.228 C 
ATOM     18  N   UNL A   1      32.856  26.185  21.362  1.00  0.00    -0.326 N 
ATOM     19  H   UNL A   1      32.872  26.356  20.392  1.00  0.00     0.169 HD
ATOM     20  O   UNL A   1      33.342  24.118  20.780  1.00  0.00    -0.274 OA
BRANCH  18  21
ATOM     21  C   UNL A   1      32.467  27.281  22.140  1.00  0.00     0.041 A 
ATOM     22  C   UNL A   1      31.649  29.040  24.148  1.00  0.00     0.119 A 
ATOM     23  C   UNL A   1      32.960  29.079  23.669  1.00  0.00     0.048 A 
ATOM     24  C   UNL A   1      30.708  28.242  23.500  1.00  0.00     0.048 A 
ATOM     25  C   UNL A   1      33.372  28.204  22.655  1.00  0.00     0.030 A 
ATOM     26  C   UNL A   1      31.113  27.382  22.474  1.00  0.00     0.030 A 
BRANCH  22  27
ATOM     27  O   UNL A   1      31.390  29.808  25.251  1.00  0.00    -0.497 OA
ATOM     28  C   UNL A   1      32.383  29.752  26.276  1.00  0.00     0.278 C 
ENDBRANCH  22  27
ENDBRANCH  18  21
ENDBRANCH   8  17
ENDBRANCH   5   7
ENDBRANCH   4   5
ENDBRANCH   3   4
ENDBRANCH   2   3
ENDBRANCH   1   2
BRANCH   1  29
ATOM     29  C   UNL A   1      40.107  22.022  26.385  1.00  0.00     0.202 C 
BRANCH  29  30
ATOM     30  C   UNL A   1      40.959  23.296  26.381  1.00  0.00     0.261 C 
BRANCH  30  31
ATOM     31  O   UNL A   1      40.148  24.480  26.317  1.00  0.00    -0.460 OA
BRANCH  31  32
ATOM     32  C   UNL A   1      40.854  25.629  26.228  1.00  0.00     0.338 C 
ATOM     33  O   UNL A   1      41.324  26.127  25.212  1.00  0.00    -0.246 OA
BRANCH  32  34
ATOM     34  C   UNL A   1      40.913  26.290  27.541  1.00  0.00     0.060 A 
ATOM     35  C   UNL A   1      39.895  26.035  28.462  1.00  0.00     0.016 A 
ATOM     36  C   UNL A   1      41.874  27.268  27.804  1.00  0.00     0.016 A 
ATOM     37  C   UNL A   1      39.806  26.803  29.625  1.00  0.00     0.010 A 
ATOM     38  C   UNL A   1      41.802  28.016  28.983  1.00  0.00     0.010 A 
ATOM     39  C   UNL A   1      40.736  27.824  29.875  1.00  0.00    -0.014 A 
BRANCH  39  40
ATOM     40  C   UNL A   1      40.509  28.772  30.996  1.00  0.00     0.031 A 
ATOM     41  C   UNL A   1      41.369  28.684  32.232  1.00  0.00     0.074 A 
ATOM     42  C   UNL A   1      39.567  29.729  30.902  1.00  0.00     0.049 A 
ATOM     43  N   UNL A   1      41.377  29.454  33.291  1.00  0.00    -0.248 NA
ATOM     44  C   UNL A   1      42.345  27.582  32.286  1.00  0.00     0.031 C 
ATOM     45  C   UNL A   1      38.665  29.918  29.766  1.00  0.00     0.029 A 
ATOM     46  N   UNL A   1      39.221  30.729  31.776  1.00  0.00    -0.354 N 
ATOM     47  C   UNL A   1      42.351  28.931  34.134  1.00  0.00     0.074 A 
ATOM     48  C   UNL A   1      42.884  27.755  33.484  1.00  0.00     0.031 C 
ATOM     49  C   UNL A   1      37.880  30.982  30.005  1.00  0.00     0.029 A 
ATOM     50  C   UNL A   1      38.210  31.538  31.316  1.00  0.00     0.049 A 
ATOM     51  H   UNL A   1      39.656  30.854  32.650  1.00  0.00     0.167 HD
ATOM     52  C   UNL A   1      42.777  29.395  35.334  1.00  0.00     0.031 A 
ATOM     53  C   UNL A   1      37.617  32.607  31.883  1.00  0.00     0.031 A 
ATOM     54  C   UNL A   1      42.252  30.566  35.983  1.00  0.00     0.049 A 
ATOM     55  C   UNL A   1      38.094  33.095  33.224  1.00  0.00     0.074 A 
ATOM     56  C   UNL A   1      42.646  31.137  37.181  1.00  0.00     0.029 A 
ATOM     57  N   UNL A   1      41.216  31.344  35.490  1.00  0.00    -0.354 N 
ATOM     58  N   UNL A   1      39.054  32.618  33.980  1.00  0.00    -0.248 NA
ATOM     59  C   UNL A   1      37.417  34.274  33.782  1.00  0.00     0.031 C 
ATOM     60  C   UNL A   1      41.818  32.237  37.434  1.00  0.00     0.029 A 
ATOM     61  C   UNL A   1      40.941  32.378  36.370  1.00  0.00     0.049 A 
ATOM     62  H   UNL A   1      40.745  31.186  34.641  1.00  0.00     0.167 HD
ATOM     63  C   UNL A   1      39.108  33.450  35.094  1.00  0.00     0.074 A 
ATOM     64  C   UNL A   1      38.095  34.468  34.905  1.00  0.00     0.031 C 
ATOM     65  C   UNL A   1      39.925  33.379  36.173  1.00  0.00     0.031 A 
BRANCH  52  66
ATOM     66  C   UNL A   1      43.866  28.620  36.030  1.00  0.00    -0.014 A 
ATOM     67  C   UNL A   1      43.560  27.535  36.871  1.00  0.00     0.010 A 
ATOM     68  C   UNL A   1      45.213  28.961  35.813  1.00  0.00     0.010 A 
ATOM     69  C   UNL A   1      44.581  26.830  37.514  1.00  0.00     0.020 A 
ATOM     70  C   UNL A   1      46.238  28.243  36.437  1.00  0.00     0.020 A 
ATOM     71  C   UNL A   1      45.913  27.193  37.299  1.00  0.00     0.054 A 
BRANCH  71  72
ATOM     72  S   UNL A   1      47.221  26.254  38.136  1.00  0.00     0.124 S 
ATOM     73  O   UNL A   1      46.571  25.888  39.391  1.00  0.00    -0.237 OA
ATOM     74  O   UNL A   1      47.467  25.150  37.212  1.00  0.00    -0.237 OA
ATOM     75  O   UNL A   1      48.314  27.216  38.258  1.00  0.00    -0.744 OA
ENDBRANCH  71  72
ENDBRANCH  52  66
BRANCH  53  76
ATOM     76  C   UNL A   1      36.513  33.301  31.169  1.00  0.00    -0.014 A 
ATOM     77  C   UNL A   1      35.247  33.436  31.765  1.00  0.00     0.010 A 
ATOM     78  C   UNL A   1      36.732  33.848  29.891  1.00  0.00     0.010 A 
ATOM     79  C   UNL A   1      34.216  34.099  31.092  1.00  0.00     0.020 A 
ATOM     80  C   UNL A   1      35.710  34.531  29.226  1.00  0.00     0.020 A 
ATOM     81  C   UNL A   1      34.455  34.644  29.827  1.00  0.00     0.054 A 
BRANCH  81  82
ATOM     82  S   UNL A   1      33.124  35.558  28.998  1.00  0.00     0.124 S 
ATOM     83  O   UNL A   1      32.483  34.512  28.209  1.00  0.00    -0.237 OA
ATOM     84  O   UNL A   1      32.343  36.071  30.123  1.00  0.00    -0.237 OA
ATOM     85  O   UNL A   1      33.838  36.577  28.231  1.00  0.00    -0.744 OA
ENDBRANCH  81  82
ENDBRANCH  53  76
BRANCH  65  86
ATOM     86  C   UNL A   1      39.771  34.440  37.229  1.00  0.00    -0.014 A 
ATOM     87  C   UNL A   1      38.996  34.212  38.378  1.00  0.00     0.010 A 
ATOM     88  C   UNL A   1      40.455  35.662  37.093  1.00  0.00     0.010 A 
ATOM     89  C   UNL A   1      38.882  35.199  39.361  1.00  0.00     0.020 A 
ATOM     90  C   UNL A   1      40.361  36.643  38.084  1.00  0.00     0.020 A 
ATOM     91  C   UNL A   1      39.563  36.410  39.206  1.00  0.00     0.054 A 
BRANCH  91  92
ATOM     92  S   UNL A   1      39.435  37.662  40.513  1.00  0.00     0.124 S 
ATOM     93  O   UNL A   1      39.131  36.845  41.685  1.00  0.00    -0.237 OA
ATOM     94  O   UNL A   1      40.758  38.279  40.503  1.00  0.00    -0.237 OA
ATOM     95  O   UNL A   1      38.348  38.527  40.058  1.00  0.00    -0.744 OA
ENDBRANCH  91  92
ENDBRANCH  65  86
ENDBRANCH  39  40
ENDBRANCH  32  34
ENDBRANCH  31  32
ENDBRANCH  30  31
ENDBRANCH  29  30
ENDBRANCH   1  29
TORSDOF 20
ENDMDL
MODEL 3
REMARK VINA RESULT:     -11.1      5.209      7.221
REMARK SMILES COc1ccc(NC(=O)[C@@H]2[C@@H](C(=O)OCCOCCOC(=O)c3ccc(-c4c5nc(c(-c6ccc(S(=O)(=O)[O-])cc6)c6ccc([nH]6)c(-c6ccc(S(=O)(=O)[O-])cc6)c6nc(c(-c7ccc(S(=O)(=O)[O-])cc7)c7ccc4[nH]7)C=C6)C=C5)cc3)[C@@H]3CC[C@H]2C3=C(C)C)cc1
REMARK SMILES IDX 17 1 16 2 15 3 14 4 12 5 13 6 11 7 10 8 86 9 83 10 85 11
REMARK SMILES IDX 87 12 84 13 88 14 89 15 90 16 8 17 7 18 9 20 6 21 3 22 4 23
REMARK SMILES IDX 92 24 5 25 91 26 2 27 1 28 18 29 19 30 20 31 21 32 22 33
REMARK SMILES IDX 23 34 24 35 82 36 25 37 81 38 26 39 27 40 28 41 75 42 29 43
REMARK SMILES IDX 80 44 74 45 76 46 30 47 79 48 73 49 72 50 31 52 61 53 42 54
REMARK SMILES IDX 60 55 43 56 46 57 59 58 77 59 44 60 45 61 58 63 78 64 47 65
REMARK SMILES IDX 32 66 33 67 41 68 34 69 40 70 35 71 36 72 37 73 38 74 39 75
REMARK SMILES IDX 62 76 63 77 71 78 64 79 70 80 65 81 66 82 67 83 68 84 69 85
REMARK SMILES IDX 48 86 49 87 57 88 50 89 56 90 51 91 52 92 53 93 54 94 55 95
REMARK H PARENT 7 19 76 51 46 62
REMARK Flexibility Score: inf
ROOT
ATOM      1  O   UNL A   1      31.839  27.005  26.841  1.00  0.00    -0.374 OA
ENDROOT
BRANCH   1   2
ATOM      2  C   UNL A   1      30.757  26.370  26.152  1.00  0.00     0.202 C 
BRANCH   2   3
ATOM      3  C   UNL A   1      30.831  24.841  26.044  1.00  0.00     0.261 C 
BRANCH   3   4
ATOM      4  O   UNL A   1      31.394  24.210  27.217  1.00  0.00    -0.463 OA
BRANCH   4   5
ATOM      5  C   UNL A   1      32.479  23.429  26.967  1.00  0.00     0.310 C 
ATOM      6  O   UNL A   1      32.913  22.589  27.750  1.00  0.00    -0.252 OA
BRANCH   5   7
ATOM      7  C   UNL A   1      33.121  23.647  25.610  1.00  0.00     0.119 C 
ATOM      8  C   UNL A   1      33.392  22.319  24.825  1.00  0.00     0.101 C 
ATOM      9  C   UNL A   1      34.763  22.627  24.243  1.00  0.00     0.029 C 
ATOM     10  C   UNL A   1      34.486  24.409  25.586  1.00  0.00     0.030 C 
ATOM     11  C   UNL A   1      34.746  23.844  23.284  1.00  0.00     0.009 C 
ATOM     12  C   UNL A   1      35.463  23.293  25.387  1.00  0.00    -0.064 C 
ATOM     13  C   UNL A   1      34.630  25.063  24.211  1.00  0.00     0.009 C 
ATOM     14  C   UNL A   1      36.725  23.032  25.769  1.00  0.00    -0.077 C 
ATOM     15  C   UNL A   1      37.625  24.073  26.360  1.00  0.00     0.039 C 
ATOM     16  C   UNL A   1      37.381  21.712  25.452  1.00  0.00     0.039 C 
BRANCH   8  17
ATOM     17  C   UNL A   1      32.255  21.988  23.843  1.00  0.00     0.228 C 
ATOM     18  N   UNL A   1      31.864  20.733  23.455  1.00  0.00    -0.326 N 
ATOM     19  H   UNL A   1      31.036  20.708  22.924  1.00  0.00     0.169 HD
ATOM     20  O   UNL A   1      31.617  22.916  23.329  1.00  0.00    -0.274 OA
BRANCH  18  21
ATOM     21  C   UNL A   1      32.444  19.481  23.687  1.00  0.00     0.041 A 
ATOM     22  C   UNL A   1      33.014  16.812  24.279  1.00  0.00     0.119 A 
ATOM     23  C   UNL A   1      33.086  17.272  22.962  1.00  0.00     0.048 A 
ATOM     24  C   UNL A   1      32.828  17.727  25.313  1.00  0.00     0.048 A 
ATOM     25  C   UNL A   1      32.810  18.613  22.663  1.00  0.00     0.030 A 
ATOM     26  C   UNL A   1      32.573  19.069  25.018  1.00  0.00     0.030 A 
BRANCH  22  27
ATOM     27  O   UNL A   1      33.129  15.459  24.448  1.00  0.00    -0.497 OA
ATOM     28  C   UNL A   1      33.049  15.008  25.800  1.00  0.00     0.278 C 
ENDBRANCH  22  27
ENDBRANCH  18  21
ENDBRANCH   8  17
ENDBRANCH   5   7
ENDBRANCH   4   5
ENDBRANCH   3   4
ENDBRANCH   2   3
ENDBRANCH   1   2
BRANCH   1  29
ATOM     29  C   UNL A   1      31.509  28.131  27.652  1.00  0.00     0.202 C 
BRANCH  29  30
ATOM     30  C   UNL A   1      31.970  29.487  27.108  1.00  0.00     0.261 C 
BRANCH  30  31
ATOM     31  O   UNL A   1      33.244  29.875  27.649  1.00  0.00    -0.460 OA
BRANCH  31  32
ATOM     32  C   UNL A   1      34.301  29.522  26.885  1.00  0.00     0.338 C 
ATOM     33  O   UNL A   1      34.281  29.227  25.696  1.00  0.00    -0.246 OA
BRANCH  32  34
ATOM     34  C   UNL A   1      35.546  29.629  27.660  1.00  0.00     0.060 A 
ATOM     35  C   UNL A   1      36.746  29.819  26.970  1.00  0.00     0.016 A 
ATOM     36  C   UNL A   1      35.552  29.390  29.035  1.00  0.00     0.016 A 
ATOM     37  C   UNL A   1      37.959  29.710  27.652  1.00  0.00     0.010 A 
ATOM     38  C   UNL A   1      36.767  29.312  29.723  1.00  0.00     0.010 A 
ATOM     39  C   UNL A   1      37.980  29.418  29.026  1.00  0.00    -0.014 A 
BRANCH  39  40
ATOM     40  C   UNL A   1      39.266  29.092  29.693  1.00  0.00     0.031 A 
ATOM     41  C   UNL A   1      39.675  29.847  30.932  1.00  0.00     0.074 A 
ATOM     42  C   UNL A   1      40.050  28.105  29.219  1.00  0.00     0.049 A 
ATOM     43  N   UNL A   1      40.723  29.673  31.699  1.00  0.00    -0.248 NA
ATOM     44  C   UNL A   1      38.794  30.945  31.363  1.00  0.00     0.031 C 
ATOM     45  C   UNL A   1      39.774  27.304  28.028  1.00  0.00     0.029 A 
ATOM     46  N   UNL A   1      41.237  27.604  29.694  1.00  0.00    -0.354 N 
ATOM     47  C   UNL A   1      40.627  30.637  32.697  1.00  0.00     0.074 A 
ATOM     48  C   UNL A   1      39.444  31.420  32.416  1.00  0.00     0.031 C 
ATOM     49  C   UNL A   1      40.754  26.398  27.874  1.00  0.00     0.029 A 
ATOM     50  C   UNL A   1      41.736  26.566  28.944  1.00  0.00     0.049 A 
ATOM     51  H   UNL A   1      41.687  27.954  30.496  1.00  0.00     0.167 HD
ATOM     52  C   UNL A   1      41.440  30.845  33.761  1.00  0.00     0.031 A 
ATOM     53  C   UNL A   1      42.855  25.831  29.101  1.00  0.00     0.031 A 
ATOM     54  C   UNL A   1      42.616  30.067  34.046  1.00  0.00     0.049 A 
ATOM     55  C   UNL A   1      43.753  26.090  30.279  1.00  0.00     0.074 A 
ATOM     56  C   UNL A   1      43.481  30.176  35.121  1.00  0.00     0.029 A 
ATOM     57  N   UNL A   1      43.095  29.038  33.250  1.00  0.00    -0.354 N 
ATOM     58  N   UNL A   1      43.615  26.971  31.242  1.00  0.00    -0.248 NA
ATOM     59  C   UNL A   1      44.949  25.246  30.401  1.00  0.00     0.031 C 
ATOM     60  C   UNL A   1      44.508  29.241  34.952  1.00  0.00     0.029 A 
ATOM     61  C   UNL A   1      44.256  28.518  33.797  1.00  0.00     0.049 A 
ATOM     62  H   UNL A   1      42.672  28.723  32.418  1.00  0.00     0.167 HD
ATOM     63  C   UNL A   1      44.697  26.774  32.093  1.00  0.00     0.074 A 
ATOM     64  C   UNL A   1      45.472  25.681  31.540  1.00  0.00     0.031 C 
ATOM     65  C   UNL A   1      45.019  27.435  33.232  1.00  0.00     0.031 A 
BRANCH  52  66
ATOM     66  C   UNL A   1      41.085  31.971  34.696  1.00  0.00    -0.014 A 
ATOM     67  C   UNL A   1      40.307  31.744  35.844  1.00  0.00     0.010 A 
ATOM     68  C   UNL A   1      41.566  33.269  34.439  1.00  0.00     0.010 A 
ATOM     69  C   UNL A   1      39.981  32.801  36.699  1.00  0.00     0.020 A 
ATOM     70  C   UNL A   1      41.260  34.324  35.304  1.00  0.00     0.020 A 
ATOM     71  C   UNL A   1      40.453  34.086  36.419  1.00  0.00     0.054 A 
BRANCH  71  72
ATOM     72  S   UNL A   1      40.027  35.439  37.550  1.00  0.00     0.124 S 
ATOM     73  O   UNL A   1      41.180  35.454  38.447  1.00  0.00    -0.237 OA
ATOM     74  O   UNL A   1      39.915  36.586  36.654  1.00  0.00    -0.237 OA
ATOM     75  O   UNL A   1      38.772  35.002  38.156  1.00  0.00    -0.744 OA
ENDBRANCH  71  72
ENDBRANCH  52  66
BRANCH  53  76
ATOM     76  C   UNL A   1      43.178  24.765  28.117  1.00  0.00    -0.014 A 
ATOM     77  C   UNL A   1      44.032  25.025  27.031  1.00  0.00     0.010 A 
ATOM     78  C   UNL A   1      42.644  23.473  28.274  1.00  0.00     0.010 A 
ATOM     79  C   UNL A   1      44.340  24.015  26.115  1.00  0.00     0.020 A 
ATOM     80  C   UNL A   1      42.968  22.454  27.374  1.00  0.00     0.020 A 
ATOM     81  C   UNL A   1      43.808  22.735  26.294  1.00  0.00     0.054 A 
BRANCH  81  82
ATOM     82  S   UNL A   1      44.272  21.419  25.133  1.00  0.00     0.124 S 
ATOM     83  O   UNL A   1      43.316  20.369  25.466  1.00  0.00    -0.237 OA
ATOM     84  O   UNL A   1      44.081  22.061  23.833  1.00  0.00    -0.237 OA
ATOM     85  O   UNL A   1      45.664  21.137  25.479  1.00  0.00    -0.744 OA
ENDBRANCH  81  82
ENDBRANCH  53  76
BRANCH  65  86
ATOM     86  C   UNL A   1      46.252  26.988  33.968  1.00  0.00    -0.014 A 
ATOM     87  C   UNL A   1      46.186  25.985  34.951  1.00  0.00     0.010 A 
ATOM     88  C   UNL A   1      47.502  27.542  33.636  1.00  0.00     0.010 A 
ATOM     89  C   UNL A   1      47.345  25.564  35.610  1.00  0.00     0.020 A 
ATOM     90  C   UNL A   1      48.666  27.108  34.277  1.00  0.00     0.020 A 
ATOM     91  C   UNL A   1      48.577  26.131  35.270  1.00  0.00     0.054 A 
BRANCH  91  92
ATOM     92  S   UNL A   1      50.074  25.541  36.109  1.00  0.00     0.124 S 
ATOM     93  O   UNL A   1      50.494  26.728  36.849  1.00  0.00    -0.237 OA
ATOM     94  O   UNL A   1      49.575  24.436  36.923  1.00  0.00    -0.237 OA
ATOM     95  O   UNL A   1      50.954  25.148  35.010  1.00  0.00    -0.744 OA
ENDBRANCH  91  92
ENDBRANCH  65  86
ENDBRANCH  39  40
ENDBRANCH  32  34
ENDBRANCH  31  32
ENDBRANCH  30  31
ENDBRANCH  29  30
ENDBRANCH   1  29
TORSDOF 20
ENDMDL
