MODEL 1
REMARK VINA RESULT:     -11.4      0.000      0.000
REMARK SMILES Cc1cccc(C(=O)OCCOCCOC(=O)c2ccc(-c3c4nc(c(-c5ccc(S(=O)(=O)[O-])cc5)c5ccc([nH]5)c(-c5ccc(S(=O)(=O)[O-])cc5)c5nc(c(-c6ccc(S(=O)(=O)[O-])cc6)c6ccc3[nH]6)C=C5)C=C4)cc2)c1NC(=O)Cc1ccccc1
REMARK SMILES IDX 12 1 11 2 10 3 9 4 7 5 8 6 6 7 1 8 2 9 3 10 78 11 4 12 5 13
REMARK SMILES IDX 79 14 80 15 81 17 82 18 83 19 84 20 88 21 85 22 87 23 86 24
REMARK SMILES IDX 13 25 14 26 15 27 16 28 17 29 18 30 19 31 77 32 20 33 76 34
REMARK SMILES IDX 21 35 22 36 23 37 70 38 24 39 75 40 69 41 71 42 25 43 74 44
REMARK SMILES IDX 68 45 67 46 26 48 56 49 37 50 55 51 38 52 41 53 54 54 72 55
REMARK SMILES IDX 39 56 40 57 53 59 73 60 42 61 27 62 28 63 36 64 29 65 35 66
REMARK SMILES IDX 30 67 31 68 32 69 33 70 34 71 57 72 58 73 66 74 59 75 65 76
REMARK SMILES IDX 60 77 61 78 62 79 63 80 64 81 43 82 44 83 52 84 45 85 51 86
REMARK SMILES IDX 46 87 47 88 48 89 49 90 50 91
REMARK H PARENT 79 16 71 47 41 58
REMARK Flexibility Score: inf
ROOT
ATOM      1  O   UNL A   1      46.253  21.918  38.051  1.00  0.00    -0.374 OA
ENDROOT
BRANCH   1   2
ATOM      2  C   UNL A   1      46.494  20.545  38.258  1.00  0.00     0.202 C 
BRANCH   2   3
ATOM      3  C   UNL A   1      46.497  20.156  39.713  1.00  0.00     0.261 C 
BRANCH   3   4
ATOM      4  O   UNL A   1      46.505  18.778  39.916  1.00  0.00    -0.460 OA
BRANCH   4   5
ATOM      5  C   UNL A   1      45.490  18.535  40.721  1.00  0.00     0.340 C 
ATOM      6  O   UNL A   1      44.937  19.328  41.488  1.00  0.00    -0.246 OA
BRANCH   5   7
ATOM      7  C   UNL A   1      45.001  17.228  40.319  1.00  0.00     0.083 A 
ATOM      8  C   UNL A   1      41.928  15.226  41.068  1.00  0.00     0.046 C 
ATOM      9  C   UNL A   1      43.201  15.769  40.467  1.00  0.00    -0.027 A 
ATOM     10  C   UNL A   1      43.179  15.726  39.028  1.00  0.00     0.005 A 
ATOM     11  C   UNL A   1      44.249  16.407  41.192  1.00  0.00     0.058 A 
ATOM     12  C   UNL A   1      44.152  16.320  38.249  1.00  0.00     0.001 A 
ATOM     13  C   UNL A   1      45.060  17.103  38.905  1.00  0.00     0.018 A 
BRANCH  11  14
ATOM     14  N   UNL A   1      44.289  16.279  42.662  1.00  0.00    -0.325 N 
ATOM     15  C   UNL A   1      44.077  15.651  43.890  1.00  0.00     0.228 C 
ATOM     16  H   UNL A   1      44.707  17.127  42.933  1.00  0.00     0.169 HD
ATOM     17  O   UNL A   1      44.735  16.323  44.697  1.00  0.00    -0.274 OA
BRANCH  15  18
ATOM     18  C   UNL A   1      43.083  14.549  44.545  1.00  0.00     0.135 C 
BRANCH  18  19
ATOM     19  C   UNL A   1      42.983  12.988  44.191  1.00  0.00    -0.039 A 
ATOM     20  C   UNL A   1      41.816  12.408  43.719  1.00  0.00     0.004 A 
ATOM     21  C   UNL A   1      43.887  11.977  44.550  1.00  0.00     0.004 A 
ATOM     22  C   UNL A   1      41.572  11.065  43.349  1.00  0.00     0.000 A 
ATOM     23  C   UNL A   1      43.655  10.578  44.297  1.00  0.00     0.000 A 
ATOM     24  C   UNL A   1      42.505  10.121  43.663  1.00  0.00     0.000 A 
ENDBRANCH  18  19
ENDBRANCH  15  18
ENDBRANCH  11  14
ENDBRANCH   5   7
ENDBRANCH   4   5
ENDBRANCH   3   4
ENDBRANCH   2   3
ENDBRANCH   1   2
BRANCH   1  25
ATOM     25  C   UNL A   1      45.556  22.117  36.816  1.00  0.00     0.202 C 
BRANCH  25  26
ATOM     26  C   UNL A   1      45.293  23.601  36.437  1.00  0.00     0.261 C 
BRANCH  26  27
ATOM     27  O   UNL A   1      45.163  23.683  34.996  1.00  0.00    -0.460 OA
BRANCH  27  28
ATOM     28  C   UNL A   1      43.902  23.804  34.485  1.00  0.00     0.338 C 
ATOM     29  O   UNL A   1      43.355  22.972  33.784  1.00  0.00    -0.246 OA
BRANCH  28  30
ATOM     30  C   UNL A   1      43.390  25.201  34.715  1.00  0.00     0.060 A 
ATOM     31  C   UNL A   1      42.090  25.419  35.188  1.00  0.00     0.016 A 
ATOM     32  C   UNL A   1      44.078  26.291  34.194  1.00  0.00     0.016 A 
ATOM     33  C   UNL A   1      41.418  26.627  34.897  1.00  0.00     0.010 A 
ATOM     34  C   UNL A   1      43.361  27.434  33.829  1.00  0.00     0.010 A 
ATOM     35  C   UNL A   1      41.958  27.522  33.987  1.00  0.00    -0.014 A 
BRANCH  35  36
ATOM     36  C   UNL A   1      41.232  28.593  33.186  1.00  0.00     0.031 A 
ATOM     37  C   UNL A   1      40.829  29.743  34.047  1.00  0.00     0.074 A 
ATOM     38  C   UNL A   1      41.175  28.811  31.807  1.00  0.00     0.049 A 
ATOM     39  N   UNL A   1      40.243  30.814  33.638  1.00  0.00    -0.248 NA
ATOM     40  C   UNL A   1      41.044  29.748  35.505  1.00  0.00     0.031 C 
ATOM     41  C   UNL A   1      41.490  30.121  31.205  1.00  0.00     0.029 A 
ATOM     42  N   UNL A   1      41.093  28.020  30.618  1.00  0.00    -0.354 N 
ATOM     43  C   UNL A   1      40.540  31.757  34.591  1.00  0.00     0.074 A 
ATOM     44  C   UNL A   1      40.778  31.020  35.801  1.00  0.00     0.031 C 
ATOM     45  C   UNL A   1      41.432  30.063  29.862  1.00  0.00     0.029 A 
ATOM     46  C   UNL A   1      40.902  28.770  29.458  1.00  0.00     0.049 A 
ATOM     47  H   UNL A   1      41.165  27.037  30.618  1.00  0.00     0.167 HD
ATOM     48  C   UNL A   1      40.843  33.022  34.196  1.00  0.00     0.031 A 
ATOM     49  C   UNL A   1      39.986  28.525  28.469  1.00  0.00     0.031 A 
ATOM     50  C   UNL A   1      40.523  33.262  32.785  1.00  0.00     0.049 A 
ATOM     51  C   UNL A   1      38.998  29.678  28.473  1.00  0.00     0.074 A 
ATOM     52  C   UNL A   1      41.269  33.631  31.679  1.00  0.00     0.029 A 
ATOM     53  N   UNL A   1      39.282  32.857  32.291  1.00  0.00    -0.354 N 
ATOM     54  N   UNL A   1      39.113  30.640  29.347  1.00  0.00    -0.248 NA
ATOM     55  C   UNL A   1      37.826  29.887  27.629  1.00  0.00     0.031 C 
ATOM     56  C   UNL A   1      40.482  33.369  30.514  1.00  0.00     0.029 A 
ATOM     57  C   UNL A   1      39.243  32.889  30.910  1.00  0.00     0.049 A 
ATOM     58  H   UNL A   1      38.525  32.583  32.858  1.00  0.00     0.167 HD
ATOM     59  C   UNL A   1      38.095  31.517  29.277  1.00  0.00     0.074 A 
ATOM     60  C   UNL A   1      37.301  31.011  28.170  1.00  0.00     0.031 C 
ATOM     61  C   UNL A   1      38.012  32.524  30.194  1.00  0.00     0.031 A 
BRANCH  48  62
ATOM     62  C   UNL A   1      41.632  33.976  35.067  1.00  0.00    -0.014 A 
ATOM     63  C   UNL A   1      40.975  34.677  36.091  1.00  0.00     0.010 A 
ATOM     64  C   UNL A   1      43.005  34.274  34.889  1.00  0.00     0.010 A 
ATOM     65  C   UNL A   1      41.661  35.566  36.936  1.00  0.00     0.020 A 
ATOM     66  C   UNL A   1      43.712  35.121  35.751  1.00  0.00     0.020 A 
ATOM     67  C   UNL A   1      43.033  35.761  36.779  1.00  0.00     0.054 A 
BRANCH  67  68
ATOM     68  S   UNL A   1      43.919  36.840  37.933  1.00  0.00     0.124 S 
ATOM     69  O   UNL A   1      42.925  37.063  38.979  1.00  0.00    -0.237 OA
ATOM     70  O   UNL A   1      45.065  36.020  38.315  1.00  0.00    -0.237 OA
ATOM     71  O   UNL A   1      44.245  38.017  37.129  1.00  0.00    -0.744 OA
ENDBRANCH  67  68
ENDBRANCH  48  62
BRANCH  49  72
ATOM     72  C   UNL A   1      39.800  27.130  27.906  1.00  0.00    -0.014 A 
ATOM     73  C   UNL A   1      40.454  26.770  26.704  1.00  0.00     0.010 A 
ATOM     74  C   UNL A   1      39.298  26.061  28.667  1.00  0.00     0.010 A 
ATOM     75  C   UNL A   1      40.753  25.419  26.379  1.00  0.00     0.020 A 
ATOM     76  C   UNL A   1      39.631  24.706  28.373  1.00  0.00     0.020 A 
ATOM     77  C   UNL A   1      40.445  24.399  27.282  1.00  0.00     0.054 A 
BRANCH  77  78
ATOM     78  S   UNL A   1      41.336  22.773  27.166  1.00  0.00     0.124 S 
ATOM     79  O   UNL A   1      42.444  23.075  26.262  1.00  0.00    -0.237 OA
ATOM     80  O   UNL A   1      41.734  22.482  28.544  1.00  0.00    -0.237 OA
ATOM     81  O   UNL A   1      40.360  21.826  26.635  1.00  0.00    -0.744 OA
ENDBRANCH  77  78
ENDBRANCH  49  72
BRANCH  61  82
ATOM     82  C   UNL A   1      36.759  33.299  30.470  1.00  0.00    -0.014 A 
ATOM     83  C   UNL A   1      36.376  33.710  31.754  1.00  0.00     0.010 A 
ATOM     84  C   UNL A   1      35.980  33.752  29.381  1.00  0.00     0.010 A 
ATOM     85  C   UNL A   1      35.200  34.437  31.953  1.00  0.00     0.020 A 
ATOM     86  C   UNL A   1      34.842  34.533  29.562  1.00  0.00     0.020 A 
ATOM     87  C   UNL A   1      34.432  34.826  30.856  1.00  0.00     0.054 A 
BRANCH  87  88
ATOM     88  S   UNL A   1      32.890  35.718  31.141  1.00  0.00     0.124 S 
ATOM     89  O   UNL A   1      33.381  37.043  31.510  1.00  0.00    -0.237 OA
ATOM     90  O   UNL A   1      32.224  35.634  29.844  1.00  0.00    -0.237 OA
ATOM     91  O   UNL A   1      32.247  34.966  32.216  1.00  0.00    -0.744 OA
ENDBRANCH  87  88
ENDBRANCH  61  82
ENDBRANCH  35  36
ENDBRANCH  28  30
ENDBRANCH  27  28
ENDBRANCH  26  27
ENDBRANCH  25  26
ENDBRANCH   1  25
TORSDOF 20
ENDMDL
MODEL 2
REMARK VINA RESULT:     -11.3      1.004      1.871
REMARK SMILES Cc1cccc(C(=O)OCCOCCOC(=O)c2ccc(-c3c4nc(c(-c5ccc(S(=O)(=O)[O-])cc5)c5ccc([nH]5)c(-c5ccc(S(=O)(=O)[O-])cc5)c5nc(c(-c6ccc(S(=O)(=O)[O-])cc6)c6ccc3[nH]6)C=C5)C=C4)cc2)c1NC(=O)Cc1ccccc1
REMARK SMILES IDX 12 1 11 2 10 3 9 4 7 5 8 6 6 7 1 8 2 9 3 10 78 11 4 12 5 13
REMARK SMILES IDX 79 14 80 15 81 17 82 18 83 19 84 20 88 21 85 22 87 23 86 24
REMARK SMILES IDX 13 25 14 26 15 27 16 28 17 29 18 30 19 31 77 32 20 33 76 34
REMARK SMILES IDX 21 35 22 36 23 37 70 38 24 39 75 40 69 41 71 42 25 43 74 44
REMARK SMILES IDX 68 45 67 46 26 48 56 49 37 50 55 51 38 52 41 53 54 54 72 55
REMARK SMILES IDX 39 56 40 57 53 59 73 60 42 61 27 62 28 63 36 64 29 65 35 66
REMARK SMILES IDX 30 67 31 68 32 69 33 70 34 71 57 72 58 73 66 74 59 75 65 76
REMARK SMILES IDX 60 77 61 78 62 79 63 80 64 81 43 82 44 83 52 84 45 85 51 86
REMARK SMILES IDX 46 87 47 88 48 89 49 90 50 91
REMARK H PARENT 79 16 71 47 41 58
REMARK Flexibility Score: inf
ROOT
ATOM      1  O   UNL A   1      45.656  20.458  37.432  1.00  0.00    -0.374 OA
ENDROOT
BRANCH   1   2
ATOM      2  C   UNL A   1      46.867  19.752  37.576  1.00  0.00     0.202 C 
BRANCH   2   3
ATOM      3  C   UNL A   1      46.869  18.811  38.752  1.00  0.00     0.261 C 
BRANCH   3   4
ATOM      4  O   UNL A   1      45.722  18.906  39.537  1.00  0.00    -0.460 OA
BRANCH   4   5
ATOM      5  C   UNL A   1      45.526  17.697  40.022  1.00  0.00     0.340 C 
ATOM      6  O   UNL A   1      46.084  16.653  39.675  1.00  0.00    -0.246 OA
BRANCH   5   7
ATOM      7  C   UNL A   1      44.723  17.900  41.214  1.00  0.00     0.083 A 
ATOM      8  C   UNL A   1      43.781  15.770  44.145  1.00  0.00     0.046 C 
ATOM      9  C   UNL A   1      44.034  16.922  43.205  1.00  0.00    -0.027 A 
ATOM     10  C   UNL A   1      44.545  18.078  43.894  1.00  0.00     0.005 A 
ATOM     11  C   UNL A   1      43.948  16.861  41.783  1.00  0.00     0.058 A 
ATOM     12  C   UNL A   1      45.013  19.196  43.232  1.00  0.00     0.001 A 
ATOM     13  C   UNL A   1      45.126  19.092  41.873  1.00  0.00     0.018 A 
BRANCH  11  14
ATOM     14  N   UNL A   1      43.271  15.712  41.151  1.00  0.00    -0.325 N 
ATOM     15  C   UNL A   1      42.351  14.667  41.068  1.00  0.00     0.228 C 
ATOM     16  H   UNL A   1      43.742  15.642  40.290  1.00  0.00     0.169 HD
ATOM     17  O   UNL A   1      42.383  14.322  39.878  1.00  0.00    -0.274 OA
BRANCH  15  18
ATOM     18  C   UNL A   1      41.523  13.683  42.058  1.00  0.00     0.135 C 
BRANCH  18  19
ATOM     19  C   UNL A   1      42.101  12.482  42.949  1.00  0.00    -0.039 A 
ATOM     20  C   UNL A   1      43.345  12.541  43.558  1.00  0.00     0.004 A 
ATOM     21  C   UNL A   1      41.621  11.165  43.011  1.00  0.00     0.004 A 
ATOM     22  C   UNL A   1      43.985  11.585  44.380  1.00  0.00     0.000 A 
ATOM     23  C   UNL A   1      42.279  10.114  43.745  1.00  0.00     0.000 A 
ATOM     24  C   UNL A   1      43.451  10.332  44.461  1.00  0.00     0.000 A 
ENDBRANCH  18  19
ENDBRANCH  15  18
ENDBRANCH  11  14
ENDBRANCH   5   7
ENDBRANCH   4   5
ENDBRANCH   3   4
ENDBRANCH   2   3
ENDBRANCH   1   2
BRANCH   1  25
ATOM     25  C   UNL A   1      45.871  21.661  36.683  1.00  0.00     0.202 C 
BRANCH  25  26
ATOM     26  C   UNL A   1      44.903  21.877  35.488  1.00  0.00     0.261 C 
BRANCH  26  27
ATOM     27  O   UNL A   1      44.553  23.283  35.439  1.00  0.00    -0.460 OA
BRANCH  27  28
ATOM     28  C   UNL A   1      43.663  23.675  34.480  1.00  0.00     0.338 C 
ATOM     29  O   UNL A   1      43.402  23.040  33.474  1.00  0.00    -0.246 OA
BRANCH  28  30
ATOM     30  C   UNL A   1      43.238  25.098  34.728  1.00  0.00     0.060 A 
ATOM     31  C   UNL A   1      41.984  25.387  35.279  1.00  0.00     0.016 A 
ATOM     32  C   UNL A   1      43.948  26.148  34.154  1.00  0.00     0.016 A 
ATOM     33  C   UNL A   1      41.358  26.626  35.020  1.00  0.00     0.010 A 
ATOM     34  C   UNL A   1      43.269  27.324  33.824  1.00  0.00     0.010 A 
ATOM     35  C   UNL A   1      41.885  27.486  34.069  1.00  0.00    -0.014 A 
BRANCH  35  36
ATOM     36  C   UNL A   1      41.166  28.588  33.304  1.00  0.00     0.031 A 
ATOM     37  C   UNL A   1      40.763  29.707  34.205  1.00  0.00     0.074 A 
ATOM     38  C   UNL A   1      41.116  28.857  31.934  1.00  0.00     0.049 A 
ATOM     39  N   UNL A   1      40.182  30.794  33.833  1.00  0.00    -0.248 NA
ATOM     40  C   UNL A   1      40.970  29.657  35.663  1.00  0.00     0.031 C 
ATOM     41  C   UNL A   1      41.438  30.187  31.382  1.00  0.00     0.029 A 
ATOM     42  N   UNL A   1      41.037  28.111  30.716  1.00  0.00    -0.354 N 
ATOM     43  C   UNL A   1      40.477  31.701  34.822  1.00  0.00     0.074 A 
ATOM     44  C   UNL A   1      40.708  30.919  36.005  1.00  0.00     0.031 C 
ATOM     45  C   UNL A   1      41.386  30.179  30.038  1.00  0.00     0.029 A 
ATOM     46  C   UNL A   1      40.854  28.904  29.584  1.00  0.00     0.049 A 
ATOM     47  H   UNL A   1      41.106  27.128  30.680  1.00  0.00     0.167 HD
ATOM     48  C   UNL A   1      40.786  32.978  34.475  1.00  0.00     0.031 A 
ATOM     49  C   UNL A   1      39.941  28.698  28.583  1.00  0.00     0.031 A 
ATOM     50  C   UNL A   1      40.474  33.271  33.072  1.00  0.00     0.049 A 
ATOM     51  C   UNL A   1      38.958  29.853  28.624  1.00  0.00     0.074 A 
ATOM     52  C   UNL A   1      41.226  33.678  31.984  1.00  0.00     0.029 A 
ATOM     53  N   UNL A   1      39.234  32.889  32.558  1.00  0.00    -0.354 N 
ATOM     54  N   UNL A   1      39.071  30.782  29.533  1.00  0.00    -0.248 NA
ATOM     55  C   UNL A   1      37.790  30.097  27.783  1.00  0.00     0.031 C 
ATOM     56  C   UNL A   1      40.444  33.461  30.807  1.00  0.00     0.029 A 
ATOM     57  C   UNL A   1      39.201  32.971  31.179  1.00  0.00     0.049 A 
ATOM     58  H   UNL A   1      38.474  32.596  33.112  1.00  0.00     0.167 HD
ATOM     59  C   UNL A   1      38.056  31.664  29.492  1.00  0.00     0.074 A 
ATOM     60  C   UNL A   1      37.266  31.202  28.363  1.00  0.00     0.031 C 
ATOM     61  C   UNL A   1      37.972  32.637  30.445  1.00  0.00     0.031 A 
BRANCH  48  62
ATOM     62  C   UNL A   1      41.575  33.897  35.384  1.00  0.00    -0.014 A 
ATOM     63  C   UNL A   1      42.975  33.933  35.278  1.00  0.00     0.010 A 
ATOM     64  C   UNL A   1      41.005  34.701  36.400  1.00  0.00     0.010 A 
ATOM     65  C   UNL A   1      43.755  34.776  36.087  1.00  0.00     0.020 A 
ATOM     66  C   UNL A   1      41.764  35.581  37.182  1.00  0.00     0.020 A 
ATOM     67  C   UNL A   1      43.142  35.618  37.015  1.00  0.00     0.054 A 
BRANCH  67  68
ATOM     68  S   UNL A   1      44.154  36.763  37.986  1.00  0.00     0.124 S 
ATOM     69  O   UNL A   1      44.884  35.862  38.873  1.00  0.00    -0.237 OA
ATOM     70  O   UNL A   1      44.954  37.425  36.959  1.00  0.00    -0.237 OA
ATOM     71  O   UNL A   1      43.172  37.621  38.649  1.00  0.00    -0.744 OA
ENDBRANCH  67  68
ENDBRANCH  48  62
BRANCH  49  72
ATOM     72  C   UNL A   1      39.754  27.325  27.967  1.00  0.00    -0.014 A 
ATOM     73  C   UNL A   1      40.384  27.020  26.738  1.00  0.00     0.010 A 
ATOM     74  C   UNL A   1      39.277  26.222  28.695  1.00  0.00     0.010 A 
ATOM     75  C   UNL A   1      40.686  25.685  26.352  1.00  0.00     0.020 A 
ATOM     76  C   UNL A   1      39.614  24.883  28.339  1.00  0.00     0.020 A 
ATOM     77  C   UNL A   1      40.406  24.627  27.220  1.00  0.00     0.054 A 
BRANCH  77  78
ATOM     78  S   UNL A   1      41.307  23.015  27.018  1.00  0.00     0.124 S 
ATOM     79  O   UNL A   1      41.446  22.548  28.396  1.00  0.00    -0.237 OA
ATOM     80  O   UNL A   1      40.414  22.207  26.186  1.00  0.00    -0.237 OA
ATOM     81  O   UNL A   1      42.566  23.346  26.359  1.00  0.00    -0.744 OA
ENDBRANCH  77  78
ENDBRANCH  49  72
BRANCH  61  82
ATOM     82  C   UNL A   1      36.720  33.406  30.743  1.00  0.00    -0.014 A 
ATOM     83  C   UNL A   1      35.550  33.296  29.979  1.00  0.00     0.010 A 
ATOM     84  C   UNL A   1      36.660  34.188  31.919  1.00  0.00     0.010 A 
ATOM     85  C   UNL A   1      34.409  34.031  30.306  1.00  0.00     0.020 A 
ATOM     86  C   UNL A   1      35.508  34.874  32.290  1.00  0.00     0.020 A 
ATOM     87  C   UNL A   1      34.404  34.830  31.449  1.00  0.00     0.054 A 
BRANCH  87  88
ATOM     88  S   UNL A   1      32.937  35.812  31.822  1.00  0.00     0.124 S 
ATOM     89  O   UNL A   1      32.502  36.211  30.486  1.00  0.00    -0.237 OA
ATOM     90  O   UNL A   1      32.071  34.853  32.504  1.00  0.00    -0.237 OA
ATOM     91  O   UNL A   1      33.446  36.891  32.664  1.00  0.00    -0.744 OA
ENDBRANCH  87  88
ENDBRANCH  61  82
ENDBRANCH  35  36
ENDBRANCH  28  30
ENDBRANCH  27  28
ENDBRANCH  26  27
ENDBRANCH  25  26
ENDBRANCH   1  25
TORSDOF 20
ENDMDL
MODEL 3
REMARK VINA RESULT:     -11.2      9.646     15.610
REMARK SMILES Cc1cccc(C(=O)OCCOCCOC(=O)c2ccc(-c3c4nc(c(-c5ccc(S(=O)(=O)[O-])cc5)c5ccc([nH]5)c(-c5ccc(S(=O)(=O)[O-])cc5)c5nc(c(-c6ccc(S(=O)(=O)[O-])cc6)c6ccc3[nH]6)C=C5)C=C4)cc2)c1NC(=O)Cc1ccccc1
REMARK SMILES IDX 12 1 11 2 10 3 9 4 7 5 8 6 6 7 1 8 2 9 3 10 78 11 4 12 5 13
REMARK SMILES IDX 79 14 80 15 81 17 82 18 83 19 84 20 88 21 85 22 87 23 86 24
REMARK SMILES IDX 13 25 14 26 15 27 16 28 17 29 18 30 19 31 77 32 20 33 76 34
REMARK SMILES IDX 21 35 22 36 23 37 70 38 24 39 75 40 69 41 71 42 25 43 74 44
REMARK SMILES IDX 68 45 67 46 26 48 56 49 37 50 55 51 38 52 41 53 54 54 72 55
REMARK SMILES IDX 39 56 40 57 53 59 73 60 42 61 27 62 28 63 36 64 29 65 35 66
REMARK SMILES IDX 30 67 31 68 32 69 33 70 34 71 57 72 58 73 66 74 59 75 65 76
REMARK SMILES IDX 60 77 61 78 62 79 63 80 64 81 43 82 44 83 52 84 45 85 51 86
REMARK SMILES IDX 46 87 47 88 48 89 49 90 50 91
REMARK H PARENT 79 16 71 47 41 58
REMARK Flexibility Score: inf
ROOT
ATOM      1  O   UNL A   1      36.875  32.800  35.588  1.00  0.00    -0.374 OA
ENDROOT
BRANCH   1   2
ATOM      2  C   UNL A   1      36.484  34.055  35.078  1.00  0.00     0.202 C 
BRANCH   2   3
ATOM      3  C   UNL A   1      35.245  33.989  34.226  1.00  0.00     0.261 C 
BRANCH   3   4
ATOM      4  O   UNL A   1      35.510  33.737  32.882  1.00  0.00    -0.460 OA
BRANCH   4   5
ATOM      5  C   UNL A   1      34.339  33.481  32.334  1.00  0.00     0.340 C 
ATOM      6  O   UNL A   1      33.256  33.350  32.911  1.00  0.00    -0.246 OA
BRANCH   5   7
ATOM      7  C   UNL A   1      34.551  33.651  30.908  1.00  0.00     0.083 A 
ATOM      8  C   UNL A   1      33.971  31.515  27.890  1.00  0.00     0.046 C 
ATOM      9  C   UNL A   1      34.232  32.664  28.831  1.00  0.00    -0.027 A 
ATOM     10  C   UNL A   1      33.549  33.863  28.419  1.00  0.00     0.005 A 
ATOM     11  C   UNL A   1      34.928  32.574  30.071  1.00  0.00     0.058 A 
ATOM     12  C   UNL A   1      33.494  34.998  29.205  1.00  0.00     0.001 A 
ATOM     13  C   UNL A   1      33.980  34.878  30.477  1.00  0.00     0.018 A 
BRANCH  11  14
ATOM     14  N   UNL A   1      35.734  31.372  30.358  1.00  0.00    -0.325 N 
ATOM     15  C   UNL A   1      36.892  30.593  30.380  1.00  0.00     0.228 C 
ATOM     16  H   UNL A   1      35.074  30.774  30.776  1.00  0.00     0.169 HD
ATOM     17  O   UNL A   1      36.611  29.646  31.130  1.00  0.00    -0.274 OA
BRANCH  15  18
ATOM     18  C   UNL A   1      38.283  30.445  29.559  1.00  0.00     0.135 C 
BRANCH  18  19
ATOM     19  C   UNL A   1      39.300  29.206  29.573  1.00  0.00    -0.039 A 
ATOM     20  C   UNL A   1      40.632  29.343  29.932  1.00  0.00     0.004 A 
ATOM     21  C   UNL A   1      39.109  27.944  28.989  1.00  0.00     0.004 A 
ATOM     22  C   UNL A   1      41.643  28.356  30.011  1.00  0.00     0.000 A 
ATOM     23  C   UNL A   1      40.129  26.928  28.942  1.00  0.00     0.000 A 
ATOM     24  C   UNL A   1      41.394  27.123  29.484  1.00  0.00     0.000 A 
ENDBRANCH  18  19
ENDBRANCH  15  18
ENDBRANCH  11  14
ENDBRANCH   5   7
ENDBRANCH   4   5
ENDBRANCH   3   4
ENDBRANCH   2   3
ENDBRANCH   1   2
BRANCH   1  25
ATOM     25  C   UNL A   1      37.564  32.965  36.833  1.00  0.00     0.202 C 
BRANCH  25  26
ATOM     26  C   UNL A   1      39.031  32.454  36.849  1.00  0.00     0.261 C 
BRANCH  26  27
ATOM     27  O   UNL A   1      39.779  33.198  35.854  1.00  0.00    -0.460 OA
BRANCH  27  28
ATOM     28  C   UNL A   1      40.062  32.563  34.679  1.00  0.00     0.338 C 
ATOM     29  O   UNL A   1      40.251  31.365  34.565  1.00  0.00    -0.246 OA
BRANCH  28  30
ATOM     30  C   UNL A   1      40.340  33.579  33.603  1.00  0.00     0.060 A 
ATOM     31  C   UNL A   1      39.703  33.500  32.360  1.00  0.00     0.016 A 
ATOM     32  C   UNL A   1      41.434  34.431  33.714  1.00  0.00     0.016 A 
ATOM     33  C   UNL A   1      40.310  34.050  31.209  1.00  0.00     0.010 A 
ATOM     34  C   UNL A   1      42.067  34.876  32.550  1.00  0.00     0.010 A 
ATOM     35  C   UNL A   1      41.620  34.500  31.262  1.00  0.00    -0.014 A 
BRANCH  35  36
ATOM     36  C   UNL A   1      42.598  34.668  30.108  1.00  0.00     0.031 A 
ATOM     37  C   UNL A   1      43.363  33.414  29.851  1.00  0.00     0.074 A 
ATOM     38  C   UNL A   1      42.656  35.637  29.103  1.00  0.00     0.049 A 
ATOM     39  N   UNL A   1      44.224  33.243  28.909  1.00  0.00    -0.248 NA
ATOM     40  C   UNL A   1      43.225  32.219  30.702  1.00  0.00     0.031 C 
ATOM     41  C   UNL A   1      42.721  35.283  27.672  1.00  0.00     0.029 A 
ATOM     42  N   UNL A   1      42.445  37.047  28.986  1.00  0.00    -0.354 N 
ATOM     43  C   UNL A   1      44.266  31.883  28.720  1.00  0.00     0.074 A 
ATOM     44  C   UNL A   1      43.872  31.307  29.976  1.00  0.00     0.031 C 
ATOM     45  C   UNL A   1      42.701  36.385  26.900  1.00  0.00     0.029 A 
ATOM     46  C   UNL A   1      42.801  37.566  27.741  1.00  0.00     0.049 A 
ATOM     47  H   UNL A   1      42.083  37.601  29.717  1.00  0.00     0.167 HD
ATOM     48  C   UNL A   1      44.339  31.395  27.454  1.00  0.00     0.031 A 
ATOM     49  C   UNL A   1      43.557  38.685  27.509  1.00  0.00     0.031 A 
ATOM     50  C   UNL A   1      44.653  32.434  26.468  1.00  0.00     0.049 A 
ATOM     51  C   UNL A   1      44.844  38.230  26.844  1.00  0.00     0.074 A 
ATOM     52  C   UNL A   1      44.004  32.927  25.349  1.00  0.00     0.029 A 
ATOM     53  N   UNL A   1      45.693  33.327  26.730  1.00  0.00    -0.354 N 
ATOM     54  N   UNL A   1      45.061  36.961  26.630  1.00  0.00    -0.248 NA
ATOM     55  C   UNL A   1      45.987  39.027  26.410  1.00  0.00     0.031 C 
ATOM     56  C   UNL A   1      44.624  34.165  24.994  1.00  0.00     0.029 A 
ATOM     57  C   UNL A   1      45.679  34.403  25.862  1.00  0.00     0.049 A 
ATOM     58  H   UNL A   1      46.357  33.205  27.447  1.00  0.00     0.167 HD
ATOM     59  C   UNL A   1      46.291  36.730  26.135  1.00  0.00     0.074 A 
ATOM     60  C   UNL A   1      46.847  38.066  26.002  1.00  0.00     0.031 C 
ATOM     61  C   UNL A   1      46.712  35.445  25.955  1.00  0.00     0.031 A 
BRANCH  48  62
ATOM     62  C   UNL A   1      43.910  29.986  27.102  1.00  0.00    -0.014 A 
ATOM     63  C   UNL A   1      42.630  29.770  26.567  1.00  0.00     0.010 A 
ATOM     64  C   UNL A   1      44.694  28.829  27.330  1.00  0.00     0.010 A 
ATOM     65  C   UNL A   1      42.184  28.486  26.210  1.00  0.00     0.020 A 
ATOM     66  C   UNL A   1      44.283  27.549  26.937  1.00  0.00     0.020 A 
ATOM     67  C   UNL A   1      43.026  27.385  26.371  1.00  0.00     0.054 A 
BRANCH  67  68
ATOM     68  S   UNL A   1      42.471  25.751  25.823  1.00  0.00     0.124 S 
ATOM     69  O   UNL A   1      42.575  24.959  27.045  1.00  0.00    -0.237 OA
ATOM     70  O   UNL A   1      41.114  26.019  25.356  1.00  0.00    -0.237 OA
ATOM     71  O   UNL A   1      43.424  25.393  24.772  1.00  0.00    -0.744 OA
ENDBRANCH  67  68
ENDBRANCH  48  62
BRANCH  49  72
ATOM     72  C   UNL A   1      43.292  39.975  28.258  1.00  0.00    -0.014 A 
ATOM     73  C   UNL A   1      42.024  40.192  28.848  1.00  0.00     0.010 A 
ATOM     74  C   UNL A   1      44.320  40.826  28.700  1.00  0.00     0.010 A 
ATOM     75  C   UNL A   1      41.840  41.077  29.946  1.00  0.00     0.020 A 
ATOM     76  C   UNL A   1      44.155  41.682  29.828  1.00  0.00     0.020 A 
ATOM     77  C   UNL A   1      42.939  41.727  30.510  1.00  0.00     0.054 A 
BRANCH  77  78
ATOM     78  S   UNL A   1      42.826  42.376  32.248  1.00  0.00     0.124 S 
ATOM     79  O   UNL A   1      42.303  43.727  32.055  1.00  0.00    -0.237 OA
ATOM     80  O   UNL A   1      41.907  41.454  32.916  1.00  0.00    -0.237 OA
ATOM     81  O   UNL A   1      44.185  42.321  32.778  1.00  0.00    -0.744 OA
ENDBRANCH  77  78
ENDBRANCH  49  72
BRANCH  61  82
ATOM     82  C   UNL A   1      48.150  35.052  25.800  1.00  0.00    -0.014 A 
ATOM     83  C   UNL A   1      49.026  35.682  24.904  1.00  0.00     0.010 A 
ATOM     84  C   UNL A   1      48.697  34.089  26.678  1.00  0.00     0.010 A 
ATOM     85  C   UNL A   1      50.359  35.280  24.805  1.00  0.00     0.020 A 
ATOM     86  C   UNL A   1      50.040  33.727  26.633  1.00  0.00     0.020 A 
ATOM     87  C   UNL A   1      50.851  34.292  25.657  1.00  0.00     0.054 A 
BRANCH  87  88
ATOM     88  S   UNL A   1      52.562  33.752  25.474  1.00  0.00     0.124 S 
ATOM     89  O   UNL A   1      52.592  32.572  26.335  1.00  0.00    -0.237 OA
ATOM     90  O   UNL A   1      52.666  33.486  24.042  1.00  0.00    -0.237 OA
ATOM     91  O   UNL A   1      53.339  34.894  25.949  1.00  0.00    -0.744 OA
ENDBRANCH  87  88
ENDBRANCH  61  82
ENDBRANCH  35  36
ENDBRANCH  28  30
ENDBRANCH  27  28
ENDBRANCH  26  27
ENDBRANCH  25  26
ENDBRANCH   1  25
TORSDOF 20
ENDMDL
