MODEL 1
REMARK VINA RESULT:     -10.8      0.000      0.000
REMARK SMILES O=C(OCCOCCOC(=O)c1cn(-c2cc(Cl)ncn2)cn1)c1ccc(-c2c3nc(c(-c4ccc(S(=O)(=O)[O-])cc4)c4ccc([nH]4)c(-c4ccc(S(=O)(=O)[O-])cc4)c4nc(c(-c5ccc(S(=O)(=O)[O-])cc5)c5ccc2[nH]5)C=C4)C=C3)cc1
REMARK SMILES IDX 5 1 4 2 3 3 2 4 1 5 24 6 25 7 83 8 26 9 82 10 27 11 28 12
REMARK SMILES IDX 29 13 76 14 30 15 81 16 75 17 77 18 31 19 80 20 74 21 73 22
REMARK SMILES IDX 32 24 62 25 43 26 61 27 44 28 47 29 60 30 78 31 45 32 46 33
REMARK SMILES IDX 59 35 79 36 48 37 33 38 34 39 42 40 35 41 41 42 36 43 37 44
REMARK SMILES IDX 38 45 39 46 40 47 63 48 64 49 72 50 65 51 71 52 66 53 67 54
REMARK SMILES IDX 68 55 69 56 70 57 49 58 50 59 58 60 51 61 57 62 52 63 53 64
REMARK SMILES IDX 54 65 55 66 56 67 6 68 7 69 8 70 9 71 10 72 11 73 12 74
REMARK SMILES IDX 13 75 23 76 14 77 22 78 15 79 16 80 21 81 17 82 20 83 18 84
REMARK SMILES IDX 19 85
REMARK H PARENT 77 23 47 34
REMARK Flexibility Score: inf
ROOT
ATOM      1  C   UNL A   1      32.707  28.916  27.698  1.00  0.00     0.202 C 
ENDROOT
BRANCH   1   2
ATOM      2  C   UNL A   1      32.916  30.240  26.970  1.00  0.00     0.261 C 
BRANCH   2   3
ATOM      3  O   UNL A   1      34.293  30.627  26.773  1.00  0.00    -0.460 OA
BRANCH   3   4
ATOM      4  C   UNL A   1      34.887  31.514  27.605  1.00  0.00     0.338 C 
ATOM      5  O   UNL A   1      34.362  32.572  27.929  1.00  0.00    -0.246 OA
BRANCH   4   6
ATOM      6  C   UNL A   1      36.056  30.960  28.331  1.00  0.00     0.060 A 
ATOM      7  C   UNL A   1      37.060  31.773  28.859  1.00  0.00     0.016 A 
ATOM      8  C   UNL A   1      36.195  29.565  28.380  1.00  0.00     0.016 A 
ATOM      9  C   UNL A   1      38.266  31.226  29.235  1.00  0.00     0.010 A 
ATOM     10  C   UNL A   1      37.397  29.007  28.799  1.00  0.00     0.010 A 
ATOM     11  C   UNL A   1      38.456  29.851  29.129  1.00  0.00    -0.014 A 
BRANCH  11  12
ATOM     12  C   UNL A   1      39.820  29.386  29.334  1.00  0.00     0.031 A 
ATOM     13  C   UNL A   1      40.254  29.235  30.748  1.00  0.00     0.074 A 
ATOM     14  C   UNL A   1      40.640  29.112  28.304  1.00  0.00     0.049 A 
ATOM     15  N   UNL A   1      41.217  29.839  31.368  1.00  0.00    -0.248 NA
ATOM     16  C   UNL A   1      39.435  28.366  31.603  1.00  0.00     0.031 C 
ATOM     17  C   UNL A   1      40.291  28.981  26.886  1.00  0.00     0.029 A 
ATOM     18  N   UNL A   1      41.955  28.766  28.336  1.00  0.00    -0.354 N 
ATOM     19  C   UNL A   1      41.244  29.295  32.650  1.00  0.00     0.074 A 
ATOM     20  C   UNL A   1      40.051  28.495  32.778  1.00  0.00     0.031 C 
ATOM     21  C   UNL A   1      41.287  28.330  26.250  1.00  0.00     0.029 A 
ATOM     22  C   UNL A   1      42.386  28.137  27.180  1.00  0.00     0.049 A 
ATOM     23  H   UNL A   1      42.542  28.944  29.106  1.00  0.00     0.167 HD
ATOM     24  C   UNL A   1      42.337  29.369  33.459  1.00  0.00     0.031 A 
ATOM     25  C   UNL A   1      43.520  27.411  27.033  1.00  0.00     0.031 A 
ATOM     26  C   UNL A   1      43.254  30.398  33.059  1.00  0.00     0.049 A 
ATOM     27  C   UNL A   1      44.455  27.809  28.113  1.00  0.00     0.074 A 
ATOM     28  C   UNL A   1      43.190  31.773  32.950  1.00  0.00     0.029 A 
ATOM     29  N   UNL A   1      44.386  30.018  32.380  1.00  0.00    -0.354 N 
ATOM     30  N   UNL A   1      45.001  28.989  28.197  1.00  0.00    -0.248 NA
ATOM     31  C   UNL A   1      44.482  27.025  29.338  1.00  0.00     0.031 C 
ATOM     32  C   UNL A   1      44.018  32.097  31.836  1.00  0.00     0.029 A 
ATOM     33  C   UNL A   1      44.558  30.905  31.349  1.00  0.00     0.049 A 
ATOM     34  H   UNL A   1      44.966  29.251  32.595  1.00  0.00     0.167 HD
ATOM     35  C   UNL A   1      45.073  29.258  29.556  1.00  0.00     0.074 A 
ATOM     36  C   UNL A   1      44.848  27.971  30.206  1.00  0.00     0.031 C 
ATOM     37  C   UNL A   1      45.038  30.539  30.031  1.00  0.00     0.031 A 
BRANCH  24  38
ATOM     38  C   UNL A   1      42.741  28.249  34.391  1.00  0.00    -0.014 A 
ATOM     39  C   UNL A   1      43.373  28.560  35.612  1.00  0.00     0.010 A 
ATOM     40  C   UNL A   1      42.786  26.902  33.973  1.00  0.00     0.010 A 
ATOM     41  C   UNL A   1      44.086  27.589  36.328  1.00  0.00     0.020 A 
ATOM     42  C   UNL A   1      43.453  25.918  34.702  1.00  0.00     0.020 A 
ATOM     43  C   UNL A   1      44.140  26.278  35.852  1.00  0.00     0.054 A 
BRANCH  43  44
ATOM     44  S   UNL A   1      45.196  25.067  36.683  1.00  0.00     0.124 S 
ATOM     45  O   UNL A   1      45.500  24.141  35.596  1.00  0.00    -0.237 OA
ATOM     46  O   UNL A   1      46.311  25.890  37.146  1.00  0.00    -0.237 OA
ATOM     47  O   UNL A   1      44.340  24.535  37.741  1.00  0.00    -0.744 OA
ENDBRANCH  43  44
ENDBRANCH  24  38
BRANCH  25  48
ATOM     48  C   UNL A   1      43.649  26.160  26.248  1.00  0.00    -0.014 A 
ATOM     49  C   UNL A   1      44.808  25.881  25.507  1.00  0.00     0.010 A 
ATOM     50  C   UNL A   1      42.716  25.115  26.429  1.00  0.00     0.010 A 
ATOM     51  C   UNL A   1      45.043  24.591  25.000  1.00  0.00     0.020 A 
ATOM     52  C   UNL A   1      42.936  23.835  25.917  1.00  0.00     0.020 A 
ATOM     53  C   UNL A   1      44.110  23.573  25.221  1.00  0.00     0.054 A 
BRANCH  53  54
ATOM     54  S   UNL A   1      44.492  21.876  24.700  1.00  0.00     0.124 S 
ATOM     55  O   UNL A   1      44.505  21.994  23.246  1.00  0.00    -0.237 OA
ATOM     56  O   UNL A   1      45.789  21.636  25.327  1.00  0.00    -0.237 OA
ATOM     57  O   UNL A   1      43.388  21.090  25.249  1.00  0.00    -0.744 OA
ENDBRANCH  53  54
ENDBRANCH  25  48
BRANCH  37  58
ATOM     58  C   UNL A   1      45.217  31.678  29.051  1.00  0.00    -0.014 A 
ATOM     59  C   UNL A   1      46.448  32.333  28.857  1.00  0.00     0.010 A 
ATOM     60  C   UNL A   1      44.155  31.969  28.175  1.00  0.00     0.010 A 
ATOM     61  C   UNL A   1      46.608  33.265  27.821  1.00  0.00     0.020 A 
ATOM     62  C   UNL A   1      44.315  32.885  27.131  1.00  0.00     0.020 A 
ATOM     63  C   UNL A   1      45.540  33.531  26.961  1.00  0.00     0.054 A 
BRANCH  63  64
ATOM     64  S   UNL A   1      45.781  34.674  25.570  1.00  0.00     0.124 S 
ATOM     65  O   UNL A   1      44.809  34.194  24.592  1.00  0.00    -0.237 OA
ATOM     66  O   UNL A   1      45.485  35.977  26.164  1.00  0.00    -0.237 OA
ATOM     67  O   UNL A   1      47.182  34.479  25.198  1.00  0.00    -0.744 OA
ENDBRANCH  63  64
ENDBRANCH  37  58
ENDBRANCH  11  12
ENDBRANCH   4   6
ENDBRANCH   3   4
ENDBRANCH   2   3
ENDBRANCH   1   2
BRANCH   1  68
ATOM     68  O   UNL A   1      31.774  28.027  27.082  1.00  0.00    -0.374 OA
BRANCH  68  69
ATOM     69  C   UNL A   1      32.293  27.263  25.984  1.00  0.00     0.202 C 
BRANCH  69  70
ATOM     70  C   UNL A   1      31.784  25.822  25.824  1.00  0.00     0.261 C 
BRANCH  70  71
ATOM     71  O   UNL A   1      30.391  25.790  25.460  1.00  0.00    -0.458 OA
BRANCH  71  72
ATOM     72  C   UNL A   1      30.131  25.705  24.117  1.00  0.00     0.358 C 
ATOM     73  O   UNL A   1      30.452  24.787  23.396  1.00  0.00    -0.244 OA
BRANCH  72  74
ATOM     74  C   UNL A   1      29.291  26.825  23.685  1.00  0.00     0.166 A 
ATOM     75  C   UNL A   1      29.713  28.059  23.241  1.00  0.00     0.130 A 
ATOM     76  N   UNL A   1      27.907  26.804  23.764  1.00  0.00    -0.229 NA
ATOM     77  N   UNL A   1      28.568  28.788  23.008  1.00  0.00    -0.289 N 
ATOM     78  C   UNL A   1      27.516  28.012  23.421  1.00  0.00     0.206 A 
BRANCH  77  79
ATOM     79  C   UNL A   1      28.473  30.076  22.428  1.00  0.00     0.142 A 
ATOM     80  C   UNL A   1      28.814  31.170  23.191  1.00  0.00     0.088 A 
ATOM     81  N   UNL A   1      28.097  30.169  21.134  1.00  0.00    -0.219 NA
ATOM     82  C   UNL A   1      28.740  32.372  22.539  1.00  0.00     0.134 A 
ATOM     83  C   UNL A   1      28.002  31.410  20.633  1.00  0.00     0.226 A 
ATOM     84  Cl  UNL A   1      29.243  33.815  23.321  1.00  0.00    -0.062 Cl
ATOM     85  N   UNL A   1      28.320  32.538  21.276  1.00  0.00    -0.224 NA
ENDBRANCH  77  79
ENDBRANCH  72  74
ENDBRANCH  71  72
ENDBRANCH  70  71
ENDBRANCH  69  70
ENDBRANCH  68  69
ENDBRANCH   1  68
TORSDOF 18
ENDMDL
MODEL 2
REMARK VINA RESULT:     -10.7      2.964      4.385
REMARK SMILES O=C(OCCOCCOC(=O)c1cn(-c2cc(Cl)ncn2)cn1)c1ccc(-c2c3nc(c(-c4ccc(S(=O)(=O)[O-])cc4)c4ccc([nH]4)c(-c4ccc(S(=O)(=O)[O-])cc4)c4nc(c(-c5ccc(S(=O)(=O)[O-])cc5)c5ccc2[nH]5)C=C4)C=C3)cc1
REMARK SMILES IDX 5 1 4 2 3 3 2 4 1 5 24 6 25 7 83 8 26 9 82 10 27 11 28 12
REMARK SMILES IDX 29 13 76 14 30 15 81 16 75 17 77 18 31 19 80 20 74 21 73 22
REMARK SMILES IDX 32 24 62 25 43 26 61 27 44 28 47 29 60 30 78 31 45 32 46 33
REMARK SMILES IDX 59 35 79 36 48 37 33 38 34 39 42 40 35 41 41 42 36 43 37 44
REMARK SMILES IDX 38 45 39 46 40 47 63 48 64 49 72 50 65 51 71 52 66 53 67 54
REMARK SMILES IDX 68 55 69 56 70 57 49 58 50 59 58 60 51 61 57 62 52 63 53 64
REMARK SMILES IDX 54 65 55 66 56 67 6 68 7 69 8 70 9 71 10 72 11 73 12 74
REMARK SMILES IDX 13 75 23 76 14 77 22 78 15 79 16 80 21 81 17 82 20 83 18 84
REMARK SMILES IDX 19 85
REMARK H PARENT 77 23 47 34
REMARK Flexibility Score: inf
ROOT
ATOM      1  C   UNL A   1      31.946  30.515  25.785  1.00  0.00     0.202 C 
ENDROOT
BRANCH   1   2
ATOM      2  C   UNL A   1      32.644  30.608  27.137  1.00  0.00     0.261 C 
BRANCH   2   3
ATOM      3  O   UNL A   1      34.085  30.513  27.097  1.00  0.00    -0.460 OA
BRANCH   3   4
ATOM      4  C   UNL A   1      34.857  31.468  27.667  1.00  0.00     0.338 C 
ATOM      5  O   UNL A   1      34.483  32.626  27.806  1.00  0.00    -0.246 OA
BRANCH   4   6
ATOM      6  C   UNL A   1      36.037  30.930  28.388  1.00  0.00     0.060 A 
ATOM      7  C   UNL A   1      37.065  31.751  28.851  1.00  0.00     0.016 A 
ATOM      8  C   UNL A   1      36.157  29.537  28.497  1.00  0.00     0.016 A 
ATOM      9  C   UNL A   1      38.273  31.204  29.221  1.00  0.00     0.010 A 
ATOM     10  C   UNL A   1      37.362  28.980  28.910  1.00  0.00     0.010 A 
ATOM     11  C   UNL A   1      38.441  29.823  29.173  1.00  0.00    -0.014 A 
BRANCH  11  12
ATOM     12  C   UNL A   1      39.803  29.347  29.364  1.00  0.00     0.031 A 
ATOM     13  C   UNL A   1      40.239  29.155  30.773  1.00  0.00     0.074 A 
ATOM     14  C   UNL A   1      40.621  29.098  28.326  1.00  0.00     0.049 A 
ATOM     15  N   UNL A   1      41.204  29.739  31.408  1.00  0.00    -0.248 NA
ATOM     16  C   UNL A   1      39.417  28.266  31.605  1.00  0.00     0.031 C 
ATOM     17  C   UNL A   1      40.271  29.008  26.905  1.00  0.00     0.029 A 
ATOM     18  N   UNL A   1      41.935  28.746  28.347  1.00  0.00    -0.354 N 
ATOM     19  C   UNL A   1      41.230  29.160  32.675  1.00  0.00     0.074 A 
ATOM     20  C   UNL A   1      40.034  28.361  32.782  1.00  0.00     0.031 C 
ATOM     21  C   UNL A   1      41.264  28.370  26.250  1.00  0.00     0.029 A 
ATOM     22  C   UNL A   1      42.363  28.147  27.174  1.00  0.00     0.049 A 
ATOM     23  H   UNL A   1      42.524  28.901  29.122  1.00  0.00     0.167 HD
ATOM     24  C   UNL A   1      42.324  29.207  33.485  1.00  0.00     0.031 A 
ATOM     25  C   UNL A   1      43.494  27.422  27.007  1.00  0.00     0.031 A 
ATOM     26  C   UNL A   1      43.245  30.244  33.112  1.00  0.00     0.049 A 
ATOM     27  C   UNL A   1      44.431  27.786  28.095  1.00  0.00     0.074 A 
ATOM     28  C   UNL A   1      43.186  31.621  33.041  1.00  0.00     0.029 A 
ATOM     29  N   UNL A   1      44.375  29.878  32.422  1.00  0.00    -0.354 N 
ATOM     30  N   UNL A   1      44.983  28.962  28.212  1.00  0.00    -0.248 NA
ATOM     31  C   UNL A   1      44.456  26.969  29.299  1.00  0.00     0.031 C 
ATOM     32  C   UNL A   1      44.014  31.973  31.935  1.00  0.00     0.029 A 
ATOM     33  C   UNL A   1      44.549  30.792  31.415  1.00  0.00     0.049 A 
ATOM     34  H   UNL A   1      44.952  29.103  32.615  1.00  0.00     0.167 HD
ATOM     35  C   UNL A   1      45.056  29.193  29.578  1.00  0.00     0.074 A 
ATOM     36  C   UNL A   1      44.827  27.889  30.192  1.00  0.00     0.031 C 
ATOM     37  C   UNL A   1      45.027  30.461  30.087  1.00  0.00     0.031 A 
BRANCH  24  38
ATOM     38  C   UNL A   1      42.724  28.061  34.385  1.00  0.00    -0.014 A 
ATOM     39  C   UNL A   1      42.976  28.309  35.750  1.00  0.00     0.010 A 
ATOM     40  C   UNL A   1      43.144  26.814  33.874  1.00  0.00     0.010 A 
ATOM     41  C   UNL A   1      43.691  27.393  36.534  1.00  0.00     0.020 A 
ATOM     42  C   UNL A   1      43.813  25.875  34.658  1.00  0.00     0.020 A 
ATOM     43  C   UNL A   1      44.125  26.191  35.973  1.00  0.00     0.054 A 
BRANCH  43  44
ATOM     44  S   UNL A   1      45.187  25.086  36.934  1.00  0.00     0.124 S 
ATOM     45  O   UNL A   1      44.329  24.761  38.069  1.00  0.00    -0.237 OA
ATOM     46  O   UNL A   1      45.436  23.997  35.993  1.00  0.00    -0.237 OA
ATOM     47  O   UNL A   1      46.351  25.914  37.244  1.00  0.00    -0.744 OA
ENDBRANCH  43  44
ENDBRANCH  24  38
BRANCH  25  48
ATOM     48  C   UNL A   1      43.617  26.193  26.187  1.00  0.00    -0.014 A 
ATOM     49  C   UNL A   1      44.771  25.934  25.429  1.00  0.00     0.010 A 
ATOM     50  C   UNL A   1      42.687  25.142  26.348  1.00  0.00     0.010 A 
ATOM     51  C   UNL A   1      45.003  24.658  24.886  1.00  0.00     0.020 A 
ATOM     52  C   UNL A   1      42.903  23.876  25.800  1.00  0.00     0.020 A 
ATOM     53  C   UNL A   1      44.072  23.634  25.088  1.00  0.00     0.054 A 
BRANCH  53  54
ATOM     54  S   UNL A   1      44.451  21.951  24.519  1.00  0.00     0.124 S 
ATOM     55  O   UNL A   1      43.371  21.173  25.117  1.00  0.00    -0.237 OA
ATOM     56  O   UNL A   1      44.403  22.089  23.066  1.00  0.00    -0.237 OA
ATOM     57  O   UNL A   1      45.781  21.692  25.069  1.00  0.00    -0.744 OA
ENDBRANCH  53  54
ENDBRANCH  25  48
BRANCH  37  58
ATOM     58  C   UNL A   1      45.209  31.625  29.139  1.00  0.00    -0.014 A 
ATOM     59  C   UNL A   1      46.455  32.242  28.917  1.00  0.00     0.010 A 
ATOM     60  C   UNL A   1      44.126  31.983  28.316  1.00  0.00     0.010 A 
ATOM     61  C   UNL A   1      46.609  33.203  27.906  1.00  0.00     0.020 A 
ATOM     62  C   UNL A   1      44.278  32.928  27.297  1.00  0.00     0.020 A 
ATOM     63  C   UNL A   1      45.519  33.536  27.098  1.00  0.00     0.054 A 
BRANCH  63  64
ATOM     64  S   UNL A   1      45.747  34.717  25.738  1.00  0.00     0.124 S 
ATOM     65  O   UNL A   1      47.108  34.428  25.293  1.00  0.00    -0.237 OA
ATOM     66  O   UNL A   1      44.687  34.345  24.803  1.00  0.00    -0.237 OA
ATOM     67  O   UNL A   1      45.568  36.021  26.375  1.00  0.00    -0.744 OA
ENDBRANCH  63  64
ENDBRANCH  37  58
ENDBRANCH  11  12
ENDBRANCH   4   6
ENDBRANCH   3   4
ENDBRANCH   2   3
ENDBRANCH   1   2
BRANCH   1  68
ATOM     68  O   UNL A   1      31.144  29.348  25.596  1.00  0.00    -0.374 OA
BRANCH  68  69
ATOM     69  C   UNL A   1      31.565  28.484  24.532  1.00  0.00     0.202 C 
BRANCH  69  70
ATOM     70  C   UNL A   1      30.627  27.330  24.148  1.00  0.00     0.261 C 
BRANCH  70  71
ATOM     71  O   UNL A   1      31.181  26.052  24.511  1.00  0.00    -0.458 OA
BRANCH  71  72
ATOM     72  C   UNL A   1      30.858  25.600  25.764  1.00  0.00     0.358 C 
ATOM     73  O   UNL A   1      29.946  26.010  26.445  1.00  0.00    -0.244 OA
BRANCH  72  74
ATOM     74  C   UNL A   1      31.695  24.452  26.126  1.00  0.00     0.166 A 
ATOM     75  C   UNL A   1      32.594  23.790  25.319  1.00  0.00     0.130 A 
ATOM     76  N   UNL A   1      31.607  23.813  27.353  1.00  0.00    -0.229 NA
ATOM     77  N   UNL A   1      33.091  22.755  26.079  1.00  0.00    -0.289 N 
ATOM     78  C   UNL A   1      32.399  22.766  27.262  1.00  0.00     0.206 A 
BRANCH  77  79
ATOM     79  C   UNL A   1      34.133  21.861  25.735  1.00  0.00     0.142 A 
ATOM     80  C   UNL A   1      33.804  20.583  25.342  1.00  0.00     0.088 A 
ATOM     81  N   UNL A   1      35.404  22.318  25.763  1.00  0.00    -0.219 NA
ATOM     82  C   UNL A   1      34.869  19.800  24.981  1.00  0.00     0.134 A 
ATOM     83  C   UNL A   1      36.360  21.431  25.449  1.00  0.00     0.226 A 
ATOM     84  Cl  UNL A   1      34.611  18.221  24.359  1.00  0.00    -0.062 Cl
ATOM     85  N   UNL A   1      36.154  20.175  25.040  1.00  0.00    -0.224 NA
ENDBRANCH  77  79
ENDBRANCH  72  74
ENDBRANCH  71  72
ENDBRANCH  70  71
ENDBRANCH  69  70
ENDBRANCH  68  69
ENDBRANCH   1  68
TORSDOF 18
ENDMDL
MODEL 3
REMARK VINA RESULT:     -10.3      2.565      4.222
REMARK SMILES O=C(OCCOCCOC(=O)c1cn(-c2cc(Cl)ncn2)cn1)c1ccc(-c2c3nc(c(-c4ccc(S(=O)(=O)[O-])cc4)c4ccc([nH]4)c(-c4ccc(S(=O)(=O)[O-])cc4)c4nc(c(-c5ccc(S(=O)(=O)[O-])cc5)c5ccc2[nH]5)C=C4)C=C3)cc1
REMARK SMILES IDX 5 1 4 2 3 3 2 4 1 5 24 6 25 7 83 8 26 9 82 10 27 11 28 12
REMARK SMILES IDX 29 13 76 14 30 15 81 16 75 17 77 18 31 19 80 20 74 21 73 22
REMARK SMILES IDX 32 24 62 25 43 26 61 27 44 28 47 29 60 30 78 31 45 32 46 33
REMARK SMILES IDX 59 35 79 36 48 37 33 38 34 39 42 40 35 41 41 42 36 43 37 44
REMARK SMILES IDX 38 45 39 46 40 47 63 48 64 49 72 50 65 51 71 52 66 53 67 54
REMARK SMILES IDX 68 55 69 56 70 57 49 58 50 59 58 60 51 61 57 62 52 63 53 64
REMARK SMILES IDX 54 65 55 66 56 67 6 68 7 69 8 70 9 71 10 72 11 73 12 74
REMARK SMILES IDX 13 75 23 76 14 77 22 78 15 79 16 80 21 81 17 82 20 83 18 84
REMARK SMILES IDX 19 85
REMARK H PARENT 77 23 47 34
REMARK Flexibility Score: inf
ROOT
ATOM      1  C   UNL A   1      33.695  35.310  30.216  1.00  0.00     0.202 C 
ENDROOT
BRANCH   1   2
ATOM      2  C   UNL A   1      33.399  35.242  31.711  1.00  0.00     0.261 C 
BRANCH   2   3
ATOM      3  O   UNL A   1      33.728  33.989  32.350  1.00  0.00    -0.460 OA
BRANCH   3   4
ATOM      4  C   UNL A   1      34.880  33.849  33.045  1.00  0.00     0.338 C 
ATOM      5  O   UNL A   1      34.987  34.167  34.223  1.00  0.00    -0.246 OA
BRANCH   4   6
ATOM      6  C   UNL A   1      35.886  32.994  32.366  1.00  0.00     0.060 A 
ATOM      7  C   UNL A   1      35.883  31.604  32.485  1.00  0.00     0.016 A 
ATOM      8  C   UNL A   1      36.930  33.630  31.680  1.00  0.00     0.016 A 
ATOM      9  C   UNL A   1      36.993  30.876  32.118  1.00  0.00     0.010 A 
ATOM     10  C   UNL A   1      38.034  32.893  31.270  1.00  0.00     0.010 A 
ATOM     11  C   UNL A   1      38.096  31.536  31.583  1.00  0.00    -0.014 A 
BRANCH  11  12
ATOM     12  C   UNL A   1      39.299  30.731  31.430  1.00  0.00     0.031 A 
ATOM     13  C   UNL A   1      40.112  30.529  32.658  1.00  0.00     0.074 A 
ATOM     14  C   UNL A   1      39.654  30.202  30.246  1.00  0.00     0.049 A 
ATOM     15  N   UNL A   1      41.339  30.878  32.883  1.00  0.00    -0.248 NA
ATOM     16  C   UNL A   1      39.426  29.950  33.820  1.00  0.00     0.031 C 
ATOM     17  C   UNL A   1      38.850  30.109  29.024  1.00  0.00     0.029 A 
ATOM     18  N   UNL A   1      40.786  29.517  29.929  1.00  0.00    -0.354 N 
ATOM     19  C   UNL A   1      41.642  30.403  34.157  1.00  0.00     0.074 A 
ATOM     20  C   UNL A   1      40.397  29.959  34.733  1.00  0.00     0.031 C 
ATOM     21  C   UNL A   1      39.401  29.187  28.207  1.00  0.00     0.029 A 
ATOM     22  C   UNL A   1      40.659  28.746  28.785  1.00  0.00     0.049 A 
ATOM     23  H   UNL A   1      41.614  29.564  30.461  1.00  0.00     0.167 HD
ATOM     24  C   UNL A   1      42.920  30.215  34.589  1.00  0.00     0.031 A 
ATOM     25  C   UNL A   1      41.476  27.737  28.400  1.00  0.00     0.031 A 
ATOM     26  C   UNL A   1      43.881  30.942  33.808  1.00  0.00     0.049 A 
ATOM     27  C   UNL A   1      42.774  27.915  29.094  1.00  0.00     0.074 A 
ATOM     28  C   UNL A   1      44.120  32.277  33.551  1.00  0.00     0.029 A 
ATOM     29  N   UNL A   1      44.609  30.242  32.877  1.00  0.00    -0.354 N 
ATOM     30  N   UNL A   1      43.587  28.907  28.863  1.00  0.00    -0.248 NA
ATOM     31  C   UNL A   1      43.001  27.206  30.344  1.00  0.00     0.031 C 
ATOM     32  C   UNL A   1      44.600  32.319  32.210  1.00  0.00     0.029 A 
ATOM     33  C   UNL A   1      44.651  31.005  31.738  1.00  0.00     0.049 A 
ATOM     34  H   UNL A   1      45.024  29.358  33.003  1.00  0.00     0.167 HD
ATOM     35  C   UNL A   1      44.152  29.205  30.095  1.00  0.00     0.074 A 
ATOM     36  C   UNL A   1      43.842  28.055  30.938  1.00  0.00     0.031 C 
ATOM     37  C   UNL A   1      44.581  30.468  30.394  1.00  0.00     0.031 A 
BRANCH  24  38
ATOM     38  C   UNL A   1      43.317  29.069  35.491  1.00  0.00    -0.014 A 
ATOM     39  C   UNL A   1      44.156  29.319  36.596  1.00  0.00     0.010 A 
ATOM     40  C   UNL A   1      43.134  27.721  35.119  1.00  0.00     0.010 A 
ATOM     41  C   UNL A   1      44.844  28.277  37.234  1.00  0.00     0.020 A 
ATOM     42  C   UNL A   1      43.776  26.673  35.778  1.00  0.00     0.020 A 
ATOM     43  C   UNL A   1      44.666  26.962  36.802  1.00  0.00     0.054 A 
BRANCH  43  44
ATOM     44  S   UNL A   1      45.677  25.642  37.514  1.00  0.00     0.124 S 
ATOM     45  O   UNL A   1      44.736  24.526  37.535  1.00  0.00    -0.237 OA
ATOM     46  O   UNL A   1      46.769  25.532  36.550  1.00  0.00    -0.237 OA
ATOM     47  O   UNL A   1      46.057  26.168  38.822  1.00  0.00    -0.744 OA
ENDBRANCH  43  44
ENDBRANCH  24  38
BRANCH  25  48
ATOM     48  C   UNL A   1      41.041  26.465  27.776  1.00  0.00    -0.014 A 
ATOM     49  C   UNL A   1      41.765  25.885  26.721  1.00  0.00     0.010 A 
ATOM     50  C   UNL A   1      40.035  25.685  28.390  1.00  0.00     0.010 A 
ATOM     51  C   UNL A   1      41.518  24.559  26.324  1.00  0.00     0.020 A 
ATOM     52  C   UNL A   1      39.775  24.372  27.993  1.00  0.00     0.020 A 
ATOM     53  C   UNL A   1      40.533  23.807  26.973  1.00  0.00     0.054 A 
BRANCH  53  54
ATOM     54  S   UNL A   1      40.327  22.051  26.562  1.00  0.00     0.124 S 
ATOM     55  O   UNL A   1      40.516  21.406  27.858  1.00  0.00    -0.237 OA
ATOM     56  O   UNL A   1      38.970  22.007  26.025  1.00  0.00    -0.237 OA
ATOM     57  O   UNL A   1      41.385  21.799  25.585  1.00  0.00    -0.744 OA
ENDBRANCH  53  54
ENDBRANCH  25  48
BRANCH  37  58
ATOM     58  C   UNL A   1      44.707  31.473  29.271  1.00  0.00    -0.014 A 
ATOM     59  C   UNL A   1      45.833  31.540  28.427  1.00  0.00     0.010 A 
ATOM     60  C   UNL A   1      43.578  32.247  28.947  1.00  0.00     0.010 A 
ATOM     61  C   UNL A   1      45.833  32.371  27.297  1.00  0.00     0.020 A 
ATOM     62  C   UNL A   1      43.567  33.064  27.813  1.00  0.00     0.020 A 
ATOM     63  C   UNL A   1      44.696  33.125  26.994  1.00  0.00     0.054 A 
BRANCH  63  64
ATOM     64  S   UNL A   1      44.673  34.132  25.484  1.00  0.00     0.124 S 
ATOM     65  O   UNL A   1      45.999  34.744  25.489  1.00  0.00    -0.237 OA
ATOM     66  O   UNL A   1      44.442  33.140  24.435  1.00  0.00    -0.237 OA
ATOM     67  O   UNL A   1      43.563  35.059  25.700  1.00  0.00    -0.744 OA
ENDBRANCH  63  64
ENDBRANCH  37  58
ENDBRANCH  11  12
ENDBRANCH   4   6
ENDBRANCH   3   4
ENDBRANCH   2   3
ENDBRANCH   1   2
BRANCH   1  68
ATOM     68  O   UNL A   1      32.651  34.826  29.370  1.00  0.00    -0.374 OA
BRANCH  68  69
ATOM     69  C   UNL A   1      33.085  34.018  28.266  1.00  0.00     0.202 C 
BRANCH  69  70
ATOM     70  C   UNL A   1      34.588  33.716  28.161  1.00  0.00     0.261 C 
BRANCH  70  71
ATOM     71  O   UNL A   1      34.839  32.550  27.356  1.00  0.00    -0.458 OA
BRANCH  71  72
ATOM     72  C   UNL A   1      34.961  31.370  28.043  1.00  0.00     0.358 C 
ATOM     73  O   UNL A   1      35.420  31.250  29.157  1.00  0.00    -0.244 OA
BRANCH  72  74
ATOM     74  C   UNL A   1      34.339  30.275  27.294  1.00  0.00     0.166 A 
ATOM     75  C   UNL A   1      33.109  30.283  26.674  1.00  0.00     0.130 A 
ATOM     76  N   UNL A   1      34.904  29.012  27.197  1.00  0.00    -0.229 NA
ATOM     77  N   UNL A   1      32.939  29.019  26.156  1.00  0.00    -0.289 N 
ATOM     78  C   UNL A   1      34.011  28.273  26.575  1.00  0.00     0.206 A 
BRANCH  77  79
ATOM     79  C   UNL A   1      31.886  28.566  25.326  1.00  0.00     0.142 A 
ATOM     80  C   UNL A   1      31.325  29.448  24.430  1.00  0.00     0.088 A 
ATOM     81  N   UNL A   1      31.509  27.272  25.419  1.00  0.00    -0.219 NA
ATOM     82  C   UNL A   1      30.346  28.915  23.634  1.00  0.00     0.134 A 
ATOM     83  C   UNL A   1      30.494  26.893  24.628  1.00  0.00     0.226 A 
ATOM     84  Cl  UNL A   1      29.633  29.858  22.389  1.00  0.00    -0.062 Cl
ATOM     85  N   UNL A   1      29.889  27.657  23.714  1.00  0.00    -0.224 NA
ENDBRANCH  77  79
ENDBRANCH  72  74
ENDBRANCH  71  72
ENDBRANCH  70  71
ENDBRANCH  69  70
ENDBRANCH  68  69
ENDBRANCH   1  68
TORSDOF 18
ENDMDL
