MODEL 1
REMARK VINA RESULT:     -10.1      0.000      0.000
REMARK SMILES N#Cc1ccccc1S(=O)(=O)N1CCC(C(=O)OCCOCCOC(=O)c2ccc(-c3c4nc(c(-c5ccc(S(=O)(=O)[O-])cc5)c5ccc([nH]5)c(-c5ccc(S(=O)(=O)[O-])cc5)c5nc(c(-c6ccc(S(=O)(=O)[O-])cc6)c6ccc3[nH]6)C=C5)C=C4)cc2)CC1
REMARK SMILES IDX 21 1 20 2 19 3 18 4 16 5 17 6 15 7 12 8 13 9 88 10 14 11
REMARK SMILES IDX 87 12 9 13 10 14 11 15 8 16 3 17 4 18 5 19 7 20 6 21 2 22
REMARK SMILES IDX 1 23 22 24 23 25 24 26 25 27 26 28 27 29 28 30 86 31 29 32
REMARK SMILES IDX 85 33 30 34 31 35 32 36 79 37 33 38 84 39 78 40 80 41 34 42
REMARK SMILES IDX 83 43 77 44 76 45 35 47 65 48 46 49 64 50 47 51 50 52 63 53
REMARK SMILES IDX 81 54 48 55 49 56 62 58 82 59 51 60 36 61 37 62 45 63 38 64
REMARK SMILES IDX 44 65 39 66 40 67 41 68 42 69 43 70 66 71 67 72 75 73 68 74
REMARK SMILES IDX 74 75 69 76 70 77 71 78 72 79 73 80 52 81 53 82 61 83 54 84
REMARK SMILES IDX 60 85 55 86 56 87 57 88 58 89 59 90
REMARK H PARENT 80 46 50 57
REMARK Flexibility Score: inf
ROOT
ATOM      1  O   UNL A   1      35.240  32.405  27.606  1.00  0.00    -0.374 OA
ENDROOT
BRANCH   1   2
ATOM      2  C   UNL A   1      34.609  31.129  27.550  1.00  0.00     0.202 C 
BRANCH   2   3
ATOM      3  C   UNL A   1      33.088  31.062  27.403  1.00  0.00     0.261 C 
BRANCH   3   4
ATOM      4  O   UNL A   1      32.628  29.730  27.147  1.00  0.00    -0.463 OA
BRANCH   4   5
ATOM      5  C   UNL A   1      32.014  29.562  25.951  1.00  0.00     0.309 C 
ATOM      6  O   UNL A   1      31.425  30.438  25.326  1.00  0.00    -0.252 OA
BRANCH   5   7
ATOM      7  C   UNL A   1      32.122  28.150  25.433  1.00  0.00     0.102 C 
ATOM      8  N   UNL A   1      32.563  25.794  23.876  1.00  0.00    -0.198 NA
ATOM      9  C   UNL A   1      31.163  26.220  24.072  1.00  0.00     0.103 C 
ATOM     10  C   UNL A   1      33.705  26.538  24.435  1.00  0.00     0.103 C 
ATOM     11  C   UNL A   1      30.971  27.645  24.571  1.00  0.00     0.032 C 
ATOM     12  C   UNL A   1      33.410  28.006  24.654  1.00  0.00     0.032 C 
BRANCH   8  13
ATOM     13  S   UNL A   1      32.826  24.215  23.352  1.00  0.00     0.244 S 
ATOM     14  O   UNL A   1      33.721  24.303  22.214  1.00  0.00    -0.207 OA
ATOM     15  O   UNL A   1      31.546  23.549  23.244  1.00  0.00    -0.207 OA
BRANCH  13  16
ATOM     16  C   UNL A   1      33.737  23.288  24.575  1.00  0.00     0.100 A 
ATOM     17  C   UNL A   1      33.491  23.203  25.946  1.00  0.00     0.072 A 
ATOM     18  C   UNL A   1      34.367  22.446  26.754  1.00  0.00     0.021 A 
ATOM     19  C   UNL A   1      35.441  21.749  26.208  1.00  0.00     0.001 A 
ATOM     20  C   UNL A   1      34.824  22.569  24.034  1.00  0.00     0.023 A 
ATOM     21  C   UNL A   1      35.661  21.798  24.840  1.00  0.00     0.001 A 
BRANCH  17  22
ATOM     22  C   UNL A   1      32.386  23.759  26.653  1.00  0.00     0.101 C 
ATOM     23  N   UNL A   1      31.411  24.199  27.108  1.00  0.00    -0.192 NA
ENDBRANCH  17  22
ENDBRANCH  13  16
ENDBRANCH   8  13
ENDBRANCH   5   7
ENDBRANCH   4   5
ENDBRANCH   3   4
ENDBRANCH   2   3
ENDBRANCH   1   2
BRANCH   1  24
ATOM     24  C   UNL A   1      35.403  33.035  28.874  1.00  0.00     0.202 C 
BRANCH  24  25
ATOM     25  C   UNL A   1      35.155  32.221  30.156  1.00  0.00     0.261 C 
BRANCH  25  26
ATOM     26  O   UNL A   1      36.357  31.833  30.844  1.00  0.00    -0.460 OA
BRANCH  26  27
ATOM     27  C   UNL A   1      36.701  30.530  30.675  1.00  0.00     0.338 C 
ATOM     28  O   UNL A   1      35.947  29.572  30.629  1.00  0.00    -0.246 OA
BRANCH  27  29
ATOM     29  C   UNL A   1      38.130  30.414  30.328  1.00  0.00     0.060 A 
ATOM     30  C   UNL A   1      38.462  30.312  28.970  1.00  0.00     0.016 A 
ATOM     31  C   UNL A   1      39.111  30.292  31.311  1.00  0.00     0.016 A 
ATOM     32  C   UNL A   1      39.772  30.038  28.589  1.00  0.00     0.010 A 
ATOM     33  C   UNL A   1      40.426  30.007  30.925  1.00  0.00     0.010 A 
ATOM     34  C   UNL A   1      40.754  29.841  29.566  1.00  0.00    -0.014 A 
BRANCH  34  35
ATOM     35  C   UNL A   1      42.088  29.327  29.167  1.00  0.00     0.031 A 
ATOM     36  C   UNL A   1      43.271  30.259  29.184  1.00  0.00     0.074 A 
ATOM     37  C   UNL A   1      42.249  28.035  28.828  1.00  0.00     0.049 A 
ATOM     38  N   UNL A   1      44.511  30.028  28.838  1.00  0.00    -0.248 NA
ATOM     39  C   UNL A   1      43.021  31.634  29.648  1.00  0.00     0.031 C 
ATOM     40  C   UNL A   1      41.193  27.023  28.826  1.00  0.00     0.029 A 
ATOM     41  N   UNL A   1      43.368  27.354  28.417  1.00  0.00    -0.354 N 
ATOM     42  C   UNL A   1      45.186  31.230  29.025  1.00  0.00     0.074 A 
ATOM     43  C   UNL A   1      44.210  32.195  29.485  1.00  0.00     0.031 C 
ATOM     44  C   UNL A   1      41.714  25.851  28.429  1.00  0.00     0.029 A 
ATOM     45  C   UNL A   1      43.126  26.038  28.105  1.00  0.00     0.049 A 
ATOM     46  H   UNL A   1      44.258  27.769  28.352  1.00  0.00     0.167 HD
ATOM     47  C   UNL A   1      46.500  31.503  28.835  1.00  0.00     0.031 A 
ATOM     48  C   UNL A   1      43.943  25.097  27.590  1.00  0.00     0.031 A 
ATOM     49  C   UNL A   1      47.461  30.539  28.365  1.00  0.00     0.049 A 
ATOM     50  C   UNL A   1      45.380  25.448  27.306  1.00  0.00     0.074 A 
ATOM     51  C   UNL A   1      48.818  30.710  28.158  1.00  0.00     0.029 A 
ATOM     52  N   UNL A   1      47.167  29.228  28.018  1.00  0.00    -0.354 N 
ATOM     53  N   UNL A   1      46.010  26.580  27.513  1.00  0.00    -0.248 NA
ATOM     54  C   UNL A   1      46.220  24.389  26.727  1.00  0.00     0.031 C 
ATOM     55  C   UNL A   1      49.330  29.529  27.614  1.00  0.00     0.029 A 
ATOM     56  C   UNL A   1      48.311  28.592  27.563  1.00  0.00     0.049 A 
ATOM     57  H   UNL A   1      46.278  28.812  28.086  1.00  0.00     0.167 HD
ATOM     58  C   UNL A   1      47.327  26.359  27.120  1.00  0.00     0.074 A 
ATOM     59  C   UNL A   1      47.405  24.981  26.681  1.00  0.00     0.031 C 
ATOM     60  C   UNL A   1      48.377  27.218  27.125  1.00  0.00     0.031 A 
BRANCH  47  61
ATOM     61  C   UNL A   1      46.968  32.914  29.094  1.00  0.00    -0.014 A 
ATOM     62  C   UNL A   1      46.876  33.913  28.109  1.00  0.00     0.010 A 
ATOM     63  C   UNL A   1      47.465  33.256  30.365  1.00  0.00     0.010 A 
ATOM     64  C   UNL A   1      47.308  35.215  28.377  1.00  0.00     0.020 A 
ATOM     65  C   UNL A   1      47.865  34.564  30.650  1.00  0.00     0.020 A 
ATOM     66  C   UNL A   1      47.800  35.533  29.647  1.00  0.00     0.054 A 
BRANCH  66  67
ATOM     67  S   UNL A   1      48.326  37.237  29.974  1.00  0.00     0.124 S 
ATOM     68  O   UNL A   1      47.130  37.996  29.618  1.00  0.00    -0.237 OA
ATOM     69  O   UNL A   1      48.645  37.202  31.400  1.00  0.00    -0.237 OA
ATOM     70  O   UNL A   1      49.469  37.426  29.086  1.00  0.00    -0.744 OA
ENDBRANCH  66  67
ENDBRANCH  47  61
BRANCH  48  71
ATOM     71  C   UNL A   1      43.414  23.738  27.287  1.00  0.00    -0.014 A 
ATOM     72  C   UNL A   1      43.021  23.392  25.982  1.00  0.00     0.010 A 
ATOM     73  C   UNL A   1      43.297  22.779  28.310  1.00  0.00     0.010 A 
ATOM     74  C   UNL A   1      42.508  22.120  25.709  1.00  0.00     0.020 A 
ATOM     75  C   UNL A   1      42.817  21.496  28.036  1.00  0.00     0.020 A 
ATOM     76  C   UNL A   1      42.416  21.178  26.738  1.00  0.00     0.054 A 
BRANCH  76  77
ATOM     77  S   UNL A   1      41.796  19.518  26.348  1.00  0.00     0.124 S 
ATOM     78  O   UNL A   1      42.194  18.758  27.529  1.00  0.00    -0.237 OA
ATOM     79  O   UNL A   1      40.363  19.749  26.195  1.00  0.00    -0.237 OA
ATOM     80  O   UNL A   1      42.500  19.171  25.114  1.00  0.00    -0.744 OA
ENDBRANCH  76  77
ENDBRANCH  48  71
BRANCH  60  81
ATOM     81  C   UNL A   1      49.718  26.687  26.681  1.00  0.00    -0.014 A 
ATOM     82  C   UNL A   1      50.630  26.135  27.598  1.00  0.00     0.010 A 
ATOM     83  C   UNL A   1      50.044  26.690  25.312  1.00  0.00     0.010 A 
ATOM     84  C   UNL A   1      51.858  25.632  27.157  1.00  0.00     0.020 A 
ATOM     85  C   UNL A   1      51.253  26.156  24.863  1.00  0.00     0.020 A 
ATOM     86  C   UNL A   1      52.161  25.643  25.792  1.00  0.00     0.054 A 
BRANCH  86  87
ATOM     87  S   UNL A   1      53.743  24.944  25.244  1.00  0.00     0.124 S 
ATOM     88  O   UNL A   1      54.608  25.217  26.387  1.00  0.00    -0.237 OA
ATOM     89  O   UNL A   1      53.411  23.538  25.026  1.00  0.00    -0.237 OA
ATOM     90  O   UNL A   1      54.056  25.700  24.032  1.00  0.00    -0.744 OA
ENDBRANCH  86  87
ENDBRANCH  60  81
ENDBRANCH  34  35
ENDBRANCH  27  29
ENDBRANCH  26  27
ENDBRANCH  25  26
ENDBRANCH  24  25
ENDBRANCH   1  24
TORSDOF 20
ENDMDL
MODEL 2
REMARK VINA RESULT:      -9.9      2.404      9.230
REMARK SMILES N#Cc1ccccc1S(=O)(=O)N1CCC(C(=O)OCCOCCOC(=O)c2ccc(-c3c4nc(c(-c5ccc(S(=O)(=O)[O-])cc5)c5ccc([nH]5)c(-c5ccc(S(=O)(=O)[O-])cc5)c5nc(c(-c6ccc(S(=O)(=O)[O-])cc6)c6ccc3[nH]6)C=C5)C=C4)cc2)CC1
REMARK SMILES IDX 21 1 20 2 19 3 18 4 16 5 17 6 15 7 12 8 13 9 88 10 14 11
REMARK SMILES IDX 87 12 9 13 10 14 11 15 8 16 3 17 4 18 5 19 7 20 6 21 2 22
REMARK SMILES IDX 1 23 22 24 23 25 24 26 25 27 26 28 27 29 28 30 86 31 29 32
REMARK SMILES IDX 85 33 30 34 31 35 32 36 79 37 33 38 84 39 78 40 80 41 34 42
REMARK SMILES IDX 83 43 77 44 76 45 35 47 65 48 46 49 64 50 47 51 50 52 63 53
REMARK SMILES IDX 81 54 48 55 49 56 62 58 82 59 51 60 36 61 37 62 45 63 38 64
REMARK SMILES IDX 44 65 39 66 40 67 41 68 42 69 43 70 66 71 67 72 75 73 68 74
REMARK SMILES IDX 74 75 69 76 70 77 71 78 72 79 73 80 52 81 53 82 61 83 54 84
REMARK SMILES IDX 60 85 55 86 56 87 57 88 58 89 59 90
REMARK H PARENT 80 46 50 57
REMARK Flexibility Score: inf
ROOT
ATOM      1  O   UNL A   1      42.210  20.355  26.679  1.00  0.00    -0.374 OA
ENDROOT
BRANCH   1   2
ATOM      2  C   UNL A   1      41.312  21.302  26.107  1.00  0.00     0.202 C 
BRANCH   2   3
ATOM      3  C   UNL A   1      40.009  21.623  26.842  1.00  0.00     0.261 C 
BRANCH   3   4
ATOM      4  O   UNL A   1      38.893  21.712  25.948  1.00  0.00    -0.463 OA
BRANCH   4   5
ATOM      5  C   UNL A   1      38.221  22.887  25.997  1.00  0.00     0.309 C 
ATOM      6  O   UNL A   1      38.701  23.967  26.327  1.00  0.00    -0.252 OA
BRANCH   5   7
ATOM      7  C   UNL A   1      36.774  22.748  25.595  1.00  0.00     0.102 C 
ATOM      8  N   UNL A   1      34.294  22.039  24.364  1.00  0.00    -0.198 NA
ATOM      9  C   UNL A   1      34.841  23.376  24.057  1.00  0.00     0.103 C 
ATOM     10  C   UNL A   1      34.980  21.085  25.252  1.00  0.00     0.103 C 
ATOM     11  C   UNL A   1      36.306  23.586  24.412  1.00  0.00     0.032 C 
ATOM     12  C   UNL A   1      36.478  21.294  25.307  1.00  0.00     0.032 C 
BRANCH   8  13
ATOM     13  S   UNL A   1      32.668  21.769  24.015  1.00  0.00     0.244 S 
ATOM     14  O   UNL A   1      32.235  20.692  24.885  1.00  0.00    -0.207 OA
ATOM     15  O   UNL A   1      32.518  21.674  22.580  1.00  0.00    -0.207 OA
BRANCH  13  16
ATOM     16  C   UNL A   1      31.677  23.171  24.500  1.00  0.00     0.100 A 
ATOM     17  C   UNL A   1      31.413  23.631  25.792  1.00  0.00     0.072 A 
ATOM     18  C   UNL A   1      30.557  24.741  25.962  1.00  0.00     0.021 A 
ATOM     19  C   UNL A   1      30.007  25.410  24.873  1.00  0.00     0.001 A 
ATOM     20  C   UNL A   1      31.119  23.865  23.404  1.00  0.00     0.023 A 
ATOM     21  C   UNL A   1      30.302  24.980  23.589  1.00  0.00     0.001 A 
BRANCH  17  22
ATOM     22  C   UNL A   1      31.972  23.138  27.005  1.00  0.00     0.101 C 
ATOM     23  N   UNL A   1      32.555  22.742  27.930  1.00  0.00    -0.192 NA
ENDBRANCH  17  22
ENDBRANCH  13  16
ENDBRANCH   8  13
ENDBRANCH   5   7
ENDBRANCH   4   5
ENDBRANCH   3   4
ENDBRANCH   2   3
ENDBRANCH   1   2
BRANCH   1  24
ATOM     24  C   UNL A   1      42.268  19.043  26.123  1.00  0.00     0.202 C 
BRANCH  24  25
ATOM     25  C   UNL A   1      43.541  18.596  25.382  1.00  0.00     0.261 C 
BRANCH  25  26
ATOM     26  O   UNL A   1      43.909  19.453  24.286  1.00  0.00    -0.460 OA
BRANCH  26  27
ATOM     27  C   UNL A   1      45.123  20.046  24.426  1.00  0.00     0.338 C 
ATOM     28  O   UNL A   1      46.191  19.643  23.992  1.00  0.00    -0.246 OA
BRANCH  27  29
ATOM     29  C   UNL A   1      44.976  21.394  25.005  1.00  0.00     0.060 A 
ATOM     30  C   UNL A   1      44.591  22.431  24.144  1.00  0.00     0.016 A 
ATOM     31  C   UNL A   1      45.317  21.660  26.330  1.00  0.00     0.016 A 
ATOM     32  C   UNL A   1      44.592  23.748  24.592  1.00  0.00     0.010 A 
ATOM     33  C   UNL A   1      45.325  22.986  26.776  1.00  0.00     0.010 A 
ATOM     34  C   UNL A   1      45.000  24.039  25.899  1.00  0.00    -0.014 A 
BRANCH  34  35
ATOM     35  C   UNL A   1      45.219  25.452  26.298  1.00  0.00     0.031 A 
ATOM     36  C   UNL A   1      46.599  26.043  26.182  1.00  0.00     0.074 A 
ATOM     37  C   UNL A   1      44.193  26.209  26.725  1.00  0.00     0.049 A 
ATOM     38  N   UNL A   1      47.018  27.238  26.510  1.00  0.00    -0.248 NA
ATOM     39  C   UNL A   1      47.647  25.170  25.627  1.00  0.00     0.031 C 
ATOM     40  C   UNL A   1      42.802  25.767  26.828  1.00  0.00     0.029 A 
ATOM     41  N   UNL A   1      44.163  27.512  27.154  1.00  0.00    -0.354 N 
ATOM     42  C   UNL A   1      48.378  27.256  26.219  1.00  0.00     0.074 A 
ATOM     43  C   UNL A   1      48.719  25.943  25.717  1.00  0.00     0.031 C 
ATOM     44  C   UNL A   1      42.056  26.781  27.295  1.00  0.00     0.029 A 
ATOM     45  C   UNL A   1      42.920  27.928  27.567  1.00  0.00     0.049 A 
ATOM     46  H   UNL A   1      44.957  28.094  27.165  1.00  0.00     0.167 HD
ATOM     47  C   UNL A   1      49.260  28.276  26.354  1.00  0.00     0.031 A 
ATOM     48  C   UNL A   1      42.528  29.089  28.126  1.00  0.00     0.031 A 
ATOM     49  C   UNL A   1      48.912  29.577  26.866  1.00  0.00     0.049 A 
ATOM     50  C   UNL A   1      43.544  30.180  28.345  1.00  0.00     0.074 A 
ATOM     51  C   UNL A   1      49.728  30.683  27.024  1.00  0.00     0.029 A 
ATOM     52  N   UNL A   1      47.652  29.944  27.315  1.00  0.00    -0.354 N 
ATOM     53  N   UNL A   1      44.820  30.192  28.040  1.00  0.00    -0.248 NA
ATOM     54  C   UNL A   1      43.064  31.417  28.976  1.00  0.00     0.031 C 
ATOM     55  C   UNL A   1      48.982  31.693  27.638  1.00  0.00     0.029 A 
ATOM     56  C   UNL A   1      47.678  31.247  27.784  1.00  0.00     0.049 A 
ATOM     57  H   UNL A   1      46.857  29.363  27.300  1.00  0.00     0.167 HD
ATOM     58  C   UNL A   1      45.287  31.450  28.412  1.00  0.00     0.074 A 
ATOM     59  C   UNL A   1      44.153  32.173  28.947  1.00  0.00     0.031 C 
ATOM     60  C   UNL A   1      46.541  31.959  28.318  1.00  0.00     0.031 A 
BRANCH  47  61
ATOM     61  C   UNL A   1      50.698  28.014  25.982  1.00  0.00    -0.014 A 
ATOM     62  C   UNL A   1      51.191  28.299  24.695  1.00  0.00     0.010 A 
ATOM     63  C   UNL A   1      51.585  27.518  26.955  1.00  0.00     0.010 A 
ATOM     64  C   UNL A   1      52.530  28.056  24.380  1.00  0.00     0.020 A 
ATOM     65  C   UNL A   1      52.934  27.307  26.654  1.00  0.00     0.020 A 
ATOM     66  C   UNL A   1      53.394  27.561  25.361  1.00  0.00     0.054 A 
BRANCH  66  67
ATOM     67  S   UNL A   1      55.134  27.283  24.930  1.00  0.00     0.124 S 
ATOM     68  O   UNL A   1      55.565  28.623  24.539  1.00  0.00    -0.237 OA
ATOM     69  O   UNL A   1      55.696  26.784  26.182  1.00  0.00    -0.237 OA
ATOM     70  O   UNL A   1      55.072  26.308  23.844  1.00  0.00    -0.744 OA
ENDBRANCH  66  67
ENDBRANCH  47  61
BRANCH  48  71
ATOM     71  C   UNL A   1      41.109  29.273  28.540  1.00  0.00    -0.014 A 
ATOM     72  C   UNL A   1      40.753  29.305  29.900  1.00  0.00     0.010 A 
ATOM     73  C   UNL A   1      40.100  29.415  27.569  1.00  0.00     0.010 A 
ATOM     74  C   UNL A   1      39.416  29.460  30.280  1.00  0.00     0.020 A 
ATOM     75  C   UNL A   1      38.767  29.604  27.944  1.00  0.00     0.020 A 
ATOM     76  C   UNL A   1      38.433  29.615  29.299  1.00  0.00     0.054 A 
BRANCH  76  77
ATOM     77  S   UNL A   1      36.713  29.866  29.820  1.00  0.00     0.124 S 
ATOM     78  O   UNL A   1      36.668  31.309  30.036  1.00  0.00    -0.237 OA
ATOM     79  O   UNL A   1      35.964  29.374  28.667  1.00  0.00    -0.237 OA
ATOM     80  O   UNL A   1      36.598  29.048  31.025  1.00  0.00    -0.744 OA
ENDBRANCH  76  77
ENDBRANCH  48  71
BRANCH  60  81
ATOM     81  C   UNL A   1      46.752  33.385  28.762  1.00  0.00    -0.014 A 
ATOM     82  C   UNL A   1      46.570  34.465  27.880  1.00  0.00     0.010 A 
ATOM     83  C   UNL A   1      47.083  33.649  30.104  1.00  0.00     0.010 A 
ATOM     84  C   UNL A   1      46.754  35.778  28.323  1.00  0.00     0.020 A 
ATOM     85  C   UNL A   1      47.231  34.960  30.560  1.00  0.00     0.020 A 
ATOM     86  C   UNL A   1      47.081  36.018  29.662  1.00  0.00     0.054 A 
BRANCH  86  87
ATOM     87  S   UNL A   1      47.269  37.734  30.220  1.00  0.00     0.124 S 
ATOM     88  O   UNL A   1      48.018  38.331  29.118  1.00  0.00    -0.237 OA
ATOM     89  O   UNL A   1      45.885  38.178  30.354  1.00  0.00    -0.237 OA
ATOM     90  O   UNL A   1      48.004  37.612  31.477  1.00  0.00    -0.744 OA
ENDBRANCH  86  87
ENDBRANCH  60  81
ENDBRANCH  34  35
ENDBRANCH  27  29
ENDBRANCH  26  27
ENDBRANCH  25  26
ENDBRANCH  24  25
ENDBRANCH   1  24
TORSDOF 20
ENDMDL
MODEL 3
REMARK VINA RESULT:      -9.8      6.405     12.195
REMARK SMILES N#Cc1ccccc1S(=O)(=O)N1CCC(C(=O)OCCOCCOC(=O)c2ccc(-c3c4nc(c(-c5ccc(S(=O)(=O)[O-])cc5)c5ccc([nH]5)c(-c5ccc(S(=O)(=O)[O-])cc5)c5nc(c(-c6ccc(S(=O)(=O)[O-])cc6)c6ccc3[nH]6)C=C5)C=C4)cc2)CC1
REMARK SMILES IDX 21 1 20 2 19 3 18 4 16 5 17 6 15 7 12 8 13 9 88 10 14 11
REMARK SMILES IDX 87 12 9 13 10 14 11 15 8 16 3 17 4 18 5 19 7 20 6 21 2 22
REMARK SMILES IDX 1 23 22 24 23 25 24 26 25 27 26 28 27 29 28 30 86 31 29 32
REMARK SMILES IDX 85 33 30 34 31 35 32 36 79 37 33 38 84 39 78 40 80 41 34 42
REMARK SMILES IDX 83 43 77 44 76 45 35 47 65 48 46 49 64 50 47 51 50 52 63 53
REMARK SMILES IDX 81 54 48 55 49 56 62 58 82 59 51 60 36 61 37 62 45 63 38 64
REMARK SMILES IDX 44 65 39 66 40 67 41 68 42 69 43 70 66 71 67 72 75 73 68 74
REMARK SMILES IDX 74 75 69 76 70 77 71 78 72 79 73 80 52 81 53 82 61 83 54 84
REMARK SMILES IDX 60 85 55 86 56 87 57 88 58 89 59 90
REMARK H PARENT 80 46 50 57
REMARK Flexibility Score: inf
ROOT
ATOM      1  O   UNL A   1      37.515  22.133  25.099  1.00  0.00    -0.374 OA
ENDROOT
BRANCH   1   2
ATOM      2  C   UNL A   1      36.216  22.679  24.892  1.00  0.00     0.202 C 
BRANCH   2   3
ATOM      3  C   UNL A   1      35.582  22.573  23.503  1.00  0.00     0.261 C 
BRANCH   3   4
ATOM      4  O   UNL A   1      34.950  23.794  23.104  1.00  0.00    -0.463 OA
BRANCH   4   5
ATOM      5  C   UNL A   1      33.600  23.797  23.218  1.00  0.00     0.309 C 
ATOM      6  O   UNL A   1      32.846  22.946  22.755  1.00  0.00    -0.252 OA
BRANCH   5   7
ATOM      7  C   UNL A   1      33.081  24.982  23.993  1.00  0.00     0.102 C 
ATOM      8  N   UNL A   1      32.771  27.421  25.450  1.00  0.00    -0.198 NA
ATOM      9  C   UNL A   1      32.687  26.162  26.217  1.00  0.00     0.103 C 
ATOM     10  C   UNL A   1      33.016  27.451  23.997  1.00  0.00     0.103 C 
ATOM     11  C   UNL A   1      33.214  24.922  25.510  1.00  0.00     0.032 C 
ATOM     12  C   UNL A   1      33.764  26.236  23.494  1.00  0.00     0.032 C 
BRANCH   8  13
ATOM     13  S   UNL A   1      32.172  28.816  26.181  1.00  0.00     0.244 S 
ATOM     14  O   UNL A   1      31.389  28.379  27.320  1.00  0.00    -0.207 OA
ATOM     15  O   UNL A   1      31.593  29.657  25.156  1.00  0.00    -0.207 OA
BRANCH  13  16
ATOM     16  C   UNL A   1      33.499  29.779  26.884  1.00  0.00     0.100 A 
ATOM     17  C   UNL A   1      33.492  31.135  27.219  1.00  0.00     0.072 A 
ATOM     18  C   UNL A   1      34.673  31.722  27.724  1.00  0.00     0.021 A 
ATOM     19  C   UNL A   1      35.826  30.972  27.935  1.00  0.00     0.001 A 
ATOM     20  C   UNL A   1      34.673  29.029  27.112  1.00  0.00     0.023 A 
ATOM     21  C   UNL A   1      35.821  29.617  27.643  1.00  0.00     0.001 A 
BRANCH  17  22
ATOM     22  C   UNL A   1      32.379  32.022  27.169  1.00  0.00     0.101 C 
ATOM     23  N   UNL A   1      31.562  32.848  27.166  1.00  0.00    -0.192 NA
ENDBRANCH  17  22
ENDBRANCH  13  16
ENDBRANCH   8  13
ENDBRANCH   5   7
ENDBRANCH   4   5
ENDBRANCH   3   4
ENDBRANCH   2   3
ENDBRANCH   1   2
BRANCH   1  24
ATOM     24  C   UNL A   1      38.255  22.539  26.247  1.00  0.00     0.202 C 
BRANCH  24  25
ATOM     25  C   UNL A   1      39.315  23.646  26.106  1.00  0.00     0.261 C 
BRANCH  25  26
ATOM     26  O   UNL A   1      39.004  24.849  26.832  1.00  0.00    -0.460 OA
BRANCH  26  27
ATOM     27  C   UNL A   1      40.038  25.724  26.931  1.00  0.00     0.338 C 
ATOM     28  O   UNL A   1      40.969  25.851  26.152  1.00  0.00    -0.246 OA
BRANCH  27  29
ATOM     29  C   UNL A   1      39.796  26.688  28.020  1.00  0.00     0.060 A 
ATOM     30  C   UNL A   1      40.432  27.934  27.937  1.00  0.00     0.016 A 
ATOM     31  C   UNL A   1      39.059  26.340  29.152  1.00  0.00     0.016 A 
ATOM     32  C   UNL A   1      40.374  28.822  29.007  1.00  0.00     0.010 A 
ATOM     33  C   UNL A   1      39.010  27.231  30.230  1.00  0.00     0.010 A 
ATOM     34  C   UNL A   1      39.699  28.458  30.177  1.00  0.00    -0.014 A 
BRANCH  34  35
ATOM     35  C   UNL A   1      39.832  29.303  31.390  1.00  0.00     0.031 A 
ATOM     36  C   UNL A   1      40.983  29.061  32.331  1.00  0.00     0.074 A 
ATOM     37  C   UNL A   1      38.959  30.297  31.631  1.00  0.00     0.049 A 
ATOM     38  N   UNL A   1      41.266  29.654  33.462  1.00  0.00    -0.248 NA
ATOM     39  C   UNL A   1      41.939  28.009  31.949  1.00  0.00     0.031 C 
ATOM     40  C   UNL A   1      37.838  30.665  30.768  1.00  0.00     0.029 A 
ATOM     41  N   UNL A   1      38.880  31.181  32.678  1.00  0.00    -0.354 N 
ATOM     42  C   UNL A   1      42.419  29.038  33.936  1.00  0.00     0.074 A 
ATOM     43  C   UNL A   1      42.765  28.003  32.984  1.00  0.00     0.031 C 
ATOM     44  C   UNL A   1      37.179  31.695  31.323  1.00  0.00     0.029 A 
ATOM     45  C   UNL A   1      37.803  32.031  32.601  1.00  0.00     0.049 A 
ATOM     46  H   UNL A   1      39.532  31.203  33.415  1.00  0.00     0.167 HD
ATOM     47  C   UNL A   1      43.127  29.311  35.058  1.00  0.00     0.031 A 
ATOM     48  C   UNL A   1      37.354  32.955  33.473  1.00  0.00     0.031 A 
ATOM     49  C   UNL A   1      42.767  30.335  36.006  1.00  0.00     0.049 A 
ATOM     50  C   UNL A   1      38.110  33.183  34.756  1.00  0.00     0.074 A 
ATOM     51  C   UNL A   1      43.429  30.703  37.164  1.00  0.00     0.029 A 
ATOM     52  N   UNL A   1      41.645  31.145  35.913  1.00  0.00    -0.354 N 
ATOM     53  N   UNL A   1      39.213  32.611  35.177  1.00  0.00    -0.248 NA
ATOM     54  C   UNL A   1      37.564  34.189  35.678  1.00  0.00     0.031 C 
ATOM     55  C   UNL A   1      42.667  31.681  37.810  1.00  0.00     0.029 A 
ATOM     56  C   UNL A   1      41.576  31.985  37.013  1.00  0.00     0.049 A 
ATOM     57  H   UNL A   1      40.994  31.125  35.175  1.00  0.00     0.167 HD
ATOM     58  C   UNL A   1      39.511  33.212  36.397  1.00  0.00     0.074 A 
ATOM     59  C   UNL A   1      38.482  34.202  36.635  1.00  0.00     0.031 C 
ATOM     60  C   UNL A   1      40.543  32.967  37.242  1.00  0.00     0.031 A 
BRANCH  47  61
ATOM     61  C   UNL A   1      44.340  28.462  35.348  1.00  0.00    -0.014 A 
ATOM     62  C   UNL A   1      45.590  28.740  34.767  1.00  0.00     0.010 A 
ATOM     63  C   UNL A   1      44.235  27.394  36.258  1.00  0.00     0.010 A 
ATOM     64  C   UNL A   1      46.700  27.942  35.060  1.00  0.00     0.020 A 
ATOM     65  C   UNL A   1      45.351  26.616  36.581  1.00  0.00     0.020 A 
ATOM     66  C   UNL A   1      46.574  26.885  35.966  1.00  0.00     0.054 A 
BRANCH  66  67
ATOM     67  S   UNL A   1      48.039  25.887  36.348  1.00  0.00     0.124 S 
ATOM     68  O   UNL A   1      47.670  25.287  37.627  1.00  0.00    -0.237 OA
ATOM     69  O   UNL A   1      48.098  24.964  35.216  1.00  0.00    -0.237 OA
ATOM     70  O   UNL A   1      49.122  26.865  36.409  1.00  0.00    -0.744 OA
ENDBRANCH  66  67
ENDBRANCH  47  61
BRANCH  48  71
ATOM     71  C   UNL A   1      36.111  33.719  33.172  1.00  0.00    -0.014 A 
ATOM     72  C   UNL A   1      34.850  33.213  33.531  1.00  0.00     0.010 A 
ATOM     73  C   UNL A   1      36.185  34.964  32.519  1.00  0.00     0.010 A 
ATOM     74  C   UNL A   1      33.686  33.929  33.229  1.00  0.00     0.020 A 
ATOM     75  C   UNL A   1      35.028  35.698  32.245  1.00  0.00     0.020 A 
ATOM     76  C   UNL A   1      33.785  35.170  32.593  1.00  0.00     0.054 A 
BRANCH  76  77
ATOM     77  S   UNL A   1      32.264  36.102  32.260  1.00  0.00     0.124 S 
ATOM     78  O   UNL A   1      32.243  37.056  33.363  1.00  0.00    -0.237 OA
ATOM     79  O   UNL A   1      32.528  36.665  30.939  1.00  0.00    -0.237 OA
ATOM     80  O   UNL A   1      31.220  35.079  32.297  1.00  0.00    -0.744 OA
ENDBRANCH  76  77
ENDBRANCH  48  71
BRANCH  60  81
ATOM     81  C   UNL A   1      40.643  33.812  38.488  1.00  0.00    -0.014 A 
ATOM     82  C   UNL A   1      41.567  34.867  38.590  1.00  0.00     0.010 A 
ATOM     83  C   UNL A   1      39.754  33.578  39.554  1.00  0.00     0.010 A 
ATOM     84  C   UNL A   1      41.625  35.646  39.749  1.00  0.00     0.020 A 
ATOM     85  C   UNL A   1      39.784  34.377  40.699  1.00  0.00     0.020 A 
ATOM     86  C   UNL A   1      40.730  35.398  40.795  1.00  0.00     0.054 A 
BRANCH  86  87
ATOM     87  S   UNL A   1      40.799  36.453  42.270  1.00  0.00     0.124 S 
ATOM     88  O   UNL A   1      41.283  37.716  41.718  1.00  0.00    -0.237 OA
ATOM     89  O   UNL A   1      39.411  36.456  42.724  1.00  0.00    -0.237 OA
ATOM     90  O   UNL A   1      41.737  35.759  43.151  1.00  0.00    -0.744 OA
ENDBRANCH  86  87
ENDBRANCH  60  81
ENDBRANCH  34  35
ENDBRANCH  27  29
ENDBRANCH  26  27
ENDBRANCH  25  26
ENDBRANCH  24  25
ENDBRANCH   1  24
TORSDOF 20
ENDMDL
