MODEL 1
REMARK VINA RESULT:     -10.6      0.000      0.000
REMARK SMILES CO[C@H]1C[C@@H](C(=O)OCCOCCOC(=O)c2ccc(-c3c4nc(c(-c5ccc(S(=O)(=O)[O-])cc5)c5ccc([nH]5)c(-c5ccc(S(=O)(=O)[O-])cc5)c5nc(c(-c6ccc(S(=O)(=O)[O-])cc6)c6ccc3[nH]6)C=C5)C=C4)cc2)N(C(=O)Nc2cc(C)cc(F)c2)C1
REMARK SMILES IDX 12 1 11 2 10 3 9 4 8 5 6 6 7 7 5 8 3 9 4 10 89 11 77 12 2 13
REMARK SMILES IDX 1 14 78 15 79 16 80 17 81 19 82 20 88 21 83 22 86 23 84 24
REMARK SMILES IDX 85 25 87 26 13 27 14 28 15 29 16 30 17 31 18 32 76 33 19 34
REMARK SMILES IDX 75 35 20 36 21 37 22 38 69 39 23 40 74 41 68 42 70 43 24 44
REMARK SMILES IDX 73 45 67 46 66 47 25 49 55 50 36 51 54 52 37 53 40 54 53 55
REMARK SMILES IDX 71 56 38 57 39 58 52 60 72 61 41 62 26 63 27 64 35 65 28 66
REMARK SMILES IDX 34 67 29 68 30 69 31 70 32 71 33 72 56 73 57 74 65 75 58 76
REMARK SMILES IDX 64 77 59 78 60 79 61 80 62 81 63 82 42 83 43 84 51 85 44 86
REMARK SMILES IDX 50 87 45 88 46 89 47 90 48 91 49 92
REMARK H PARENT 80 18 70 48 40 59
REMARK Flexibility Score: inf
ROOT
ATOM      1  C   UNL A   1      31.938  29.716  25.866  1.00  0.00     0.202 C 
ENDROOT
BRANCH   1   2
ATOM      2  O   UNL A   1      32.861  28.885  25.182  1.00  0.00    -0.374 OA
BRANCH   2   3
ATOM      3  C   UNL A   1      33.415  27.728  25.797  1.00  0.00     0.202 C 
BRANCH   3   4
ATOM      4  C   UNL A   1      32.565  26.620  26.436  1.00  0.00     0.261 C 
BRANCH   4   5
ATOM      5  O   UNL A   1      32.520  25.275  25.916  1.00  0.00    -0.462 OA
BRANCH   5   6
ATOM      6  C   UNL A   1      31.944  24.229  26.552  1.00  0.00     0.329 C 
ATOM      7  O   UNL A   1      30.935  24.251  27.239  1.00  0.00    -0.250 OA
BRANCH   6   8
ATOM      8  C   UNL A   1      32.643  22.947  26.123  1.00  0.00     0.199 C 
ATOM      9  C   UNL A   1      35.032  22.475  25.925  1.00  0.00     0.140 C 
ATOM     10  C   UNL A   1      33.972  22.953  26.903  1.00  0.00     0.071 C 
ATOM     11  C   UNL A   1      34.463  22.879  24.563  1.00  0.00     0.154 C 
ATOM     12  N   UNL A   1      33.014  22.925  24.703  1.00  0.00    -0.308 N 
BRANCH   9  13
ATOM     13  O   UNL A   1      36.285  23.129  26.129  1.00  0.00    -0.380 OA
ATOM     14  C   UNL A   1      37.392  22.471  25.531  1.00  0.00     0.195 C 
ENDBRANCH   9  13
BRANCH  12  15
ATOM     15  C   UNL A   1      32.236  22.703  23.595  1.00  0.00     0.322 C 
ATOM     16  O   UNL A   1      32.150  21.580  23.089  1.00  0.00    -0.248 OA
ATOM     17  N   UNL A   1      31.370  23.654  23.153  1.00  0.00    -0.308 N 
ATOM     18  H   UNL A   1      30.453  23.324  23.011  1.00  0.00     0.171 HD
BRANCH  17  19
ATOM     19  C   UNL A   1      31.538  25.014  22.863  1.00  0.00     0.046 A 
ATOM     20  C   UNL A   1      30.453  25.871  23.087  1.00  0.00     0.029 A 
ATOM     21  C   UNL A   1      32.688  25.517  22.265  1.00  0.00     0.065 A 
ATOM     22  C   UNL A   1      30.575  27.253  22.877  1.00  0.00    -0.046 A 
ATOM     23  C   UNL A   1      32.804  26.888  22.048  1.00  0.00     0.125 A 
ATOM     24  C   UNL A   1      29.427  28.186  23.126  1.00  0.00     0.044 C 
ATOM     25  C   UNL A   1      31.784  27.762  22.398  1.00  0.00     0.042 A 
ATOM     26  F   UNL A   1      33.923  27.378  21.503  1.00  0.00    -0.207 F 
ENDBRANCH  17  19
ENDBRANCH  12  15
ENDBRANCH   6   8
ENDBRANCH   5   6
ENDBRANCH   4   5
ENDBRANCH   3   4
ENDBRANCH   2   3
ENDBRANCH   1   2
BRANCH   1  27
ATOM     27  C   UNL A   1      32.537  30.660  26.898  1.00  0.00     0.261 C 
BRANCH  27  28
ATOM     28  O   UNL A   1      33.967  30.638  26.821  1.00  0.00    -0.460 OA
BRANCH  28  29
ATOM     29  C   UNL A   1      34.578  31.515  27.656  1.00  0.00     0.338 C 
ATOM     30  O   UNL A   1      34.096  32.494  28.180  1.00  0.00    -0.246 OA
BRANCH  29  31
ATOM     31  C   UNL A   1      35.923  30.999  27.984  1.00  0.00     0.060 A 
ATOM     32  C   UNL A   1      36.136  29.623  27.832  1.00  0.00     0.016 A 
ATOM     33  C   UNL A   1      36.939  31.832  28.461  1.00  0.00     0.016 A 
ATOM     34  C   UNL A   1      37.341  29.059  28.230  1.00  0.00     0.010 A 
ATOM     35  C   UNL A   1      38.142  31.264  28.879  1.00  0.00     0.010 A 
ATOM     36  C   UNL A   1      38.317  29.872  28.817  1.00  0.00    -0.014 A 
BRANCH  36  37
ATOM     37  C   UNL A   1      39.372  29.235  29.635  1.00  0.00     0.031 A 
ATOM     38  C   UNL A   1      39.454  29.632  31.085  1.00  0.00     0.074 A 
ATOM     39  C   UNL A   1      40.203  28.318  29.118  1.00  0.00     0.049 A 
ATOM     40  N   UNL A   1      40.303  29.252  32.000  1.00  0.00    -0.248 NA
ATOM     41  C   UNL A   1      38.440  30.590  31.563  1.00  0.00     0.031 C 
ATOM     42  C   UNL A   1      40.167  27.817  27.745  1.00  0.00     0.029 A 
ATOM     43  N   UNL A   1      41.248  27.646  29.697  1.00  0.00    -0.354 N 
ATOM     44  C   UNL A   1      39.935  29.931  33.156  1.00  0.00     0.074 A 
ATOM     45  C   UNL A   1      38.803  30.764  32.823  1.00  0.00     0.031 C 
ATOM     46  C   UNL A   1      41.157  26.921  27.584  1.00  0.00     0.029 A 
ATOM     47  C   UNL A   1      41.913  26.812  28.832  1.00  0.00     0.049 A 
ATOM     48  H   UNL A   1      41.498  27.751  30.644  1.00  0.00     0.167 HD
ATOM     49  C   UNL A   1      40.492  29.866  34.386  1.00  0.00     0.031 A 
ATOM     50  C   UNL A   1      43.018  26.066  29.027  1.00  0.00     0.031 A 
ATOM     51  C   UNL A   1      41.631  29.048  34.699  1.00  0.00     0.049 A 
ATOM     52  C   UNL A   1      43.670  26.069  30.386  1.00  0.00     0.074 A 
ATOM     53  C   UNL A   1      42.273  28.899  35.915  1.00  0.00     0.029 A 
ATOM     54  N   UNL A   1      42.302  28.249  33.786  1.00  0.00    -0.354 N 
ATOM     55  N   UNL A   1      43.304  26.704  31.476  1.00  0.00    -0.248 NA
ATOM     56  C   UNL A   1      44.880  25.252  30.543  1.00  0.00     0.031 C 
ATOM     57  C   UNL A   1      43.374  28.059  35.720  1.00  0.00     0.029 A 
ATOM     58  C   UNL A   1      43.373  27.628  34.402  1.00  0.00     0.049 A 
ATOM     59  H   UNL A   1      42.053  28.141  32.840  1.00  0.00     0.167 HD
ATOM     60  C   UNL A   1      44.221  26.337  32.456  1.00  0.00     0.074 A 
ATOM     61  C   UNL A   1      45.151  25.419  31.830  1.00  0.00     0.031 C 
ATOM     62  C   UNL A   1      44.287  26.719  33.756  1.00  0.00     0.031 A 
BRANCH  49  63
ATOM     63  C   UNL A   1      39.909  30.744  35.461  1.00  0.00    -0.014 A 
ATOM     64  C   UNL A   1      40.606  31.860  35.957  1.00  0.00     0.010 A 
ATOM     65  C   UNL A   1      38.629  30.456  35.966  1.00  0.00     0.010 A 
ATOM     66  C   UNL A   1      40.046  32.653  36.963  1.00  0.00     0.020 A 
ATOM     67  C   UNL A   1      38.053  31.263  36.950  1.00  0.00     0.020 A 
ATOM     68  C   UNL A   1      38.772  32.349  37.453  1.00  0.00     0.054 A 
BRANCH  68  69
ATOM     69  S   UNL A   1      38.055  33.414  38.734  1.00  0.00     0.124 S 
ATOM     70  O   UNL A   1      38.651  32.867  39.949  1.00  0.00    -0.237 OA
ATOM     71  O   UNL A   1      38.525  34.742  38.346  1.00  0.00    -0.237 OA
ATOM     72  O   UNL A   1      36.616  33.200  38.597  1.00  0.00    -0.744 OA
ENDBRANCH  68  69
ENDBRANCH  49  63
BRANCH  50  73
ATOM     73  C   UNL A   1      43.582  25.268  27.905  1.00  0.00    -0.014 A 
ATOM     74  C   UNL A   1      44.596  25.795  27.085  1.00  0.00     0.010 A 
ATOM     75  C   UNL A   1      43.114  23.964  27.658  1.00  0.00     0.010 A 
ATOM     76  C   UNL A   1      45.126  25.037  26.037  1.00  0.00     0.020 A 
ATOM     77  C   UNL A   1      43.661  23.192  26.629  1.00  0.00     0.020 A 
ATOM     78  C   UNL A   1      44.659  23.737  25.820  1.00  0.00     0.054 A 
BRANCH  78  79
ATOM     79  S   UNL A   1      45.412  22.746  24.499  1.00  0.00     0.124 S 
ATOM     80  O   UNL A   1      44.250  22.363  23.704  1.00  0.00    -0.237 OA
ATOM     81  O   UNL A   1      46.323  23.701  23.872  1.00  0.00    -0.237 OA
ATOM     82  O   UNL A   1      46.066  21.656  25.220  1.00  0.00    -0.744 OA
ENDBRANCH  78  79
ENDBRANCH  50  73
BRANCH  62  83
ATOM     83  C   UNL A   1      45.377  26.120  34.604  1.00  0.00    -0.014 A 
ATOM     84  C   UNL A   1      46.618  26.760  34.761  1.00  0.00     0.010 A 
ATOM     85  C   UNL A   1      45.124  24.931  35.313  1.00  0.00     0.010 A 
ATOM     86  C   UNL A   1      47.598  26.204  35.587  1.00  0.00     0.020 A 
ATOM     87  C   UNL A   1      46.089  24.389  36.164  1.00  0.00     0.020 A 
ATOM     88  C   UNL A   1      47.326  25.022  36.284  1.00  0.00     0.054 A 
BRANCH  88  89
ATOM     89  S   UNL A   1      48.599  24.347  37.385  1.00  0.00     0.124 S 
ATOM     90  O   UNL A   1      49.773  25.132  37.007  1.00  0.00    -0.237 OA
ATOM     91  O   UNL A   1      48.056  24.627  38.711  1.00  0.00    -0.237 OA
ATOM     92  O   UNL A   1      48.654  22.931  37.025  1.00  0.00    -0.744 OA
ENDBRANCH  88  89
ENDBRANCH  62  83
ENDBRANCH  36  37
ENDBRANCH  29  31
ENDBRANCH  28  29
ENDBRANCH  27  28
ENDBRANCH   1  27
TORSDOF 20
ENDMDL
MODEL 2
REMARK VINA RESULT:     -10.6      4.850     10.562
REMARK SMILES CO[C@H]1C[C@@H](C(=O)OCCOCCOC(=O)c2ccc(-c3c4nc(c(-c5ccc(S(=O)(=O)[O-])cc5)c5ccc([nH]5)c(-c5ccc(S(=O)(=O)[O-])cc5)c5nc(c(-c6ccc(S(=O)(=O)[O-])cc6)c6ccc3[nH]6)C=C5)C=C4)cc2)N(C(=O)Nc2cc(C)cc(F)c2)C1
REMARK SMILES IDX 12 1 11 2 10 3 9 4 8 5 6 6 7 7 5 8 3 9 4 10 89 11 77 12 2 13
REMARK SMILES IDX 1 14 78 15 79 16 80 17 81 19 82 20 88 21 83 22 86 23 84 24
REMARK SMILES IDX 85 25 87 26 13 27 14 28 15 29 16 30 17 31 18 32 76 33 19 34
REMARK SMILES IDX 75 35 20 36 21 37 22 38 69 39 23 40 74 41 68 42 70 43 24 44
REMARK SMILES IDX 73 45 67 46 66 47 25 49 55 50 36 51 54 52 37 53 40 54 53 55
REMARK SMILES IDX 71 56 38 57 39 58 52 60 72 61 41 62 26 63 27 64 35 65 28 66
REMARK SMILES IDX 34 67 29 68 30 69 31 70 32 71 33 72 56 73 57 74 65 75 58 76
REMARK SMILES IDX 64 77 59 78 60 79 61 80 62 81 63 82 42 83 43 84 51 85 44 86
REMARK SMILES IDX 50 87 45 88 46 89 47 90 48 91 49 92
REMARK H PARENT 80 18 70 48 40 59
REMARK Flexibility Score: inf
ROOT
ATOM      1  C   UNL A   1      36.587  21.123  25.011  1.00  0.00     0.202 C 
ENDROOT
BRANCH   1   2
ATOM      2  O   UNL A   1      35.805  22.063  25.729  1.00  0.00    -0.374 OA
BRANCH   2   3
ATOM      3  C   UNL A   1      35.163  23.151  25.072  1.00  0.00     0.202 C 
BRANCH   3   4
ATOM      4  C   UNL A   1      33.638  23.323  25.013  1.00  0.00     0.261 C 
BRANCH   4   5
ATOM      5  O   UNL A   1      32.977  24.547  25.394  1.00  0.00    -0.462 OA
BRANCH   5   6
ATOM      6  C   UNL A   1      32.532  25.478  24.519  1.00  0.00     0.329 C 
ATOM      7  O   UNL A   1      31.502  25.440  23.866  1.00  0.00    -0.250 OA
BRANCH   6   8
ATOM      8  C   UNL A   1      33.425  26.706  24.611  1.00  0.00     0.199 C 
ATOM      9  C   UNL A   1      33.394  28.528  26.239  1.00  0.00     0.140 C 
ATOM     10  C   UNL A   1      33.499  27.017  26.119  1.00  0.00     0.071 C 
ATOM     11  C   UNL A   1      32.603  28.927  24.991  1.00  0.00     0.154 C 
ATOM     12  N   UNL A   1      32.849  27.903  23.986  1.00  0.00    -0.308 N 
BRANCH   9  13
ATOM     13  O   UNL A   1      32.672  28.924  27.406  1.00  0.00    -0.380 OA
ATOM     14  C   UNL A   1      31.469  28.201  27.622  1.00  0.00     0.195 C 
ENDBRANCH   9  13
BRANCH  12  15
ATOM     15  C   UNL A   1      32.759  28.244  22.660  1.00  0.00     0.322 C 
ATOM     16  O   UNL A   1      33.771  28.439  21.980  1.00  0.00    -0.248 OA
ATOM     17  N   UNL A   1      31.572  28.164  22.001  1.00  0.00    -0.308 N 
ATOM     18  H   UNL A   1      31.617  27.659  21.157  1.00  0.00     0.171 HD
BRANCH  17  19
ATOM     19  C   UNL A   1      30.297  28.663  22.300  1.00  0.00     0.046 A 
ATOM     20  C   UNL A   1      30.030  30.004  21.998  1.00  0.00     0.029 A 
ATOM     21  C   UNL A   1      29.340  27.917  22.978  1.00  0.00     0.065 A 
ATOM     22  C   UNL A   1      28.755  30.548  22.215  1.00  0.00    -0.046 A 
ATOM     23  C   UNL A   1      28.078  28.461  23.201  1.00  0.00     0.125 A 
ATOM     24  C   UNL A   1      28.449  31.978  21.882  1.00  0.00     0.044 C 
ATOM     25  C   UNL A   1      27.762  29.745  22.778  1.00  0.00     0.042 A 
ATOM     26  F   UNL A   1      27.144  27.732  23.824  1.00  0.00    -0.207 F 
ENDBRANCH  17  19
ENDBRANCH  12  15
ENDBRANCH   6   8
ENDBRANCH   5   6
ENDBRANCH   4   5
ENDBRANCH   3   4
ENDBRANCH   2   3
ENDBRANCH   1   2
BRANCH   1  27
ATOM     27  C   UNL A   1      38.067  21.090  25.362  1.00  0.00     0.261 C 
BRANCH  27  28
ATOM     28  O   UNL A   1      38.430  22.262  26.101  1.00  0.00    -0.460 OA
BRANCH  28  29
ATOM     29  C   UNL A   1      39.696  22.238  26.586  1.00  0.00     0.338 C 
ATOM     30  O   UNL A   1      40.543  21.393  26.399  1.00  0.00    -0.246 OA
BRANCH  29  31
ATOM     31  C   UNL A   1      39.966  23.521  27.267  1.00  0.00     0.060 A 
ATOM     32  C   UNL A   1      39.094  24.584  27.002  1.00  0.00     0.016 A 
ATOM     33  C   UNL A   1      41.064  23.691  28.116  1.00  0.00     0.016 A 
ATOM     34  C   UNL A   1      39.357  25.845  27.521  1.00  0.00     0.010 A 
ATOM     35  C   UNL A   1      41.340  24.960  28.623  1.00  0.00     0.010 A 
ATOM     36  C   UNL A   1      40.519  26.046  28.275  1.00  0.00    -0.014 A 
BRANCH  36  37
ATOM     37  C   UNL A   1      41.030  27.424  28.435  1.00  0.00     0.031 A 
ATOM     38  C   UNL A   1      42.400  27.720  27.887  1.00  0.00     0.074 A 
ATOM     39  C   UNL A   1      40.294  28.383  29.018  1.00  0.00     0.049 A 
ATOM     40  N   UNL A   1      43.088  28.829  27.930  1.00  0.00    -0.248 NA
ATOM     41  C   UNL A   1      43.086  26.610  27.198  1.00  0.00     0.031 C 
ATOM     42  C   UNL A   1      38.932  28.217  29.525  1.00  0.00     0.029 A 
ATOM     43  N   UNL A   1      40.598  29.692  29.282  1.00  0.00    -0.354 N 
ATOM     44  C   UNL A   1      44.288  28.548  27.287  1.00  0.00     0.074 A 
ATOM     45  C   UNL A   1      44.248  27.161  26.885  1.00  0.00     0.031 C 
ATOM     46  C   UNL A   1      38.522  29.385  30.052  1.00  0.00     0.029 A 
ATOM     47  C   UNL A   1      39.603  30.365  29.947  1.00  0.00     0.049 A 
ATOM     48  H   UNL A   1      41.450  30.111  29.020  1.00  0.00     0.167 HD
ATOM     49  C   UNL A   1      45.333  29.374  27.054  1.00  0.00     0.031 A 
ATOM     50  C   UNL A   1      39.581  31.622  30.432  1.00  0.00     0.031 A 
ATOM     51  C   UNL A   1      45.369  30.746  27.477  1.00  0.00     0.049 A 
ATOM     52  C   UNL A   1      40.789  32.503  30.229  1.00  0.00     0.074 A 
ATOM     53  C   UNL A   1      46.374  31.678  27.287  1.00  0.00     0.029 A 
ATOM     54  N   UNL A   1      44.358  31.379  28.184  1.00  0.00    -0.354 N 
ATOM     55  N   UNL A   1      41.913  32.231  29.607  1.00  0.00    -0.248 NA
ATOM     56  C   UNL A   1      40.722  33.858  30.788  1.00  0.00     0.031 C 
ATOM     57  C   UNL A   1      45.997  32.857  27.937  1.00  0.00     0.029 A 
ATOM     58  C   UNL A   1      44.727  32.682  28.469  1.00  0.00     0.049 A 
ATOM     59  H   UNL A   1      43.505  30.964  28.445  1.00  0.00     0.167 HD
ATOM     60  C   UNL A   1      42.674  33.394  29.673  1.00  0.00     0.074 A 
ATOM     61  C   UNL A   1      41.878  34.371  30.388  1.00  0.00     0.031 C 
ATOM     62  C   UNL A   1      43.917  33.635  29.185  1.00  0.00     0.031 A 
BRANCH  49  63
ATOM     63  C   UNL A   1      46.536  28.795  26.359  1.00  0.00    -0.014 A 
ATOM     64  C   UNL A   1      47.764  28.634  27.026  1.00  0.00     0.010 A 
ATOM     65  C   UNL A   1      46.425  28.384  25.019  1.00  0.00     0.010 A 
ATOM     66  C   UNL A   1      48.868  28.102  26.354  1.00  0.00     0.020 A 
ATOM     67  C   UNL A   1      47.519  27.825  24.352  1.00  0.00     0.020 A 
ATOM     68  C   UNL A   1      48.738  27.702  25.021  1.00  0.00     0.054 A 
BRANCH  68  69
ATOM     69  S   UNL A   1      50.179  26.985  24.183  1.00  0.00     0.124 S 
ATOM     70  O   UNL A   1      51.122  28.099  24.198  1.00  0.00    -0.237 OA
ATOM     71  O   UNL A   1      50.523  25.858  25.048  1.00  0.00    -0.237 OA
ATOM     72  O   UNL A   1      49.667  26.621  22.864  1.00  0.00    -0.744 OA
ENDBRANCH  68  69
ENDBRANCH  49  63
BRANCH  50  73
ATOM     73  C   UNL A   1      38.385  32.115  31.165  1.00  0.00    -0.014 A 
ATOM     74  C   UNL A   1      38.288  31.977  32.561  1.00  0.00     0.010 A 
ATOM     75  C   UNL A   1      37.334  32.741  30.468  1.00  0.00     0.010 A 
ATOM     76  C   UNL A   1      37.164  32.449  33.245  1.00  0.00     0.020 A 
ATOM     77  C   UNL A   1      36.221  33.239  31.150  1.00  0.00     0.020 A 
ATOM     78  C   UNL A   1      36.140  33.084  32.534  1.00  0.00     0.054 A 
BRANCH  78  79
ATOM     79  S   UNL A   1      34.723  33.752  33.452  1.00  0.00     0.124 S 
ATOM     80  O   UNL A   1      35.074  33.431  34.831  1.00  0.00    -0.237 OA
ATOM     81  O   UNL A   1      34.763  35.169  33.099  1.00  0.00    -0.237 OA
ATOM     82  O   UNL A   1      33.585  33.015  32.906  1.00  0.00    -0.744 OA
ENDBRANCH  78  79
ENDBRANCH  50  73
BRANCH  62  83
ATOM     83  C   UNL A   1      44.482  35.018  29.370  1.00  0.00    -0.014 A 
ATOM     84  C   UNL A   1      45.306  35.332  30.464  1.00  0.00     0.010 A 
ATOM     85  C   UNL A   1      44.240  35.999  28.390  1.00  0.00     0.010 A 
ATOM     86  C   UNL A   1      45.852  36.611  30.591  1.00  0.00     0.020 A 
ATOM     87  C   UNL A   1      44.809  37.269  28.497  1.00  0.00     0.020 A 
ATOM     88  C   UNL A   1      45.600  37.571  29.605  1.00  0.00     0.054 A 
BRANCH  88  89
ATOM     89  S   UNL A   1      46.359  39.210  29.771  1.00  0.00     0.124 S 
ATOM     90  O   UNL A   1      46.305  39.709  28.399  1.00  0.00    -0.237 OA
ATOM     91  O   UNL A   1      45.473  39.879  30.719  1.00  0.00    -0.237 OA
ATOM     92  O   UNL A   1      47.700  38.921  30.277  1.00  0.00    -0.744 OA
ENDBRANCH  88  89
ENDBRANCH  62  83
ENDBRANCH  36  37
ENDBRANCH  29  31
ENDBRANCH  28  29
ENDBRANCH  27  28
ENDBRANCH   1  27
TORSDOF 20
ENDMDL
MODEL 3
REMARK VINA RESULT:     -10.5      5.059     10.474
REMARK SMILES CO[C@H]1C[C@@H](C(=O)OCCOCCOC(=O)c2ccc(-c3c4nc(c(-c5ccc(S(=O)(=O)[O-])cc5)c5ccc([nH]5)c(-c5ccc(S(=O)(=O)[O-])cc5)c5nc(c(-c6ccc(S(=O)(=O)[O-])cc6)c6ccc3[nH]6)C=C5)C=C4)cc2)N(C(=O)Nc2cc(C)cc(F)c2)C1
REMARK SMILES IDX 12 1 11 2 10 3 9 4 8 5 6 6 7 7 5 8 3 9 4 10 89 11 77 12 2 13
REMARK SMILES IDX 1 14 78 15 79 16 80 17 81 19 82 20 88 21 83 22 86 23 84 24
REMARK SMILES IDX 85 25 87 26 13 27 14 28 15 29 16 30 17 31 18 32 76 33 19 34
REMARK SMILES IDX 75 35 20 36 21 37 22 38 69 39 23 40 74 41 68 42 70 43 24 44
REMARK SMILES IDX 73 45 67 46 66 47 25 49 55 50 36 51 54 52 37 53 40 54 53 55
REMARK SMILES IDX 71 56 38 57 39 58 52 60 72 61 41 62 26 63 27 64 35 65 28 66
REMARK SMILES IDX 34 67 29 68 30 69 31 70 32 71 33 72 56 73 57 74 65 75 58 76
REMARK SMILES IDX 64 77 59 78 60 79 61 80 62 81 63 82 42 83 43 84 51 85 44 86
REMARK SMILES IDX 50 87 45 88 46 89 47 90 48 91 49 92
REMARK H PARENT 80 18 70 48 40 59
REMARK Flexibility Score: inf
ROOT
ATOM      1  C   UNL A   1      37.263  20.644  25.322  1.00  0.00     0.202 C 
ENDROOT
BRANCH   1   2
ATOM      2  O   UNL A   1      37.147  21.984  25.770  1.00  0.00    -0.374 OA
BRANCH   2   3
ATOM      3  C   UNL A   1      36.728  23.025  24.895  1.00  0.00     0.202 C 
BRANCH   3   4
ATOM      4  C   UNL A   1      35.727  24.118  25.298  1.00  0.00     0.261 C 
BRANCH   4   5
ATOM      5  O   UNL A   1      34.371  23.824  25.693  1.00  0.00    -0.462 OA
BRANCH   5   6
ATOM      6  C   UNL A   1      34.022  22.837  26.550  1.00  0.00     0.329 C 
ATOM      7  O   UNL A   1      34.495  22.621  27.654  1.00  0.00    -0.250 OA
BRANCH   6   8
ATOM      8  C   UNL A   1      32.788  22.129  26.010  1.00  0.00     0.199 C 
ATOM      9  C   UNL A   1      32.098  21.767  23.694  1.00  0.00     0.140 C 
ATOM     10  C   UNL A   1      33.245  21.533  24.664  1.00  0.00     0.071 C 
ATOM     11  C   UNL A   1      31.407  23.010  24.258  1.00  0.00     0.154 C 
ATOM     12  N   UNL A   1      31.681  23.038  25.688  1.00  0.00    -0.308 N 
BRANCH   9  13
ATOM     13  O   UNL A   1      32.562  22.040  22.371  1.00  0.00    -0.380 OA
ATOM     14  C   UNL A   1      33.400  23.182  22.271  1.00  0.00     0.195 C 
ENDBRANCH   9  13
BRANCH  12  15
ATOM     15  C   UNL A   1      30.785  23.659  26.520  1.00  0.00     0.322 C 
ATOM     16  O   UNL A   1      29.923  23.016  27.126  1.00  0.00    -0.248 OA
ATOM     17  N   UNL A   1      30.953  24.962  26.873  1.00  0.00    -0.308 N 
ATOM     18  H   UNL A   1      30.912  25.122  27.844  1.00  0.00     0.171 HD
BRANCH  17  19
ATOM     19  C   UNL A   1      31.175  26.119  26.114  1.00  0.00     0.046 A 
ATOM     20  C   UNL A   1      32.206  26.978  26.514  1.00  0.00     0.029 A 
ATOM     21  C   UNL A   1      30.348  26.495  25.061  1.00  0.00     0.065 A 
ATOM     22  C   UNL A   1      32.520  28.120  25.762  1.00  0.00    -0.046 A 
ATOM     23  C   UNL A   1      30.656  27.634  24.321  1.00  0.00     0.125 A 
ATOM     24  C   UNL A   1      33.631  29.042  26.168  1.00  0.00     0.044 C 
ATOM     25  C   UNL A   1      31.761  28.416  24.627  1.00  0.00     0.042 A 
ATOM     26  F   UNL A   1      29.881  27.979  23.286  1.00  0.00    -0.207 F 
ENDBRANCH  17  19
ENDBRANCH  12  15
ENDBRANCH   6   8
ENDBRANCH   5   6
ENDBRANCH   4   5
ENDBRANCH   3   4
ENDBRANCH   2   3
ENDBRANCH   1   2
BRANCH   1  27
ATOM     27  C   UNL A   1      38.680  20.096  25.240  1.00  0.00     0.261 C 
BRANCH  27  28
ATOM     28  O   UNL A   1      39.525  20.755  26.190  1.00  0.00    -0.460 OA
BRANCH  28  29
ATOM     29  C   UNL A   1      40.787  20.263  26.241  1.00  0.00     0.338 C 
ATOM     30  O   UNL A   1      41.147  19.128  26.022  1.00  0.00    -0.246 OA
BRANCH  29  31
ATOM     31  C   UNL A   1      41.725  21.386  26.447  1.00  0.00     0.060 A 
ATOM     32  C   UNL A   1      42.015  21.745  27.769  1.00  0.00     0.016 A 
ATOM     33  C   UNL A   1      42.280  22.092  25.375  1.00  0.00     0.016 A 
ATOM     34  C   UNL A   1      42.799  22.862  28.029  1.00  0.00     0.010 A 
ATOM     35  C   UNL A   1      43.052  23.224  25.635  1.00  0.00     0.010 A 
ATOM     36  C   UNL A   1      43.260  23.640  26.961  1.00  0.00    -0.014 A 
BRANCH  36  37
ATOM     37  C   UNL A   1      43.685  25.030  27.229  1.00  0.00     0.031 A 
ATOM     38  C   UNL A   1      45.131  25.369  26.987  1.00  0.00     0.074 A 
ATOM     39  C   UNL A   1      42.813  25.964  27.641  1.00  0.00     0.049 A 
ATOM     40  N   UNL A   1      45.761  26.496  27.178  1.00  0.00    -0.248 NA
ATOM     41  C   UNL A   1      45.981  24.284  26.460  1.00  0.00     0.031 C 
ATOM     42  C   UNL A   1      41.380  25.756  27.844  1.00  0.00     0.029 A 
ATOM     43  N   UNL A   1      43.015  27.279  27.966  1.00  0.00    -0.354 N 
ATOM     44  C   UNL A   1      47.079  26.253  26.808  1.00  0.00     0.074 A 
ATOM     45  C   UNL A   1      47.166  24.869  26.405  1.00  0.00     0.031 C 
ATOM     46  C   UNL A   1      40.832  26.908  28.272  1.00  0.00     0.029 A 
ATOM     47  C   UNL A   1      41.882  27.919  28.403  1.00  0.00     0.049 A 
ATOM     48  H   UNL A   1      43.891  27.724  27.894  1.00  0.00     0.167 HD
ATOM     49  C   UNL A   1      48.125  27.110  26.805  1.00  0.00     0.031 A 
ATOM     50  C   UNL A   1      41.721  29.171  28.873  1.00  0.00     0.031 A 
ATOM     51  C   UNL A   1      48.030  28.480  27.227  1.00  0.00     0.049 A 
ATOM     52  C   UNL A   1      42.917  30.087  28.935  1.00  0.00     0.074 A 
ATOM     53  C   UNL A   1      49.025  29.440  27.259  1.00  0.00     0.029 A 
ATOM     54  N   UNL A   1      46.874  29.079  27.702  1.00  0.00    -0.354 N 
ATOM     55  N   UNL A   1      44.156  29.851  28.568  1.00  0.00    -0.248 NA
ATOM     56  C   UNL A   1      42.694  31.436  29.469  1.00  0.00     0.031 C 
ATOM     57  C   UNL A   1      48.483  30.603  27.814  1.00  0.00     0.029 A 
ATOM     58  C   UNL A   1      47.135  30.389  28.061  1.00  0.00     0.049 A 
ATOM     59  H   UNL A   1      45.996  28.638  27.774  1.00  0.00     0.167 HD
ATOM     60  C   UNL A   1      44.851  31.034  28.798  1.00  0.00     0.074 A 
ATOM     61  C   UNL A   1      43.893  31.984  29.326  1.00  0.00     0.031 C 
ATOM     62  C   UNL A   1      46.163  31.314  28.587  1.00  0.00     0.031 A 
BRANCH  49  63
ATOM     63  C   UNL A   1      49.466  26.570  26.383  1.00  0.00    -0.014 A 
ATOM     64  C   UNL A   1      49.923  26.692  25.058  1.00  0.00     0.010 A 
ATOM     65  C   UNL A   1      50.291  25.952  27.339  1.00  0.00     0.010 A 
ATOM     66  C   UNL A   1      51.168  26.173  24.691  1.00  0.00     0.020 A 
ATOM     67  C   UNL A   1      51.548  25.458  26.982  1.00  0.00     0.020 A 
ATOM     68  C   UNL A   1      51.972  25.559  25.656  1.00  0.00     0.054 A 
BRANCH  68  69
ATOM     69  S   UNL A   1      53.597  24.925  25.158  1.00  0.00     0.124 S 
ATOM     70  O   UNL A   1      54.446  25.375  26.257  1.00  0.00    -0.237 OA
ATOM     71  O   UNL A   1      53.369  23.483  25.089  1.00  0.00    -0.237 OA
ATOM     72  O   UNL A   1      53.845  25.576  23.874  1.00  0.00    -0.744 OA
ENDBRANCH  68  69
ENDBRANCH  49  63
BRANCH  50  73
ATOM     73  C   UNL A   1      40.381  29.625  29.333  1.00  0.00    -0.014 A 
ATOM     74  C   UNL A   1      40.052  29.627  30.701  1.00  0.00     0.010 A 
ATOM     75  C   UNL A   1      39.425  30.073  28.401  1.00  0.00     0.010 A 
ATOM     76  C   UNL A   1      38.793  30.062  31.126  1.00  0.00     0.020 A 
ATOM     77  C   UNL A   1      38.176  30.534  28.825  1.00  0.00     0.020 A 
ATOM     78  C   UNL A   1      37.866  30.519  30.185  1.00  0.00     0.054 A 
BRANCH  78  79
ATOM     79  S   UNL A   1      36.264  31.145  30.768  1.00  0.00     0.124 S 
ATOM     80  O   UNL A   1      35.461  31.108  29.551  1.00  0.00    -0.237 OA
ATOM     81  O   UNL A   1      35.904  30.172  31.797  1.00  0.00    -0.237 OA
ATOM     82  O   UNL A   1      36.582  32.480  31.270  1.00  0.00    -0.744 OA
ENDBRANCH  78  79
ENDBRANCH  50  73
BRANCH  62  83
ATOM     83  C   UNL A   1      46.634  32.711  28.891  1.00  0.00    -0.014 A 
ATOM     84  C   UNL A   1      47.171  33.046  30.146  1.00  0.00     0.010 A 
ATOM     85  C   UNL A   1      46.605  33.685  27.875  1.00  0.00     0.010 A 
ATOM     86  C   UNL A   1      47.641  34.339  30.389  1.00  0.00     0.020 A 
ATOM     87  C   UNL A   1      47.102  34.969  28.105  1.00  0.00     0.020 A 
ATOM     88  C   UNL A   1      47.604  35.292  29.366  1.00  0.00     0.054 A 
BRANCH  88  89
ATOM     89  S   UNL A   1      48.262  36.949  29.695  1.00  0.00     0.124 S 
ATOM     90  O   UNL A   1      49.671  36.668  29.964  1.00  0.00    -0.237 OA
ATOM     91  O   UNL A   1      47.990  37.656  28.446  1.00  0.00    -0.237 OA
ATOM     92  O   UNL A   1      47.487  37.408  30.846  1.00  0.00    -0.744 OA
ENDBRANCH  88  89
ENDBRANCH  62  83
ENDBRANCH  36  37
ENDBRANCH  29  31
ENDBRANCH  28  29
ENDBRANCH  27  28
ENDBRANCH   1  27
TORSDOF 20
ENDMDL
