MODEL 1
REMARK VINA RESULT:      -9.1      0.000      0.000
REMARK SMILES O=C(OCCOCCOC(=O)c1ccccc1C(=O)Nc1ccc(N2C(=O)[C@H]3[C@@H]4CC[C@@H](C4)[C@@H]3C2=O)cc1)c1ccc(-c2c3nc(c(-c4ccc(S(=O)(=O)[O-])cc4)c4ccc([nH]4)c(-c4ccc(S(=O)(=O)[O-])cc4)c4nc(c(-c5ccc(S(=O)(=O)[O-])cc5)c5ccc2[nH]5)C=C4)C=C3)cc1
REMARK SMILES IDX 6 1 5 2 4 3 3 4 2 5 1 6 39 7 40 8 98 9 41 10 97 11 42 12
REMARK SMILES IDX 43 13 44 14 91 15 45 16 96 17 90 18 92 19 46 20 95 21 89 22
REMARK SMILES IDX 88 23 47 25 77 26 58 27 76 28 59 29 62 30 75 31 93 32 60 33
REMARK SMILES IDX 61 34 74 36 94 37 63 38 48 39 49 40 57 41 50 42 56 43 51 44
REMARK SMILES IDX 52 45 53 46 54 47 55 48 78 49 79 50 87 51 80 52 86 53 81 54
REMARK SMILES IDX 82 55 83 56 84 57 85 58 64 59 65 60 73 61 66 62 72 63 67 64
REMARK SMILES IDX 68 65 69 66 70 67 71 68 7 69 8 70 9 71 10 72 11 73 12 74
REMARK SMILES IDX 13 75 17 76 14 77 16 78 15 79 18 80 19 81 20 82 21 84 22 85
REMARK SMILES IDX 38 86 23 87 37 88 24 89 25 90 26 91 35 92 27 93 28 94 34 95
REMARK SMILES IDX 36 96 29 97 32 98 30 99 33 100 31 101
REMARK H PARENT 92 24 62 35 20 83
REMARK Flexibility Score: inf
ROOT
ATOM      1  O   UNL A   1      33.354  33.737  28.046  1.00  0.00    -0.374 OA
ENDROOT
BRANCH   1   2
ATOM      2  C   UNL A   1      34.280  32.669  27.824  1.00  0.00     0.202 C 
BRANCH   2   3
ATOM      3  C   UNL A   1      33.540  31.394  27.431  1.00  0.00     0.261 C 
BRANCH   3   4
ATOM      4  O   UNL A   1      33.935  30.352  28.337  1.00  0.00    -0.460 OA
BRANCH   4   5
ATOM      5  C   UNL A   1      34.671  29.350  27.791  1.00  0.00     0.338 C 
ATOM      6  O   UNL A   1      34.280  28.408  27.123  1.00  0.00    -0.246 OA
BRANCH   5   7
ATOM      7  C   UNL A   1      36.057  29.589  28.225  1.00  0.00     0.060 A 
ATOM      8  C   UNL A   1      36.966  30.066  27.279  1.00  0.00     0.016 A 
ATOM      9  C   UNL A   1      36.481  29.250  29.509  1.00  0.00     0.016 A 
ATOM     10  C   UNL A   1      38.318  30.064  27.568  1.00  0.00     0.010 A 
ATOM     11  C   UNL A   1      37.852  29.265  29.800  1.00  0.00     0.010 A 
ATOM     12  C   UNL A   1      38.786  29.591  28.799  1.00  0.00    -0.014 A 
BRANCH  12  13
ATOM     13  C   UNL A   1      40.227  29.225  28.906  1.00  0.00     0.031 A 
ATOM     14  C   UNL A   1      41.170  30.172  29.611  1.00  0.00     0.074 A 
ATOM     15  C   UNL A   1      40.650  27.979  28.607  1.00  0.00     0.049 A 
ATOM     16  N   UNL A   1      42.460  30.064  29.804  1.00  0.00    -0.248 NA
ATOM     17  C   UNL A   1      40.577  31.376  30.222  1.00  0.00     0.031 C 
ATOM     18  C   UNL A   1      39.806  26.900  28.090  1.00  0.00     0.029 A 
ATOM     19  N   UNL A   1      41.880  27.391  28.760  1.00  0.00    -0.354 N 
ATOM     20  C   UNL A   1      42.830  31.184  30.541  1.00  0.00     0.074 A 
ATOM     21  C   UNL A   1      41.638  31.976  30.740  1.00  0.00     0.031 C 
ATOM     22  C   UNL A   1      40.522  25.767  28.043  1.00  0.00     0.029 A 
ATOM     23  C   UNL A   1      41.905  26.062  28.405  1.00  0.00     0.049 A 
ATOM     24  H   UNL A   1      42.671  27.875  29.093  1.00  0.00     0.167 HD
ATOM     25  C   UNL A   1      44.048  31.520  31.029  1.00  0.00     0.031 A 
ATOM     26  C   UNL A   1      42.932  25.193  28.323  1.00  0.00     0.031 A 
ATOM     27  C   UNL A   1      45.232  30.729  30.853  1.00  0.00     0.049 A 
ATOM     28  C   UNL A   1      44.319  25.682  28.638  1.00  0.00     0.074 A 
ATOM     29  C   UNL A   1      46.533  31.027  31.220  1.00  0.00     0.029 A 
ATOM     30  N   UNL A   1      45.257  29.475  30.267  1.00  0.00    -0.354 N 
ATOM     31  N   UNL A   1      44.688  26.817  29.183  1.00  0.00    -0.248 NA
ATOM     32  C   UNL A   1      45.432  24.793  28.278  1.00  0.00     0.031 C 
ATOM     33  C   UNL A   1      47.353  29.969  30.808  1.00  0.00     0.029 A 
ATOM     34  C   UNL A   1      46.554  28.997  30.228  1.00  0.00     0.049 A 
ATOM     35  H   UNL A   1      44.467  28.995  29.927  1.00  0.00     0.167 HD
ATOM     36  C   UNL A   1      46.077  26.784  29.218  1.00  0.00     0.074 A 
ATOM     37  C   UNL A   1      46.481  25.505  28.669  1.00  0.00     0.031 C 
ATOM     38  C   UNL A   1      46.941  27.733  29.655  1.00  0.00     0.031 A 
BRANCH  25  39
ATOM     39  C   UNL A   1      44.154  32.834  31.748  1.00  0.00    -0.014 A 
ATOM     40  C   UNL A   1      44.053  32.911  33.148  1.00  0.00     0.010 A 
ATOM     41  C   UNL A   1      44.342  34.013  31.004  1.00  0.00     0.010 A 
ATOM     42  C   UNL A   1      44.097  34.153  33.788  1.00  0.00     0.020 A 
ATOM     43  C   UNL A   1      44.403  35.254  31.642  1.00  0.00     0.020 A 
ATOM     44  C   UNL A   1      44.261  35.317  33.029  1.00  0.00     0.054 A 
BRANCH  44  45
ATOM     45  S   UNL A   1      44.293  36.917  33.884  1.00  0.00     0.124 S 
ATOM     46  O   UNL A   1      43.601  37.781  32.930  1.00  0.00    -0.237 OA
ATOM     47  O   UNL A   1      43.567  36.635  35.119  1.00  0.00    -0.237 OA
ATOM     48  O   UNL A   1      45.719  37.193  34.050  1.00  0.00    -0.744 OA
ENDBRANCH  44  45
ENDBRANCH  25  39
BRANCH  26  49
ATOM     49  C   UNL A   1      42.709  23.817  27.792  1.00  0.00    -0.014 A 
ATOM     50  C   UNL A   1      42.666  22.701  28.645  1.00  0.00     0.010 A 
ATOM     51  C   UNL A   1      42.548  23.620  26.407  1.00  0.00     0.010 A 
ATOM     52  C   UNL A   1      42.472  21.416  28.121  1.00  0.00     0.020 A 
ATOM     53  C   UNL A   1      42.320  22.346  25.884  1.00  0.00     0.020 A 
ATOM     54  C   UNL A   1      42.298  21.249  26.744  1.00  0.00     0.054 A 
BRANCH  54  55
ATOM     55  S   UNL A   1      41.994  19.589  26.076  1.00  0.00     0.124 S 
ATOM     56  O   UNL A   1      42.889  19.558  24.924  1.00  0.00    -0.237 OA
ATOM     57  O   UNL A   1      42.364  18.719  27.190  1.00  0.00    -0.237 OA
ATOM     58  O   UNL A   1      40.567  19.608  25.761  1.00  0.00    -0.744 OA
ENDBRANCH  54  55
ENDBRANCH  26  49
BRANCH  38  59
ATOM     59  C   UNL A   1      48.410  27.434  29.544  1.00  0.00    -0.014 A 
ATOM     60  C   UNL A   1      49.137  27.840  28.411  1.00  0.00     0.010 A 
ATOM     61  C   UNL A   1      49.082  26.801  30.604  1.00  0.00     0.010 A 
ATOM     62  C   UNL A   1      50.511  27.600  28.332  1.00  0.00     0.020 A 
ATOM     63  C   UNL A   1      50.459  26.580  30.539  1.00  0.00     0.020 A 
ATOM     64  C   UNL A   1      51.164  26.973  29.398  1.00  0.00     0.054 A 
BRANCH  64  65
ATOM     65  S   UNL A   1      52.958  26.725  29.300  1.00  0.00     0.124 S 
ATOM     66  O   UNL A   1      53.220  25.927  30.495  1.00  0.00    -0.237 OA
ATOM     67  O   UNL A   1      53.119  26.026  28.028  1.00  0.00    -0.237 OA
ATOM     68  O   UNL A   1      53.495  28.084  29.329  1.00  0.00    -0.744 OA
ENDBRANCH  64  65
ENDBRANCH  38  59
ENDBRANCH  12  13
ENDBRANCH   5   7
ENDBRANCH   4   5
ENDBRANCH   3   4
ENDBRANCH   2   3
ENDBRANCH   1   2
BRANCH   1  69
ATOM     69  C   UNL A   1      33.792  34.748  28.942  1.00  0.00     0.202 C 
BRANCH  69  70
ATOM     70  C   UNL A   1      33.749  34.232  30.383  1.00  0.00     0.261 C 
BRANCH  70  71
ATOM     71  O   UNL A   1      34.984  34.416  31.102  1.00  0.00    -0.460 OA
BRANCH  71  72
ATOM     72  C   UNL A   1      35.837  33.370  31.058  1.00  0.00     0.339 C 
ATOM     73  O   UNL A   1      35.593  32.190  31.201  1.00  0.00    -0.246 OA
BRANCH  72  74
ATOM     74  C   UNL A   1      37.184  33.840  30.750  1.00  0.00     0.072 A 
ATOM     75  C   UNL A   1      37.558  33.872  29.399  1.00  0.00     0.016 A 
ATOM     76  C   UNL A   1      38.087  34.193  31.757  1.00  0.00     0.054 A 
ATOM     77  C   UNL A   1      38.826  34.328  29.046  1.00  0.00     0.001 A 
ATOM     78  C   UNL A   1      39.346  34.686  31.386  1.00  0.00     0.015 A 
ATOM     79  C   UNL A   1      39.712  34.749  30.037  1.00  0.00     0.001 A 
BRANCH  76  80
ATOM     80  C   UNL A   1      37.755  34.158  33.201  1.00  0.00     0.256 C 
ATOM     81  O   UNL A   1      37.101  35.100  33.650  1.00  0.00    -0.269 OA
ATOM     82  N   UNL A   1      38.081  33.097  34.021  1.00  0.00    -0.322 N 
ATOM     83  H   UNL A   1      37.622  33.101  34.891  1.00  0.00     0.170 HD
BRANCH  82  84
ATOM     84  C   UNL A   1      38.956  32.010  33.830  1.00  0.00     0.041 A 
ATOM     85  C   UNL A   1      40.291  32.178  34.227  1.00  0.00     0.028 A 
ATOM     86  C   UNL A   1      38.541  30.769  33.347  1.00  0.00     0.028 A 
ATOM     87  C   UNL A   1      41.152  31.074  34.299  1.00  0.00     0.029 A 
ATOM     88  C   UNL A   1      39.395  29.664  33.427  1.00  0.00     0.029 A 
ATOM     89  C   UNL A   1      40.683  29.807  33.948  1.00  0.00     0.052 A 
BRANCH  89  90
ATOM     90  N   UNL A   1      41.444  28.667  34.239  1.00  0.00    -0.250 N 
ATOM     91  C   UNL A   1      41.607  28.134  35.530  1.00  0.00     0.237 C 
ATOM     92  C   UNL A   1      42.349  28.090  33.331  1.00  0.00     0.237 C 
ATOM     93  O   UNL A   1      40.995  28.378  36.552  1.00  0.00    -0.274 OA
ATOM     94  C   UNL A   1      42.906  27.379  35.406  1.00  0.00     0.095 C 
ATOM     95  C   UNL A   1      42.680  26.807  34.013  1.00  0.00     0.095 C 
ATOM     96  O   UNL A   1      42.779  28.482  32.264  1.00  0.00    -0.274 OA
ATOM     97  C   UNL A   1      43.612  26.220  36.109  1.00  0.00     0.002 C 
ATOM     98  C   UNL A   1      43.747  25.744  33.899  1.00  0.00     0.002 C 
ATOM     99  C   UNL A   1      45.119  26.418  35.782  1.00  0.00     0.005 C 
ATOM    100  C   UNL A   1      43.375  24.997  35.205  1.00  0.00     0.009 C 
ATOM    101  C   UNL A   1      45.157  26.254  34.240  1.00  0.00     0.005 C 
ENDBRANCH  89  90
ENDBRANCH  82  84
ENDBRANCH  76  80
ENDBRANCH  72  74
ENDBRANCH  71  72
ENDBRANCH  70  71
ENDBRANCH  69  70
ENDBRANCH   1  69
TORSDOF 20
ENDMDL
MODEL 2
REMARK VINA RESULT:      -9.0      3.719      7.011
REMARK SMILES O=C(OCCOCCOC(=O)c1ccccc1C(=O)Nc1ccc(N2C(=O)[C@H]3[C@@H]4CC[C@@H](C4)[C@@H]3C2=O)cc1)c1ccc(-c2c3nc(c(-c4ccc(S(=O)(=O)[O-])cc4)c4ccc([nH]4)c(-c4ccc(S(=O)(=O)[O-])cc4)c4nc(c(-c5ccc(S(=O)(=O)[O-])cc5)c5ccc2[nH]5)C=C4)C=C3)cc1
REMARK SMILES IDX 6 1 5 2 4 3 3 4 2 5 1 6 39 7 40 8 98 9 41 10 97 11 42 12
REMARK SMILES IDX 43 13 44 14 91 15 45 16 96 17 90 18 92 19 46 20 95 21 89 22
REMARK SMILES IDX 88 23 47 25 77 26 58 27 76 28 59 29 62 30 75 31 93 32 60 33
REMARK SMILES IDX 61 34 74 36 94 37 63 38 48 39 49 40 57 41 50 42 56 43 51 44
REMARK SMILES IDX 52 45 53 46 54 47 55 48 78 49 79 50 87 51 80 52 86 53 81 54
REMARK SMILES IDX 82 55 83 56 84 57 85 58 64 59 65 60 73 61 66 62 72 63 67 64
REMARK SMILES IDX 68 65 69 66 70 67 71 68 7 69 8 70 9 71 10 72 11 73 12 74
REMARK SMILES IDX 13 75 17 76 14 77 16 78 15 79 18 80 19 81 20 82 21 84 22 85
REMARK SMILES IDX 38 86 23 87 37 88 24 89 25 90 26 91 35 92 27 93 28 94 34 95
REMARK SMILES IDX 36 96 29 97 32 98 30 99 33 100 31 101
REMARK H PARENT 92 24 62 35 20 83
REMARK Flexibility Score: inf
ROOT
ATOM      1  O   UNL A   1      34.146  30.548  27.300  1.00  0.00    -0.374 OA
ENDROOT
BRANCH   1   2
ATOM      2  C   UNL A   1      34.438  31.731  28.051  1.00  0.00     0.202 C 
BRANCH   2   3
ATOM      3  C   UNL A   1      35.462  31.432  29.141  1.00  0.00     0.261 C 
BRANCH   3   4
ATOM      4  O   UNL A   1      36.418  30.500  28.612  1.00  0.00    -0.460 OA
BRANCH   4   5
ATOM      5  C   UNL A   1      36.884  29.577  29.492  1.00  0.00     0.338 C 
ATOM      6  O   UNL A   1      36.443  29.299  30.594  1.00  0.00    -0.246 OA
BRANCH   5   7
ATOM      7  C   UNL A   1      38.091  29.006  28.872  1.00  0.00     0.060 A 
ATOM      8  C   UNL A   1      38.855  28.113  29.627  1.00  0.00     0.016 A 
ATOM      9  C   UNL A   1      38.523  29.419  27.613  1.00  0.00     0.016 A 
ATOM     10  C   UNL A   1      40.116  27.752  29.190  1.00  0.00     0.010 A 
ATOM     11  C   UNL A   1      39.796  29.037  27.169  1.00  0.00     0.010 A 
ATOM     12  C   UNL A   1      40.634  28.269  27.998  1.00  0.00    -0.014 A 
BRANCH  12  13
ATOM     13  C   UNL A   1      42.107  28.190  27.783  1.00  0.00     0.031 A 
ATOM     14  C   UNL A   1      42.992  29.252  28.393  1.00  0.00     0.074 A 
ATOM     15  C   UNL A   1      42.675  27.078  27.271  1.00  0.00     0.049 A 
ATOM     16  N   UNL A   1      44.292  29.388  28.319  1.00  0.00    -0.248 NA
ATOM     17  C   UNL A   1      42.336  30.267  29.237  1.00  0.00     0.031 C 
ATOM     18  C   UNL A   1      41.948  25.893  26.811  1.00  0.00     0.029 A 
ATOM     19  N   UNL A   1      43.995  26.736  27.117  1.00  0.00    -0.354 N 
ATOM     20  C   UNL A   1      44.602  30.504  29.091  1.00  0.00     0.074 A 
ATOM     21  C   UNL A   1      43.357  31.027  29.603  1.00  0.00     0.031 C 
ATOM     22  C   UNL A   1      42.831  24.931  26.500  1.00  0.00     0.029 A 
ATOM     23  C   UNL A   1      44.182  25.468  26.619  1.00  0.00     0.049 A 
ATOM     24  H   UNL A   1      44.738  27.342  27.343  1.00  0.00     0.167 HD
ATOM     25  C   UNL A   1      45.815  31.039  29.369  1.00  0.00     0.031 A 
ATOM     26  C   UNL A   1      45.308  24.827  26.244  1.00  0.00     0.031 A 
ATOM     27  C   UNL A   1      47.057  30.514  28.880  1.00  0.00     0.049 A 
ATOM     28  C   UNL A   1      46.619  25.558  26.337  1.00  0.00     0.074 A 
ATOM     29  C   UNL A   1      48.331  31.037  29.019  1.00  0.00     0.029 A 
ATOM     30  N   UNL A   1      47.183  29.335  28.164  1.00  0.00    -0.354 N 
ATOM     31  N   UNL A   1      46.885  26.702  26.923  1.00  0.00    -0.248 NA
ATOM     32  C   UNL A   1      47.773  24.937  25.672  1.00  0.00     0.031 C 
ATOM     33  C   UNL A   1      49.222  30.195  28.342  1.00  0.00     0.029 A 
ATOM     34  C   UNL A   1      48.507  29.128  27.823  1.00  0.00     0.049 A 
ATOM     35  H   UNL A   1      46.438  28.733  27.933  1.00  0.00     0.167 HD
ATOM     36  C   UNL A   1      48.233  26.943  26.685  1.00  0.00     0.074 A 
ATOM     37  C   UNL A   1      48.735  25.813  25.930  1.00  0.00     0.031 C 
ATOM     38  C   UNL A   1      48.985  28.011  27.049  1.00  0.00     0.031 A 
BRANCH  25  39
ATOM     39  C   UNL A   1      45.832  32.293  30.195  1.00  0.00    -0.014 A 
ATOM     40  C   UNL A   1      45.736  33.562  29.597  1.00  0.00     0.010 A 
ATOM     41  C   UNL A   1      45.962  32.196  31.592  1.00  0.00     0.010 A 
ATOM     42  C   UNL A   1      45.812  34.716  30.384  1.00  0.00     0.020 A 
ATOM     43  C   UNL A   1      46.023  33.346  32.381  1.00  0.00     0.020 A 
ATOM     44  C   UNL A   1      45.966  34.600  31.770  1.00  0.00     0.054 A 
BRANCH  44  45
ATOM     45  S   UNL A   1      46.085  36.113  32.762  1.00  0.00     0.124 S 
ATOM     46  O   UNL A   1      45.836  35.608  34.111  1.00  0.00    -0.237 OA
ATOM     47  O   UNL A   1      47.450  36.562  32.501  1.00  0.00    -0.237 OA
ATOM     48  O   UNL A   1      45.034  36.970  32.216  1.00  0.00    -0.744 OA
ENDBRANCH  44  45
ENDBRANCH  25  39
BRANCH  26  49
ATOM     49  C   UNL A   1      45.228  23.477  25.617  1.00  0.00    -0.014 A 
ATOM     50  C   UNL A   1      44.810  23.310  24.286  1.00  0.00     0.010 A 
ATOM     51  C   UNL A   1      45.567  22.336  26.371  1.00  0.00     0.010 A 
ATOM     52  C   UNL A   1      44.727  22.029  23.725  1.00  0.00     0.020 A 
ATOM     53  C   UNL A   1      45.520  21.061  25.805  1.00  0.00     0.020 A 
ATOM     54  C   UNL A   1      45.086  20.914  24.488  1.00  0.00     0.054 A 
BRANCH  54  55
ATOM     55  S   UNL A   1      45.027  19.262  23.740  1.00  0.00     0.124 S 
ATOM     56  O   UNL A   1      46.430  18.861  23.780  1.00  0.00    -0.237 OA
ATOM     57  O   UNL A   1      44.134  18.532  24.636  1.00  0.00    -0.237 OA
ATOM     58  O   UNL A   1      44.485  19.514  22.407  1.00  0.00    -0.744 OA
ENDBRANCH  54  55
ENDBRANCH  26  49
BRANCH  38  59
ATOM     59  C   UNL A   1      50.427  28.018  26.624  1.00  0.00    -0.014 A 
ATOM     60  C   UNL A   1      50.835  28.756  25.499  1.00  0.00     0.010 A 
ATOM     61  C   UNL A   1      51.390  27.337  27.388  1.00  0.00     0.010 A 
ATOM     62  C   UNL A   1      52.182  28.796  25.133  1.00  0.00     0.020 A 
ATOM     63  C   UNL A   1      52.741  27.394  27.040  1.00  0.00     0.020 A 
ATOM     64  C   UNL A   1      53.127  28.116  25.907  1.00  0.00     0.054 A 
BRANCH  64  65
ATOM     65  S   UNL A   1      54.879  28.232  25.450  1.00  0.00     0.124 S 
ATOM     66  O   UNL A   1      55.361  29.273  26.354  1.00  0.00    -0.237 OA
ATOM     67  O   UNL A   1      55.373  26.884  25.722  1.00  0.00    -0.237 OA
ATOM     68  O   UNL A   1      54.843  28.601  24.037  1.00  0.00    -0.744 OA
ENDBRANCH  64  65
ENDBRANCH  38  59
ENDBRANCH  12  13
ENDBRANCH   5   7
ENDBRANCH   4   5
ENDBRANCH   3   4
ENDBRANCH   2   3
ENDBRANCH   1   2
BRANCH   1  69
ATOM     69  C   UNL A   1      32.766  30.257  27.131  1.00  0.00     0.202 C 
BRANCH  69  70
ATOM     70  C   UNL A   1      32.507  28.767  27.372  1.00  0.00     0.261 C 
BRANCH  70  71
ATOM     71  O   UNL A   1      33.336  27.898  26.575  1.00  0.00    -0.460 OA
BRANCH  71  72
ATOM     72  C   UNL A   1      32.680  26.913  25.925  1.00  0.00     0.339 C 
ATOM     73  O   UNL A   1      31.980  26.038  26.391  1.00  0.00    -0.246 OA
BRANCH  72  74
ATOM     74  C   UNL A   1      32.879  27.048  24.487  1.00  0.00     0.072 A 
ATOM     75  C   UNL A   1      33.371  28.275  24.020  1.00  0.00     0.016 A 
ATOM     76  C   UNL A   1      32.543  26.021  23.599  1.00  0.00     0.054 A 
ATOM     77  C   UNL A   1      33.596  28.455  22.657  1.00  0.00     0.001 A 
ATOM     78  C   UNL A   1      32.810  26.201  22.234  1.00  0.00     0.015 A 
ATOM     79  C   UNL A   1      33.331  27.413  21.768  1.00  0.00     0.001 A 
BRANCH  76  80
ATOM     80  C   UNL A   1      32.000  24.712  24.032  1.00  0.00     0.256 C 
ATOM     81  O   UNL A   1      30.777  24.570  23.988  1.00  0.00    -0.269 OA
ATOM     82  N   UNL A   1      32.801  23.652  24.401  1.00  0.00    -0.322 N 
ATOM     83  H   UNL A   1      32.332  22.789  24.457  1.00  0.00     0.170 HD
BRANCH  82  84
ATOM     84  C   UNL A   1      34.173  23.589  24.712  1.00  0.00     0.041 A 
ATOM     85  C   UNL A   1      34.523  23.280  26.035  1.00  0.00     0.028 A 
ATOM     86  C   UNL A   1      35.182  23.737  23.759  1.00  0.00     0.028 A 
ATOM     87  C   UNL A   1      35.847  22.958  26.361  1.00  0.00     0.029 A 
ATOM     88  C   UNL A   1      36.502  23.407  24.079  1.00  0.00     0.029 A 
ATOM     89  C   UNL A   1      36.827  22.971  25.366  1.00  0.00     0.052 A 
BRANCH  89  90
ATOM     90  N   UNL A   1      38.093  22.425  25.616  1.00  0.00    -0.250 N 
ATOM     91  C   UNL A   1      38.440  21.086  25.362  1.00  0.00     0.237 C 
ATOM     92  C   UNL A   1      39.070  23.066  26.396  1.00  0.00     0.237 C 
ATOM     93  O   UNL A   1      37.851  20.241  24.716  1.00  0.00    -0.274 OA
ATOM     94  C   UNL A   1      39.590  20.866  26.313  1.00  0.00     0.095 C 
ATOM     95  C   UNL A   1      40.267  22.218  26.134  1.00  0.00     0.095 C 
ATOM     96  O   UNL A   1      39.014  24.050  27.107  1.00  0.00    -0.274 OA
ATOM     97  C   UNL A   1      40.791  19.929  26.436  1.00  0.00     0.002 C 
ATOM     98  C   UNL A   1      41.626  22.009  26.760  1.00  0.00     0.002 C 
ATOM     99  C   UNL A   1      41.154  19.948  27.947  1.00  0.00     0.005 C 
ATOM    100  C   UNL A   1      41.994  20.749  25.935  1.00  0.00     0.009 C 
ATOM    101  C   UNL A   1      41.562  21.426  28.181  1.00  0.00     0.005 C 
ENDBRANCH  89  90
ENDBRANCH  82  84
ENDBRANCH  76  80
ENDBRANCH  72  74
ENDBRANCH  71  72
ENDBRANCH  70  71
ENDBRANCH  69  70
ENDBRANCH   1  69
TORSDOF 20
ENDMDL
MODEL 3
REMARK VINA RESULT:      -8.8      4.987      8.592
REMARK SMILES O=C(OCCOCCOC(=O)c1ccccc1C(=O)Nc1ccc(N2C(=O)[C@H]3[C@@H]4CC[C@@H](C4)[C@@H]3C2=O)cc1)c1ccc(-c2c3nc(c(-c4ccc(S(=O)(=O)[O-])cc4)c4ccc([nH]4)c(-c4ccc(S(=O)(=O)[O-])cc4)c4nc(c(-c5ccc(S(=O)(=O)[O-])cc5)c5ccc2[nH]5)C=C4)C=C3)cc1
REMARK SMILES IDX 6 1 5 2 4 3 3 4 2 5 1 6 39 7 40 8 98 9 41 10 97 11 42 12
REMARK SMILES IDX 43 13 44 14 91 15 45 16 96 17 90 18 92 19 46 20 95 21 89 22
REMARK SMILES IDX 88 23 47 25 77 26 58 27 76 28 59 29 62 30 75 31 93 32 60 33
REMARK SMILES IDX 61 34 74 36 94 37 63 38 48 39 49 40 57 41 50 42 56 43 51 44
REMARK SMILES IDX 52 45 53 46 54 47 55 48 78 49 79 50 87 51 80 52 86 53 81 54
REMARK SMILES IDX 82 55 83 56 84 57 85 58 64 59 65 60 73 61 66 62 72 63 67 64
REMARK SMILES IDX 68 65 69 66 70 67 71 68 7 69 8 70 9 71 10 72 11 73 12 74
REMARK SMILES IDX 13 75 17 76 14 77 16 78 15 79 18 80 19 81 20 82 21 84 22 85
REMARK SMILES IDX 38 86 23 87 37 88 24 89 25 90 26 91 35 92 27 93 28 94 34 95
REMARK SMILES IDX 36 96 29 97 32 98 30 99 33 100 31 101
REMARK H PARENT 92 24 62 35 20 83
REMARK Flexibility Score: inf
ROOT
ATOM      1  O   UNL A   1      34.134  30.803  27.468  1.00  0.00    -0.374 OA
ENDROOT
BRANCH   1   2
ATOM      2  C   UNL A   1      34.506  31.943  28.249  1.00  0.00     0.202 C 
BRANCH   2   3
ATOM      3  C   UNL A   1      35.548  31.557  29.295  1.00  0.00     0.261 C 
BRANCH   3   4
ATOM      4  O   UNL A   1      36.451  30.613  28.698  1.00  0.00    -0.460 OA
BRANCH   4   5
ATOM      5  C   UNL A   1      36.908  29.638  29.524  1.00  0.00     0.338 C 
ATOM      6  O   UNL A   1      36.487  29.327  30.625  1.00  0.00    -0.246 OA
BRANCH   5   7
ATOM      7  C   UNL A   1      38.078  29.055  28.847  1.00  0.00     0.060 A 
ATOM      8  C   UNL A   1      38.883  28.176  29.574  1.00  0.00     0.016 A 
ATOM      9  C   UNL A   1      38.438  29.446  27.559  1.00  0.00     0.016 A 
ATOM     10  C   UNL A   1      40.118  27.805  29.073  1.00  0.00     0.010 A 
ATOM     11  C   UNL A   1      39.684  29.054  27.051  1.00  0.00     0.010 A 
ATOM     12  C   UNL A   1      40.568  28.301  27.844  1.00  0.00    -0.014 A 
BRANCH  12  13
ATOM     13  C   UNL A   1      42.026  28.216  27.548  1.00  0.00     0.031 A 
ATOM     14  C   UNL A   1      42.932  29.334  28.014  1.00  0.00     0.074 A 
ATOM     15  C   UNL A   1      42.577  27.071  27.096  1.00  0.00     0.049 A 
ATOM     16  N   UNL A   1      44.223  29.474  27.850  1.00  0.00    -0.248 NA
ATOM     17  C   UNL A   1      42.313  30.409  28.809  1.00  0.00     0.031 C 
ATOM     18  C   UNL A   1      41.841  25.845  26.780  1.00  0.00     0.029 A 
ATOM     19  N   UNL A   1      43.890  26.729  26.891  1.00  0.00    -0.354 N 
ATOM     20  C   UNL A   1      44.563  30.653  28.507  1.00  0.00     0.074 A 
ATOM     21  C   UNL A   1      43.344  31.206  29.049  1.00  0.00     0.031 C 
ATOM     22  C   UNL A   1      42.716  24.869  26.497  1.00  0.00     0.029 A 
ATOM     23  C   UNL A   1      44.065  25.425  26.489  1.00  0.00     0.049 A 
ATOM     24  H   UNL A   1      44.637  27.358  27.020  1.00  0.00     0.167 HD
ATOM     25  C   UNL A   1      45.783  31.219  28.666  1.00  0.00     0.031 A 
ATOM     26  C   UNL A   1      45.174  24.765  26.100  1.00  0.00     0.031 A 
ATOM     27  C   UNL A   1      47.001  30.666  28.147  1.00  0.00     0.049 A 
ATOM     28  C   UNL A   1      46.479  25.513  26.053  1.00  0.00     0.074 A 
ATOM     29  C   UNL A   1      48.274  31.209  28.166  1.00  0.00     0.029 A 
ATOM     30  N   UNL A   1      47.100  29.433  27.525  1.00  0.00    -0.354 N 
ATOM     31  N   UNL A   1      46.764  26.703  26.525  1.00  0.00    -0.248 NA
ATOM     32  C   UNL A   1      47.599  24.848  25.372  1.00  0.00     0.031 C 
ATOM     33  C   UNL A   1      49.134  30.322  27.507  1.00  0.00     0.029 A 
ATOM     34  C   UNL A   1      48.404  29.209  27.122  1.00  0.00     0.049 A 
ATOM     35  H   UNL A   1      46.351  28.807  27.389  1.00  0.00     0.167 HD
ATOM     36  C   UNL A   1      48.092  26.935  26.187  1.00  0.00     0.074 A 
ATOM     37  C   UNL A   1      48.563  25.750  25.498  1.00  0.00     0.031 C 
ATOM     38  C   UNL A   1      48.850  28.036  26.416  1.00  0.00     0.031 A 
BRANCH  25  39
ATOM     39  C   UNL A   1      45.832  32.537  29.383  1.00  0.00    -0.014 A 
ATOM     40  C   UNL A   1      45.779  33.754  28.680  1.00  0.00     0.010 A 
ATOM     41  C   UNL A   1      45.950  32.555  30.784  1.00  0.00     0.010 A 
ATOM     42  C   UNL A   1      45.885  34.967  29.366  1.00  0.00     0.020 A 
ATOM     43  C   UNL A   1      46.041  33.766  31.474  1.00  0.00     0.020 A 
ATOM     44  C   UNL A   1      46.026  34.964  30.758  1.00  0.00     0.054 A 
BRANCH  44  45
ATOM     45  S   UNL A   1      46.183  36.552  31.621  1.00  0.00     0.124 S 
ATOM     46  O   UNL A   1      47.266  37.192  30.876  1.00  0.00    -0.237 OA
ATOM     47  O   UNL A   1      44.861  37.146  31.443  1.00  0.00    -0.237 OA
ATOM     48  O   UNL A   1      46.514  36.171  32.993  1.00  0.00    -0.744 OA
ENDBRANCH  44  45
ENDBRANCH  25  39
BRANCH  26  49
ATOM     49  C   UNL A   1      45.076  23.367  25.592  1.00  0.00    -0.014 A 
ATOM     50  C   UNL A   1      45.362  22.266  26.418  1.00  0.00     0.010 A 
ATOM     51  C   UNL A   1      44.701  23.133  24.254  1.00  0.00     0.010 A 
ATOM     52  C   UNL A   1      45.279  20.962  25.914  1.00  0.00     0.020 A 
ATOM     53  C   UNL A   1      44.584  21.834  23.758  1.00  0.00     0.020 A 
ATOM     54  C   UNL A   1      44.888  20.756  24.587  1.00  0.00     0.054 A 
BRANCH  54  55
ATOM     55  S   UNL A   1      44.731  19.062  23.954  1.00  0.00     0.124 S 
ATOM     56  O   UNL A   1      46.004  18.471  24.351  1.00  0.00    -0.237 OA
ATOM     57  O   UNL A   1      43.553  18.561  24.657  1.00  0.00    -0.237 OA
ATOM     58  O   UNL A   1      44.550  19.255  22.516  1.00  0.00    -0.744 OA
ENDBRANCH  54  55
ENDBRANCH  26  49
BRANCH  38  59
ATOM     59  C   UNL A   1      50.263  28.020  25.904  1.00  0.00    -0.014 A 
ATOM     60  C   UNL A   1      51.286  27.414  26.654  1.00  0.00     0.010 A 
ATOM     61  C   UNL A   1      50.561  28.557  24.639  1.00  0.00     0.010 A 
ATOM     62  C   UNL A   1      52.590  27.361  26.154  1.00  0.00     0.020 A 
ATOM     63  C   UNL A   1      51.857  28.486  24.126  1.00  0.00     0.020 A 
ATOM     64  C   UNL A   1      52.867  27.897  24.893  1.00  0.00     0.054 A 
BRANCH  64  65
ATOM     65  S   UNL A   1      54.553  27.764  24.237  1.00  0.00     0.124 S 
ATOM     66  O   UNL A   1      54.609  28.894  23.313  1.00  0.00    -0.237 OA
ATOM     67  O   UNL A   1      55.377  27.890  25.437  1.00  0.00    -0.237 OA
ATOM     68  O   UNL A   1      54.576  26.444  23.611  1.00  0.00    -0.744 OA
ENDBRANCH  64  65
ENDBRANCH  38  59
ENDBRANCH  12  13
ENDBRANCH   5   7
ENDBRANCH   4   5
ENDBRANCH   3   4
ENDBRANCH   2   3
ENDBRANCH   1   2
BRANCH   1  69
ATOM     69  C   UNL A   1      32.811  30.820  26.954  1.00  0.00     0.202 C 
BRANCH  69  70
ATOM     70  C   UNL A   1      32.111  29.490  27.250  1.00  0.00     0.261 C 
BRANCH  70  71
ATOM     71  O   UNL A   1      32.901  28.332  26.913  1.00  0.00    -0.460 OA
BRANCH  71  72
ATOM     72  C   UNL A   1      32.291  27.433  26.112  1.00  0.00     0.339 C 
ATOM     73  O   UNL A   1      31.487  26.574  26.415  1.00  0.00    -0.246 OA
BRANCH  72  74
ATOM     74  C   UNL A   1      32.694  27.648  24.727  1.00  0.00     0.072 A 
ATOM     75  C   UNL A   1      33.957  28.215  24.507  1.00  0.00     0.016 A 
ATOM     76  C   UNL A   1      31.839  27.356  23.659  1.00  0.00     0.054 A 
ATOM     77  C   UNL A   1      34.400  28.428  23.204  1.00  0.00     0.001 A 
ATOM     78  C   UNL A   1      32.312  27.539  22.352  1.00  0.00     0.015 A 
ATOM     79  C   UNL A   1      33.585  28.075  22.128  1.00  0.00     0.001 A 
BRANCH  76  80
ATOM     80  C   UNL A   1      30.486  26.776  23.831  1.00  0.00     0.256 C 
ATOM     81  O   UNL A   1      29.541  27.564  23.887  1.00  0.00    -0.269 OA
ATOM     82  N   UNL A   1      30.249  25.417  23.855  1.00  0.00    -0.322 N 
ATOM     83  H   UNL A   1      29.302  25.169  23.758  1.00  0.00     0.170 HD
BRANCH  82  84
ATOM     84  C   UNL A   1      31.125  24.324  23.993  1.00  0.00     0.041 A 
ATOM     85  C   UNL A   1      30.875  23.424  25.040  1.00  0.00     0.028 A 
ATOM     86  C   UNL A   1      32.164  24.057  23.102  1.00  0.00     0.028 A 
ATOM     87  C   UNL A   1      31.544  22.193  25.091  1.00  0.00     0.029 A 
ATOM     88  C   UNL A   1      32.826  22.826  23.143  1.00  0.00     0.029 A 
ATOM     89  C   UNL A   1      32.483  21.875  24.107  1.00  0.00     0.052 A 
BRANCH  89  90
ATOM     90  N   UNL A   1      32.980  20.569  24.002  1.00  0.00    -0.250 N 
ATOM     91  C   UNL A   1      32.501  19.613  23.090  1.00  0.00     0.237 C 
ATOM     92  C   UNL A   1      33.813  19.981  24.969  1.00  0.00     0.237 C 
ATOM     93  O   UNL A   1      31.780  19.757  22.122  1.00  0.00    -0.274 OA
ATOM     94  C   UNL A   1      32.879  18.314  23.757  1.00  0.00     0.095 C 
ATOM     95  C   UNL A   1      34.248  18.737  24.272  1.00  0.00     0.095 C 
ATOM     96  O   UNL A   1      34.133  20.342  26.084  1.00  0.00    -0.274 OA
ATOM     97  C   UNL A   1      33.134  16.864  23.346  1.00  0.00     0.002 C 
ATOM     98  C   UNL A   1      34.891  17.426  24.659  1.00  0.00     0.002 C 
ATOM     99  C   UNL A   1      32.902  16.039  24.642  1.00  0.00     0.005 C 
ATOM    100  C   UNL A   1      34.666  16.724  23.296  1.00  0.00     0.009 C 
ATOM    101  C   UNL A   1      34.016  16.565  25.584  1.00  0.00     0.005 C 
ENDBRANCH  89  90
ENDBRANCH  82  84
ENDBRANCH  76  80
ENDBRANCH  72  74
ENDBRANCH  71  72
ENDBRANCH  70  71
ENDBRANCH  69  70
ENDBRANCH   1  69
TORSDOF 20
ENDMDL
