MODEL 1
REMARK VINA RESULT:     -10.6      0.000      0.000
REMARK SMILES CC[C@H](NC(=O)c1nn(C)cc1C(=O)OCCOCCOC(=O)c1ccc(-c2c3nc(c(-c4ccc(S(=O)(=O)[O-])cc4)c4ccc([nH]4)c(-c4ccc(S(=O)(=O)[O-])cc4)c4nc(c(-c5ccc(S(=O)(=O)[O-])cc5)c5ccc2[nH]5)C=C4)C=C3)cc1)c1ccccc1
REMARK SMILES IDX 18 1 17 2 16 3 15 4 13 5 14 6 12 7 7 8 8 9 9 10 11 11 10 12
REMARK SMILES IDX 5 13 4 14 6 16 3 17 2 18 1 19 84 20 85 21 89 22 86 23 88 24
REMARK SMILES IDX 87 25 19 26 20 27 21 28 22 29 23 30 24 31 25 32 83 33 26 34
REMARK SMILES IDX 82 35 27 36 28 37 29 38 76 39 30 40 81 41 75 42 77 43 31 44
REMARK SMILES IDX 80 45 74 46 73 47 32 49 62 50 43 51 61 52 44 53 47 54 60 55
REMARK SMILES IDX 78 56 45 57 46 58 59 60 79 61 48 62 33 63 34 64 42 65 35 66
REMARK SMILES IDX 41 67 36 68 37 69 38 70 39 71 40 72 63 73 64 74 72 75 65 76
REMARK SMILES IDX 71 77 66 78 67 79 68 80 69 81 70 82 49 83 50 84 58 85 51 86
REMARK SMILES IDX 57 87 52 88 53 89 54 90 55 91 56 92
REMARK H PARENT 4 15 77 48 47 59
REMARK Flexibility Score: inf
ROOT
ATOM      1  O   UNL A   1      39.082  21.838  25.755  1.00  0.00    -0.374 OA
ENDROOT
BRANCH   1   2
ATOM      2  C   UNL A   1      37.686  22.112  25.640  1.00  0.00     0.202 C 
BRANCH   2   3
ATOM      3  C   UNL A   1      37.031  23.493  25.807  1.00  0.00     0.261 C 
BRANCH   3   4
ATOM      4  O   UNL A   1      35.605  23.483  25.822  1.00  0.00    -0.460 OA
BRANCH   4   5
ATOM      5  C   UNL A   1      34.895  23.429  24.674  1.00  0.00     0.342 C 
ATOM      6  O   UNL A   1      35.071  24.147  23.684  1.00  0.00    -0.246 OA
BRANCH   5   7
ATOM      7  C   UNL A   1      33.789  22.522  24.827  1.00  0.00     0.111 A 
ATOM      8  C   UNL A   1      32.710  22.374  25.761  1.00  0.00     0.164 A 
ATOM      9  N   UNL A   1      31.985  21.276  25.426  1.00  0.00    -0.167 NA
ATOM     10  N   UNL A   1      32.626  20.715  24.402  1.00  0.00    -0.274 N 
ATOM     11  C   UNL A   1      33.658  21.454  23.950  1.00  0.00     0.125 A 
ATOM     12  C   UNL A   1      32.224  19.411  23.934  1.00  0.00     0.173 C 
BRANCH   8  13
ATOM     13  C   UNL A   1      32.254  23.086  26.981  1.00  0.00     0.273 C 
ATOM     14  N   UNL A   1      31.565  24.274  27.006  1.00  0.00    -0.344 N 
ATOM     15  H   UNL A   1      31.089  24.436  27.853  1.00  0.00     0.164 HD
ATOM     16  O   UNL A   1      32.399  22.576  28.101  1.00  0.00    -0.267 OA
BRANCH  14  17
ATOM     17  C   UNL A   1      31.396  25.333  26.037  1.00  0.00     0.112 C 
BRANCH  17  18
ATOM     18  C   UNL A   1      29.909  25.710  25.842  1.00  0.00     0.026 C 
ATOM     19  C   UNL A   1      29.562  26.218  24.449  1.00  0.00     0.006 C 
ENDBRANCH  17  18
BRANCH  17  20
ATOM     20  C   UNL A   1      32.212  26.561  26.431  1.00  0.00    -0.026 A 
ATOM     21  C   UNL A   1      31.588  27.621  27.102  1.00  0.00     0.006 A 
ATOM     22  C   UNL A   1      33.558  26.726  26.059  1.00  0.00     0.006 A 
ATOM     23  C   UNL A   1      32.242  28.843  27.285  1.00  0.00     0.000 A 
ATOM     24  C   UNL A   1      34.214  27.942  26.245  1.00  0.00     0.000 A 
ATOM     25  C   UNL A   1      33.545  29.011  26.833  1.00  0.00     0.000 A 
ENDBRANCH  17  20
ENDBRANCH  14  17
ENDBRANCH   8  13
ENDBRANCH   5   7
ENDBRANCH   4   5
ENDBRANCH   3   4
ENDBRANCH   2   3
ENDBRANCH   1   2
BRANCH   1  26
ATOM     26  C   UNL A   1      39.922  22.488  26.692  1.00  0.00     0.202 C 
BRANCH  26  27
ATOM     27  C   UNL A   1      40.826  23.584  26.130  1.00  0.00     0.261 C 
BRANCH  27  28
ATOM     28  O   UNL A   1      40.232  24.870  26.268  1.00  0.00    -0.460 OA
BRANCH  28  29
ATOM     29  C   UNL A   1      41.135  25.872  26.147  1.00  0.00     0.338 C 
ATOM     30  O   UNL A   1      41.633  26.306  25.121  1.00  0.00    -0.246 OA
BRANCH  29  31
ATOM     31  C   UNL A   1      41.324  26.488  27.464  1.00  0.00     0.060 A 
ATOM     32  C   UNL A   1      40.478  26.068  28.496  1.00  0.00     0.016 A 
ATOM     33  C   UNL A   1      42.279  27.490  27.665  1.00  0.00     0.016 A 
ATOM     34  C   UNL A   1      40.529  26.708  29.723  1.00  0.00     0.010 A 
ATOM     35  C   UNL A   1      42.316  28.150  28.887  1.00  0.00     0.010 A 
ATOM     36  C   UNL A   1      41.393  27.798  29.884  1.00  0.00    -0.014 A 
BRANCH  36  37
ATOM     37  C   UNL A   1      41.081  28.765  30.949  1.00  0.00     0.031 A 
ATOM     38  C   UNL A   1      41.936  28.714  32.185  1.00  0.00     0.074 A 
ATOM     39  C   UNL A   1      40.100  29.663  30.794  1.00  0.00     0.049 A 
ATOM     40  N   UNL A   1      41.922  29.487  33.235  1.00  0.00    -0.248 NA
ATOM     41  C   UNL A   1      42.953  27.646  32.236  1.00  0.00     0.031 C 
ATOM     42  C   UNL A   1      39.244  29.786  29.614  1.00  0.00     0.029 A 
ATOM     43  N   UNL A   1      39.663  30.644  31.639  1.00  0.00    -0.354 N 
ATOM     44  C   UNL A   1      42.931  29.008  34.062  1.00  0.00     0.074 A 
ATOM     45  C   UNL A   1      43.516  27.860  33.413  1.00  0.00     0.031 C 
ATOM     46  C   UNL A   1      38.368  30.783  29.820  1.00  0.00     0.029 A 
ATOM     47  C   UNL A   1      38.601  31.355  31.143  1.00  0.00     0.049 A 
ATOM     48  H   UNL A   1      40.071  30.822  32.517  1.00  0.00     0.167 HD
ATOM     49  C   UNL A   1      43.333  29.485  35.263  1.00  0.00     0.031 A 
ATOM     50  C   UNL A   1      37.900  32.355  31.711  1.00  0.00     0.031 A 
ATOM     51  C   UNL A   1      42.687  30.586  35.919  1.00  0.00     0.049 A 
ATOM     52  C   UNL A   1      38.335  32.851  33.062  1.00  0.00     0.074 A 
ATOM     53  C   UNL A   1      42.963  31.147  37.151  1.00  0.00     0.029 A 
ATOM     54  N   UNL A   1      41.609  31.284  35.388  1.00  0.00    -0.354 N 
ATOM     55  N   UNL A   1      39.307  32.409  33.827  1.00  0.00    -0.248 NA
ATOM     56  C   UNL A   1      37.600  33.994  33.615  1.00  0.00     0.031 C 
ATOM     57  C   UNL A   1      42.025  32.161  37.381  1.00  0.00     0.029 A 
ATOM     58  C   UNL A   1      41.200  32.264  36.270  1.00  0.00     0.049 A 
ATOM     59  H   UNL A   1      41.199  31.106  34.511  1.00  0.00     0.167 HD
ATOM     60  C   UNL A   1      39.319  33.235  34.945  1.00  0.00     0.074 A 
ATOM     61  C   UNL A   1      38.260  34.208  34.746  1.00  0.00     0.031 C 
ATOM     62  C   UNL A   1      40.129  33.201  36.033  1.00  0.00     0.031 A 
BRANCH  49  63
ATOM     63  C   UNL A   1      44.470  28.761  35.932  1.00  0.00    -0.014 A 
ATOM     64  C   UNL A   1      45.809  29.105  35.665  1.00  0.00     0.010 A 
ATOM     65  C   UNL A   1      44.201  27.673  36.781  1.00  0.00     0.010 A 
ATOM     66  C   UNL A   1      46.856  28.336  36.183  1.00  0.00     0.020 A 
ATOM     67  C   UNL A   1      45.245  26.918  37.321  1.00  0.00     0.020 A 
ATOM     68  C   UNL A   1      46.566  27.236  36.995  1.00  0.00     0.054 A 
BRANCH  68  69
ATOM     69  S   UNL A   1      47.935  26.226  37.625  1.00  0.00     0.124 S 
ATOM     70  O   UNL A   1      47.324  24.900  37.687  1.00  0.00    -0.237 OA
ATOM     71  O   UNL A   1      48.962  26.396  36.601  1.00  0.00    -0.237 OA
ATOM     72  O   UNL A   1      48.244  26.831  38.919  1.00  0.00    -0.744 OA
ENDBRANCH  68  69
ENDBRANCH  49  63
BRANCH  50  73
ATOM     73  C   UNL A   1      36.744  32.938  30.981  1.00  0.00    -0.014 A 
ATOM     74  C   UNL A   1      35.429  32.731  31.426  1.00  0.00     0.010 A 
ATOM     75  C   UNL A   1      36.968  33.783  29.877  1.00  0.00     0.010 A 
ATOM     76  C   UNL A   1      34.357  33.364  30.788  1.00  0.00     0.020 A 
ATOM     77  C   UNL A   1      35.901  34.433  29.249  1.00  0.00     0.020 A 
ATOM     78  C   UNL A   1      34.601  34.219  29.709  1.00  0.00     0.054 A 
BRANCH  78  79
ATOM     79  S   UNL A   1      33.209  35.117  28.966  1.00  0.00     0.124 S 
ATOM     80  O   UNL A   1      33.875  36.271  28.371  1.00  0.00    -0.237 OA
ATOM     81  O   UNL A   1      32.671  34.140  28.022  1.00  0.00    -0.237 OA
ATOM     82  O   UNL A   1      32.345  35.410  30.106  1.00  0.00    -0.744 OA
ENDBRANCH  78  79
ENDBRANCH  50  73
BRANCH  62  83
ATOM     83  C   UNL A   1      39.912  34.267  37.070  1.00  0.00    -0.014 A 
ATOM     84  C   UNL A   1      40.396  35.573  36.882  1.00  0.00     0.010 A 
ATOM     85  C   UNL A   1      39.177  33.960  38.229  1.00  0.00     0.010 A 
ATOM     86  C   UNL A   1      40.182  36.547  37.860  1.00  0.00     0.020 A 
ATOM     87  C   UNL A   1      38.940  34.937  39.196  1.00  0.00     0.020 A 
ATOM     88  C   UNL A   1      39.462  36.220  39.013  1.00  0.00     0.054 A 
BRANCH  88  89
ATOM     89  S   UNL A   1      39.180  37.501  40.263  1.00  0.00     0.124 S 
ATOM     90  O   UNL A   1      38.255  38.396  39.574  1.00  0.00    -0.237 OA
ATOM     91  O   UNL A   1      38.610  36.746  41.378  1.00  0.00    -0.237 OA
ATOM     92  O   UNL A   1      40.513  38.046  40.506  1.00  0.00    -0.744 OA
ENDBRANCH  88  89
ENDBRANCH  62  83
ENDBRANCH  36  37
ENDBRANCH  29  31
ENDBRANCH  28  29
ENDBRANCH  27  28
ENDBRANCH  26  27
ENDBRANCH   1  26
TORSDOF 21
ENDMDL
MODEL 2
REMARK VINA RESULT:     -10.3      1.743      2.360
REMARK SMILES CC[C@H](NC(=O)c1nn(C)cc1C(=O)OCCOCCOC(=O)c1ccc(-c2c3nc(c(-c4ccc(S(=O)(=O)[O-])cc4)c4ccc([nH]4)c(-c4ccc(S(=O)(=O)[O-])cc4)c4nc(c(-c5ccc(S(=O)(=O)[O-])cc5)c5ccc2[nH]5)C=C4)C=C3)cc1)c1ccccc1
REMARK SMILES IDX 18 1 17 2 16 3 15 4 13 5 14 6 12 7 7 8 8 9 9 10 11 11 10 12
REMARK SMILES IDX 5 13 4 14 6 16 3 17 2 18 1 19 84 20 85 21 89 22 86 23 88 24
REMARK SMILES IDX 87 25 19 26 20 27 21 28 22 29 23 30 24 31 25 32 83 33 26 34
REMARK SMILES IDX 82 35 27 36 28 37 29 38 76 39 30 40 81 41 75 42 77 43 31 44
REMARK SMILES IDX 80 45 74 46 73 47 32 49 62 50 43 51 61 52 44 53 47 54 60 55
REMARK SMILES IDX 78 56 45 57 46 58 59 60 79 61 48 62 33 63 34 64 42 65 35 66
REMARK SMILES IDX 41 67 36 68 37 69 38 70 39 71 40 72 63 73 64 74 72 75 65 76
REMARK SMILES IDX 71 77 66 78 67 79 68 80 69 81 70 82 49 83 50 84 58 85 51 86
REMARK SMILES IDX 57 87 52 88 53 89 54 90 55 91 56 92
REMARK H PARENT 4 15 77 48 47 59
REMARK Flexibility Score: inf
ROOT
ATOM      1  O   UNL A   1      39.332  22.003  26.372  1.00  0.00    -0.374 OA
ENDROOT
BRANCH   1   2
ATOM      2  C   UNL A   1      38.111  22.574  25.904  1.00  0.00     0.202 C 
BRANCH   2   3
ATOM      3  C   UNL A   1      37.079  21.865  25.011  1.00  0.00     0.261 C 
BRANCH   3   4
ATOM      4  O   UNL A   1      36.139  21.052  25.710  1.00  0.00    -0.460 OA
BRANCH   4   5
ATOM      5  C   UNL A   1      34.952  21.551  26.119  1.00  0.00     0.342 C 
ATOM      6  O   UNL A   1      34.788  22.343  27.053  1.00  0.00    -0.246 OA
BRANCH   5   7
ATOM      7  C   UNL A   1      33.881  20.900  25.416  1.00  0.00     0.111 A 
ATOM      8  C   UNL A   1      32.492  21.176  25.185  1.00  0.00     0.164 A 
ATOM      9  N   UNL A   1      31.950  20.152  24.475  1.00  0.00    -0.167 NA
ATOM     10  N   UNL A   1      32.917  19.244  24.352  1.00  0.00    -0.274 N 
ATOM     11  C   UNL A   1      34.109  19.666  24.818  1.00  0.00     0.125 A 
ATOM     12  C   UNL A   1      32.610  17.939  23.819  1.00  0.00     0.173 C 
BRANCH   8  13
ATOM     13  C   UNL A   1      31.543  22.252  25.566  1.00  0.00     0.273 C 
ATOM     14  N   UNL A   1      31.700  23.591  25.301  1.00  0.00    -0.344 N 
ATOM     15  H   UNL A   1      30.861  24.103  25.349  1.00  0.00     0.164 HD
ATOM     16  O   UNL A   1      30.457  21.978  26.095  1.00  0.00    -0.267 OA
BRANCH  14  17
ATOM     17  C   UNL A   1      32.851  24.398  24.965  1.00  0.00     0.112 C 
BRANCH  17  18
ATOM     18  C   UNL A   1      33.193  24.323  23.459  1.00  0.00     0.026 C 
ATOM     19  C   UNL A   1      34.635  23.938  23.156  1.00  0.00     0.006 C 
ENDBRANCH  17  18
BRANCH  17  20
ATOM     20  C   UNL A   1      32.639  25.847  25.393  1.00  0.00    -0.026 A 
ATOM     21  C   UNL A   1      31.394  26.456  25.183  1.00  0.00     0.006 A 
ATOM     22  C   UNL A   1      33.677  26.644  25.907  1.00  0.00     0.006 A 
ATOM     23  C   UNL A   1      31.226  27.833  25.360  1.00  0.00     0.000 A 
ATOM     24  C   UNL A   1      33.510  28.017  26.089  1.00  0.00     0.000 A 
ATOM     25  C   UNL A   1      32.291  28.616  25.787  1.00  0.00     0.000 A 
ENDBRANCH  17  20
ENDBRANCH  14  17
ENDBRANCH   8  13
ENDBRANCH   5   7
ENDBRANCH   4   5
ENDBRANCH   3   4
ENDBRANCH   2   3
ENDBRANCH   1   2
BRANCH   1  26
ATOM     26  C   UNL A   1      40.234  22.694  27.218  1.00  0.00     0.202 C 
BRANCH  26  27
ATOM     27  C   UNL A   1      41.015  23.836  26.570  1.00  0.00     0.261 C 
BRANCH  27  28
ATOM     28  O   UNL A   1      40.171  24.943  26.277  1.00  0.00    -0.460 OA
BRANCH  28  29
ATOM     29  C   UNL A   1      40.849  26.115  26.238  1.00  0.00     0.338 C 
ATOM     30  O   UNL A   1      41.674  26.471  25.412  1.00  0.00    -0.246 OA
BRANCH  29  31
ATOM     31  C   UNL A   1      40.322  26.993  27.288  1.00  0.00     0.060 A 
ATOM     32  C   UNL A   1      40.715  28.335  27.259  1.00  0.00     0.016 A 
ATOM     33  C   UNL A   1      39.500  26.494  28.304  1.00  0.00     0.016 A 
ATOM     34  C   UNL A   1      40.351  29.175  28.298  1.00  0.00     0.010 A 
ATOM     35  C   UNL A   1      39.153  27.328  29.360  1.00  0.00     0.010 A 
ATOM     36  C   UNL A   1      39.639  28.644  29.382  1.00  0.00    -0.014 A 
BRANCH  36  37
ATOM     37  C   UNL A   1      39.711  29.363  30.663  1.00  0.00     0.031 A 
ATOM     38  C   UNL A   1      40.862  29.022  31.569  1.00  0.00     0.074 A 
ATOM     39  C   UNL A   1      38.805  30.298  30.978  1.00  0.00     0.049 A 
ATOM     40  N   UNL A   1      41.199  29.548  32.714  1.00  0.00    -0.248 NA
ATOM     41  C   UNL A   1      41.760  27.944  31.113  1.00  0.00     0.031 C 
ATOM     42  C   UNL A   1      37.674  30.696  30.140  1.00  0.00     0.029 A 
ATOM     43  N   UNL A   1      38.699  31.081  32.093  1.00  0.00    -0.354 N 
ATOM     44  C   UNL A   1      42.351  28.875  33.107  1.00  0.00     0.074 A 
ATOM     45  C   UNL A   1      42.638  27.882  32.100  1.00  0.00     0.031 C 
ATOM     46  C   UNL A   1      36.975  31.646  30.783  1.00  0.00     0.029 A 
ATOM     47  C   UNL A   1      37.606  31.910  32.073  1.00  0.00     0.049 A 
ATOM     48  H   UNL A   1      39.343  31.053  32.836  1.00  0.00     0.167 HD
ATOM     49  C   UNL A   1      43.102  29.069  34.215  1.00  0.00     0.031 A 
ATOM     50  C   UNL A   1      37.174  32.778  33.006  1.00  0.00     0.031 A 
ATOM     51  C   UNL A   1      42.756  30.016  35.236  1.00  0.00     0.049 A 
ATOM     52  C   UNL A   1      38.000  32.957  34.250  1.00  0.00     0.074 A 
ATOM     53  C   UNL A   1      43.402  30.288  36.426  1.00  0.00     0.029 A 
ATOM     54  N   UNL A   1      41.637  30.840  35.185  1.00  0.00    -0.354 N 
ATOM     55  N   UNL A   1      39.102  32.335  34.602  1.00  0.00    -0.248 NA
ATOM     56  C   UNL A   1      37.543  33.970  35.207  1.00  0.00     0.031 C 
ATOM     57  C   UNL A   1      42.652  31.251  37.112  1.00  0.00     0.029 A 
ATOM     58  C   UNL A   1      41.568  31.614  36.326  1.00  0.00     0.049 A 
ATOM     59  H   UNL A   1      40.990  30.867  34.443  1.00  0.00     0.167 HD
ATOM     60  C   UNL A   1      39.487  32.896  35.814  1.00  0.00     0.074 A 
ATOM     61  C   UNL A   1      38.501  33.916  36.124  1.00  0.00     0.031 C 
ATOM     62  C   UNL A   1      40.557  32.606  36.597  1.00  0.00     0.031 A 
BRANCH  49  63
ATOM     63  C   UNL A   1      44.312  28.189  34.373  1.00  0.00    -0.014 A 
ATOM     64  C   UNL A   1      44.226  26.942  35.022  1.00  0.00     0.010 A 
ATOM     65  C   UNL A   1      45.568  28.644  33.934  1.00  0.00     0.010 A 
ATOM     66  C   UNL A   1      45.380  26.197  35.286  1.00  0.00     0.020 A 
ATOM     67  C   UNL A   1      46.721  27.892  34.175  1.00  0.00     0.020 A 
ATOM     68  C   UNL A   1      46.623  26.686  34.875  1.00  0.00     0.054 A 
BRANCH  68  69
ATOM     69  S   UNL A   1      48.114  25.727  35.262  1.00  0.00     0.124 S 
ATOM     70  O   UNL A   1      48.833  25.766  33.990  1.00  0.00    -0.237 OA
ATOM     71  O   UNL A   1      48.720  26.493  36.348  1.00  0.00    -0.237 OA
ATOM     72  O   UNL A   1      47.592  24.417  35.643  1.00  0.00    -0.744 OA
ENDBRANCH  68  69
ENDBRANCH  49  63
BRANCH  50  73
ATOM     73  C   UNL A   1      35.917  33.535  32.767  1.00  0.00    -0.014 A 
ATOM     74  C   UNL A   1      34.682  33.046  33.222  1.00  0.00     0.010 A 
ATOM     75  C   UNL A   1      35.968  34.802  32.154  1.00  0.00     0.010 A 
ATOM     76  C   UNL A   1      33.521  33.813  33.077  1.00  0.00     0.020 A 
ATOM     77  C   UNL A   1      34.814  35.579  32.026  1.00  0.00     0.020 A 
ATOM     78  C   UNL A   1      33.596  35.079  32.488  1.00  0.00     0.054 A 
BRANCH  78  79
ATOM     79  S   UNL A   1      32.098  36.102  32.410  1.00  0.00     0.124 S 
ATOM     80  O   UNL A   1      32.183  36.664  31.065  1.00  0.00    -0.237 OA
ATOM     81  O   UNL A   1      31.034  35.123  32.621  1.00  0.00    -0.237 OA
ATOM     82  O   UNL A   1      32.280  37.057  33.500  1.00  0.00    -0.744 OA
ENDBRANCH  78  79
ENDBRANCH  50  73
BRANCH  62  83
ATOM     83  C   UNL A   1      40.721  33.425  37.846  1.00  0.00    -0.014 A 
ATOM     84  C   UNL A   1      40.110  33.044  39.052  1.00  0.00     0.010 A 
ATOM     85  C   UNL A   1      41.536  34.571  37.815  1.00  0.00     0.010 A 
ATOM     86  C   UNL A   1      40.277  33.821  40.200  1.00  0.00     0.020 A 
ATOM     87  C   UNL A   1      41.725  35.336  38.965  1.00  0.00     0.020 A 
ATOM     88  C   UNL A   1      41.078  34.966  40.146  1.00  0.00     0.054 A 
BRANCH  88  89
ATOM     89  S   UNL A   1      41.298  35.954  41.650  1.00  0.00     0.124 S 
ATOM     90  O   UNL A   1      39.974  35.871  42.260  1.00  0.00    -0.237 OA
ATOM     91  O   UNL A   1      42.360  35.238  42.354  1.00  0.00    -0.237 OA
ATOM     92  O   UNL A   1      41.673  37.272  41.145  1.00  0.00    -0.744 OA
ENDBRANCH  88  89
ENDBRANCH  62  83
ENDBRANCH  36  37
ENDBRANCH  29  31
ENDBRANCH  28  29
ENDBRANCH  27  28
ENDBRANCH  26  27
ENDBRANCH   1  26
TORSDOF 21
ENDMDL
MODEL 3
REMARK VINA RESULT:     -10.3      6.566     11.845
REMARK SMILES CC[C@H](NC(=O)c1nn(C)cc1C(=O)OCCOCCOC(=O)c1ccc(-c2c3nc(c(-c4ccc(S(=O)(=O)[O-])cc4)c4ccc([nH]4)c(-c4ccc(S(=O)(=O)[O-])cc4)c4nc(c(-c5ccc(S(=O)(=O)[O-])cc5)c5ccc2[nH]5)C=C4)C=C3)cc1)c1ccccc1
REMARK SMILES IDX 18 1 17 2 16 3 15 4 13 5 14 6 12 7 7 8 8 9 9 10 11 11 10 12
REMARK SMILES IDX 5 13 4 14 6 16 3 17 2 18 1 19 84 20 85 21 89 22 86 23 88 24
REMARK SMILES IDX 87 25 19 26 20 27 21 28 22 29 23 30 24 31 25 32 83 33 26 34
REMARK SMILES IDX 82 35 27 36 28 37 29 38 76 39 30 40 81 41 75 42 77 43 31 44
REMARK SMILES IDX 80 45 74 46 73 47 32 49 62 50 43 51 61 52 44 53 47 54 60 55
REMARK SMILES IDX 78 56 45 57 46 58 59 60 79 61 48 62 33 63 34 64 42 65 35 66
REMARK SMILES IDX 41 67 36 68 37 69 38 70 39 71 40 72 63 73 64 74 72 75 65 76
REMARK SMILES IDX 71 77 66 78 67 79 68 80 69 81 70 82 49 83 50 84 58 85 51 86
REMARK SMILES IDX 57 87 52 88 53 89 54 90 55 91 56 92
REMARK H PARENT 4 15 77 48 47 59
REMARK Flexibility Score: inf
ROOT
ATOM      1  O   UNL A   1      33.044  30.061  27.219  1.00  0.00    -0.374 OA
ENDROOT
BRANCH   1   2
ATOM      2  C   UNL A   1      32.765  28.661  27.222  1.00  0.00     0.202 C 
BRANCH   2   3
ATOM      3  C   UNL A   1      33.574  27.589  26.474  1.00  0.00     0.261 C 
BRANCH   3   4
ATOM      4  O   UNL A   1      32.798  26.704  25.669  1.00  0.00    -0.460 OA
BRANCH   4   5
ATOM      5  C   UNL A   1      33.304  25.528  25.236  1.00  0.00     0.342 C 
ATOM      6  O   UNL A   1      33.780  24.642  25.953  1.00  0.00    -0.246 OA
BRANCH   5   7
ATOM      7  C   UNL A   1      33.362  25.522  23.799  1.00  0.00     0.111 A 
ATOM      8  C   UNL A   1      33.322  26.521  22.770  1.00  0.00     0.164 A 
ATOM      9  N   UNL A   1      33.364  25.909  21.558  1.00  0.00    -0.167 NA
ATOM     10  N   UNL A   1      33.335  24.601  21.811  1.00  0.00    -0.274 N 
ATOM     11  C   UNL A   1      33.417  24.309  23.125  1.00  0.00     0.125 A 
ATOM     12  C   UNL A   1      33.165  23.665  20.726  1.00  0.00     0.173 C 
BRANCH   8  13
ATOM     13  C   UNL A   1      33.202  28.000  22.726  1.00  0.00     0.273 C 
ATOM     14  N   UNL A   1      32.038  28.715  22.872  1.00  0.00    -0.344 N 
ATOM     15  H   UNL A   1      32.183  29.657  23.118  1.00  0.00     0.164 HD
ATOM     16  O   UNL A   1      34.212  28.713  22.640  1.00  0.00    -0.267 OA
BRANCH  14  17
ATOM     17  C   UNL A   1      30.643  28.361  22.739  1.00  0.00     0.112 C 
BRANCH  17  18
ATOM     18  C   UNL A   1      30.160  27.461  23.899  1.00  0.00     0.026 C 
ATOM     19  C   UNL A   1      28.786  26.838  23.687  1.00  0.00     0.006 C 
ENDBRANCH  17  18
BRANCH  17  20
ATOM     20  C   UNL A   1      29.776  29.612  22.634  1.00  0.00    -0.026 A 
ATOM     21  C   UNL A   1      29.670  30.475  23.733  1.00  0.00     0.006 A 
ATOM     22  C   UNL A   1      28.987  29.893  21.505  1.00  0.00     0.006 A 
ATOM     23  C   UNL A   1      28.724  31.504  23.753  1.00  0.00     0.000 A 
ATOM     24  C   UNL A   1      28.046  30.923  21.521  1.00  0.00     0.000 A 
ATOM     25  C   UNL A   1      27.895  31.710  22.657  1.00  0.00     0.000 A 
ENDBRANCH  17  20
ENDBRANCH  14  17
ENDBRANCH   8  13
ENDBRANCH   5   7
ENDBRANCH   4   5
ENDBRANCH   3   4
ENDBRANCH   2   3
ENDBRANCH   1   2
BRANCH   1  26
ATOM     26  C   UNL A   1      34.358  30.586  27.276  1.00  0.00     0.202 C 
BRANCH  26  27
ATOM     27  C   UNL A   1      35.040  30.531  28.642  1.00  0.00     0.261 C 
BRANCH  27  28
ATOM     28  O   UNL A   1      35.965  29.453  28.719  1.00  0.00    -0.460 OA
BRANCH  28  29
ATOM     29  C   UNL A   1      36.697  29.479  29.858  1.00  0.00     0.338 C 
ATOM     30  O   UNL A   1      36.305  29.302  31.000  1.00  0.00    -0.246 OA
BRANCH  29  31
ATOM     31  C   UNL A   1      38.112  29.611  29.498  1.00  0.00     0.060 A 
ATOM     32  C   UNL A   1      38.427  29.650  28.135  1.00  0.00     0.016 A 
ATOM     33  C   UNL A   1      39.110  29.646  30.478  1.00  0.00     0.016 A 
ATOM     34  C   UNL A   1      39.754  29.642  27.740  1.00  0.00     0.010 A 
ATOM     35  C   UNL A   1      40.442  29.614  30.085  1.00  0.00     0.010 A 
ATOM     36  C   UNL A   1      40.752  29.545  28.718  1.00  0.00    -0.014 A 
BRANCH  36  37
ATOM     37  C   UNL A   1      42.064  29.024  28.304  1.00  0.00     0.031 A 
ATOM     38  C   UNL A   1      43.200  30.008  28.252  1.00  0.00     0.074 A 
ATOM     39  C   UNL A   1      42.230  27.725  28.024  1.00  0.00     0.049 A 
ATOM     40  N   UNL A   1      44.461  29.805  27.988  1.00  0.00    -0.248 NA
ATOM     41  C   UNL A   1      42.864  31.415  28.546  1.00  0.00     0.031 C 
ATOM     42  C   UNL A   1      41.179  26.708  28.073  1.00  0.00     0.029 A 
ATOM     43  N   UNL A   1      43.350  27.043  27.640  1.00  0.00    -0.354 N 
ATOM     44  C   UNL A   1      45.068  31.051  28.097  1.00  0.00     0.074 A 
ATOM     45  C   UNL A   1      44.038  32.010  28.417  1.00  0.00     0.031 C 
ATOM     46  C   UNL A   1      41.707  25.526  27.716  1.00  0.00     0.029 A 
ATOM     47  C   UNL A   1      43.123  25.711  27.407  1.00  0.00     0.049 A 
ATOM     48  H   UNL A   1      44.233  27.466  27.542  1.00  0.00     0.167 HD
ATOM     49  C   UNL A   1      46.374  31.368  27.941  1.00  0.00     0.031 A 
ATOM     50  C   UNL A   1      43.974  24.758  26.986  1.00  0.00     0.031 A 
ATOM     51  C   UNL A   1      47.368  30.407  27.554  1.00  0.00     0.049 A 
ATOM     52  C   UNL A   1      45.416  25.131  26.781  1.00  0.00     0.074 A 
ATOM     53  C   UNL A   1      48.716  30.597  27.321  1.00  0.00     0.029 A 
ATOM     54  N   UNL A   1      47.101  29.063  27.323  1.00  0.00    -0.354 N 
ATOM     55  N   UNL A   1      45.988  26.308  26.911  1.00  0.00    -0.248 NA
ATOM     56  C   UNL A   1      46.333  24.051  26.401  1.00  0.00     0.031 C 
ATOM     57  C   UNL A   1      49.257  29.372  26.912  1.00  0.00     0.029 A 
ATOM     58  C   UNL A   1      48.256  28.411  26.940  1.00  0.00     0.049 A 
ATOM     59  H   UNL A   1      46.218  28.639  27.418  1.00  0.00     0.167 HD
ATOM     60  C   UNL A   1      47.338  26.107  26.651  1.00  0.00     0.074 A 
ATOM     61  C   UNL A   1      47.494  24.691  26.367  1.00  0.00     0.031 C 
ATOM     62  C   UNL A   1      48.359  27.001  26.652  1.00  0.00     0.031 A 
BRANCH  49  63
ATOM     63  C   UNL A   1      46.747  32.813  28.131  1.00  0.00    -0.014 A 
ATOM     64  C   UNL A   1      46.736  33.716  27.051  1.00  0.00     0.010 A 
ATOM     65  C   UNL A   1      47.185  33.261  29.390  1.00  0.00     0.010 A 
ATOM     66  C   UNL A   1      47.217  35.020  27.210  1.00  0.00     0.020 A 
ATOM     67  C   UNL A   1      47.644  34.570  29.559  1.00  0.00     0.020 A 
ATOM     68  C   UNL A   1      47.683  35.433  28.461  1.00  0.00     0.054 A 
BRANCH  68  69
ATOM     69  S   UNL A   1      48.342  37.114  28.640  1.00  0.00     0.124 S 
ATOM     70  O   UNL A   1      47.171  37.929  28.322  1.00  0.00    -0.237 OA
ATOM     71  O   UNL A   1      48.771  37.148  30.036  1.00  0.00    -0.237 OA
ATOM     72  O   UNL A   1      49.423  37.168  27.658  1.00  0.00    -0.744 OA
ENDBRANCH  68  69
ENDBRANCH  49  63
BRANCH  50  73
ATOM     73  C   UNL A   1      43.468  23.379  26.758  1.00  0.00    -0.014 A 
ATOM     74  C   UNL A   1      43.680  22.724  25.534  1.00  0.00     0.010 A 
ATOM     75  C   UNL A   1      42.841  22.681  27.808  1.00  0.00     0.010 A 
ATOM     76  C   UNL A   1      43.284  21.393  25.366  1.00  0.00     0.020 A 
ATOM     77  C   UNL A   1      42.462  21.345  27.649  1.00  0.00     0.020 A 
ATOM     78  C   UNL A   1      42.686  20.709  26.428  1.00  0.00     0.054 A 
BRANCH  78  79
ATOM     79  S   UNL A   1      42.281  18.951  26.224  1.00  0.00     0.124 S 
ATOM     80  O   UNL A   1      42.507  18.429  27.568  1.00  0.00    -0.237 OA
ATOM     81  O   UNL A   1      40.887  18.996  25.789  1.00  0.00    -0.237 OA
ATOM     82  O   UNL A   1      43.228  18.498  25.208  1.00  0.00    -0.744 OA
ENDBRANCH  78  79
ENDBRANCH  50  73
BRANCH  62  83
ATOM     83  C   UNL A   1      49.731  26.461  26.364  1.00  0.00    -0.014 A 
ATOM     84  C   UNL A   1      50.442  25.729  27.330  1.00  0.00     0.010 A 
ATOM     85  C   UNL A   1      50.294  26.657  25.090  1.00  0.00     0.010 A 
ATOM     86  C   UNL A   1      51.716  25.237  27.038  1.00  0.00     0.020 A 
ATOM     87  C   UNL A   1      51.555  26.146  24.788  1.00  0.00     0.020 A 
ATOM     88  C   UNL A   1      52.267  25.455  25.771  1.00  0.00     0.054 A 
BRANCH  88  89
ATOM     89  S   UNL A   1      53.914  24.794  25.406  1.00  0.00     0.124 S 
ATOM     90  O   UNL A   1      54.622  25.040  26.659  1.00  0.00    -0.237 OA
ATOM     91  O   UNL A   1      53.640  23.391  25.105  1.00  0.00    -0.237 OA
ATOM     92  O   UNL A   1      54.362  25.593  24.267  1.00  0.00    -0.744 OA
ENDBRANCH  88  89
ENDBRANCH  62  83
ENDBRANCH  36  37
ENDBRANCH  29  31
ENDBRANCH  28  29
ENDBRANCH  27  28
ENDBRANCH  26  27
ENDBRANCH   1  26
TORSDOF 21
ENDMDL
