MODEL 1
REMARK VINA RESULT:     -10.6      0.000      0.000
REMARK SMILES O=C(COc1cccc(/C=C2\SC(=O)N(c3cccc(Cl)c3)C2=O)c1)OCCOCCOC(=O)c1ccc(-c2c3nc(c(-c4ccc(S(=O)(=O)[O-])cc4)c4ccc([nH]4)c(-c4ccc(S(=O)(=O)[O-])cc4)c4nc(c(-c5ccc(S(=O)(=O)[O-])cc5)c5ccc2[nH]5)C=C4)C=C3)cc1
REMARK SMILES IDX 28 1 27 2 26 3 2 4 1 5 3 6 4 7 5 8 6 9 25 10 7 11 9 12 8 13
REMARK SMILES IDX 10 14 11 15 12 16 23 17 13 18 15 19 24 20 14 21 16 22 17 23
REMARK SMILES IDX 22 24 18 25 20 26 19 27 21 28 29 29 30 30 31 31 32 32 33 33
REMARK SMILES IDX 34 34 35 35 36 36 94 37 37 38 93 39 38 40 39 41 40 42 87 43
REMARK SMILES IDX 41 44 92 45 86 46 88 47 42 48 91 49 85 50 84 51 43 53 73 54
REMARK SMILES IDX 54 55 72 56 55 57 58 58 71 59 89 60 56 61 57 62 70 64 90 65
REMARK SMILES IDX 59 66 44 67 45 68 53 69 46 70 52 71 47 72 48 73 49 74 50 75
REMARK SMILES IDX 51 76 74 77 75 78 83 79 76 80 82 81 77 82 78 83 79 84 80 85
REMARK SMILES IDX 81 86 60 87 61 88 69 89 62 90 68 91 63 92 64 93 65 94 66 95
REMARK SMILES IDX 67 96
REMARK H PARENT 88 52 58 63
REMARK Flexibility Score: inf
ROOT
ATOM      1  C   UNL A   1      31.490  31.423  26.386  1.00  0.00     0.202 C 
ENDROOT
BRANCH   1   2
ATOM      2  C   UNL A   1      30.880  30.830  25.120  1.00  0.00     0.261 C 
BRANCH   2   3
ATOM      3  O   UNL A   1      29.697  31.529  24.704  1.00  0.00    -0.461 OA
BRANCH   3   4
ATOM      4  C   UNL A   1      29.007  31.231  23.577  1.00  0.00     0.344 C 
ATOM      5  O   UNL A   1      27.788  31.411  23.543  1.00  0.00    -0.248 OA
BRANCH   4   6
ATOM      6  C   UNL A   1      29.753  30.668  22.363  1.00  0.00     0.351 C 
BRANCH   6   7
ATOM      7  O   UNL A   1      29.434  29.408  21.793  1.00  0.00    -0.482 OA
BRANCH   7   8
ATOM      8  C   UNL A   1      29.295  28.396  22.699  1.00  0.00     0.120 A 
ATOM      9  C   UNL A   1      28.008  27.956  22.971  1.00  0.00     0.046 A 
ATOM     10  C   UNL A   1      30.363  27.840  23.391  1.00  0.00     0.054 A 
ATOM     11  C   UNL A   1      27.812  26.900  23.865  1.00  0.00     0.004 A 
ATOM     12  C   UNL A   1      30.189  26.789  24.292  1.00  0.00    -0.021 A 
ATOM     13  C   UNL A   1      28.903  26.300  24.507  1.00  0.00     0.008 A 
BRANCH  12  14
ATOM     14  C   UNL A   1      31.396  26.204  24.888  1.00  0.00     0.029 C 
ATOM     15  C   UNL A   1      32.240  25.368  24.263  1.00  0.00     0.083 C 
ATOM     16  S   UNL A   1      32.281  24.963  22.593  1.00  0.00    -0.022 SA
ATOM     17  C   UNL A   1      33.301  24.626  24.999  1.00  0.00     0.272 C 
ATOM     18  C   UNL A   1      33.660  23.893  22.791  1.00  0.00     0.298 C 
ATOM     19  N   UNL A   1      34.058  23.881  24.111  1.00  0.00    -0.236 N 
ATOM     20  O   UNL A   1      33.440  24.727  26.212  1.00  0.00    -0.268 OA
ATOM     21  O   UNL A   1      34.088  23.238  21.857  1.00  0.00    -0.260 OA
BRANCH  19  22
ATOM     22  C   UNL A   1      35.198  23.150  24.536  1.00  0.00     0.054 A 
ATOM     23  C   UNL A   1      35.192  21.747  24.551  1.00  0.00     0.027 A 
ATOM     24  C   UNL A   1      36.327  23.831  25.014  1.00  0.00     0.047 A 
ATOM     25  C   UNL A   1      36.291  21.034  25.036  1.00  0.00     0.004 A 
ATOM     26  C   UNL A   1      37.393  23.112  25.552  1.00  0.00     0.043 A 
ATOM     27  C   UNL A   1      37.386  21.720  25.555  1.00  0.00     0.020 A 
ATOM     28  Cl  UNL A   1      38.705  23.942  26.283  1.00  0.00    -0.084 Cl
ENDBRANCH  19  22
ENDBRANCH  12  14
ENDBRANCH   7   8
ENDBRANCH   6   7
ENDBRANCH   4   6
ENDBRANCH   3   4
ENDBRANCH   2   3
ENDBRANCH   1   2
BRANCH   1  29
ATOM     29  O   UNL A   1      32.297  30.560  27.182  1.00  0.00    -0.374 OA
BRANCH  29  30
ATOM     30  C   UNL A   1      33.681  30.890  27.338  1.00  0.00     0.202 C 
BRANCH  30  31
ATOM     31  C   UNL A   1      34.077  31.980  28.337  1.00  0.00     0.261 C 
BRANCH  31  32
ATOM     32  O   UNL A   1      35.494  32.053  28.532  1.00  0.00    -0.460 OA
BRANCH  32  33
ATOM     33  C   UNL A   1      35.913  31.625  29.746  1.00  0.00     0.338 C 
ATOM     34  O   UNL A   1      35.337  31.758  30.812  1.00  0.00    -0.246 OA
BRANCH  33  35
ATOM     35  C   UNL A   1      37.095  30.762  29.569  1.00  0.00     0.060 A 
ATOM     36  C   UNL A   1      37.745  30.298  30.722  1.00  0.00     0.016 A 
ATOM     37  C   UNL A   1      37.584  30.462  28.298  1.00  0.00     0.016 A 
ATOM     38  C   UNL A   1      38.942  29.600  30.609  1.00  0.00     0.010 A 
ATOM     39  C   UNL A   1      38.786  29.771  28.185  1.00  0.00     0.010 A 
ATOM     40  C   UNL A   1      39.493  29.391  29.341  1.00  0.00    -0.014 A 
BRANCH  40  41
ATOM     41  C   UNL A   1      40.909  28.993  29.208  1.00  0.00     0.031 A 
ATOM     42  C   UNL A   1      41.958  30.047  29.429  1.00  0.00     0.074 A 
ATOM     43  C   UNL A   1      41.245  27.737  28.874  1.00  0.00     0.049 A 
ATOM     44  N   UNL A   1      43.248  29.988  29.239  1.00  0.00    -0.248 NA
ATOM     45  C   UNL A   1      41.480  31.354  29.916  1.00  0.00     0.031 C 
ATOM     46  C   UNL A   1      40.308  26.630  28.690  1.00  0.00     0.029 A 
ATOM     47  N   UNL A   1      42.473  27.191  28.610  1.00  0.00    -0.354 N 
ATOM     48  C   UNL A   1      43.732  31.253  29.552  1.00  0.00     0.074 A 
ATOM     49  C   UNL A   1      42.596  32.066  29.921  1.00  0.00     0.031 C 
ATOM     50  C   UNL A   1      40.996  25.537  28.321  1.00  0.00     0.029 A 
ATOM     51  C   UNL A   1      42.411  25.882  28.200  1.00  0.00     0.049 A 
ATOM     52  H   UNL A   1      43.317  27.689  28.703  1.00  0.00     0.167 HD
ATOM     53  C   UNL A   1      45.010  31.695  29.532  1.00  0.00     0.031 A 
ATOM     54  C   UNL A   1      43.386  25.071  27.748  1.00  0.00     0.031 A 
ATOM     55  C   UNL A   1      46.126  30.872  29.147  1.00  0.00     0.049 A 
ATOM     56  C   UNL A   1      44.795  25.600  27.671  1.00  0.00     0.074 A 
ATOM     57  C   UNL A   1      47.467  31.203  29.104  1.00  0.00     0.029 A 
ATOM     58  N   UNL A   1      46.023  29.551  28.731  1.00  0.00    -0.354 N 
ATOM     59  N   UNL A   1      45.248  26.792  27.982  1.00  0.00    -0.248 NA
ATOM     60  C   UNL A   1      45.827  24.671  27.190  1.00  0.00     0.031 C 
ATOM     61  C   UNL A   1      48.169  30.104  28.600  1.00  0.00     0.029 A 
ATOM     62  C   UNL A   1      47.275  29.061  28.404  1.00  0.00     0.049 A 
ATOM     63  H   UNL A   1      45.184  29.039  28.676  1.00  0.00     0.167 HD
ATOM     64  C   UNL A   1      46.622  26.746  27.771  1.00  0.00     0.074 A 
ATOM     65  C   UNL A   1      46.925  25.405  27.310  1.00  0.00     0.031 C 
ATOM     66  C   UNL A   1      47.551  27.719  27.951  1.00  0.00     0.031 A 
BRANCH  53  67
ATOM     67  C   UNL A   1      45.255  33.139  29.886  1.00  0.00    -0.014 A 
ATOM     68  C   UNL A   1      45.517  33.539  31.209  1.00  0.00     0.010 A 
ATOM     69  C   UNL A   1      45.233  34.113  28.871  1.00  0.00     0.010 A 
ATOM     70  C   UNL A   1      45.699  34.890  31.518  1.00  0.00     0.020 A 
ATOM     71  C   UNL A   1      45.449  35.462  29.170  1.00  0.00     0.020 A 
ATOM     72  C   UNL A   1      45.660  35.844  30.496  1.00  0.00     0.054 A 
BRANCH  72  73
ATOM     73  S   UNL A   1      45.910  37.588  30.924  1.00  0.00     0.124 S 
ATOM     74  O   UNL A   1      47.364  37.664  31.042  1.00  0.00    -0.237 OA
ATOM     75  O   UNL A   1      45.337  38.284  29.775  1.00  0.00    -0.237 OA
ATOM     76  O   UNL A   1      45.175  37.749  32.176  1.00  0.00    -0.744 OA
ENDBRANCH  72  73
ENDBRANCH  53  67
BRANCH  54  77
ATOM     77  C   UNL A   1      43.056  23.677  27.340  1.00  0.00    -0.014 A 
ATOM     78  C   UNL A   1      42.954  22.662  28.306  1.00  0.00     0.010 A 
ATOM     79  C   UNL A   1      42.808  23.363  25.991  1.00  0.00     0.010 A 
ATOM     80  C   UNL A   1      42.622  21.358  27.929  1.00  0.00     0.020 A 
ATOM     81  C   UNL A   1      42.444  22.066  25.614  1.00  0.00     0.020 A 
ATOM     82  C   UNL A   1      42.362  21.069  26.587  1.00  0.00     0.054 A 
BRANCH  82  83
ATOM     83  S   UNL A   1      41.876  19.378  26.147  1.00  0.00     0.124 S 
ATOM     84  O   UNL A   1      40.439  19.519  25.931  1.00  0.00    -0.237 OA
ATOM     85  O   UNL A   1      42.673  19.126  24.948  1.00  0.00    -0.237 OA
ATOM     86  O   UNL A   1      42.259  18.592  27.316  1.00  0.00    -0.744 OA
ENDBRANCH  82  83
ENDBRANCH  54  77
BRANCH  66  87
ATOM     87  C   UNL A   1      48.994  27.360  27.706  1.00  0.00    -0.014 A 
ATOM     88  C   UNL A   1      49.786  26.771  28.706  1.00  0.00     0.010 A 
ATOM     89  C   UNL A   1      49.538  27.546  26.421  1.00  0.00     0.010 A 
ATOM     90  C   UNL A   1      51.106  26.398  28.430  1.00  0.00     0.020 A 
ATOM     91  C   UNL A   1      50.843  27.145  26.133  1.00  0.00     0.020 A 
ATOM     92  C   UNL A   1      51.623  26.584  27.144  1.00  0.00     0.054 A 
BRANCH  92  93
ATOM     93  S   UNL A   1      53.318  26.035  26.798  1.00  0.00     0.124 S 
ATOM     94  O   UNL A   1      53.790  27.069  25.880  1.00  0.00    -0.237 OA
ATOM     95  O   UNL A   1      53.932  26.041  28.123  1.00  0.00    -0.237 OA
ATOM     96  O   UNL A   1      53.140  24.712  26.204  1.00  0.00    -0.744 OA
ENDBRANCH  92  93
ENDBRANCH  66  87
ENDBRANCH  40  41
ENDBRANCH  33  35
ENDBRANCH  32  33
ENDBRANCH  31  32
ENDBRANCH  30  31
ENDBRANCH  29  30
ENDBRANCH   1  29
TORSDOF 21
ENDMDL
MODEL 2
REMARK VINA RESULT:     -10.4      2.050      8.361
REMARK SMILES O=C(COc1cccc(/C=C2\SC(=O)N(c3cccc(Cl)c3)C2=O)c1)OCCOCCOC(=O)c1ccc(-c2c3nc(c(-c4ccc(S(=O)(=O)[O-])cc4)c4ccc([nH]4)c(-c4ccc(S(=O)(=O)[O-])cc4)c4nc(c(-c5ccc(S(=O)(=O)[O-])cc5)c5ccc2[nH]5)C=C4)C=C3)cc1
REMARK SMILES IDX 28 1 27 2 26 3 2 4 1 5 3 6 4 7 5 8 6 9 25 10 7 11 9 12 8 13
REMARK SMILES IDX 10 14 11 15 12 16 23 17 13 18 15 19 24 20 14 21 16 22 17 23
REMARK SMILES IDX 22 24 18 25 20 26 19 27 21 28 29 29 30 30 31 31 32 32 33 33
REMARK SMILES IDX 34 34 35 35 36 36 94 37 37 38 93 39 38 40 39 41 40 42 87 43
REMARK SMILES IDX 41 44 92 45 86 46 88 47 42 48 91 49 85 50 84 51 43 53 73 54
REMARK SMILES IDX 54 55 72 56 55 57 58 58 71 59 89 60 56 61 57 62 70 64 90 65
REMARK SMILES IDX 59 66 44 67 45 68 53 69 46 70 52 71 47 72 48 73 49 74 50 75
REMARK SMILES IDX 51 76 74 77 75 78 83 79 76 80 82 81 77 82 78 83 79 84 80 85
REMARK SMILES IDX 81 86 60 87 61 88 69 89 62 90 68 91 63 92 64 93 65 94 66 95
REMARK SMILES IDX 67 96
REMARK H PARENT 88 52 58 63
REMARK Flexibility Score: inf
ROOT
ATOM      1  C   UNL A   1      35.340  32.169  29.415  1.00  0.00     0.202 C 
ENDROOT
BRANCH   1   2
ATOM      2  C   UNL A   1      34.779  32.436  28.022  1.00  0.00     0.261 C 
BRANCH   2   3
ATOM      3  O   UNL A   1      33.552  31.731  27.782  1.00  0.00    -0.461 OA
BRANCH   3   4
ATOM      4  C   UNL A   1      33.485  30.536  27.147  1.00  0.00     0.344 C 
ATOM      5  O   UNL A   1      34.511  29.869  26.996  1.00  0.00    -0.248 OA
BRANCH   4   6
ATOM      6  C   UNL A   1      32.137  30.036  26.621  1.00  0.00     0.351 C 
BRANCH   6   7
ATOM      7  O   UNL A   1      31.438  30.694  25.575  1.00  0.00    -0.482 OA
BRANCH   7   8
ATOM      8  C   UNL A   1      30.912  29.858  24.633  1.00  0.00     0.120 A 
ATOM      9  C   UNL A   1      29.818  30.318  23.913  1.00  0.00     0.046 A 
ATOM     10  C   UNL A   1      31.378  28.569  24.410  1.00  0.00     0.054 A 
ATOM     11  C   UNL A   1      29.261  29.516  22.914  1.00  0.00     0.004 A 
ATOM     12  C   UNL A   1      30.832  27.750  23.422  1.00  0.00    -0.021 A 
ATOM     13  C   UNL A   1      29.782  28.242  22.651  1.00  0.00     0.008 A 
BRANCH  12  14
ATOM     14  C   UNL A   1      31.469  26.446  23.198  1.00  0.00     0.029 C 
ATOM     15  C   UNL A   1      31.578  25.472  24.115  1.00  0.00     0.083 C 
ATOM     16  S   UNL A   1      30.820  25.381  25.656  1.00  0.00    -0.022 SA
ATOM     17  C   UNL A   1      32.445  24.281  23.897  1.00  0.00     0.272 C 
ATOM     18  C   UNL A   1      31.547  23.825  26.025  1.00  0.00     0.298 C 
ATOM     19  N   UNL A   1      32.333  23.412  24.969  1.00  0.00    -0.236 N 
ATOM     20  O   UNL A   1      33.117  24.145  22.882  1.00  0.00    -0.268 OA
ATOM     21  O   UNL A   1      31.386  23.297  27.111  1.00  0.00    -0.260 OA
BRANCH  19  22
ATOM     22  C   UNL A   1      32.982  22.150  24.976  1.00  0.00     0.054 A 
ATOM     23  C   UNL A   1      34.343  22.041  25.300  1.00  0.00     0.027 A 
ATOM     24  C   UNL A   1      32.280  21.000  24.591  1.00  0.00     0.047 A 
ATOM     25  C   UNL A   1      34.994  20.807  25.238  1.00  0.00     0.004 A 
ATOM     26  C   UNL A   1      32.953  19.785  24.473  1.00  0.00     0.043 A 
ATOM     27  C   UNL A   1      34.301  19.680  24.804  1.00  0.00     0.020 A 
ATOM     28  Cl  UNL A   1      32.137  18.410  23.848  1.00  0.00    -0.084 Cl
ENDBRANCH  19  22
ENDBRANCH  12  14
ENDBRANCH   7   8
ENDBRANCH   6   7
ENDBRANCH   4   6
ENDBRANCH   3   4
ENDBRANCH   2   3
ENDBRANCH   1   2
BRANCH   1  29
ATOM     29  O   UNL A   1      35.638  33.304  30.223  1.00  0.00    -0.374 OA
BRANCH  29  30
ATOM     30  C   UNL A   1      36.072  33.077  31.567  1.00  0.00     0.202 C 
BRANCH  30  31
ATOM     31  C   UNL A   1      35.865  31.694  32.190  1.00  0.00     0.261 C 
BRANCH  31  32
ATOM     32  O   UNL A   1      37.101  31.008  32.418  1.00  0.00    -0.460 OA
BRANCH  32  33
ATOM     33  C   UNL A   1      37.331  29.976  31.571  1.00  0.00     0.338 C 
ATOM     34  O   UNL A   1      36.520  29.158  31.170  1.00  0.00    -0.246 OA
BRANCH  33  35
ATOM     35  C   UNL A   1      38.689  30.107  31.013  1.00  0.00     0.060 A 
ATOM     36  C   UNL A   1      38.810  30.481  29.666  1.00  0.00     0.016 A 
ATOM     37  C   UNL A   1      39.815  29.816  31.783  1.00  0.00     0.016 A 
ATOM     38  C   UNL A   1      40.061  30.480  29.058  1.00  0.00     0.010 A 
ATOM     39  C   UNL A   1      41.065  29.807  31.172  1.00  0.00     0.010 A 
ATOM     40  C   UNL A   1      41.179  30.083  29.796  1.00  0.00    -0.014 A 
BRANCH  40  41
ATOM     41  C   UNL A   1      42.432  29.720  29.102  1.00  0.00     0.031 A 
ATOM     42  C   UNL A   1      42.555  28.323  28.561  1.00  0.00     0.074 A 
ATOM     43  C   UNL A   1      43.435  30.604  28.982  1.00  0.00     0.049 A 
ATOM     44  N   UNL A   1      43.591  27.723  28.040  1.00  0.00    -0.248 NA
ATOM     45  C   UNL A   1      41.346  27.484  28.635  1.00  0.00     0.031 C 
ATOM     46  C   UNL A   1      43.395  31.997  29.425  1.00  0.00     0.029 A 
ATOM     47  N   UNL A   1      44.695  30.446  28.469  1.00  0.00    -0.354 N 
ATOM     48  C   UNL A   1      43.169  26.430  27.753  1.00  0.00     0.074 A 
ATOM     49  C   UNL A   1      41.792  26.324  28.180  1.00  0.00     0.031 C 
ATOM     50  C   UNL A   1      44.589  32.563  29.181  1.00  0.00     0.029 A 
ATOM     51  C   UNL A   1      45.485  31.560  28.609  1.00  0.00     0.049 A 
ATOM     52  H   UNL A   1      45.004  29.614  28.042  1.00  0.00     0.167 HD
ATOM     53  C   UNL A   1      43.871  25.421  27.186  1.00  0.00     0.031 A 
ATOM     54  C   UNL A   1      46.792  31.733  28.337  1.00  0.00     0.031 A 
ATOM     55  C   UNL A   1      45.246  25.544  26.782  1.00  0.00     0.049 A 
ATOM     56  C   UNL A   1      47.575  30.579  27.765  1.00  0.00     0.074 A 
ATOM     57  C   UNL A   1      46.055  24.598  26.182  1.00  0.00     0.029 A 
ATOM     58  N   UNL A   1      46.016  26.687  26.948  1.00  0.00    -0.354 N 
ATOM     59  N   UNL A   1      47.167  29.363  27.483  1.00  0.00    -0.248 NA
ATOM     60  C   UNL A   1      48.993  30.822  27.466  1.00  0.00     0.031 C 
ATOM     61  C   UNL A   1      47.334  25.147  26.043  1.00  0.00     0.029 A 
ATOM     62  C   UNL A   1      47.300  26.462  26.484  1.00  0.00     0.049 A 
ATOM     63  H   UNL A   1      45.696  27.533  27.337  1.00  0.00     0.167 HD
ATOM     64  C   UNL A   1      48.267  28.708  26.938  1.00  0.00     0.074 A 
ATOM     65  C   UNL A   1      49.355  29.665  26.927  1.00  0.00     0.031 C 
ATOM     66  C   UNL A   1      48.366  27.434  26.480  1.00  0.00     0.031 A 
BRANCH  53  67
ATOM     67  C   UNL A   1      43.175  24.094  27.021  1.00  0.00    -0.014 A 
ATOM     68  C   UNL A   1      42.487  23.765  25.840  1.00  0.00     0.010 A 
ATOM     69  C   UNL A   1      43.221  23.154  28.067  1.00  0.00     0.010 A 
ATOM     70  C   UNL A   1      41.815  22.544  25.727  1.00  0.00     0.020 A 
ATOM     71  C   UNL A   1      42.580  21.918  27.947  1.00  0.00     0.020 A 
ATOM     72  C   UNL A   1      41.863  21.630  26.784  1.00  0.00     0.054 A 
BRANCH  72  73
ATOM     73  S   UNL A   1      40.990  20.050  26.608  1.00  0.00     0.124 S 
ATOM     74  O   UNL A   1      39.729  20.469  26.001  1.00  0.00    -0.237 OA
ATOM     75  O   UNL A   1      41.882  19.288  25.738  1.00  0.00    -0.237 OA
ATOM     76  O   UNL A   1      40.886  19.554  27.977  1.00  0.00    -0.744 OA
ENDBRANCH  72  73
ENDBRANCH  53  67
BRANCH  54  77
ATOM     77  C   UNL A   1      47.433  33.051  28.600  1.00  0.00    -0.014 A 
ATOM     78  C   UNL A   1      47.429  34.050  27.612  1.00  0.00     0.010 A 
ATOM     79  C   UNL A   1      48.019  33.328  29.849  1.00  0.00     0.010 A 
ATOM     80  C   UNL A   1      48.008  35.296  27.864  1.00  0.00     0.020 A 
ATOM     81  C   UNL A   1      48.572  34.585  30.116  1.00  0.00     0.020 A 
ATOM     82  C   UNL A   1      48.570  35.559  29.117  1.00  0.00     0.054 A 
BRANCH  82  83
ATOM     83  S   UNL A   1      49.260  37.209  29.424  1.00  0.00     0.124 S 
ATOM     84  O   UNL A   1      50.479  36.897  30.165  1.00  0.00    -0.237 OA
ATOM     85  O   UNL A   1      49.457  37.722  28.070  1.00  0.00    -0.237 OA
ATOM     86  O   UNL A   1      48.217  37.882  30.191  1.00  0.00    -0.744 OA
ENDBRANCH  82  83
ENDBRANCH  54  77
BRANCH  66  87
ATOM     87  C   UNL A   1      49.678  27.012  25.872  1.00  0.00    -0.014 A 
ATOM     88  C   UNL A   1      49.970  27.240  24.516  1.00  0.00     0.010 A 
ATOM     89  C   UNL A   1      50.667  26.448  26.700  1.00  0.00     0.010 A 
ATOM     90  C   UNL A   1      51.218  26.887  23.995  1.00  0.00     0.020 A 
ATOM     91  C   UNL A   1      51.926  26.124  26.191  1.00  0.00     0.020 A 
ATOM     92  C   UNL A   1      52.190  26.336  24.838  1.00  0.00     0.054 A 
BRANCH  92  93
ATOM     93  S   UNL A   1      53.822  25.944  24.149  1.00  0.00     0.124 S 
ATOM     94  O   UNL A   1      54.046  24.590  24.651  1.00  0.00    -0.237 OA
ATOM     95  O   UNL A   1      53.595  26.052  22.711  1.00  0.00    -0.237 OA
ATOM     96  O   UNL A   1      54.694  26.969  24.717  1.00  0.00    -0.744 OA
ENDBRANCH  92  93
ENDBRANCH  66  87
ENDBRANCH  40  41
ENDBRANCH  33  35
ENDBRANCH  32  33
ENDBRANCH  31  32
ENDBRANCH  30  31
ENDBRANCH  29  30
ENDBRANCH   1  29
TORSDOF 21
ENDMDL
MODEL 3
REMARK VINA RESULT:     -10.4      1.916      3.062
REMARK SMILES O=C(COc1cccc(/C=C2\SC(=O)N(c3cccc(Cl)c3)C2=O)c1)OCCOCCOC(=O)c1ccc(-c2c3nc(c(-c4ccc(S(=O)(=O)[O-])cc4)c4ccc([nH]4)c(-c4ccc(S(=O)(=O)[O-])cc4)c4nc(c(-c5ccc(S(=O)(=O)[O-])cc5)c5ccc2[nH]5)C=C4)C=C3)cc1
REMARK SMILES IDX 28 1 27 2 26 3 2 4 1 5 3 6 4 7 5 8 6 9 25 10 7 11 9 12 8 13
REMARK SMILES IDX 10 14 11 15 12 16 23 17 13 18 15 19 24 20 14 21 16 22 17 23
REMARK SMILES IDX 22 24 18 25 20 26 19 27 21 28 29 29 30 30 31 31 32 32 33 33
REMARK SMILES IDX 34 34 35 35 36 36 94 37 37 38 93 39 38 40 39 41 40 42 87 43
REMARK SMILES IDX 41 44 92 45 86 46 88 47 42 48 91 49 85 50 84 51 43 53 73 54
REMARK SMILES IDX 54 55 72 56 55 57 58 58 71 59 89 60 56 61 57 62 70 64 90 65
REMARK SMILES IDX 59 66 44 67 45 68 53 69 46 70 52 71 47 72 48 73 49 74 50 75
REMARK SMILES IDX 51 76 74 77 75 78 83 79 76 80 82 81 77 82 78 83 79 84 80 85
REMARK SMILES IDX 81 86 60 87 61 88 69 89 62 90 68 91 63 92 64 93 65 94 66 95
REMARK SMILES IDX 67 96
REMARK H PARENT 88 52 58 63
REMARK Flexibility Score: inf
ROOT
ATOM      1  C   UNL A   1      35.457  32.202  29.213  1.00  0.00     0.202 C 
ENDROOT
BRANCH   1   2
ATOM      2  C   UNL A   1      34.938  32.037  27.789  1.00  0.00     0.261 C 
BRANCH   2   3
ATOM      3  O   UNL A   1      33.604  31.508  27.750  1.00  0.00    -0.461 OA
BRANCH   3   4
ATOM      4  C   UNL A   1      33.293  30.294  27.236  1.00  0.00     0.344 C 
ATOM      5  O   UNL A   1      34.136  29.395  27.245  1.00  0.00    -0.248 OA
BRANCH   4   6
ATOM      6  C   UNL A   1      31.899  30.060  26.645  1.00  0.00     0.351 C 
BRANCH   6   7
ATOM      7  O   UNL A   1      31.487  30.642  25.417  1.00  0.00    -0.482 OA
BRANCH   7   8
ATOM      8  C   UNL A   1      30.920  29.764  24.539  1.00  0.00     0.120 A 
ATOM      9  C   UNL A   1      29.780  30.183  23.867  1.00  0.00     0.046 A 
ATOM     10  C   UNL A   1      31.393  28.475  24.335  1.00  0.00     0.054 A 
ATOM     11  C   UNL A   1      29.179  29.337  22.931  1.00  0.00     0.004 A 
ATOM     12  C   UNL A   1      30.804  27.612  23.410  1.00  0.00    -0.021 A 
ATOM     13  C   UNL A   1      29.704  28.062  22.684  1.00  0.00     0.008 A 
BRANCH  12  14
ATOM     14  C   UNL A   1      31.447  26.310  23.197  1.00  0.00     0.029 C 
ATOM     15  C   UNL A   1      31.636  25.377  24.144  1.00  0.00     0.083 C 
ATOM     16  S   UNL A   1      30.988  25.341  25.736  1.00  0.00    -0.022 SA
ATOM     17  C   UNL A   1      32.508  24.191  23.916  1.00  0.00     0.272 C 
ATOM     18  C   UNL A   1      31.767  23.813  26.118  1.00  0.00     0.298 C 
ATOM     19  N   UNL A   1      32.485  23.367  25.028  1.00  0.00    -0.236 N 
ATOM     20  O   UNL A   1      33.111  24.022  22.862  1.00  0.00    -0.268 OA
ATOM     21  O   UNL A   1      31.690  23.329  27.233  1.00  0.00    -0.260 OA
BRANCH  19  22
ATOM     22  C   UNL A   1      33.156  22.117  25.042  1.00  0.00     0.054 A 
ATOM     23  C   UNL A   1      34.532  22.039  25.306  1.00  0.00     0.027 A 
ATOM     24  C   UNL A   1      32.457  20.944  24.722  1.00  0.00     0.047 A 
ATOM     25  C   UNL A   1      35.201  20.814  25.250  1.00  0.00     0.004 A 
ATOM     26  C   UNL A   1      33.145  19.737  24.609  1.00  0.00     0.043 A 
ATOM     27  C   UNL A   1      34.508  19.664  24.882  1.00  0.00     0.020 A 
ATOM     28  Cl  UNL A   1      32.325  18.332  24.062  1.00  0.00    -0.084 Cl
ENDBRANCH  19  22
ENDBRANCH  12  14
ENDBRANCH   7   8
ENDBRANCH   6   7
ENDBRANCH   4   6
ENDBRANCH   3   4
ENDBRANCH   2   3
ENDBRANCH   1   2
BRANCH   1  29
ATOM     29  O   UNL A   1      34.801  33.165  30.035  1.00  0.00    -0.374 OA
BRANCH  29  30
ATOM     30  C   UNL A   1      35.141  33.204  31.424  1.00  0.00     0.202 C 
BRANCH  30  31
ATOM     31  C   UNL A   1      35.438  31.892  32.154  1.00  0.00     0.261 C 
BRANCH  31  32
ATOM     32  O   UNL A   1      36.832  31.565  32.145  1.00  0.00    -0.460 OA
BRANCH  32  33
ATOM     33  C   UNL A   1      37.114  30.337  31.650  1.00  0.00     0.338 C 
ATOM     34  O   UNL A   1      36.327  29.429  31.440  1.00  0.00    -0.246 OA
BRANCH  33  35
ATOM     35  C   UNL A   1      38.513  30.316  31.185  1.00  0.00     0.060 A 
ATOM     36  C   UNL A   1      38.748  30.464  29.810  1.00  0.00     0.016 A 
ATOM     37  C   UNL A   1      39.564  30.101  32.076  1.00  0.00     0.016 A 
ATOM     38  C   UNL A   1      40.036  30.310  29.308  1.00  0.00     0.010 A 
ATOM     39  C   UNL A   1      40.851  29.939  31.572  1.00  0.00     0.010 A 
ATOM     40  C   UNL A   1      41.076  29.987  30.184  1.00  0.00    -0.014 A 
BRANCH  40  41
ATOM     41  C   UNL A   1      42.351  29.462  29.653  1.00  0.00     0.031 A 
ATOM     42  C   UNL A   1      43.515  30.410  29.557  1.00  0.00     0.074 A 
ATOM     43  C   UNL A   1      42.457  28.187  29.245  1.00  0.00     0.049 A 
ATOM     44  N   UNL A   1      44.684  30.235  29.004  1.00  0.00    -0.248 NA
ATOM     45  C   UNL A   1      43.322  31.745  30.152  1.00  0.00     0.031 C 
ATOM     46  C   UNL A   1      41.406  27.176  29.345  1.00  0.00     0.029 A 
ATOM     47  N   UNL A   1      43.501  27.536  28.643  1.00  0.00    -0.354 N 
ATOM     48  C   UNL A   1      45.355  31.443  29.158  1.00  0.00     0.074 A 
ATOM     49  C   UNL A   1      44.454  32.351  29.831  1.00  0.00     0.031 C 
ATOM     50  C   UNL A   1      41.853  26.032  28.802  1.00  0.00     0.029 A 
ATOM     51  C   UNL A   1      43.200  26.247  28.278  1.00  0.00     0.049 A 
ATOM     52  H   UNL A   1      44.379  27.952  28.488  1.00  0.00     0.167 HD
ATOM     53  C   UNL A   1      46.610  31.765  28.768  1.00  0.00     0.031 A 
ATOM     54  C   UNL A   1      43.923  25.358  27.570  1.00  0.00     0.031 A 
ATOM     55  C   UNL A   1      47.485  30.850  28.085  1.00  0.00     0.049 A 
ATOM     56  C   UNL A   1      45.295  25.756  27.089  1.00  0.00     0.074 A 
ATOM     57  C   UNL A   1      48.783  31.057  27.656  1.00  0.00     0.029 A 
ATOM     58  N   UNL A   1      47.143  29.554  27.724  1.00  0.00    -0.354 N 
ATOM     59  N   UNL A   1      45.928  26.895  27.248  1.00  0.00    -0.248 NA
ATOM     60  C   UNL A   1      46.053  24.746  26.338  1.00  0.00     0.031 C 
ATOM     61  C   UNL A   1      49.204  29.908  26.980  1.00  0.00     0.029 A 
ATOM     62  C   UNL A   1      48.197  28.957  27.055  1.00  0.00     0.049 A 
ATOM     63  H   UNL A   1      46.279  29.123  27.917  1.00  0.00     0.167 HD
ATOM     64  C   UNL A   1      47.174  26.726  26.652  1.00  0.00     0.074 A 
ATOM     65  C   UNL A   1      47.204  25.373  26.133  1.00  0.00     0.031 C 
ATOM     66  C   UNL A   1      48.203  27.604  26.552  1.00  0.00     0.031 A 
BRANCH  53  67
ATOM     67  C   UNL A   1      47.082  33.173  29.027  1.00  0.00    -0.014 A 
ATOM     68  C   UNL A   1      47.606  33.556  30.274  1.00  0.00     0.010 A 
ATOM     69  C   UNL A   1      47.006  34.128  27.997  1.00  0.00     0.010 A 
ATOM     70  C   UNL A   1      47.999  34.879  30.503  1.00  0.00     0.020 A 
ATOM     71  C   UNL A   1      47.429  35.443  28.209  1.00  0.00     0.020 A 
ATOM     72  C   UNL A   1      47.903  35.815  29.469  1.00  0.00     0.054 A 
BRANCH  72  73
ATOM     73  S   UNL A   1      48.428  37.521  29.789  1.00  0.00     0.124 S 
ATOM     74  O   UNL A   1      49.243  37.365  30.992  1.00  0.00    -0.237 OA
ATOM     75  O   UNL A   1      49.162  37.864  28.574  1.00  0.00    -0.237 OA
ATOM     76  O   UNL A   1      47.172  38.242  29.980  1.00  0.00    -0.744 OA
ENDBRANCH  72  73
ENDBRANCH  53  67
BRANCH  54  77
ATOM     77  C   UNL A   1      43.360  24.010  27.284  1.00  0.00    -0.014 A 
ATOM     78  C   UNL A   1      43.070  23.630  25.963  1.00  0.00     0.010 A 
ATOM     79  C   UNL A   1      43.143  23.087  28.324  1.00  0.00     0.010 A 
ATOM     80  C   UNL A   1      42.564  22.357  25.688  1.00  0.00     0.020 A 
ATOM     81  C   UNL A   1      42.665  21.801  28.049  1.00  0.00     0.020 A 
ATOM     82  C   UNL A   1      42.371  21.448  26.732  1.00  0.00     0.054 A 
BRANCH  82  83
ATOM     83  S   UNL A   1      41.767  19.785  26.327  1.00  0.00     0.124 S 
ATOM     84  O   UNL A   1      42.420  19.527  25.047  1.00  0.00    -0.237 OA
ATOM     85  O   UNL A   1      42.252  18.994  27.456  1.00  0.00    -0.237 OA
ATOM     86  O   UNL A   1      40.318  19.948  26.268  1.00  0.00    -0.744 OA
ENDBRANCH  82  83
ENDBRANCH  54  77
BRANCH  66  87
ATOM     87  C   UNL A   1      49.475  27.119  25.905  1.00  0.00    -0.014 A 
ATOM     88  C   UNL A   1      49.772  27.401  24.561  1.00  0.00     0.010 A 
ATOM     89  C   UNL A   1      50.424  26.435  26.689  1.00  0.00     0.010 A 
ATOM     90  C   UNL A   1      50.986  26.985  24.006  1.00  0.00     0.020 A 
ATOM     91  C   UNL A   1      51.651  26.047  26.147  1.00  0.00     0.020 A 
ATOM     92  C   UNL A   1      51.919  26.314  24.805  1.00  0.00     0.054 A 
BRANCH  92  93
ATOM     93  S   UNL A   1      53.511  25.840  24.076  1.00  0.00     0.124 S 
ATOM     94  O   UNL A   1      53.677  24.475  24.570  1.00  0.00    -0.237 OA
ATOM     95  O   UNL A   1      53.255  25.963  22.643  1.00  0.00    -0.237 OA
ATOM     96  O   UNL A   1      54.449  26.817  24.623  1.00  0.00    -0.744 OA
ENDBRANCH  92  93
ENDBRANCH  66  87
ENDBRANCH  40  41
ENDBRANCH  33  35
ENDBRANCH  32  33
ENDBRANCH  31  32
ENDBRANCH  30  31
ENDBRANCH  29  30
ENDBRANCH   1  29
TORSDOF 21
ENDMDL
