MODEL 1
REMARK VINA RESULT:     -10.3      0.000      0.000
REMARK SMILES C[C@@H]1CCC[C@@](Cc2ncccn2)(C(=O)OCCOCCOC(=O)c2ccc(-c3c4nc(c(-c5ccc(S(=O)(=O)[O-])cc5)c5ccc([nH]5)c(-c5ccc(S(=O)(=O)[O-])cc5)c5nc(c(-c6ccc(S(=O)(=O)[O-])cc6)c6ccc3[nH]6)C=C5)C=C4)cc2)C1
REMARK SMILES IDX 20 1 19 2 18 3 17 4 16 5 14 6 15 7 6 8 1 9 2 10 3 11 85 12
REMARK SMILES IDX 4 13 5 14 7 15 8 16 9 17 13 18 10 19 12 20 11 21 21 22 22 23
REMARK SMILES IDX 23 24 24 25 25 26 26 27 84 28 27 29 83 30 28 31 29 32 30 33
REMARK SMILES IDX 77 34 31 35 82 36 76 37 78 38 32 39 81 40 75 41 74 42 33 44
REMARK SMILES IDX 63 45 44 46 62 47 45 48 48 49 61 50 79 51 46 52 47 53 60 55
REMARK SMILES IDX 80 56 49 57 34 58 35 59 43 60 36 61 42 62 37 63 38 64 39 65
REMARK SMILES IDX 40 66 41 67 64 68 65 69 73 70 66 71 72 72 67 73 68 74 69 75
REMARK SMILES IDX 70 76 71 77 50 78 51 79 59 80 52 81 58 82 53 83 54 84 55 85
REMARK SMILES IDX 56 86 57 87
REMARK H PARENT 78 43 48 54
REMARK Flexibility Score: inf
ROOT
ATOM      1  C   UNL A   1      39.836  22.343  26.324  1.00  0.00     0.202 C 
ENDROOT
BRANCH   1   2
ATOM      2  O   UNL A   1      38.808  21.403  26.014  1.00  0.00    -0.374 OA
BRANCH   2   3
ATOM      3  C   UNL A   1      37.868  21.760  25.004  1.00  0.00     0.202 C 
BRANCH   3   4
ATOM      4  C   UNL A   1      36.420  22.016  25.436  1.00  0.00     0.261 C 
BRANCH   4   5
ATOM      5  O   UNL A   1      35.470  21.145  24.804  1.00  0.00    -0.463 OA
BRANCH   5   6
ATOM      6  C   UNL A   1      34.483  20.690  25.621  1.00  0.00     0.312 C 
ATOM      7  O   UNL A   1      34.170  21.212  26.689  1.00  0.00    -0.252 OA
BRANCH   6   8
ATOM      8  C   UNL A   1      33.755  19.444  25.087  1.00  0.00     0.075 C 
ATOM      9  C   UNL A   1      33.994  16.976  22.752  1.00  0.00     0.007 C 
ATOM     10  C   UNL A   1      34.530  17.078  24.182  1.00  0.00    -0.013 C 
ATOM     11  C   UNL A   1      33.595  16.415  25.199  1.00  0.00     0.003 C 
ATOM     12  C   UNL A   1      34.900  18.514  24.584  1.00  0.00     0.022 C 
ATOM     13  C   UNL A   1      32.442  17.314  25.636  1.00  0.00     0.001 C 
ATOM     14  C   UNL A   1      32.948  18.662  26.152  1.00  0.00     0.019 C 
BRANCH   8  15
ATOM     15  C   UNL A   1      32.869  19.958  23.925  1.00  0.00     0.096 C 
BRANCH  15  16
ATOM     16  C   UNL A   1      32.213  21.287  24.213  1.00  0.00     0.129 A 
ATOM     17  N   UNL A   1      31.363  21.343  25.258  1.00  0.00    -0.241 NA
ATOM     18  N   UNL A   1      32.580  22.347  23.469  1.00  0.00    -0.241 NA
ATOM     19  C   UNL A   1      30.858  22.557  25.552  1.00  0.00     0.115 A 
ATOM     20  C   UNL A   1      32.052  23.536  23.817  1.00  0.00     0.115 A 
ATOM     21  C   UNL A   1      31.179  23.701  24.864  1.00  0.00     0.040 A 
ENDBRANCH  15  16
ENDBRANCH   8  15
ENDBRANCH   6   8
ENDBRANCH   5   6
ENDBRANCH   4   5
ENDBRANCH   3   4
ENDBRANCH   2   3
ENDBRANCH   1   2
BRANCH   1  22
ATOM     22  C   UNL A   1      39.407  23.715  26.864  1.00  0.00     0.261 C 
BRANCH  22  23
ATOM     23  O   UNL A   1      40.506  24.502  27.365  1.00  0.00    -0.460 OA
BRANCH  23  24
ATOM     24  C   UNL A   1      40.556  25.770  26.887  1.00  0.00     0.338 C 
ATOM     25  O   UNL A   1      40.723  26.111  25.723  1.00  0.00    -0.246 OA
BRANCH  24  26
ATOM     26  C   UNL A   1      40.218  26.747  27.936  1.00  0.00     0.060 A 
ATOM     27  C   UNL A   1      40.907  27.967  27.935  1.00  0.00     0.016 A 
ATOM     28  C   UNL A   1      39.361  26.418  28.988  1.00  0.00     0.016 A 
ATOM     29  C   UNL A   1      40.780  28.842  29.014  1.00  0.00     0.010 A 
ATOM     30  C   UNL A   1      39.244  27.294  30.075  1.00  0.00     0.010 A 
ATOM     31  C   UNL A   1      39.983  28.491  30.112  1.00  0.00    -0.014 A 
BRANCH  31  32
ATOM     32  C   UNL A   1      40.045  29.310  31.349  1.00  0.00     0.031 A 
ATOM     33  C   UNL A   1      41.169  29.080  32.327  1.00  0.00     0.074 A 
ATOM     34  C   UNL A   1      39.138  30.278  31.581  1.00  0.00     0.049 A 
ATOM     35  N   UNL A   1      41.405  29.674  33.468  1.00  0.00    -0.248 NA
ATOM     36  C   UNL A   1      42.159  28.051  31.967  1.00  0.00     0.031 C 
ATOM     37  C   UNL A   1      38.033  30.635  30.691  1.00  0.00     0.029 A 
ATOM     38  N   UNL A   1      39.010  31.140  32.640  1.00  0.00    -0.354 N 
ATOM     39  C   UNL A   1      42.568  29.095  33.963  1.00  0.00     0.074 A 
ATOM     40  C   UNL A   1      42.974  28.084  33.011  1.00  0.00     0.031 C 
ATOM     41  C   UNL A   1      37.334  31.639  31.248  1.00  0.00     0.029 A 
ATOM     42  C   UNL A   1      37.924  31.977  32.542  1.00  0.00     0.049 A 
ATOM     43  H   UNL A   1      39.636  31.158  33.400  1.00  0.00     0.167 HD
ATOM     44  C   UNL A   1      43.243  29.383  35.102  1.00  0.00     0.031 A 
ATOM     45  C   UNL A   1      37.450  32.898  33.404  1.00  0.00     0.031 A 
ATOM     46  C   UNL A   1      42.836  30.379  36.057  1.00  0.00     0.049 A 
ATOM     47  C   UNL A   1      38.175  33.146  34.702  1.00  0.00     0.074 A 
ATOM     48  C   UNL A   1      43.455  30.736  37.243  1.00  0.00     0.029 A 
ATOM     49  N   UNL A   1      41.710  31.176  35.938  1.00  0.00    -0.354 N 
ATOM     50  N   UNL A   1      39.277  32.593  35.148  1.00  0.00    -0.248 NA
ATOM     51  C   UNL A   1      37.595  34.148  35.607  1.00  0.00     0.031 C 
ATOM     52  C   UNL A   1      42.677  31.720  37.862  1.00  0.00     0.029 A 
ATOM     53  C   UNL A   1      41.603  32.010  37.037  1.00  0.00     0.049 A 
ATOM     54  H   UNL A   1      41.078  31.152  35.183  1.00  0.00     0.167 HD
ATOM     55  C   UNL A   1      39.534  33.198  36.373  1.00  0.00     0.074 A 
ATOM     56  C   UNL A   1      38.482  34.168  36.593  1.00  0.00     0.031 C 
ATOM     57  C   UNL A   1      40.553  32.974  37.240  1.00  0.00     0.031 A 
BRANCH  44  58
ATOM     58  C   UNL A   1      44.488  28.591  35.393  1.00  0.00    -0.014 A 
ATOM     59  C   UNL A   1      44.430  27.391  36.123  1.00  0.00     0.010 A 
ATOM     60  C   UNL A   1      45.725  29.021  34.876  1.00  0.00     0.010 A 
ATOM     61  C   UNL A   1      45.590  26.647  36.353  1.00  0.00     0.020 A 
ATOM     62  C   UNL A   1      46.884  28.268  35.087  1.00  0.00     0.020 A 
ATOM     63  C   UNL A   1      46.810  27.090  35.835  1.00  0.00     0.054 A 
BRANCH  63  64
ATOM     64  S   UNL A   1      48.294  26.086  36.115  1.00  0.00     0.124 S 
ATOM     65  O   UNL A   1      48.902  26.071  34.787  1.00  0.00    -0.237 OA
ATOM     66  O   UNL A   1      49.016  26.854  37.127  1.00  0.00    -0.237 OA
ATOM     67  O   UNL A   1      47.765  24.804  36.572  1.00  0.00    -0.744 OA
ENDBRANCH  63  64
ENDBRANCH  44  58
BRANCH  45  68
ATOM     68  C   UNL A   1      36.199  33.641  33.089  1.00  0.00    -0.014 A 
ATOM     69  C   UNL A   1      36.246  34.910  32.487  1.00  0.00     0.010 A 
ATOM     70  C   UNL A   1      34.951  33.086  33.423  1.00  0.00     0.010 A 
ATOM     71  C   UNL A   1      35.067  35.622  32.247  1.00  0.00     0.020 A 
ATOM     72  C   UNL A   1      33.770  33.783  33.162  1.00  0.00     0.020 A 
ATOM     73  C   UNL A   1      33.836  35.055  32.591  1.00  0.00     0.054 A 
BRANCH  73  74
ATOM     74  S   UNL A   1      32.312  35.979  32.246  1.00  0.00     0.124 S 
ATOM     75  O   UNL A   1      32.466  37.146  33.109  1.00  0.00    -0.237 OA
ATOM     76  O   UNL A   1      32.411  36.232  30.811  1.00  0.00    -0.237 OA
ATOM     77  O   UNL A   1      31.258  35.044  32.634  1.00  0.00    -0.744 OA
ENDBRANCH  73  74
ENDBRANCH  45  68
BRANCH  57  78
ATOM     78  C   UNL A   1      40.602  33.813  38.488  1.00  0.00    -0.014 A 
ATOM     79  C   UNL A   1      41.155  35.105  38.476  1.00  0.00     0.010 A 
ATOM     80  C   UNL A   1      40.036  33.320  39.678  1.00  0.00     0.010 A 
ATOM     81  C   UNL A   1      41.169  35.878  39.640  1.00  0.00     0.020 A 
ATOM     82  C   UNL A   1      40.027  34.099  40.838  1.00  0.00     0.020 A 
ATOM     83  C   UNL A   1      40.605  35.369  40.815  1.00  0.00     0.054 A 
BRANCH  83  84
ATOM     84  S   UNL A   1      40.596  36.406  42.303  1.00  0.00     0.124 S 
ATOM     85  O   UNL A   1      39.169  36.505  42.595  1.00  0.00    -0.237 OA
ATOM     86  O   UNL A   1      41.377  35.616  43.253  1.00  0.00    -0.237 OA
ATOM     87  O   UNL A   1      41.231  37.647  41.864  1.00  0.00    -0.744 OA
ENDBRANCH  83  84
ENDBRANCH  57  78
ENDBRANCH  31  32
ENDBRANCH  24  26
ENDBRANCH  23  24
ENDBRANCH  22  23
ENDBRANCH   1  22
TORSDOF 19
ENDMDL
MODEL 2
REMARK VINA RESULT:     -10.0      1.561      2.844
REMARK SMILES C[C@@H]1CCC[C@@](Cc2ncccn2)(C(=O)OCCOCCOC(=O)c2ccc(-c3c4nc(c(-c5ccc(S(=O)(=O)[O-])cc5)c5ccc([nH]5)c(-c5ccc(S(=O)(=O)[O-])cc5)c5nc(c(-c6ccc(S(=O)(=O)[O-])cc6)c6ccc3[nH]6)C=C5)C=C4)cc2)C1
REMARK SMILES IDX 20 1 19 2 18 3 17 4 16 5 14 6 15 7 6 8 1 9 2 10 3 11 85 12
REMARK SMILES IDX 4 13 5 14 7 15 8 16 9 17 13 18 10 19 12 20 11 21 21 22 22 23
REMARK SMILES IDX 23 24 24 25 25 26 26 27 84 28 27 29 83 30 28 31 29 32 30 33
REMARK SMILES IDX 77 34 31 35 82 36 76 37 78 38 32 39 81 40 75 41 74 42 33 44
REMARK SMILES IDX 63 45 44 46 62 47 45 48 48 49 61 50 79 51 46 52 47 53 60 55
REMARK SMILES IDX 80 56 49 57 34 58 35 59 43 60 36 61 42 62 37 63 38 64 39 65
REMARK SMILES IDX 40 66 41 67 64 68 65 69 73 70 66 71 72 72 67 73 68 74 69 75
REMARK SMILES IDX 70 76 71 77 50 78 51 79 59 80 52 81 58 82 53 83 54 84 55 85
REMARK SMILES IDX 56 86 57 87
REMARK H PARENT 78 43 48 54
REMARK Flexibility Score: inf
ROOT
ATOM      1  C   UNL A   1      40.721  21.384  25.977  1.00  0.00     0.202 C 
ENDROOT
BRANCH   1   2
ATOM      2  O   UNL A   1      39.579  20.647  25.542  1.00  0.00    -0.374 OA
BRANCH   2   3
ATOM      3  C   UNL A   1      38.293  21.189  25.828  1.00  0.00     0.202 C 
BRANCH   3   4
ATOM      4  C   UNL A   1      37.215  21.077  24.745  1.00  0.00     0.261 C 
BRANCH   4   5
ATOM      5  O   UNL A   1      36.248  22.137  24.786  1.00  0.00    -0.463 OA
BRANCH   5   6
ATOM      6  C   UNL A   1      35.157  21.883  25.556  1.00  0.00     0.312 C 
ATOM      7  O   UNL A   1      35.203  21.466  26.711  1.00  0.00    -0.252 OA
BRANCH   6   8
ATOM      8  C   UNL A   1      33.818  22.177  24.856  1.00  0.00     0.075 C 
ATOM      9  C   UNL A   1      30.792  23.663  25.340  1.00  0.00     0.007 C 
ATOM     10  C   UNL A   1      32.129  24.218  24.846  1.00  0.00    -0.013 C 
ATOM     11  C   UNL A   1      32.214  24.243  23.316  1.00  0.00     0.003 C 
ATOM     12  C   UNL A   1      33.341  23.522  25.483  1.00  0.00     0.022 C 
ATOM     13  C   UNL A   1      32.621  22.903  22.711  1.00  0.00     0.001 C 
ATOM     14  C   UNL A   1      33.922  22.383  23.325  1.00  0.00     0.019 C 
BRANCH   8  15
ATOM     15  C   UNL A   1      32.892  20.995  25.238  1.00  0.00     0.096 C 
BRANCH  15  16
ATOM     16  C   UNL A   1      33.152  19.744  24.434  1.00  0.00     0.129 A 
ATOM     17  N   UNL A   1      34.222  19.000  24.778  1.00  0.00    -0.241 NA
ATOM     18  N   UNL A   1      32.257  19.404  23.489  1.00  0.00    -0.241 NA
ATOM     19  C   UNL A   1      34.385  17.843  24.108  1.00  0.00     0.115 A 
ATOM     20  C   UNL A   1      32.464  18.231  22.860  1.00  0.00     0.115 A 
ATOM     21  C   UNL A   1      33.522  17.400  23.136  1.00  0.00     0.040 A 
ENDBRANCH  15  16
ENDBRANCH   8  15
ENDBRANCH   6   8
ENDBRANCH   5   6
ENDBRANCH   4   5
ENDBRANCH   3   4
ENDBRANCH   2   3
ENDBRANCH   1   2
BRANCH   1  22
ATOM     22  C   UNL A   1      40.515  22.430  27.081  1.00  0.00     0.261 C 
BRANCH  22  23
ATOM     23  O   UNL A   1      40.297  23.762  26.574  1.00  0.00    -0.460 OA
BRANCH  23  24
ATOM     24  C   UNL A   1      41.320  24.624  26.796  1.00  0.00     0.338 C 
ATOM     25  O   UNL A   1      42.440  24.577  26.306  1.00  0.00    -0.246 OA
BRANCH  24  26
ATOM     26  C   UNL A   1      40.881  25.772  27.608  1.00  0.00     0.060 A 
ATOM     27  C   UNL A   1      41.705  26.905  27.634  1.00  0.00     0.016 A 
ATOM     28  C   UNL A   1      39.770  25.685  28.450  1.00  0.00     0.016 A 
ATOM     29  C   UNL A   1      41.449  27.935  28.538  1.00  0.00     0.010 A 
ATOM     30  C   UNL A   1      39.521  26.717  29.365  1.00  0.00     0.010 A 
ATOM     31  C   UNL A   1      40.382  27.828  29.440  1.00  0.00    -0.014 A 
BRANCH  31  32
ATOM     32  C   UNL A   1      40.264  28.807  30.550  1.00  0.00     0.031 A 
ATOM     33  C   UNL A   1      41.179  28.682  31.741  1.00  0.00     0.074 A 
ATOM     34  C   UNL A   1      39.385  29.825  30.481  1.00  0.00     0.049 A 
ATOM     35  N   UNL A   1      41.238  29.420  32.819  1.00  0.00    -0.248 NA
ATOM     36  C   UNL A   1      42.160  27.584  31.709  1.00  0.00     0.031 C 
ATOM     37  C   UNL A   1      38.480  30.088  29.362  1.00  0.00     0.029 A 
ATOM     38  N   UNL A   1      39.115  30.829  31.377  1.00  0.00    -0.354 N 
ATOM     39  C   UNL A   1      42.260  28.880  33.594  1.00  0.00     0.074 A 
ATOM     40  C   UNL A   1      42.774  27.736  32.874  1.00  0.00     0.031 C 
ATOM     41  C   UNL A   1      37.748  31.181  29.643  1.00  0.00     0.029 A 
ATOM     42  C   UNL A   1      38.112  31.676  30.970  1.00  0.00     0.049 A 
ATOM     43  H   UNL A   1      39.594  30.933  32.231  1.00  0.00     0.167 HD
ATOM     44  C   UNL A   1      42.732  29.303  34.791  1.00  0.00     0.031 A 
ATOM     45  C   UNL A   1      37.543  32.721  31.601  1.00  0.00     0.031 A 
ATOM     46  C   UNL A   1      42.215  30.432  35.515  1.00  0.00     0.049 A 
ATOM     47  C   UNL A   1      38.033  33.124  32.968  1.00  0.00     0.074 A 
ATOM     48  C   UNL A   1      42.629  30.931  36.739  1.00  0.00     0.029 A 
ATOM     49  N   UNL A   1      41.174  31.238  35.086  1.00  0.00    -0.354 N 
ATOM     50  N   UNL A   1      39.005  32.605  33.679  1.00  0.00    -0.248 NA
ATOM     51  C   UNL A   1      37.355  34.259  33.611  1.00  0.00     0.031 C 
ATOM     52  C   UNL A   1      41.807  32.014  37.069  1.00  0.00     0.029 A 
ATOM     53  C   UNL A   1      40.917  32.219  36.028  1.00  0.00     0.049 A 
ATOM     54  H   UNL A   1      40.688  31.130  34.236  1.00  0.00     0.167 HD
ATOM     55  C   UNL A   1      39.070  33.366  34.842  1.00  0.00     0.074 A 
ATOM     56  C   UNL A   1      38.050  34.388  34.733  1.00  0.00     0.031 C 
ATOM     57  C   UNL A   1      39.902  33.233  35.904  1.00  0.00     0.031 A 
BRANCH  44  58
ATOM     58  C   UNL A   1      43.860  28.522  35.409  1.00  0.00    -0.014 A 
ATOM     59  C   UNL A   1      43.605  27.425  36.250  1.00  0.00     0.010 A 
ATOM     60  C   UNL A   1      45.192  28.851  35.095  1.00  0.00     0.010 A 
ATOM     61  C   UNL A   1      44.662  26.685  36.787  1.00  0.00     0.020 A 
ATOM     62  C   UNL A   1      46.251  28.101  35.614  1.00  0.00     0.020 A 
ATOM     63  C   UNL A   1      45.979  27.029  36.467  1.00  0.00     0.054 A 
BRANCH  63  64
ATOM     64  S   UNL A   1      47.332  26.030  37.146  1.00  0.00     0.124 S 
ATOM     65  O   UNL A   1      48.443  26.978  37.129  1.00  0.00    -0.237 OA
ATOM     66  O   UNL A   1      46.832  25.671  38.471  1.00  0.00    -0.237 OA
ATOM     67  O   UNL A   1      47.448  24.918  36.206  1.00  0.00    -0.744 OA
ENDBRANCH  63  64
ENDBRANCH  44  58
BRANCH  45  68
ATOM     68  C   UNL A   1      36.411  33.450  30.965  1.00  0.00    -0.014 A 
ATOM     69  C   UNL A   1      36.485  33.868  29.625  1.00  0.00     0.010 A 
ATOM     70  C   UNL A   1      35.262  33.756  31.715  1.00  0.00     0.010 A 
ATOM     71  C   UNL A   1      35.441  34.601  29.054  1.00  0.00     0.020 A 
ATOM     72  C   UNL A   1      34.205  34.465  31.142  1.00  0.00     0.020 A 
ATOM     73  C   UNL A   1      34.308  34.898  29.819  1.00  0.00     0.054 A 
BRANCH  73  74
ATOM     74  S   UNL A   1      32.946  35.824  29.056  1.00  0.00     0.124 S 
ATOM     75  O   UNL A   1      32.367  34.825  28.163  1.00  0.00    -0.237 OA
ATOM     76  O   UNL A   1      32.129  36.196  30.208  1.00  0.00    -0.237 OA
ATOM     77  O   UNL A   1      33.625  36.938  28.398  1.00  0.00    -0.744 OA
ENDBRANCH  73  74
ENDBRANCH  45  68
BRANCH  57  78
ATOM     78  C   UNL A   1      39.771  34.235  37.020  1.00  0.00    -0.014 A 
ATOM     79  C   UNL A   1      40.254  35.547  36.881  1.00  0.00     0.010 A 
ATOM     80  C   UNL A   1      39.105  33.870  38.205  1.00  0.00     0.010 A 
ATOM     81  C   UNL A   1      40.100  36.469  37.920  1.00  0.00     0.020 A 
ATOM     82  C   UNL A   1      38.929  34.796  39.236  1.00  0.00     0.020 A 
ATOM     83  C   UNL A   1      39.440  36.087  39.092  1.00  0.00     0.054 A 
BRANCH  83  84
ATOM     84  S   UNL A   1      39.214  37.313  40.410  1.00  0.00     0.124 S 
ATOM     85  O   UNL A   1      38.756  38.481  39.663  1.00  0.00    -0.237 OA
ATOM     86  O   UNL A   1      38.212  36.684  41.268  1.00  0.00    -0.237 OA
ATOM     87  O   UNL A   1      40.544  37.433  41.003  1.00  0.00    -0.744 OA
ENDBRANCH  83  84
ENDBRANCH  57  78
ENDBRANCH  31  32
ENDBRANCH  24  26
ENDBRANCH  23  24
ENDBRANCH  22  23
ENDBRANCH   1  22
TORSDOF 19
ENDMDL
MODEL 3
REMARK VINA RESULT:     -10.0      1.837      8.408
REMARK SMILES C[C@@H]1CCC[C@@](Cc2ncccn2)(C(=O)OCCOCCOC(=O)c2ccc(-c3c4nc(c(-c5ccc(S(=O)(=O)[O-])cc5)c5ccc([nH]5)c(-c5ccc(S(=O)(=O)[O-])cc5)c5nc(c(-c6ccc(S(=O)(=O)[O-])cc6)c6ccc3[nH]6)C=C5)C=C4)cc2)C1
REMARK SMILES IDX 20 1 19 2 18 3 17 4 16 5 14 6 15 7 6 8 1 9 2 10 3 11 85 12
REMARK SMILES IDX 4 13 5 14 7 15 8 16 9 17 13 18 10 19 12 20 11 21 21 22 22 23
REMARK SMILES IDX 23 24 24 25 25 26 26 27 84 28 27 29 83 30 28 31 29 32 30 33
REMARK SMILES IDX 77 34 31 35 82 36 76 37 78 38 32 39 81 40 75 41 74 42 33 44
REMARK SMILES IDX 63 45 44 46 62 47 45 48 48 49 61 50 79 51 46 52 47 53 60 55
REMARK SMILES IDX 80 56 49 57 34 58 35 59 43 60 36 61 42 62 37 63 38 64 39 65
REMARK SMILES IDX 40 66 41 67 64 68 65 69 73 70 66 71 72 72 67 73 68 74 69 75
REMARK SMILES IDX 70 76 71 77 50 78 51 79 59 80 52 81 58 82 53 83 54 84 55 85
REMARK SMILES IDX 56 86 57 87
REMARK H PARENT 78 43 48 54
REMARK Flexibility Score: inf
ROOT
ATOM      1  C   UNL A   1      40.043  22.320  26.915  1.00  0.00     0.202 C 
ENDROOT
BRANCH   1   2
ATOM      2  O   UNL A   1      39.313  21.364  26.148  1.00  0.00    -0.374 OA
BRANCH   2   3
ATOM      3  C   UNL A   1      38.298  21.851  25.275  1.00  0.00     0.202 C 
BRANCH   3   4
ATOM      4  C   UNL A   1      37.335  22.910  25.821  1.00  0.00     0.261 C 
BRANCH   4   5
ATOM      5  O   UNL A   1      36.819  23.791  24.812  1.00  0.00    -0.463 OA
BRANCH   5   6
ATOM      6  C   UNL A   1      36.097  23.179  23.836  1.00  0.00     0.312 C 
ATOM      7  O   UNL A   1      36.537  22.881  22.728  1.00  0.00    -0.252 OA
BRANCH   6   8
ATOM      8  C   UNL A   1      34.645  22.865  24.240  1.00  0.00     0.075 C 
ATOM      9  C   UNL A   1      32.398  20.314  24.455  1.00  0.00     0.007 C 
ATOM     10  C   UNL A   1      33.443  20.835  25.444  1.00  0.00    -0.013 C 
ATOM     11  C   UNL A   1      32.844  21.824  26.450  1.00  0.00     0.003 C 
ATOM     12  C   UNL A   1      34.697  21.395  24.756  1.00  0.00     0.022 C 
ATOM     13  C   UNL A   1      32.741  23.248  25.909  1.00  0.00     0.001 C 
ATOM     14  C   UNL A   1      34.089  23.746  25.384  1.00  0.00     0.019 C 
BRANCH   8  15
ATOM     15  C   UNL A   1      33.824  22.995  22.932  1.00  0.00     0.096 C 
BRANCH  15  16
ATOM     16  C   UNL A   1      33.192  24.355  22.752  1.00  0.00     0.129 A 
ATOM     17  N   UNL A   1      33.985  25.350  22.307  1.00  0.00    -0.241 NA
ATOM     18  N   UNL A   1      31.868  24.468  22.961  1.00  0.00    -0.241 NA
ATOM     19  C   UNL A   1      33.382  26.531  22.068  1.00  0.00     0.115 A 
ATOM     20  C   UNL A   1      31.319  25.668  22.695  1.00  0.00     0.115 A 
ATOM     21  C   UNL A   1      32.037  26.746  22.237  1.00  0.00     0.040 A 
ENDBRANCH  15  16
ENDBRANCH   8  15
ENDBRANCH   6   8
ENDBRANCH   5   6
ENDBRANCH   4   5
ENDBRANCH   3   4
ENDBRANCH   2   3
ENDBRANCH   1   2
BRANCH   1  22
ATOM     22  C   UNL A   1      41.436  22.725  26.408  1.00  0.00     0.261 C 
BRANCH  22  23
ATOM     23  O   UNL A   1      42.060  23.748  27.208  1.00  0.00    -0.460 OA
BRANCH  23  24
ATOM     24  C   UNL A   1      42.114  24.969  26.619  1.00  0.00     0.338 C 
ATOM     25  O   UNL A   1      42.386  25.210  25.450  1.00  0.00    -0.246 OA
BRANCH  24  26
ATOM     26  C   UNL A   1      41.640  26.021  27.533  1.00  0.00     0.060 A 
ATOM     27  C   UNL A   1      42.426  27.175  27.663  1.00  0.00     0.016 A 
ATOM     28  C   UNL A   1      40.535  25.822  28.363  1.00  0.00     0.016 A 
ATOM     29  C   UNL A   1      42.139  28.108  28.658  1.00  0.00     0.010 A 
ATOM     30  C   UNL A   1      40.255  26.756  29.369  1.00  0.00     0.010 A 
ATOM     31  C   UNL A   1      41.079  27.883  29.546  1.00  0.00    -0.014 A 
BRANCH  31  32
ATOM     32  C   UNL A   1      40.932  28.752  30.741  1.00  0.00     0.031 A 
ATOM     33  C   UNL A   1      39.866  29.818  30.749  1.00  0.00     0.074 A 
ATOM     34  C   UNL A   1      41.707  28.568  31.827  1.00  0.00     0.049 A 
ATOM     35  N   UNL A   1      39.574  30.687  31.681  1.00  0.00    -0.248 NA
ATOM     36  C   UNL A   1      39.014  29.910  29.552  1.00  0.00     0.031 C 
ATOM     37  C   UNL A   1      42.739  27.540  31.967  1.00  0.00     0.029 A 
ATOM     38  N   UNL A   1      41.740  29.243  33.021  1.00  0.00    -0.354 N 
ATOM     39  C   UNL A   1      38.507  31.429  31.187  1.00  0.00     0.074 A 
ATOM     40  C   UNL A   1      38.221  30.925  29.861  1.00  0.00     0.031 C 
ATOM     41  C   UNL A   1      43.310  27.659  33.179  1.00  0.00     0.029 A 
ATOM     42  C   UNL A   1      42.704  28.785  33.888  1.00  0.00     0.049 A 
ATOM     43  H   UNL A   1      41.131  29.985  33.238  1.00  0.00     0.167 HD
ATOM     44  C   UNL A   1      37.821  32.433  31.784  1.00  0.00     0.031 A 
ATOM     45  C   UNL A   1      43.067  29.233  35.106  1.00  0.00     0.031 A 
ATOM     46  C   UNL A   1      38.109  32.945  33.097  1.00  0.00     0.049 A 
ATOM     47  C   UNL A   1      42.340  30.403  35.716  1.00  0.00     0.074 A 
ATOM     48  C   UNL A   1      37.470  33.965  33.781  1.00  0.00     0.029 A 
ATOM     49  N   UNL A   1      39.118  32.480  33.923  1.00  0.00    -0.354 N 
ATOM     50  N   UNL A   1      41.328  31.085  35.236  1.00  0.00    -0.248 NA
ATOM     51  C   UNL A   1      42.799  30.855  37.037  1.00  0.00     0.031 C 
ATOM     52  C   UNL A   1      38.122  34.145  35.006  1.00  0.00     0.029 A 
ATOM     53  C   UNL A   1      39.133  33.204  35.103  1.00  0.00     0.049 A 
ATOM     54  H   UNL A   1      39.734  31.744  33.704  1.00  0.00     0.167 HD
ATOM     55  C   UNL A   1      41.015  32.031  36.206  1.00  0.00     0.074 A 
ATOM     56  C   UNL A   1      41.935  31.825  37.306  1.00  0.00     0.031 C 
ATOM     57  C   UNL A   1      40.051  32.984  36.191  1.00  0.00     0.031 A 
BRANCH  44  58
ATOM     58  C   UNL A   1      36.696  33.064  31.010  1.00  0.00    -0.014 A 
ATOM     59  C   UNL A   1      35.356  32.864  31.386  1.00  0.00     0.010 A 
ATOM     60  C   UNL A   1      36.984  33.918  29.929  1.00  0.00     0.010 A 
ATOM     61  C   UNL A   1      34.323  33.486  30.681  1.00  0.00     0.020 A 
ATOM     62  C   UNL A   1      35.955  34.558  29.233  1.00  0.00     0.020 A 
ATOM     63  C   UNL A   1      34.628  34.329  29.608  1.00  0.00     0.054 A 
BRANCH  63  64
ATOM     64  S   UNL A   1      33.271  35.155  28.733  1.00  0.00     0.124 S 
ATOM     65  O   UNL A   1      33.990  36.130  27.917  1.00  0.00    -0.237 OA
ATOM     66  O   UNL A   1      32.648  34.057  27.997  1.00  0.00    -0.237 OA
ATOM     67  O   UNL A   1      32.459  35.720  29.807  1.00  0.00    -0.744 OA
ENDBRANCH  63  64
ENDBRANCH  44  58
BRANCH  45  68
ATOM     68  C   UNL A   1      44.203  28.596  35.826  1.00  0.00    -0.014 A 
ATOM     69  C   UNL A   1      45.522  29.039  35.625  1.00  0.00     0.010 A 
ATOM     70  C   UNL A   1      43.967  27.518  36.696  1.00  0.00     0.010 A 
ATOM     71  C   UNL A   1      46.588  28.397  36.263  1.00  0.00     0.020 A 
ATOM     72  C   UNL A   1      45.026  26.890  37.356  1.00  0.00     0.020 A 
ATOM     73  C   UNL A   1      46.333  27.323  37.122  1.00  0.00     0.054 A 
BRANCH  73  74
ATOM     74  S   UNL A   1      47.723  26.519  37.967  1.00  0.00     0.124 S 
ATOM     75  O   UNL A   1      47.426  25.106  37.756  1.00  0.00    -0.237 OA
ATOM     76  O   UNL A   1      48.879  27.041  37.244  1.00  0.00    -0.237 OA
ATOM     77  O   UNL A   1      47.595  26.989  39.345  1.00  0.00    -0.744 OA
ENDBRANCH  73  74
ENDBRANCH  45  68
BRANCH  57  78
ATOM     78  C   UNL A   1      39.914  33.855  37.411  1.00  0.00    -0.014 A 
ATOM     79  C   UNL A   1      40.649  35.045  37.542  1.00  0.00     0.010 A 
ATOM     80  C   UNL A   1      38.994  33.502  38.415  1.00  0.00     0.010 A 
ATOM     81  C   UNL A   1      40.488  35.853  38.671  1.00  0.00     0.020 A 
ATOM     82  C   UNL A   1      38.814  34.319  39.534  1.00  0.00     0.020 A 
ATOM     83  C   UNL A   1      39.572  35.483  39.662  1.00  0.00     0.054 A 
BRANCH  83  84
ATOM     84  S   UNL A   1      39.349  36.569  41.098  1.00  0.00     0.124 S 
ATOM     85  O   UNL A   1      38.690  37.727  40.504  1.00  0.00    -0.237 OA
ATOM     86  O   UNL A   1      38.518  35.761  41.988  1.00  0.00    -0.237 OA
ATOM     87  O   UNL A   1      40.712  36.801  41.571  1.00  0.00    -0.744 OA
ENDBRANCH  83  84
ENDBRANCH  57  78
ENDBRANCH  31  32
ENDBRANCH  24  26
ENDBRANCH  23  24
ENDBRANCH  22  23
ENDBRANCH   1  22
TORSDOF 19
ENDMDL
