MODEL 1
REMARK VINA RESULT:      -9.6      0.000      0.000
REMARK SMILES CC(C)[C@H](CO)Nc1ccc(C(F)(F)F)cc1C(=O)OCCOCCOC(=O)c1ccc(-c2c3nc(c(-c4ccc(S(=O)(=O)[O-])cc4)c4ccc([nH]4)c(-c4ccc(S(=O)(=O)[O-])cc4)c4nc(c(-c5ccc(S(=O)(=O)[O-])cc5)c5ccc2[nH]5)C=C4)C=C3)cc1
REMARK SMILES IDX 22 1 21 2 20 3 18 4 19 5 17 6 8 7 9 8 10 9 16 10 11 11 7 12
REMARK SMILES IDX 4 14 2 15 1 16 3 17 5 18 6 19 12 21 13 22 14 23 15 24 23 25
REMARK SMILES IDX 24 26 25 27 26 28 27 29 28 30 29 31 30 32 88 33 31 34 87 35
REMARK SMILES IDX 32 36 33 37 34 38 81 39 35 40 86 41 80 42 82 43 36 44 85 45
REMARK SMILES IDX 79 46 78 47 37 49 67 50 48 51 66 52 49 53 52 54 65 55 83 56
REMARK SMILES IDX 50 57 51 58 64 60 84 61 53 62 38 63 39 64 47 65 40 66 46 67
REMARK SMILES IDX 41 68 42 69 43 70 44 71 45 72 68 73 69 74 77 75 70 76 76 77
REMARK SMILES IDX 71 78 72 79 73 80 74 81 75 82 54 83 55 84 63 85 56 86 62 87
REMARK SMILES IDX 57 88 58 89 59 90 60 91 61 92
REMARK H PARENT 7 13 6 20 82 48 52 59
REMARK Flexibility Score: inf
ROOT
ATOM      1  C   UNL A   1      35.943  23.850  25.234  1.00  0.00     0.202 C 
ENDROOT
BRANCH   1   2
ATOM      2  C   UNL A   1      34.696  24.607  24.771  1.00  0.00     0.261 C 
BRANCH   2   3
ATOM      3  O   UNL A   1      34.474  25.702  25.676  1.00  0.00    -0.460 OA
BRANCH   3   4
ATOM      4  C   UNL A   1      33.194  25.993  25.983  1.00  0.00     0.340 C 
ATOM      5  O   UNL A   1      32.347  25.207  26.374  1.00  0.00    -0.246 OA
BRANCH   4   6
ATOM      6  C   UNL A   1      33.026  27.468  26.026  1.00  0.00     0.083 A 
ATOM      7  C   UNL A   1      31.964  28.229  25.488  1.00  0.00     0.049 A 
ATOM      8  C   UNL A   1      32.062  29.631  25.656  1.00  0.00     0.027 A 
ATOM      9  C   UNL A   1      33.136  30.254  26.301  1.00  0.00     0.015 A 
ATOM     10  C   UNL A   1      34.114  28.105  26.677  1.00  0.00     0.031 A 
ATOM     11  C   UNL A   1      34.184  29.496  26.813  1.00  0.00     0.057 A 
BRANCH   7  12
ATOM     12  N   UNL A   1      30.803  27.813  24.859  1.00  0.00    -0.379 N 
ATOM     13  H   UNL A   1      30.016  27.734  25.445  1.00  0.00     0.160 HD
BRANCH  12  14
ATOM     14  C   UNL A   1      30.569  27.472  23.457  1.00  0.00     0.107 C 
BRANCH  14  15
ATOM     15  C   UNL A   1      31.383  26.198  23.057  1.00  0.00     0.007 C 
ATOM     16  C   UNL A   1      30.713  24.848  23.332  1.00  0.00     0.009 C 
ATOM     17  C   UNL A   1      31.817  26.189  21.586  1.00  0.00     0.009 C 
ENDBRANCH  14  15
BRANCH  14  18
ATOM     18  C   UNL A   1      30.826  28.729  22.586  1.00  0.00     0.181 C 
BRANCH  18  19
ATOM     19  O   UNL A   1      29.701  29.030  21.764  1.00  0.00    -0.394 OA
ATOM     20  H   UNL A   1      29.936  29.733  21.137  1.00  0.00     0.210 HD
ENDBRANCH  18  19
ENDBRANCH  14  18
ENDBRANCH  12  14
ENDBRANCH   7  12
BRANCH  11  21
ATOM     21  C   UNL A   1      35.332  30.156  27.531  1.00  0.00     0.416 C 
ATOM     22  F   UNL A   1      35.402  29.805  28.846  1.00  0.00    -0.166 F 
ATOM     23  F   UNL A   1      36.539  29.826  26.995  1.00  0.00    -0.166 F 
ATOM     24  F   UNL A   1      35.272  31.516  27.515  1.00  0.00    -0.166 F 
ENDBRANCH  11  21
ENDBRANCH   4   6
ENDBRANCH   3   4
ENDBRANCH   2   3
ENDBRANCH   1   2
BRANCH   1  25
ATOM     25  O   UNL A   1      36.572  23.132  24.167  1.00  0.00    -0.374 OA
BRANCH  25  26
ATOM     26  C   UNL A   1      36.633  21.713  24.333  1.00  0.00     0.202 C 
BRANCH  26  27
ATOM     27  C   UNL A   1      37.563  21.272  25.468  1.00  0.00     0.261 C 
BRANCH  27  28
ATOM     28  O   UNL A   1      38.844  21.925  25.390  1.00  0.00    -0.460 OA
BRANCH  28  29
ATOM     29  C   UNL A   1      39.680  21.708  26.434  1.00  0.00     0.338 C 
ATOM     30  O   UNL A   1      40.155  20.640  26.783  1.00  0.00    -0.246 OA
BRANCH  29  31
ATOM     31  C   UNL A   1      40.082  23.003  27.028  1.00  0.00     0.060 A 
ATOM     32  C   UNL A   1      39.462  24.165  26.551  1.00  0.00     0.016 A 
ATOM     33  C   UNL A   1      41.043  23.091  28.042  1.00  0.00     0.016 A 
ATOM     34  C   UNL A   1      39.824  25.415  27.060  1.00  0.00     0.010 A 
ATOM     35  C   UNL A   1      41.380  24.341  28.574  1.00  0.00     0.010 A 
ATOM     36  C   UNL A   1      40.806  25.516  28.055  1.00  0.00    -0.014 A 
BRANCH  36  37
ATOM     37  C   UNL A   1      41.369  26.847  28.406  1.00  0.00     0.031 A 
ATOM     38  C   UNL A   1      42.848  27.073  28.212  1.00  0.00     0.074 A 
ATOM     39  C   UNL A   1      40.596  27.859  28.845  1.00  0.00     0.049 A 
ATOM     40  N   UNL A   1      43.554  28.158  28.405  1.00  0.00    -0.248 NA
ATOM     41  C   UNL A   1      43.633  25.921  27.739  1.00  0.00     0.031 C 
ATOM     42  C   UNL A   1      39.151  27.800  29.055  1.00  0.00     0.029 A 
ATOM     43  N   UNL A   1      40.931  29.148  29.189  1.00  0.00    -0.354 N 
ATOM     44  C   UNL A   1      44.861  27.818  28.074  1.00  0.00     0.074 A 
ATOM     45  C   UNL A   1      44.860  26.414  27.729  1.00  0.00     0.031 C 
ATOM     46  C   UNL A   1      38.721  29.001  29.485  1.00  0.00     0.029 A 
ATOM     47  C   UNL A   1      39.860  29.912  29.590  1.00  0.00     0.049 A 
ATOM     48  H   UNL A   1      41.852  29.493  29.150  1.00  0.00     0.167 HD
ATOM     49  C   UNL A   1      45.964  28.602  28.030  1.00  0.00     0.031 A 
ATOM     50  C   UNL A   1      39.802  31.200  29.988  1.00  0.00     0.031 A 
ATOM     51  C   UNL A   1      45.986  29.995  28.375  1.00  0.00     0.049 A 
ATOM     52  C   UNL A   1      41.055  32.038  30.000  1.00  0.00     0.074 A 
ATOM     53  C   UNL A   1      47.055  30.873  28.350  1.00  0.00     0.029 A 
ATOM     54  N   UNL A   1      44.886  30.716  28.813  1.00  0.00    -0.354 N 
ATOM     55  N   UNL A   1      42.274  31.708  29.645  1.00  0.00    -0.248 NA
ATOM     56  C   UNL A   1      40.918  33.433  30.449  1.00  0.00     0.031 C 
ATOM     57  C   UNL A   1      46.612  32.115  28.814  1.00  0.00     0.029 A 
ATOM     58  C   UNL A   1      45.255  32.024  29.079  1.00  0.00     0.049 A 
ATOM     59  H   UNL A   1      43.978  30.351  28.919  1.00  0.00     0.167 HD
ATOM     60  C   UNL A   1      43.037  32.864  29.789  1.00  0.00     0.074 A 
ATOM     61  C   UNL A   1      42.144  33.900  30.262  1.00  0.00     0.031 C 
ATOM     62  C   UNL A   1      44.358  33.051  29.542  1.00  0.00     0.031 A 
BRANCH  49  63
ATOM     63  C   UNL A   1      47.246  27.942  27.598  1.00  0.00    -0.014 A 
ATOM     64  C   UNL A   1      48.067  27.282  28.531  1.00  0.00     0.010 A 
ATOM     65  C   UNL A   1      47.643  27.999  26.251  1.00  0.00     0.010 A 
ATOM     66  C   UNL A   1      49.292  26.741  28.135  1.00  0.00     0.020 A 
ATOM     67  C   UNL A   1      48.855  27.434  25.845  1.00  0.00     0.020 A 
ATOM     68  C   UNL A   1      49.683  26.831  26.796  1.00  0.00     0.054 A 
BRANCH  68  69
ATOM     69  S   UNL A   1      51.285  26.138  26.309  1.00  0.00     0.124 S 
ATOM     70  O   UNL A   1      51.250  24.825  26.950  1.00  0.00    -0.237 OA
ATOM     71  O   UNL A   1      51.201  26.126  24.851  1.00  0.00    -0.237 OA
ATOM     72  O   UNL A   1      52.253  27.079  26.866  1.00  0.00    -0.744 OA
ENDBRANCH  68  69
ENDBRANCH  49  63
BRANCH  50  73
ATOM     73  C   UNL A   1      38.500  31.800  30.388  1.00  0.00    -0.014 A 
ATOM     74  C   UNL A   1      37.796  32.635  29.502  1.00  0.00     0.010 A 
ATOM     75  C   UNL A   1      37.969  31.560  31.669  1.00  0.00     0.010 A 
ATOM     76  C   UNL A   1      36.596  33.234  29.894  1.00  0.00     0.020 A 
ATOM     77  C   UNL A   1      36.757  32.139  32.055  1.00  0.00     0.020 A 
ATOM     78  C   UNL A   1      36.084  32.982  31.170  1.00  0.00     0.054 A 
BRANCH  78  79
ATOM     79  S   UNL A   1      34.502  33.737  31.641  1.00  0.00     0.124 S 
ATOM     80  O   UNL A   1      33.942  32.731  32.539  1.00  0.00    -0.237 OA
ATOM     81  O   UNL A   1      34.925  34.985  32.270  1.00  0.00    -0.237 OA
ATOM     82  O   UNL A   1      33.808  33.895  30.365  1.00  0.00    -0.744 OA
ENDBRANCH  78  79
ENDBRANCH  50  73
BRANCH  62  83
ATOM     83  C   UNL A   1      44.918  34.437  29.729  1.00  0.00    -0.014 A 
ATOM     84  C   UNL A   1      44.912  35.377  28.684  1.00  0.00     0.010 A 
ATOM     85  C   UNL A   1      45.403  34.821  30.993  1.00  0.00     0.010 A 
ATOM     86  C   UNL A   1      45.409  36.667  28.892  1.00  0.00     0.020 A 
ATOM     87  C   UNL A   1      45.876  36.117  31.213  1.00  0.00     0.020 A 
ATOM     88  C   UNL A   1      45.890  37.029  30.155  1.00  0.00     0.054 A 
BRANCH  88  89
ATOM     89  S   UNL A   1      46.486  38.722  30.415  1.00  0.00     0.124 S 
ATOM     90  O   UNL A   1      47.638  38.508  31.287  1.00  0.00    -0.237 OA
ATOM     91  O   UNL A   1      46.799  39.166  29.058  1.00  0.00    -0.237 OA
ATOM     92  O   UNL A   1      45.351  39.398  31.036  1.00  0.00    -0.744 OA
ENDBRANCH  88  89
ENDBRANCH  62  83
ENDBRANCH  36  37
ENDBRANCH  29  31
ENDBRANCH  28  29
ENDBRANCH  27  28
ENDBRANCH  26  27
ENDBRANCH  25  26
ENDBRANCH   1  25
TORSDOF 23
ENDMDL
MODEL 2
REMARK VINA RESULT:      -9.3      1.501      8.338
REMARK SMILES CC(C)[C@H](CO)Nc1ccc(C(F)(F)F)cc1C(=O)OCCOCCOC(=O)c1ccc(-c2c3nc(c(-c4ccc(S(=O)(=O)[O-])cc4)c4ccc([nH]4)c(-c4ccc(S(=O)(=O)[O-])cc4)c4nc(c(-c5ccc(S(=O)(=O)[O-])cc5)c5ccc2[nH]5)C=C4)C=C3)cc1
REMARK SMILES IDX 22 1 21 2 20 3 18 4 19 5 17 6 8 7 9 8 10 9 16 10 11 11 7 12
REMARK SMILES IDX 4 14 2 15 1 16 3 17 5 18 6 19 12 21 13 22 14 23 15 24 23 25
REMARK SMILES IDX 24 26 25 27 26 28 27 29 28 30 29 31 30 32 88 33 31 34 87 35
REMARK SMILES IDX 32 36 33 37 34 38 81 39 35 40 86 41 80 42 82 43 36 44 85 45
REMARK SMILES IDX 79 46 78 47 37 49 67 50 48 51 66 52 49 53 52 54 65 55 83 56
REMARK SMILES IDX 50 57 51 58 64 60 84 61 53 62 38 63 39 64 47 65 40 66 46 67
REMARK SMILES IDX 41 68 42 69 43 70 44 71 45 72 68 73 69 74 77 75 70 76 76 77
REMARK SMILES IDX 71 78 72 79 73 80 74 81 75 82 54 83 55 84 63 85 56 86 62 87
REMARK SMILES IDX 57 88 58 89 59 90 60 91 61 92
REMARK H PARENT 7 13 6 20 82 48 52 59
REMARK Flexibility Score: inf
ROOT
ATOM      1  C   UNL A   1      33.354  24.470  25.529  1.00  0.00     0.202 C 
ENDROOT
BRANCH   1   2
ATOM      2  C   UNL A   1      32.364  25.536  26.005  1.00  0.00     0.261 C 
BRANCH   2   3
ATOM      3  O   UNL A   1      32.156  26.468  24.931  1.00  0.00    -0.460 OA
BRANCH   3   4
ATOM      4  C   UNL A   1      33.151  27.340  24.674  1.00  0.00     0.340 C 
ATOM      5  O   UNL A   1      33.981  27.247  23.784  1.00  0.00    -0.246 OA
BRANCH   4   6
ATOM      6  C   UNL A   1      32.938  28.574  25.469  1.00  0.00     0.083 A 
ATOM      7  C   UNL A   1      31.809  29.425  25.452  1.00  0.00     0.049 A 
ATOM      8  C   UNL A   1      31.874  30.554  26.302  1.00  0.00     0.027 A 
ATOM      9  C   UNL A   1      32.977  30.843  27.114  1.00  0.00     0.015 A 
ATOM     10  C   UNL A   1      34.054  28.873  26.291  1.00  0.00     0.031 A 
ATOM     11  C   UNL A   1      34.089  30.007  27.111  1.00  0.00     0.057 A 
BRANCH   7  12
ATOM     12  N   UNL A   1      30.614  29.300  24.765  1.00  0.00    -0.379 N 
ATOM     13  H   UNL A   1      29.946  28.716  25.191  1.00  0.00     0.160 HD
BRANCH  12  14
ATOM     14  C   UNL A   1      30.194  29.905  23.501  1.00  0.00     0.107 C 
BRANCH  14  15
ATOM     15  C   UNL A   1      28.657  30.190  23.512  1.00  0.00     0.007 C 
ATOM     16  C   UNL A   1      28.210  31.533  22.925  1.00  0.00     0.009 C 
ATOM     17  C   UNL A   1      27.830  29.102  22.816  1.00  0.00     0.009 C 
ENDBRANCH  14  15
BRANCH  14  18
ATOM     18  C   UNL A   1      30.702  29.023  22.330  1.00  0.00     0.181 C 
BRANCH  18  19
ATOM     19  O   UNL A   1      32.016  29.400  21.929  1.00  0.00    -0.394 OA
ATOM     20  H   UNL A   1      31.963  30.123  21.283  1.00  0.00     0.210 HD
ENDBRANCH  18  19
ENDBRANCH  14  18
ENDBRANCH  12  14
ENDBRANCH   7  12
BRANCH  11  21
ATOM     21  C   UNL A   1      35.271  30.296  27.999  1.00  0.00     0.416 C 
ATOM     22  F   UNL A   1      34.956  31.111  29.046  1.00  0.00    -0.166 F 
ATOM     23  F   UNL A   1      35.794  29.169  28.553  1.00  0.00    -0.166 F 
ATOM     24  F   UNL A   1      36.299  30.911  27.351  1.00  0.00    -0.166 F 
ENDBRANCH  11  21
ENDBRANCH   4   6
ENDBRANCH   3   4
ENDBRANCH   2   3
ENDBRANCH   1   2
BRANCH   1  25
ATOM     25  O   UNL A   1      33.384  23.329  26.394  1.00  0.00    -0.374 OA
BRANCH  25  26
ATOM     26  C   UNL A   1      34.687  22.852  26.736  1.00  0.00     0.202 C 
BRANCH  26  27
ATOM     27  C   UNL A   1      35.731  23.094  25.642  1.00  0.00     0.261 C 
BRANCH  27  28
ATOM     28  O   UNL A   1      36.804  23.934  26.107  1.00  0.00    -0.460 OA
BRANCH  28  29
ATOM     29  C   UNL A   1      38.029  23.355  26.151  1.00  0.00     0.338 C 
ATOM     30  O   UNL A   1      38.327  22.238  25.761  1.00  0.00    -0.246 OA
BRANCH  29  31
ATOM     31  C   UNL A   1      39.031  24.344  26.609  1.00  0.00     0.060 A 
ATOM     32  C   UNL A   1      39.157  24.560  27.987  1.00  0.00     0.016 A 
ATOM     33  C   UNL A   1      39.846  25.047  25.714  1.00  0.00     0.016 A 
ATOM     34  C   UNL A   1      40.070  25.502  28.470  1.00  0.00     0.010 A 
ATOM     35  C   UNL A   1      40.783  25.966  26.203  1.00  0.00     0.010 A 
ATOM     36  C   UNL A   1      40.870  26.233  27.581  1.00  0.00    -0.014 A 
BRANCH  36  37
ATOM     37  C   UNL A   1      41.644  27.404  28.073  1.00  0.00     0.031 A 
ATOM     38  C   UNL A   1      40.885  28.579  28.638  1.00  0.00     0.074 A 
ATOM     39  C   UNL A   1      42.991  27.425  28.071  1.00  0.00     0.049 A 
ATOM     40  N   UNL A   1      41.341  29.686  29.165  1.00  0.00    -0.248 NA
ATOM     41  C   UNL A   1      39.416  28.491  28.600  1.00  0.00     0.031 C 
ATOM     42  C   UNL A   1      43.860  26.355  27.584  1.00  0.00     0.029 A 
ATOM     43  N   UNL A   1      43.865  28.394  28.504  1.00  0.00    -0.354 N 
ATOM     44  C   UNL A   1      40.216  30.422  29.523  1.00  0.00     0.074 A 
ATOM     45  C   UNL A   1      39.061  29.664  29.097  1.00  0.00     0.031 C 
ATOM     46  C   UNL A   1      45.143  26.722  27.752  1.00  0.00     0.029 A 
ATOM     47  C   UNL A   1      45.189  28.057  28.349  1.00  0.00     0.049 A 
ATOM     48  H   UNL A   1      43.570  29.250  28.890  1.00  0.00     0.167 HD
ATOM     49  C   UNL A   1      40.141  31.606  30.173  1.00  0.00     0.031 A 
ATOM     50  C   UNL A   1      46.310  28.741  28.660  1.00  0.00     0.031 A 
ATOM     51  C   UNL A   1      41.277  32.375  30.597  1.00  0.00     0.049 A 
ATOM     52  C   UNL A   1      46.205  30.093  29.319  1.00  0.00     0.074 A 
ATOM     53  C   UNL A   1      41.297  33.583  31.272  1.00  0.00     0.029 A 
ATOM     54  N   UNL A   1      42.598  32.014  30.383  1.00  0.00    -0.354 N 
ATOM     55  N   UNL A   1      45.132  30.753  29.685  1.00  0.00    -0.248 NA
ATOM     56  C   UNL A   1      47.468  30.783  29.625  1.00  0.00     0.031 C 
ATOM     57  C   UNL A   1      42.630  33.974  31.429  1.00  0.00     0.029 A 
ATOM     58  C   UNL A   1      43.441  32.983  30.898  1.00  0.00     0.049 A 
ATOM     59  H   UNL A   1      42.892  31.190  29.933  1.00  0.00     0.167 HD
ATOM     60  C   UNL A   1      45.593  31.914  30.300  1.00  0.00     0.074 A 
ATOM     61  C   UNL A   1      47.038  31.866  30.259  1.00  0.00     0.031 C 
ATOM     62  C   UNL A   1      44.880  32.924  30.858  1.00  0.00     0.031 A 
BRANCH  49  63
ATOM     63  C   UNL A   1      38.762  32.141  30.447  1.00  0.00    -0.014 A 
ATOM     64  C   UNL A   1      38.140  33.030  29.551  1.00  0.00     0.010 A 
ATOM     65  C   UNL A   1      38.086  31.765  31.622  1.00  0.00     0.010 A 
ATOM     66  C   UNL A   1      36.893  33.580  29.853  1.00  0.00     0.020 A 
ATOM     67  C   UNL A   1      36.826  32.292  31.914  1.00  0.00     0.020 A 
ATOM     68  C   UNL A   1      36.249  33.216  31.038  1.00  0.00     0.054 A 
BRANCH  68  69
ATOM     69  S   UNL A   1      34.639  33.958  31.418  1.00  0.00     0.124 S 
ATOM     70  O   UNL A   1      33.932  32.836  32.033  1.00  0.00    -0.237 OA
ATOM     71  O   UNL A   1      34.992  35.049  32.321  1.00  0.00    -0.237 OA
ATOM     72  O   UNL A   1      34.134  34.373  30.112  1.00  0.00    -0.744 OA
ENDBRANCH  68  69
ENDBRANCH  49  63
BRANCH  50  73
ATOM     73  C   UNL A   1      47.648  28.152  28.376  1.00  0.00    -0.014 A 
ATOM     74  C   UNL A   1      48.240  28.304  27.111  1.00  0.00     0.010 A 
ATOM     75  C   UNL A   1      48.324  27.413  29.365  1.00  0.00     0.010 A 
ATOM     76  C   UNL A   1      49.476  27.713  26.830  1.00  0.00     0.020 A 
ATOM     77  C   UNL A   1      49.571  26.841  29.095  1.00  0.00     0.020 A 
ATOM     78  C   UNL A   1      50.133  26.985  27.825  1.00  0.00     0.054 A 
BRANCH  78  79
ATOM     79  S   UNL A   1      51.756  26.263  27.453  1.00  0.00     0.124 S 
ATOM     80  O   UNL A   1      52.389  26.243  28.768  1.00  0.00    -0.237 OA
ATOM     81  O   UNL A   1      51.400  24.959  26.900  1.00  0.00    -0.237 OA
ATOM     82  O   UNL A   1      52.332  27.202  26.493  1.00  0.00    -0.744 OA
ENDBRANCH  78  79
ENDBRANCH  50  73
BRANCH  62  83
ATOM     83  C   UNL A   1      45.644  34.044  31.516  1.00  0.00    -0.014 A 
ATOM     84  C   UNL A   1      46.027  33.975  32.867  1.00  0.00     0.010 A 
ATOM     85  C   UNL A   1      46.037  35.155  30.748  1.00  0.00     0.010 A 
ATOM     86  C   UNL A   1      46.764  35.013  33.445  1.00  0.00     0.020 A 
ATOM     87  C   UNL A   1      46.796  36.183  31.315  1.00  0.00     0.020 A 
ATOM     88  C   UNL A   1      47.143  36.112  32.666  1.00  0.00     0.054 A 
BRANCH  88  89
ATOM     89  S   UNL A   1      48.138  37.425  33.425  1.00  0.00     0.124 S 
ATOM     90  O   UNL A   1      47.208  37.985  34.401  1.00  0.00    -0.237 OA
ATOM     91  O   UNL A   1      49.270  36.688  33.986  1.00  0.00    -0.237 OA
ATOM     92  O   UNL A   1      48.470  38.300  32.304  1.00  0.00    -0.744 OA
ENDBRANCH  88  89
ENDBRANCH  62  83
ENDBRANCH  36  37
ENDBRANCH  29  31
ENDBRANCH  28  29
ENDBRANCH  27  28
ENDBRANCH  26  27
ENDBRANCH  25  26
ENDBRANCH   1  25
TORSDOF 23
ENDMDL
MODEL 3
REMARK VINA RESULT:      -9.0      4.961     10.174
REMARK SMILES CC(C)[C@H](CO)Nc1ccc(C(F)(F)F)cc1C(=O)OCCOCCOC(=O)c1ccc(-c2c3nc(c(-c4ccc(S(=O)(=O)[O-])cc4)c4ccc([nH]4)c(-c4ccc(S(=O)(=O)[O-])cc4)c4nc(c(-c5ccc(S(=O)(=O)[O-])cc5)c5ccc2[nH]5)C=C4)C=C3)cc1
REMARK SMILES IDX 22 1 21 2 20 3 18 4 19 5 17 6 8 7 9 8 10 9 16 10 11 11 7 12
REMARK SMILES IDX 4 14 2 15 1 16 3 17 5 18 6 19 12 21 13 22 14 23 15 24 23 25
REMARK SMILES IDX 24 26 25 27 26 28 27 29 28 30 29 31 30 32 88 33 31 34 87 35
REMARK SMILES IDX 32 36 33 37 34 38 81 39 35 40 86 41 80 42 82 43 36 44 85 45
REMARK SMILES IDX 79 46 78 47 37 49 67 50 48 51 66 52 49 53 52 54 65 55 83 56
REMARK SMILES IDX 50 57 51 58 64 60 84 61 53 62 38 63 39 64 47 65 40 66 46 67
REMARK SMILES IDX 41 68 42 69 43 70 44 71 45 72 68 73 69 74 77 75 70 76 76 77
REMARK SMILES IDX 71 78 72 79 73 80 74 81 75 82 54 83 55 84 63 85 56 86 62 87
REMARK SMILES IDX 57 88 58 89 59 90 60 91 61 92
REMARK H PARENT 7 13 6 20 82 48 52 59
REMARK Flexibility Score: inf
ROOT
ATOM      1  C   UNL A   1      31.957  27.667  27.191  1.00  0.00     0.202 C 
ENDROOT
BRANCH   1   2
ATOM      2  C   UNL A   1      30.777  26.790  26.766  1.00  0.00     0.261 C 
BRANCH   2   3
ATOM      3  O   UNL A   1      31.256  25.820  25.819  1.00  0.00    -0.460 OA
BRANCH   3   4
ATOM      4  C   UNL A   1      31.651  24.628  26.309  1.00  0.00     0.340 C 
ATOM      5  O   UNL A   1      31.154  24.034  27.253  1.00  0.00    -0.246 OA
BRANCH   4   6
ATOM      6  C   UNL A   1      32.618  24.009  25.368  1.00  0.00     0.083 A 
ATOM      7  C   UNL A   1      33.553  24.667  24.538  1.00  0.00     0.049 A 
ATOM      8  C   UNL A   1      34.347  23.832  23.718  1.00  0.00     0.027 A 
ATOM      9  C   UNL A   1      34.231  22.437  23.701  1.00  0.00     0.015 A 
ATOM     10  C   UNL A   1      32.502  22.595  25.345  1.00  0.00     0.031 A 
ATOM     11  C   UNL A   1      33.296  21.800  24.511  1.00  0.00     0.057 A 
BRANCH   7  12
ATOM     12  N   UNL A   1      33.854  26.015  24.435  1.00  0.00    -0.379 N 
ATOM     13  H   UNL A   1      34.660  26.301  24.923  1.00  0.00     0.160 HD
BRANCH  12  14
ATOM     14  C   UNL A   1      33.156  27.077  23.713  1.00  0.00     0.107 C 
BRANCH  14  15
ATOM     15  C   UNL A   1      32.190  26.472  22.642  1.00  0.00     0.007 C 
ATOM     16  C   UNL A   1      30.908  27.262  22.358  1.00  0.00     0.009 C 
ATOM     17  C   UNL A   1      32.865  26.215  21.289  1.00  0.00     0.009 C 
ENDBRANCH  14  15
BRANCH  14  18
ATOM     18  C   UNL A   1      34.202  28.088  23.174  1.00  0.00     0.181 C 
BRANCH  18  19
ATOM     19  O   UNL A   1      33.683  29.415  23.166  1.00  0.00    -0.394 OA
ATOM     20  H   UNL A   1      33.641  29.752  24.075  1.00  0.00     0.210 HD
ENDBRANCH  18  19
ENDBRANCH  14  18
ENDBRANCH  12  14
ENDBRANCH   7  12
BRANCH  11  21
ATOM     21  C   UNL A   1      33.180  20.298  24.518  1.00  0.00     0.416 C 
ATOM     22  F   UNL A   1      33.524  19.739  23.323  1.00  0.00    -0.166 F 
ATOM     23  F   UNL A   1      33.988  19.718  25.445  1.00  0.00    -0.166 F 
ATOM     24  F   UNL A   1      31.920  19.853  24.782  1.00  0.00    -0.166 F 
ENDBRANCH  11  21
ENDBRANCH   4   6
ENDBRANCH   3   4
ENDBRANCH   2   3
ENDBRANCH   1   2
BRANCH   1  25
ATOM     25  O   UNL A   1      31.554  29.004  27.510  1.00  0.00    -0.374 OA
BRANCH  25  26
ATOM     26  C   UNL A   1      31.553  29.922  26.414  1.00  0.00     0.202 C 
BRANCH  26  27
ATOM     27  C   UNL A   1      32.596  31.036  26.551  1.00  0.00     0.261 C 
BRANCH  27  28
ATOM     28  O   UNL A   1      33.638  30.677  27.478  1.00  0.00    -0.460 OA
BRANCH  28  29
ATOM     29  C   UNL A   1      34.395  31.702  27.939  1.00  0.00     0.338 C 
ATOM     30  O   UNL A   1      34.035  32.853  28.129  1.00  0.00    -0.246 OA
BRANCH  29  31
ATOM     31  C   UNL A   1      35.726  31.196  28.344  1.00  0.00     0.060 A 
ATOM     32  C   UNL A   1      35.852  29.828  28.618  1.00  0.00     0.016 A 
ATOM     33  C   UNL A   1      36.842  32.035  28.447  1.00  0.00     0.016 A 
ATOM     34  C   UNL A   1      37.081  29.304  29.029  1.00  0.00     0.010 A 
ATOM     35  C   UNL A   1      38.079  31.502  28.827  1.00  0.00     0.010 A 
ATOM     36  C   UNL A   1      38.197  30.141  29.164  1.00  0.00    -0.014 A 
BRANCH  36  37
ATOM     37  C   UNL A   1      39.422  29.638  29.842  1.00  0.00     0.031 A 
ATOM     38  C   UNL A   1      39.833  30.277  31.146  1.00  0.00     0.074 A 
ATOM     39  C   UNL A   1      40.140  28.608  29.354  1.00  0.00     0.049 A 
ATOM     40  N   UNL A   1      40.831  29.979  31.937  1.00  0.00    -0.248 NA
ATOM     41  C   UNL A   1      39.008  31.402  31.615  1.00  0.00     0.031 C 
ATOM     42  C   UNL A   1      39.850  27.874  28.123  1.00  0.00     0.029 A 
ATOM     43  N   UNL A   1      41.268  27.997  29.849  1.00  0.00    -0.354 N 
ATOM     44  C   UNL A   1      40.750  30.876  32.996  1.00  0.00     0.074 A 
ATOM     45  C   UNL A   1      39.646  31.766  32.715  1.00  0.00     0.031 C 
ATOM     46  C   UNL A   1      40.772  26.907  27.963  1.00  0.00     0.029 A 
ATOM     47  C   UNL A   1      41.723  26.958  29.072  1.00  0.00     0.049 A 
ATOM     48  H   UNL A   1      41.708  28.278  30.683  1.00  0.00     0.167 HD
ATOM     49  C   UNL A   1      41.503  30.944  34.119  1.00  0.00     0.031 A 
ATOM     50  C   UNL A   1      42.780  26.136  29.240  1.00  0.00     0.031 A 
ATOM     51  C   UNL A   1      42.606  30.074  34.413  1.00  0.00     0.049 A 
ATOM     52  C   UNL A   1      43.650  26.274  30.463  1.00  0.00     0.074 A 
ATOM     53  C   UNL A   1      43.421  30.062  35.532  1.00  0.00     0.029 A 
ATOM     54  N   UNL A   1      43.056  29.062  33.579  1.00  0.00    -0.354 N 
ATOM     55  N   UNL A   1      43.533  27.104  31.473  1.00  0.00    -0.248 NA
ATOM     56  C   UNL A   1      44.787  25.347  30.578  1.00  0.00     0.031 C 
ATOM     57  C   UNL A   1      44.390  29.069  35.356  1.00  0.00     0.029 A 
ATOM     58  C   UNL A   1      44.147  28.430  34.150  1.00  0.00     0.049 A 
ATOM     59  H   UNL A   1      42.657  28.828  32.710  1.00  0.00     0.167 HD
ATOM     60  C   UNL A   1      44.554  26.770  32.359  1.00  0.00     0.074 A 
ATOM     61  C   UNL A   1      45.278  25.665  31.769  1.00  0.00     0.031 C 
ATOM     62  C   UNL A   1      44.857  27.325  33.559  1.00  0.00     0.031 A 
BRANCH  49  63
ATOM     63  C   UNL A   1      41.147  32.022  35.108  1.00  0.00    -0.014 A 
ATOM     64  C   UNL A   1      40.202  31.787  36.123  1.00  0.00     0.010 A 
ATOM     65  C   UNL A   1      41.751  33.287  35.010  1.00  0.00     0.010 A 
ATOM     66  C   UNL A   1      39.822  32.816  36.986  1.00  0.00     0.020 A 
ATOM     67  C   UNL A   1      41.395  34.312  35.891  1.00  0.00     0.020 A 
ATOM     68  C   UNL A   1      40.413  34.076  36.857  1.00  0.00     0.054 A 
BRANCH  68  69
ATOM     69  S   UNL A   1      39.891  35.402  37.977  1.00  0.00     0.124 S 
ATOM     70  O   UNL A   1      41.024  35.479  38.896  1.00  0.00    -0.237 OA
ATOM     71  O   UNL A   1      39.734  36.541  37.077  1.00  0.00    -0.237 OA
ATOM     72  O   UNL A   1      38.650  34.895  38.558  1.00  0.00    -0.744 OA
ENDBRANCH  68  69
ENDBRANCH  49  63
BRANCH  50  73
ATOM     73  C   UNL A   1      43.071  25.079  28.233  1.00  0.00    -0.014 A 
ATOM     74  C   UNL A   1      42.556  23.780  28.394  1.00  0.00     0.010 A 
ATOM     75  C   UNL A   1      43.887  25.358  27.122  1.00  0.00     0.010 A 
ATOM     76  C   UNL A   1      42.865  22.776  27.473  1.00  0.00     0.020 A 
ATOM     77  C   UNL A   1      44.179  24.362  26.187  1.00  0.00     0.020 A 
ATOM     78  C   UNL A   1      43.676  23.073  26.374  1.00  0.00     0.054 A 
BRANCH  78  79
ATOM     79  S   UNL A   1      44.030  21.764  25.168  1.00  0.00     0.124 S 
ATOM     80  O   UNL A   1      45.390  21.378  25.529  1.00  0.00    -0.237 OA
ATOM     81  O   UNL A   1      42.991  20.780  25.460  1.00  0.00    -0.237 OA
ATOM     82  O   UNL A   1      43.890  22.442  23.881  1.00  0.00    -0.744 OA
ENDBRANCH  78  79
ENDBRANCH  50  73
BRANCH  62  83
ATOM     83  C   UNL A   1      45.991  26.721  34.346  1.00  0.00    -0.014 A 
ATOM     84  C   UNL A   1      47.306  27.203  34.223  1.00  0.00     0.010 A 
ATOM     85  C   UNL A   1      45.721  25.695  35.270  1.00  0.00     0.010 A 
ATOM     86  C   UNL A   1      48.336  26.647  34.989  1.00  0.00     0.020 A 
ATOM     87  C   UNL A   1      46.742  25.154  36.056  1.00  0.00     0.020 A 
ATOM     88  C   UNL A   1      48.047  25.625  35.900  1.00  0.00     0.054 A 
BRANCH  88  89
ATOM     89  S   UNL A   1      49.390  24.951  36.916  1.00  0.00     0.124 S 
ATOM     90  O   UNL A   1      48.717  23.871  37.632  1.00  0.00    -0.237 OA
ATOM     91  O   UNL A   1      50.370  24.528  35.917  1.00  0.00    -0.237 OA
ATOM     92  O   UNL A   1      49.803  26.083  37.740  1.00  0.00    -0.744 OA
ENDBRANCH  88  89
ENDBRANCH  62  83
ENDBRANCH  36  37
ENDBRANCH  29  31
ENDBRANCH  28  29
ENDBRANCH  27  28
ENDBRANCH  26  27
ENDBRANCH  25  26
ENDBRANCH   1  25
TORSDOF 23
ENDMDL
