MODEL 1
REMARK VINA RESULT:     -11.7      0.000      0.000
REMARK SMILES O=C(OCCOCCOC(=O)c1cc(N2C(=O)[C@H]3[C@@H]4C=C[C@@H]([C@@H]5C[C@H]45)[C@@H]3C2=O)ccc1Cl)c1ccc(-c2c3nc(c(-c4ccc(S(=O)(=O)[O-])cc4)c4ccc([nH]4)c(-c4ccc(S(=O)(=O)[O-])cc4)c4nc(c(-c5ccc(S(=O)(=O)[O-])cc5)c5ccc2[nH]5)C=C4)C=C3)cc1
REMARK SMILES IDX 5 1 4 2 3 3 2 4 1 5 33 6 34 7 92 8 35 9 91 10 36 11 37 12
REMARK SMILES IDX 38 13 85 14 39 15 90 16 84 17 86 18 40 19 89 20 83 21 82 22
REMARK SMILES IDX 41 24 71 25 52 26 70 27 53 28 56 29 69 30 87 31 54 32 55 33
REMARK SMILES IDX 68 35 88 36 57 37 42 38 43 39 51 40 44 41 50 42 45 43 46 44
REMARK SMILES IDX 47 45 48 46 49 47 72 48 73 49 81 50 74 51 80 52 75 53 76 54
REMARK SMILES IDX 77 55 78 56 79 57 58 58 59 59 67 60 60 61 66 62 61 63 62 64
REMARK SMILES IDX 63 65 64 66 65 67 6 68 7 69 8 70 9 71 10 72 11 73 12 74
REMARK SMILES IDX 13 75 31 76 14 77 30 78 32 79 29 80 15 81 16 82 27 83 17 84
REMARK SMILES IDX 18 85 26 86 28 87 19 88 22 89 20 90 25 91 21 92 23 93 24 94
REMARK H PARENT 86 23 56 34
REMARK Flexibility Score: inf
ROOT
ATOM      1  C   UNL A   1      39.799  22.660  26.936  1.00  0.00     0.202 C 
ENDROOT
BRANCH   1   2
ATOM      2  C   UNL A   1      41.003  23.493  26.488  1.00  0.00     0.261 C 
BRANCH   2   3
ATOM      3  O   UNL A   1      40.564  24.727  25.897  1.00  0.00    -0.460 OA
BRANCH   3   4
ATOM      4  C   UNL A   1      41.029  25.978  26.117  1.00  0.00     0.338 C 
ATOM      5  O   UNL A   1      41.616  26.552  25.202  1.00  0.00    -0.246 OA
BRANCH   4   6
ATOM      6  C   UNL A   1      40.867  26.711  27.409  1.00  0.00     0.060 A 
ATOM      7  C   UNL A   1      39.966  26.368  28.423  1.00  0.00     0.016 A 
ATOM      8  C   UNL A   1      41.765  27.762  27.653  1.00  0.00     0.016 A 
ATOM      9  C   UNL A   1      39.918  27.062  29.622  1.00  0.00     0.010 A 
ATOM     10  C   UNL A   1      41.740  28.454  28.864  1.00  0.00     0.010 A 
ATOM     11  C   UNL A   1      40.801  28.109  29.842  1.00  0.00    -0.014 A 
BRANCH  11  12
ATOM     12  C   UNL A   1      40.632  28.922  31.053  1.00  0.00     0.031 A 
ATOM     13  C   UNL A   1      39.535  29.936  31.060  1.00  0.00     0.074 A 
ATOM     14  C   UNL A   1      41.399  28.686  32.129  1.00  0.00     0.049 A 
ATOM     15  N   UNL A   1      39.264  30.853  31.943  1.00  0.00    -0.248 NA
ATOM     16  C   UNL A   1      38.614  29.907  29.909  1.00  0.00     0.031 C 
ATOM     17  C   UNL A   1      42.393  27.615  32.239  1.00  0.00     0.029 A 
ATOM     18  N   UNL A   1      41.461  29.326  33.335  1.00  0.00    -0.354 N 
ATOM     19  C   UNL A   1      38.171  31.543  31.435  1.00  0.00     0.074 A 
ATOM     20  C   UNL A   1      37.822  30.934  30.172  1.00  0.00     0.031 C 
ATOM     21  C   UNL A   1      42.976  27.682  33.447  1.00  0.00     0.029 A 
ATOM     22  C   UNL A   1      42.446  28.839  34.160  1.00  0.00     0.049 A 
ATOM     23  H   UNL A   1      40.859  30.063  33.589  1.00  0.00     0.167 HD
ATOM     24  C   UNL A   1      37.539  32.609  31.976  1.00  0.00     0.031 A 
ATOM     25  C   UNL A   1      42.900  29.319  35.333  1.00  0.00     0.031 A 
ATOM     26  C   UNL A   1      37.949  33.201  33.219  1.00  0.00     0.049 A 
ATOM     27  C   UNL A   1      42.248  30.561  35.877  1.00  0.00     0.074 A 
ATOM     28  C   UNL A   1      37.449  34.319  33.855  1.00  0.00     0.029 A 
ATOM     29  N   UNL A   1      38.980  32.708  34.014  1.00  0.00    -0.354 N 
ATOM     30  N   UNL A   1      41.259  31.259  35.363  1.00  0.00    -0.248 NA
ATOM     31  C   UNL A   1      42.768  31.089  37.142  1.00  0.00     0.031 C 
ATOM     32  C   UNL A   1      38.213  34.533  35.008  1.00  0.00     0.029 A 
ATOM     33  C   UNL A   1      39.144  33.507  35.126  1.00  0.00     0.049 A 
ATOM     34  H   UNL A   1      39.515  31.906  33.810  1.00  0.00     0.167 HD
ATOM     35  C   UNL A   1      41.019  32.295  36.255  1.00  0.00     0.074 A 
ATOM     36  C   UNL A   1      41.968  32.130  37.342  1.00  0.00     0.031 C 
ATOM     37  C   UNL A   1      40.099  33.290  36.189  1.00  0.00     0.031 A 
BRANCH  24  38
ATOM     38  C   UNL A   1      36.442  33.237  31.158  1.00  0.00    -0.014 A 
ATOM     39  C   UNL A   1      36.707  33.898  29.945  1.00  0.00     0.010 A 
ATOM     40  C   UNL A   1      35.128  33.231  31.659  1.00  0.00     0.010 A 
ATOM     41  C   UNL A   1      35.693  34.605  29.288  1.00  0.00     0.020 A 
ATOM     42  C   UNL A   1      34.106  33.910  30.990  1.00  0.00     0.020 A 
ATOM     43  C   UNL A   1      34.403  34.617  29.824  1.00  0.00     0.054 A 
BRANCH  43  44
ATOM     44  S   UNL A   1      33.117  35.583  28.984  1.00  0.00     0.124 S 
ATOM     45  O   UNL A   1      32.432  34.555  28.203  1.00  0.00    -0.237 OA
ATOM     46  O   UNL A   1      32.352  36.138  30.097  1.00  0.00    -0.237 OA
ATOM     47  O   UNL A   1      33.872  36.559  28.202  1.00  0.00    -0.744 OA
ENDBRANCH  43  44
ENDBRANCH  24  38
BRANCH  25  48
ATOM     48  C   UNL A   1      44.047  28.652  36.009  1.00  0.00    -0.014 A 
ATOM     49  C   UNL A   1      45.365  29.093  35.806  1.00  0.00     0.010 A 
ATOM     50  C   UNL A   1      43.813  27.607  36.926  1.00  0.00     0.010 A 
ATOM     51  C   UNL A   1      46.426  28.508  36.511  1.00  0.00     0.020 A 
ATOM     52  C   UNL A   1      44.866  27.039  37.652  1.00  0.00     0.020 A 
ATOM     53  C   UNL A   1      46.167  27.491  37.436  1.00  0.00     0.054 A 
BRANCH  53  54
ATOM     54  S   UNL A   1      47.547  26.808  38.399  1.00  0.00     0.124 S 
ATOM     55  O   UNL A   1      47.553  25.412  37.974  1.00  0.00    -0.237 OA
ATOM     56  O   UNL A   1      48.678  27.613  37.944  1.00  0.00    -0.237 OA
ATOM     57  O   UNL A   1      47.145  27.039  39.784  1.00  0.00    -0.744 OA
ENDBRANCH  53  54
ENDBRANCH  25  48
BRANCH  37  58
ATOM     58  C   UNL A   1      40.031  34.243  37.348  1.00  0.00    -0.014 A 
ATOM     59  C   UNL A   1      40.732  35.459  37.334  1.00  0.00     0.010 A 
ATOM     60  C   UNL A   1      39.145  33.962  38.404  1.00  0.00     0.010 A 
ATOM     61  C   UNL A   1      40.548  36.383  38.364  1.00  0.00     0.020 A 
ATOM     62  C   UNL A   1      38.939  34.894  39.420  1.00  0.00     0.020 A 
ATOM     63  C   UNL A   1      39.645  36.098  39.395  1.00  0.00     0.054 A 
BRANCH  63  64
ATOM     64  S   UNL A   1      39.344  37.358  40.663  1.00  0.00     0.124 S 
ATOM     65  O   UNL A   1      38.291  38.161  40.049  1.00  0.00    -0.237 OA
ATOM     66  O   UNL A   1      38.936  36.559  41.817  1.00  0.00    -0.237 OA
ATOM     67  O   UNL A   1      40.637  38.026  40.802  1.00  0.00    -0.744 OA
ENDBRANCH  63  64
ENDBRANCH  37  58
ENDBRANCH  11  12
ENDBRANCH   4   6
ENDBRANCH   3   4
ENDBRANCH   2   3
ENDBRANCH   1   2
BRANCH   1  68
ATOM     68  O   UNL A   1      39.693  21.376  26.315  1.00  0.00    -0.374 OA
BRANCH  68  69
ATOM     69  C   UNL A   1      38.544  21.183  25.477  1.00  0.00     0.202 C 
BRANCH  69  70
ATOM     70  C   UNL A   1      37.508  22.265  25.777  1.00  0.00     0.261 C 
BRANCH  70  71
ATOM     71  O   UNL A   1      36.327  21.945  25.029  1.00  0.00    -0.460 OA
BRANCH  71  72
ATOM     72  C   UNL A   1      35.215  21.720  25.769  1.00  0.00     0.339 C 
ATOM     73  O   UNL A   1      35.125  21.645  26.982  1.00  0.00    -0.246 OA
BRANCH  72  74
ATOM     74  C   UNL A   1      34.045  21.847  24.882  1.00  0.00     0.080 A 
ATOM     75  C   UNL A   1      33.583  23.158  24.645  1.00  0.00     0.044 A 
ATOM     76  C   UNL A   1      33.454  20.758  24.233  1.00  0.00     0.055 A 
ATOM     77  C   UNL A   1      32.557  23.371  23.732  1.00  0.00     0.053 A 
ATOM     78  C   UNL A   1      32.418  20.982  23.326  1.00  0.00     0.023 A 
ATOM     79  Cl  UNL A   1      33.912  19.116  24.513  1.00  0.00    -0.083 Cl
ATOM     80  C   UNL A   1      31.974  22.279  23.073  1.00  0.00     0.028 A 
BRANCH  77  81
ATOM     81  N   UNL A   1      32.137  24.671  23.395  1.00  0.00    -0.250 N 
ATOM     82  C   UNL A   1      31.268  25.384  24.249  1.00  0.00     0.238 C 
ATOM     83  C   UNL A   1      33.003  25.540  22.698  1.00  0.00     0.238 C 
ATOM     84  O   UNL A   1      30.601  24.981  25.186  1.00  0.00    -0.274 OA
ATOM     85  C   UNL A   1      31.368  26.795  23.760  1.00  0.00     0.100 C 
ATOM     86  C   UNL A   1      32.872  26.805  23.474  1.00  0.00     0.100 C 
ATOM     87  O   UNL A   1      33.850  25.285  21.862  1.00  0.00    -0.274 OA
ATOM     88  C   UNL A   1      30.972  28.123  24.426  1.00  0.00     0.028 C 
ATOM     89  C   UNL A   1      33.355  28.240  23.326  1.00  0.00     0.028 C 
ATOM     90  C   UNL A   1      31.072  29.073  23.205  1.00  0.00    -0.026 C 
ATOM     91  C   UNL A   1      31.988  28.699  25.430  1.00  0.00     0.001 C 
ATOM     92  C   UNL A   1      32.288  29.081  22.610  1.00  0.00    -0.026 C 
ATOM     93  C   UNL A   1      33.388  28.784  24.803  1.00  0.00     0.001 C 
ATOM     94  C   UNL A   1      33.135  27.995  26.090  1.00  0.00     0.009 C 
ENDBRANCH  77  81
ENDBRANCH  72  74
ENDBRANCH  71  72
ENDBRANCH  70  71
ENDBRANCH  69  70
ENDBRANCH  68  69
ENDBRANCH   1  68
TORSDOF 18
ENDMDL
MODEL 2
REMARK VINA RESULT:     -11.5      6.564     12.028
REMARK SMILES O=C(OCCOCCOC(=O)c1cc(N2C(=O)[C@H]3[C@@H]4C=C[C@@H]([C@@H]5C[C@H]45)[C@@H]3C2=O)ccc1Cl)c1ccc(-c2c3nc(c(-c4ccc(S(=O)(=O)[O-])cc4)c4ccc([nH]4)c(-c4ccc(S(=O)(=O)[O-])cc4)c4nc(c(-c5ccc(S(=O)(=O)[O-])cc5)c5ccc2[nH]5)C=C4)C=C3)cc1
REMARK SMILES IDX 5 1 4 2 3 3 2 4 1 5 33 6 34 7 92 8 35 9 91 10 36 11 37 12
REMARK SMILES IDX 38 13 85 14 39 15 90 16 84 17 86 18 40 19 89 20 83 21 82 22
REMARK SMILES IDX 41 24 71 25 52 26 70 27 53 28 56 29 69 30 87 31 54 32 55 33
REMARK SMILES IDX 68 35 88 36 57 37 42 38 43 39 51 40 44 41 50 42 45 43 46 44
REMARK SMILES IDX 47 45 48 46 49 47 72 48 73 49 81 50 74 51 80 52 75 53 76 54
REMARK SMILES IDX 77 55 78 56 79 57 58 58 59 59 67 60 60 61 66 62 61 63 62 64
REMARK SMILES IDX 63 65 64 66 65 67 6 68 7 69 8 70 9 71 10 72 11 73 12 74
REMARK SMILES IDX 13 75 31 76 14 77 30 78 32 79 29 80 15 81 16 82 27 83 17 84
REMARK SMILES IDX 18 85 26 86 28 87 19 88 22 89 20 90 25 91 21 92 23 93 24 94
REMARK H PARENT 86 23 56 34
REMARK Flexibility Score: inf
ROOT
ATOM      1  C   UNL A   1      33.761  31.049  27.579  1.00  0.00     0.202 C 
ENDROOT
BRANCH   1   2
ATOM      2  C   UNL A   1      35.088  30.325  27.824  1.00  0.00     0.261 C 
BRANCH   2   3
ATOM      3  O   UNL A   1      35.767  30.897  28.954  1.00  0.00    -0.460 OA
BRANCH   3   4
ATOM      4  C   UNL A   1      36.631  30.301  29.808  1.00  0.00     0.338 C 
ATOM      5  O   UNL A   1      36.245  30.050  30.948  1.00  0.00    -0.246 OA
BRANCH   4   6
ATOM      6  C   UNL A   1      38.029  29.921  29.445  1.00  0.00     0.060 A 
ATOM      7  C   UNL A   1      39.040  29.597  30.356  1.00  0.00     0.016 A 
ATOM      8  C   UNL A   1      38.308  29.784  28.075  1.00  0.00     0.016 A 
ATOM      9  C   UNL A   1      40.298  29.194  29.937  1.00  0.00     0.010 A 
ATOM     10  C   UNL A   1      39.564  29.359  27.642  1.00  0.00     0.010 A 
ATOM     11  C   UNL A   1      40.564  29.079  28.580  1.00  0.00    -0.014 A 
BRANCH  11  12
ATOM     12  C   UNL A   1      41.942  28.796  28.160  1.00  0.00     0.031 A 
ATOM     13  C   UNL A   1      42.263  27.402  27.732  1.00  0.00     0.074 A 
ATOM     14  C   UNL A   1      42.840  29.792  28.099  1.00  0.00     0.049 A 
ATOM     15  N   UNL A   1      43.417  26.872  27.444  1.00  0.00    -0.248 NA
ATOM     16  C   UNL A   1      41.120  26.479  27.608  1.00  0.00     0.031 C 
ATOM     17  C   UNL A   1      42.555  31.204  28.368  1.00  0.00     0.029 A 
ATOM     18  N   UNL A   1      44.171  29.772  27.788  1.00  0.00    -0.354 N 
ATOM     19  C   UNL A   1      43.149  25.541  27.150  1.00  0.00     0.074 A 
ATOM     20  C   UNL A   1      41.723  25.346  27.285  1.00  0.00     0.031 C 
ATOM     21  C   UNL A   1      43.685  31.914  28.220  1.00  0.00     0.029 A 
ATOM     22  C   UNL A   1      44.779  30.997  27.919  1.00  0.00     0.049 A 
ATOM     23  H   UNL A   1      44.647  28.960  27.497  1.00  0.00     0.167 HD
ATOM     24  C   UNL A   1      44.031  24.570  26.823  1.00  0.00     0.031 A 
ATOM     25  C   UNL A   1      46.085  31.319  27.858  1.00  0.00     0.031 A 
ATOM     26  C   UNL A   1      45.445  24.808  26.738  1.00  0.00     0.049 A 
ATOM     27  C   UNL A   1      47.064  30.210  27.584  1.00  0.00     0.074 A 
ATOM     28  C   UNL A   1      46.463  23.911  26.483  1.00  0.00     0.029 A 
ATOM     29  N   UNL A   1      46.037  26.055  26.917  1.00  0.00    -0.354 N 
ATOM     30  N   UNL A   1      46.821  28.934  27.376  1.00  0.00    -0.248 NA
ATOM     31  C   UNL A   1      48.486  30.567  27.546  1.00  0.00     0.031 C 
ATOM     32  C   UNL A   1      47.675  24.607  26.561  1.00  0.00     0.029 A 
ATOM     33  C   UNL A   1      47.407  25.951  26.795  1.00  0.00     0.049 A 
ATOM     34  H   UNL A   1      45.548  26.889  27.104  1.00  0.00     0.167 HD
ATOM     35  C   UNL A   1      48.055  28.340  27.155  1.00  0.00     0.074 A 
ATOM     36  C   UNL A   1      49.045  29.398  27.255  1.00  0.00     0.031 C 
ATOM     37  C   UNL A   1      48.349  27.043  26.890  1.00  0.00     0.031 A 
BRANCH  24  38
ATOM     38  C   UNL A   1      43.481  23.178  26.659  1.00  0.00    -0.014 A 
ATOM     39  C   UNL A   1      42.957  22.455  27.747  1.00  0.00     0.010 A 
ATOM     40  C   UNL A   1      43.566  22.553  25.403  1.00  0.00     0.010 A 
ATOM     41  C   UNL A   1      42.598  21.111  27.596  1.00  0.00     0.020 A 
ATOM     42  C   UNL A   1      43.180  21.220  25.241  1.00  0.00     0.020 A 
ATOM     43  C   UNL A   1      42.727  20.499  26.346  1.00  0.00     0.054 A 
BRANCH  43  44
ATOM     44  S   UNL A   1      42.306  18.741  26.187  1.00  0.00     0.124 S 
ATOM     45  O   UNL A   1      42.552  18.250  27.541  1.00  0.00    -0.237 OA
ATOM     46  O   UNL A   1      40.904  18.781  25.780  1.00  0.00    -0.237 OA
ATOM     47  O   UNL A   1      43.235  18.253  25.170  1.00  0.00    -0.744 OA
ENDBRANCH  43  44
ENDBRANCH  24  38
BRANCH  25  48
ATOM     48  C   UNL A   1      46.512  32.721  28.115  1.00  0.00    -0.014 A 
ATOM     49  C   UNL A   1      46.853  33.150  29.409  1.00  0.00     0.010 A 
ATOM     50  C   UNL A   1      46.650  33.624  27.042  1.00  0.00     0.010 A 
ATOM     51  C   UNL A   1      47.330  34.450  29.623  1.00  0.00     0.020 A 
ATOM     52  C   UNL A   1      47.152  34.914  27.247  1.00  0.00     0.020 A 
ATOM     53  C   UNL A   1      47.485  35.320  28.539  1.00  0.00     0.054 A 
BRANCH  53  54
ATOM     54  S   UNL A   1      48.185  36.970  28.830  1.00  0.00     0.124 S 
ATOM     55  O   UNL A   1      48.919  37.211  27.591  1.00  0.00    -0.237 OA
ATOM     56  O   UNL A   1      46.992  37.789  29.028  1.00  0.00    -0.237 OA
ATOM     57  O   UNL A   1      49.011  36.787  30.021  1.00  0.00    -0.744 OA
ENDBRANCH  53  54
ENDBRANCH  25  48
BRANCH  37  58
ATOM     58  C   UNL A   1      49.789  26.702  26.630  1.00  0.00    -0.014 A 
ATOM     59  C   UNL A   1      50.656  26.354  27.677  1.00  0.00     0.010 A 
ATOM     60  C   UNL A   1      50.233  26.608  25.298  1.00  0.00     0.010 A 
ATOM     61  C   UNL A   1      51.951  25.915  27.395  1.00  0.00     0.020 A 
ATOM     62  C   UNL A   1      51.516  26.146  25.012  1.00  0.00     0.020 A 
ATOM     63  C   UNL A   1      52.369  25.805  26.063  1.00  0.00     0.054 A 
BRANCH  63  64
ATOM     64  S   UNL A   1      54.017  25.133  25.719  1.00  0.00     0.124 S 
ATOM     65  O   UNL A   1      54.725  25.416  26.963  1.00  0.00    -0.237 OA
ATOM     66  O   UNL A   1      53.739  23.722  25.459  1.00  0.00    -0.237 OA
ATOM     67  O   UNL A   1      54.467  25.896  24.556  1.00  0.00    -0.744 OA
ENDBRANCH  63  64
ENDBRANCH  37  58
ENDBRANCH  11  12
ENDBRANCH   4   6
ENDBRANCH   3   4
ENDBRANCH   2   3
ENDBRANCH   1   2
BRANCH   1  68
ATOM     68  O   UNL A   1      32.669  30.196  27.226  1.00  0.00    -0.374 OA
BRANCH  68  69
ATOM     69  C   UNL A   1      31.796  30.694  26.202  1.00  0.00     0.202 C 
BRANCH  69  70
ATOM     70  C   UNL A   1      31.794  29.726  25.020  1.00  0.00     0.261 C 
BRANCH  70  71
ATOM     71  O   UNL A   1      30.586  29.955  24.281  1.00  0.00    -0.460 OA
BRANCH  71  72
ATOM     72  C   UNL A   1      30.506  29.320  23.088  1.00  0.00     0.339 C 
ATOM     73  O   UNL A   1      30.554  29.810  21.973  1.00  0.00    -0.246 OA
BRANCH  72  74
ATOM     74  C   UNL A   1      30.625  27.872  23.335  1.00  0.00     0.080 A 
ATOM     75  C   UNL A   1      31.934  27.351  23.370  1.00  0.00     0.044 A 
ATOM     76  C   UNL A   1      29.526  27.048  23.605  1.00  0.00     0.055 A 
ATOM     77  C   UNL A   1      32.135  26.018  23.709  1.00  0.00     0.053 A 
ATOM     78  C   UNL A   1      29.738  25.710  23.935  1.00  0.00     0.023 A 
ATOM     79  Cl  UNL A   1      27.886  27.586  23.521  1.00  0.00    -0.083 Cl
ATOM     80  C   UNL A   1      31.034  25.197  23.991  1.00  0.00     0.028 A 
BRANCH  77  81
ATOM     81  N   UNL A   1      33.432  25.488  23.851  1.00  0.00    -0.250 N 
ATOM     82  C   UNL A   1      34.025  25.386  25.127  1.00  0.00     0.238 C 
ATOM     83  C   UNL A   1      33.878  24.462  22.990  1.00  0.00     0.238 C 
ATOM     84  O   UNL A   1      33.688  25.898  26.181  1.00  0.00    -0.274 OA
ATOM     85  C   UNL A   1      35.181  24.461  24.908  1.00  0.00     0.100 C 
ATOM     86  C   UNL A   1      34.488  23.494  23.945  1.00  0.00     0.100 C 
ATOM     87  O   UNL A   1      33.609  24.259  21.822  1.00  0.00    -0.274 OA
ATOM     88  C   UNL A   1      36.031  23.656  25.906  1.00  0.00     0.028 C 
ATOM     89  C   UNL A   1      35.296  22.209  23.841  1.00  0.00     0.028 C 
ATOM     90  C   UNL A   1      37.193  23.224  24.976  1.00  0.00    -0.026 C 
ATOM     91  C   UNL A   1      35.422  22.325  26.386  1.00  0.00     0.001 C 
ATOM     92  C   UNL A   1      36.797  22.529  23.884  1.00  0.00    -0.026 C 
ATOM     93  C   UNL A   1      34.993  21.460  25.192  1.00  0.00     0.001 C 
ATOM     94  C   UNL A   1      33.997  21.871  26.280  1.00  0.00     0.009 C 
ENDBRANCH  77  81
ENDBRANCH  72  74
ENDBRANCH  71  72
ENDBRANCH  70  71
ENDBRANCH  69  70
ENDBRANCH  68  69
ENDBRANCH   1  68
TORSDOF 18
ENDMDL
MODEL 3
REMARK VINA RESULT:     -11.3      6.566     11.576
REMARK SMILES O=C(OCCOCCOC(=O)c1cc(N2C(=O)[C@H]3[C@@H]4C=C[C@@H]([C@@H]5C[C@H]45)[C@@H]3C2=O)ccc1Cl)c1ccc(-c2c3nc(c(-c4ccc(S(=O)(=O)[O-])cc4)c4ccc([nH]4)c(-c4ccc(S(=O)(=O)[O-])cc4)c4nc(c(-c5ccc(S(=O)(=O)[O-])cc5)c5ccc2[nH]5)C=C4)C=C3)cc1
REMARK SMILES IDX 5 1 4 2 3 3 2 4 1 5 33 6 34 7 92 8 35 9 91 10 36 11 37 12
REMARK SMILES IDX 38 13 85 14 39 15 90 16 84 17 86 18 40 19 89 20 83 21 82 22
REMARK SMILES IDX 41 24 71 25 52 26 70 27 53 28 56 29 69 30 87 31 54 32 55 33
REMARK SMILES IDX 68 35 88 36 57 37 42 38 43 39 51 40 44 41 50 42 45 43 46 44
REMARK SMILES IDX 47 45 48 46 49 47 72 48 73 49 81 50 74 51 80 52 75 53 76 54
REMARK SMILES IDX 77 55 78 56 79 57 58 58 59 59 67 60 60 61 66 62 61 63 62 64
REMARK SMILES IDX 63 65 64 66 65 67 6 68 7 69 8 70 9 71 10 72 11 73 12 74
REMARK SMILES IDX 13 75 31 76 14 77 30 78 32 79 29 80 15 81 16 82 27 83 17 84
REMARK SMILES IDX 18 85 26 86 28 87 19 88 22 89 20 90 25 91 21 92 23 93 24 94
REMARK H PARENT 86 23 56 34
REMARK Flexibility Score: inf
ROOT
ATOM      1  C   UNL A   1      34.412  29.280  27.391  1.00  0.00     0.202 C 
ENDROOT
BRANCH   1   2
ATOM      2  C   UNL A   1      35.141  30.622  27.510  1.00  0.00     0.261 C 
BRANCH   2   3
ATOM      3  O   UNL A   1      35.535  30.857  28.872  1.00  0.00    -0.460 OA
BRANCH   3   4
ATOM      4  C   UNL A   1      36.344  30.108  29.656  1.00  0.00     0.338 C 
ATOM      5  O   UNL A   1      35.906  29.706  30.732  1.00  0.00    -0.246 OA
BRANCH   4   6
ATOM      6  C   UNL A   1      37.742  29.732  29.287  1.00  0.00     0.060 A 
ATOM      7  C   UNL A   1      38.247  29.680  27.984  1.00  0.00     0.016 A 
ATOM      8  C   UNL A   1      38.635  29.516  30.349  1.00  0.00     0.016 A 
ATOM      9  C   UNL A   1      39.576  29.381  27.728  1.00  0.00     0.010 A 
ATOM     10  C   UNL A   1      39.979  29.235  30.104  1.00  0.00     0.010 A 
ATOM     11  C   UNL A   1      40.444  29.154  28.786  1.00  0.00    -0.014 A 
BRANCH  11  12
ATOM     12  C   UNL A   1      41.806  28.695  28.487  1.00  0.00     0.031 A 
ATOM     13  C   UNL A   1      42.906  29.702  28.555  1.00  0.00     0.074 A 
ATOM     14  C   UNL A   1      42.034  27.395  28.241  1.00  0.00     0.049 A 
ATOM     15  N   UNL A   1      44.157  29.581  28.215  1.00  0.00    -0.248 NA
ATOM     16  C   UNL A   1      42.543  31.029  29.086  1.00  0.00     0.031 C 
ATOM     17  C   UNL A   1      41.025  26.334  28.299  1.00  0.00     0.029 A 
ATOM     18  N   UNL A   1      43.186  26.744  27.898  1.00  0.00    -0.354 N 
ATOM     19  C   UNL A   1      44.724  30.829  28.445  1.00  0.00     0.074 A 
ATOM     20  C   UNL A   1      43.684  31.689  28.961  1.00  0.00     0.031 C 
ATOM     21  C   UNL A   1      41.603  25.163  27.989  1.00  0.00     0.029 A 
ATOM     22  C   UNL A   1      43.000  25.407  27.643  1.00  0.00     0.049 A 
ATOM     23  H   UNL A   1      44.062  27.188  27.841  1.00  0.00     0.167 HD
ATOM     24  C   UNL A   1      45.998  31.216  28.213  1.00  0.00     0.031 A 
ATOM     25  C   UNL A   1      43.855  24.502  27.132  1.00  0.00     0.031 A 
ATOM     26  C   UNL A   1      46.986  30.330  27.663  1.00  0.00     0.049 A 
ATOM     27  C   UNL A   1      45.244  24.971  26.792  1.00  0.00     0.074 A 
ATOM     28  C   UNL A   1      48.295  30.598  27.314  1.00  0.00     0.029 A 
ATOM     29  N   UNL A   1      46.756  28.988  27.375  1.00  0.00    -0.354 N 
ATOM     30  N   UNL A   1      45.763  26.170  26.941  1.00  0.00    -0.248 NA
ATOM     31  C   UNL A   1      46.160  23.984  26.212  1.00  0.00     0.031 C 
ATOM     32  C   UNL A   1      48.839  29.430  26.766  1.00  0.00     0.029 A 
ATOM     33  C   UNL A   1      47.891  28.417  26.838  1.00  0.00     0.049 A 
ATOM     34  H   UNL A   1      45.906  28.516  27.532  1.00  0.00     0.167 HD
ATOM     35  C   UNL A   1      47.075  26.076  26.497  1.00  0.00     0.074 A 
ATOM     36  C   UNL A   1      47.269  24.700  26.075  1.00  0.00     0.031 C 
ATOM     37  C   UNL A   1      48.035  27.033  26.446  1.00  0.00     0.031 A 
BRANCH  24  38
ATOM     38  C   UNL A   1      46.323  32.666  28.451  1.00  0.00    -0.014 A 
ATOM     39  C   UNL A   1      46.041  33.656  27.491  1.00  0.00     0.010 A 
ATOM     40  C   UNL A   1      46.998  33.032  29.629  1.00  0.00     0.010 A 
ATOM     41  C   UNL A   1      46.494  34.967  27.673  1.00  0.00     0.020 A 
ATOM     42  C   UNL A   1      47.425  34.347  29.829  1.00  0.00     0.020 A 
ATOM     43  C   UNL A   1      47.196  35.300  28.835  1.00  0.00     0.054 A 
BRANCH  43  44
ATOM     44  S   UNL A   1      47.820  36.993  29.024  1.00  0.00     0.124 S 
ATOM     45  O   UNL A   1      47.045  37.713  28.016  1.00  0.00    -0.237 OA
ATOM     46  O   UNL A   1      47.486  37.305  30.412  1.00  0.00    -0.237 OA
ATOM     47  O   UNL A   1      49.248  36.870  28.742  1.00  0.00    -0.744 OA
ENDBRANCH  43  44
ENDBRANCH  24  38
BRANCH  25  48
ATOM     48  C   UNL A   1      43.390  23.112  26.869  1.00  0.00    -0.014 A 
ATOM     49  C   UNL A   1      43.301  22.612  25.559  1.00  0.00     0.010 A 
ATOM     50  C   UNL A   1      43.101  22.251  27.947  1.00  0.00     0.010 A 
ATOM     51  C   UNL A   1      42.939  21.277  25.333  1.00  0.00     0.020 A 
ATOM     52  C   UNL A   1      42.766  20.911  27.726  1.00  0.00     0.020 A 
ATOM     53  C   UNL A   1      42.683  20.433  26.418  1.00  0.00     0.054 A 
BRANCH  53  54
ATOM     54  S   UNL A   1      42.300  18.687  26.102  1.00  0.00     0.124 S 
ATOM     55  O   UNL A   1      40.899  18.751  25.698  1.00  0.00    -0.237 OA
ATOM     56  O   UNL A   1      43.249  18.342  25.046  1.00  0.00    -0.237 OA
ATOM     57  O   UNL A   1      42.552  18.043  27.389  1.00  0.00    -0.744 OA
ENDBRANCH  53  54
ENDBRANCH  25  48
BRANCH  37  58
ATOM     58  C   UNL A   1      49.398  26.617  25.971  1.00  0.00    -0.014 A 
ATOM     59  C   UNL A   1      49.815  26.856  24.652  1.00  0.00     0.010 A 
ATOM     60  C   UNL A   1      50.311  26.095  26.906  1.00  0.00     0.010 A 
ATOM     61  C   UNL A   1      51.130  26.578  24.274  1.00  0.00     0.020 A 
ATOM     62  C   UNL A   1      51.631  25.842  26.538  1.00  0.00     0.020 A 
ATOM     63  C   UNL A   1      52.032  26.082  25.223  1.00  0.00     0.054 A 
BRANCH  63  64
ATOM     64  S   UNL A   1      53.759  25.830  24.735  1.00  0.00     0.124 S 
ATOM     65  O   UNL A   1      53.906  24.385  24.875  1.00  0.00    -0.237 OA
ATOM     66  O   UNL A   1      53.781  26.336  23.364  1.00  0.00    -0.237 OA
ATOM     67  O   UNL A   1      54.513  26.630  25.699  1.00  0.00    -0.744 OA
ENDBRANCH  63  64
ENDBRANCH  37  58
ENDBRANCH  11  12
ENDBRANCH   4   6
ENDBRANCH   3   4
ENDBRANCH   2   3
ENDBRANCH   1   2
BRANCH   1  68
ATOM     68  O   UNL A   1      33.727  29.077  26.152  1.00  0.00    -0.374 OA
BRANCH  68  69
ATOM     69  C   UNL A   1      32.583  29.915  25.929  1.00  0.00     0.202 C 
BRANCH  69  70
ATOM     70  C   UNL A   1      31.435  29.072  25.377  1.00  0.00     0.261 C 
BRANCH  70  71
ATOM     71  O   UNL A   1      30.778  29.851  24.369  1.00  0.00    -0.460 OA
BRANCH  71  72
ATOM     72  C   UNL A   1      30.598  29.229  23.180  1.00  0.00     0.339 C 
ATOM     73  O   UNL A   1      30.576  29.729  22.068  1.00  0.00    -0.246 OA
BRANCH  72  74
ATOM     74  C   UNL A   1      30.704  27.777  23.405  1.00  0.00     0.080 A 
ATOM     75  C   UNL A   1      32.008  27.243  23.428  1.00  0.00     0.044 A 
ATOM     76  C   UNL A   1      29.597  26.960  23.666  1.00  0.00     0.055 A 
ATOM     77  C   UNL A   1      32.197  25.903  23.748  1.00  0.00     0.053 A 
ATOM     78  C   UNL A   1      29.798  25.615  23.977  1.00  0.00     0.023 A 
ATOM     79  Cl  UNL A   1      27.963  27.515  23.596  1.00  0.00    -0.083 Cl
ATOM     80  C   UNL A   1      31.089  25.089  24.021  1.00  0.00     0.028 A 
BRANCH  77  81
ATOM     81  N   UNL A   1      33.489  25.359  23.878  1.00  0.00    -0.250 N 
ATOM     82  C   UNL A   1      34.108  25.284  25.144  1.00  0.00     0.238 C 
ATOM     83  C   UNL A   1      33.903  24.303  23.037  1.00  0.00     0.238 C 
ATOM     84  O   UNL A   1      33.799  25.829  26.189  1.00  0.00    -0.274 OA
ATOM     85  C   UNL A   1      35.246  24.336  24.927  1.00  0.00     0.100 C 
ATOM     86  C   UNL A   1      34.520  23.354  24.005  1.00  0.00     0.100 C 
ATOM     87  O   UNL A   1      33.607  24.072  21.880  1.00  0.00    -0.274 OA
ATOM     88  C   UNL A   1      36.105  23.548  25.929  1.00  0.00     0.028 C 
ATOM     89  C   UNL A   1      35.308  22.055  23.920  1.00  0.00     0.028 C 
ATOM     90  C   UNL A   1      37.242  23.073  24.988  1.00  0.00    -0.026 C 
ATOM     91  C   UNL A   1      35.489  22.239  26.458  1.00  0.00     0.001 C 
ATOM     92  C   UNL A   1      36.813  22.354  23.924  1.00  0.00    -0.026 C 
ATOM     93  C   UNL A   1      35.022  21.347  25.298  1.00  0.00     0.001 C 
ATOM     94  C   UNL A   1      34.055  21.802  26.394  1.00  0.00     0.009 C 
ENDBRANCH  77  81
ENDBRANCH  72  74
ENDBRANCH  71  72
ENDBRANCH  70  71
ENDBRANCH  69  70
ENDBRANCH  68  69
ENDBRANCH   1  68
TORSDOF 18
ENDMDL
