MODEL 1
REMARK VINA RESULT:     -11.3      0.000      0.000
REMARK SMILES O=C(Cn1cnc(-c2ccccc2)c1-c1ccccc1)OCCOCCOC(=O)c1ccc(-c2c3nc(c(-c4ccc(S(=O)(=O)[O-])cc4)c4ccc([nH]4)c(-c4ccc(S(=O)(=O)[O-])cc4)c4nc(c(-c5ccc(S(=O)(=O)[O-])cc5)c5ccc2[nH]5)C=C4)C=C3)cc1
REMARK SMILES IDX 25 1 24 2 23 3 22 4 21 5 2 6 1 7 3 8 4 9 5 10 14 11 6 12
REMARK SMILES IDX 7 13 15 14 16 15 20 16 17 17 19 18 18 19 8 20 9 21 13 22
REMARK SMILES IDX 10 23 12 24 11 25 26 26 27 27 28 28 29 29 30 30 31 31 89 32
REMARK SMILES IDX 32 33 88 34 33 35 34 36 35 37 82 38 36 39 87 40 81 41 83 42
REMARK SMILES IDX 37 43 86 44 80 45 79 46 38 48 68 49 49 50 67 51 50 52 53 53
REMARK SMILES IDX 66 54 84 55 51 56 52 57 65 59 85 60 54 61 39 62 40 63 48 64
REMARK SMILES IDX 41 65 47 66 42 67 43 68 44 69 45 70 46 71 69 72 70 73 78 74
REMARK SMILES IDX 71 75 77 76 72 77 73 78 74 79 75 80 76 81 55 82 56 83 64 84
REMARK SMILES IDX 57 85 63 86 58 87 59 88 60 89 61 90 62 91
REMARK H PARENT 83 47 53 58
REMARK Flexibility Score: inf
ROOT
ATOM      1  C   UNL A   1      33.015  29.881  26.288  1.00  0.00     0.202 C 
ENDROOT
BRANCH   1   2
ATOM      2  O   UNL A   1      31.765  30.063  25.603  1.00  0.00    -0.374 OA
BRANCH   2   3
ATOM      3  C   UNL A   1      31.217  29.035  24.775  1.00  0.00     0.202 C 
BRANCH   3   4
ATOM      4  C   UNL A   1      31.281  27.574  25.218  1.00  0.00     0.261 C 
BRANCH   4   5
ATOM      5  O   UNL A   1      32.551  26.946  25.042  1.00  0.00    -0.462 OA
BRANCH   5   6
ATOM      6  C   UNL A   1      32.698  25.634  24.748  1.00  0.00     0.326 C 
ATOM      7  O   UNL A   1      32.542  25.270  23.584  1.00  0.00    -0.250 OA
BRANCH   6   8
ATOM      8  C   UNL A   1      32.903  24.628  25.858  1.00  0.00     0.246 C 
BRANCH   8   9
ATOM      9  N   UNL A   1      32.392  23.311  25.589  1.00  0.00    -0.319 N 
ATOM     10  C   UNL A   1      31.077  23.001  25.367  1.00  0.00     0.201 A 
ATOM     11  C   UNL A   1      33.144  22.225  25.231  1.00  0.00     0.076 A 
ATOM     12  N   UNL A   1      30.919  21.715  25.186  1.00  0.00    -0.236 NA
ATOM     13  C   UNL A   1      32.198  21.220  25.116  1.00  0.00     0.096 A 
BRANCH  11  14
ATOM     14  C   UNL A   1      34.552  22.310  24.855  1.00  0.00     0.000 A 
ATOM     15  C   UNL A   1      34.876  22.792  23.581  1.00  0.00     0.010 A 
ATOM     16  C   UNL A   1      35.575  22.055  25.772  1.00  0.00     0.010 A 
ATOM     17  C   UNL A   1      36.205  23.036  23.236  1.00  0.00     0.001 A 
ATOM     18  C   UNL A   1      36.902  22.324  25.436  1.00  0.00     0.001 A 
ATOM     19  C   UNL A   1      37.217  22.811  24.169  1.00  0.00     0.000 A 
ENDBRANCH  11  14
BRANCH  13  20
ATOM     20  C   UNL A   1      32.496  19.848  24.813  1.00  0.00     0.002 A 
ATOM     21  C   UNL A   1      32.798  18.960  25.846  1.00  0.00     0.010 A 
ATOM     22  C   UNL A   1      32.440  19.400  23.489  1.00  0.00     0.010 A 
ATOM     23  C   UNL A   1      32.990  17.613  25.558  1.00  0.00     0.001 A 
ATOM     24  C   UNL A   1      32.632  18.055  23.204  1.00  0.00     0.001 A 
ATOM     25  C   UNL A   1      32.897  17.161  24.240  1.00  0.00     0.000 A 
ENDBRANCH  13  20
ENDBRANCH   8   9
ENDBRANCH   6   8
ENDBRANCH   5   6
ENDBRANCH   4   5
ENDBRANCH   3   4
ENDBRANCH   2   3
ENDBRANCH   1   2
BRANCH   1  26
ATOM     26  C   UNL A   1      33.555  31.007  27.133  1.00  0.00     0.261 C 
BRANCH  26  27
ATOM     27  O   UNL A   1      34.925  30.775  27.335  1.00  0.00    -0.460 OA
BRANCH  27  28
ATOM     28  C   UNL A   1      35.578  31.805  27.916  1.00  0.00     0.338 C 
ATOM     29  O   UNL A   1      35.624  32.960  27.548  1.00  0.00    -0.246 OA
BRANCH  28  30
ATOM     30  C   UNL A   1      36.294  31.243  29.071  1.00  0.00     0.060 A 
ATOM     31  C   UNL A   1      37.339  32.058  29.488  1.00  0.00     0.016 A 
ATOM     32  C   UNL A   1      36.320  29.847  29.179  1.00  0.00     0.016 A 
ATOM     33  C   UNL A   1      38.568  31.466  29.572  1.00  0.00     0.010 A 
ATOM     34  C   UNL A   1      37.552  29.263  29.197  1.00  0.00     0.010 A 
ATOM     35  C   UNL A   1      38.662  30.097  29.290  1.00  0.00    -0.014 A 
BRANCH  35  36
ATOM     36  C   UNL A   1      39.962  29.489  29.328  1.00  0.00     0.031 A 
ATOM     37  C   UNL A   1      40.389  29.360  30.732  1.00  0.00     0.074 A 
ATOM     38  C   UNL A   1      40.612  29.020  28.253  1.00  0.00     0.049 A 
ATOM     39  N   UNL A   1      41.014  30.262  31.415  1.00  0.00    -0.248 NA
ATOM     40  C   UNL A   1      39.735  28.323  31.553  1.00  0.00     0.031 C 
ATOM     41  C   UNL A   1      40.142  28.822  26.883  1.00  0.00     0.029 A 
ATOM     42  N   UNL A   1      41.870  28.527  28.212  1.00  0.00    -0.354 N 
ATOM     43  C   UNL A   1      41.079  29.734  32.691  1.00  0.00     0.074 A 
ATOM     44  C   UNL A   1      40.003  28.783  32.776  1.00  0.00     0.031 C 
ATOM     45  C   UNL A   1      41.024  28.027  26.226  1.00  0.00     0.029 A 
ATOM     46  C   UNL A   1      42.173  27.780  27.086  1.00  0.00     0.049 A 
ATOM     47  H   UNL A   1      42.524  28.689  28.930  1.00  0.00     0.167 HD
ATOM     48  C   UNL A   1      42.232  29.796  33.408  1.00  0.00     0.031 A 
ATOM     49  C   UNL A   1      43.254  26.966  26.952  1.00  0.00     0.031 A 
ATOM     50  C   UNL A   1      43.178  30.701  32.796  1.00  0.00     0.049 A 
ATOM     51  C   UNL A   1      44.235  27.376  28.001  1.00  0.00     0.074 A 
ATOM     52  C   UNL A   1      43.164  32.040  32.459  1.00  0.00     0.029 A 
ATOM     53  N   UNL A   1      44.171  30.118  32.038  1.00  0.00    -0.354 N 
ATOM     54  N   UNL A   1      44.840  28.533  27.996  1.00  0.00    -0.248 NA
ATOM     55  C   UNL A   1      44.150  26.730  29.304  1.00  0.00     0.031 C 
ATOM     56  C   UNL A   1      43.846  32.115  31.210  1.00  0.00     0.029 A 
ATOM     57  C   UNL A   1      44.317  30.841  30.882  1.00  0.00     0.049 A 
ATOM     58  H   UNL A   1      44.688  29.318  32.285  1.00  0.00     0.167 HD
ATOM     59  C   UNL A   1      44.819  28.956  29.319  1.00  0.00     0.074 A 
ATOM     60  C   UNL A   1      44.455  27.768  30.091  1.00  0.00     0.031 C 
ATOM     61  C   UNL A   1      44.798  30.287  29.633  1.00  0.00     0.031 A 
BRANCH  48  62
ATOM     62  C   UNL A   1      42.671  28.700  34.346  1.00  0.00    -0.014 A 
ATOM     63  C   UNL A   1      42.896  29.031  35.693  1.00  0.00     0.010 A 
ATOM     64  C   UNL A   1      43.113  27.430  33.918  1.00  0.00     0.010 A 
ATOM     65  C   UNL A   1      43.580  28.158  36.547  1.00  0.00     0.020 A 
ATOM     66  C   UNL A   1      43.755  26.534  34.768  1.00  0.00     0.020 A 
ATOM     67  C   UNL A   1      44.009  26.918  36.074  1.00  0.00     0.054 A 
BRANCH  67  68
ATOM     68  S   UNL A   1      44.941  25.823  37.165  1.00  0.00     0.124 S 
ATOM     69  O   UNL A   1      43.972  25.561  38.224  1.00  0.00    -0.237 OA
ATOM     70  O   UNL A   1      45.242  24.700  36.282  1.00  0.00    -0.237 OA
ATOM     71  O   UNL A   1      46.095  26.631  37.554  1.00  0.00    -0.744 OA
ENDBRANCH  67  68
ENDBRANCH  48  62
BRANCH  49  72
ATOM     72  C   UNL A   1      43.339  25.651  26.260  1.00  0.00    -0.014 A 
ATOM     73  C   UNL A   1      44.235  25.451  25.190  1.00  0.00     0.010 A 
ATOM     74  C   UNL A   1      42.755  24.507  26.839  1.00  0.00     0.010 A 
ATOM     75  C   UNL A   1      44.583  24.156  24.764  1.00  0.00     0.020 A 
ATOM     76  C   UNL A   1      43.092  23.215  26.417  1.00  0.00     0.020 A 
ATOM     77  C   UNL A   1      44.025  23.043  25.398  1.00  0.00     0.054 A 
BRANCH  77  78
ATOM     78  S   UNL A   1      44.620  21.375  24.979  1.00  0.00     0.124 S 
ATOM     79  O   UNL A   1      43.622  20.518  25.612  1.00  0.00    -0.237 OA
ATOM     80  O   UNL A   1      44.608  21.389  23.519  1.00  0.00    -0.237 OA
ATOM     81  O   UNL A   1      45.952  21.324  25.581  1.00  0.00    -0.744 OA
ENDBRANCH  77  78
ENDBRANCH  49  72
BRANCH  61  82
ATOM     82  C   UNL A   1      45.122  31.287  28.545  1.00  0.00    -0.014 A 
ATOM     83  C   UNL A   1      44.213  31.721  27.559  1.00  0.00     0.010 A 
ATOM     84  C   UNL A   1      46.372  31.924  28.630  1.00  0.00     0.010 A 
ATOM     85  C   UNL A   1      44.566  32.746  26.664  1.00  0.00     0.020 A 
ATOM     86  C   UNL A   1      46.721  32.955  27.758  1.00  0.00     0.020 A 
ATOM     87  C   UNL A   1      45.822  33.354  26.770  1.00  0.00     0.054 A 
BRANCH  87  88
ATOM     88  S   UNL A   1      46.273  34.694  25.632  1.00  0.00     0.124 S 
ATOM     89  O   UNL A   1      47.690  34.439  25.388  1.00  0.00    -0.237 OA
ATOM     90  O   UNL A   1      45.386  34.466  24.493  1.00  0.00    -0.237 OA
ATOM     91  O   UNL A   1      45.987  35.909  26.394  1.00  0.00    -0.744 OA
ENDBRANCH  87  88
ENDBRANCH  61  82
ENDBRANCH  35  36
ENDBRANCH  28  30
ENDBRANCH  27  28
ENDBRANCH  26  27
ENDBRANCH   1  26
TORSDOF 20
ENDMDL
MODEL 2
REMARK VINA RESULT:     -10.9      0.928      2.390
REMARK SMILES O=C(Cn1cnc(-c2ccccc2)c1-c1ccccc1)OCCOCCOC(=O)c1ccc(-c2c3nc(c(-c4ccc(S(=O)(=O)[O-])cc4)c4ccc([nH]4)c(-c4ccc(S(=O)(=O)[O-])cc4)c4nc(c(-c5ccc(S(=O)(=O)[O-])cc5)c5ccc2[nH]5)C=C4)C=C3)cc1
REMARK SMILES IDX 25 1 24 2 23 3 22 4 21 5 2 6 1 7 3 8 4 9 5 10 14 11 6 12
REMARK SMILES IDX 7 13 15 14 16 15 20 16 17 17 19 18 18 19 8 20 9 21 13 22
REMARK SMILES IDX 10 23 12 24 11 25 26 26 27 27 28 28 29 29 30 30 31 31 89 32
REMARK SMILES IDX 32 33 88 34 33 35 34 36 35 37 82 38 36 39 87 40 81 41 83 42
REMARK SMILES IDX 37 43 86 44 80 45 79 46 38 48 68 49 49 50 67 51 50 52 53 53
REMARK SMILES IDX 66 54 84 55 51 56 52 57 65 59 85 60 54 61 39 62 40 63 48 64
REMARK SMILES IDX 41 65 47 66 42 67 43 68 44 69 45 70 46 71 69 72 70 73 78 74
REMARK SMILES IDX 71 75 77 76 72 77 73 78 74 79 75 80 76 81 55 82 56 83 64 84
REMARK SMILES IDX 57 85 63 86 58 87 59 88 60 89 61 90 62 91
REMARK H PARENT 83 47 53 58
REMARK Flexibility Score: inf
ROOT
ATOM      1  C   UNL A   1      33.478  29.157  26.485  1.00  0.00     0.202 C 
ENDROOT
BRANCH   1   2
ATOM      2  O   UNL A   1      32.155  28.900  25.986  1.00  0.00    -0.374 OA
BRANCH   2   3
ATOM      3  C   UNL A   1      31.830  29.105  24.609  1.00  0.00     0.202 C 
BRANCH   3   4
ATOM      4  C   UNL A   1      30.627  28.398  23.989  1.00  0.00     0.261 C 
BRANCH   4   5
ATOM      5  O   UNL A   1      30.821  27.013  23.705  1.00  0.00    -0.462 OA
BRANCH   5   6
ATOM      6  C   UNL A   1      29.969  26.043  24.108  1.00  0.00     0.326 C 
ATOM      7  O   UNL A   1      28.761  26.278  24.097  1.00  0.00    -0.250 OA
BRANCH   6   8
ATOM      8  C   UNL A   1      30.507  24.758  24.695  1.00  0.00     0.246 C 
BRANCH   8   9
ATOM      9  N   UNL A   1      31.903  24.782  25.038  1.00  0.00    -0.319 N 
ATOM     10  C   UNL A   1      32.475  25.601  25.973  1.00  0.00     0.201 A 
ATOM     11  C   UNL A   1      32.818  23.818  24.710  1.00  0.00     0.076 A 
ATOM     12  N   UNL A   1      33.769  25.415  26.038  1.00  0.00    -0.236 NA
ATOM     13  C   UNL A   1      33.995  24.319  25.242  1.00  0.00     0.096 A 
BRANCH  11  14
ATOM     14  C   UNL A   1      32.454  22.519  24.154  1.00  0.00     0.000 A 
ATOM     15  C   UNL A   1      32.246  22.417  22.773  1.00  0.00     0.010 A 
ATOM     16  C   UNL A   1      32.442  21.361  24.935  1.00  0.00     0.010 A 
ATOM     17  C   UNL A   1      32.049  21.172  22.179  1.00  0.00     0.001 A 
ATOM     18  C   UNL A   1      32.272  20.113  24.338  1.00  0.00     0.001 A 
ATOM     19  C   UNL A   1      32.072  20.018  22.961  1.00  0.00     0.000 A 
ENDBRANCH  11  14
BRANCH  13  20
ATOM     20  C   UNL A   1      35.282  23.694  25.110  1.00  0.00     0.002 A 
ATOM     21  C   UNL A   1      35.677  23.177  23.876  1.00  0.00     0.010 A 
ATOM     22  C   UNL A   1      36.148  23.647  26.207  1.00  0.00     0.010 A 
ATOM     23  C   UNL A   1      36.961  22.661  23.728  1.00  0.00     0.001 A 
ATOM     24  C   UNL A   1      37.429  23.131  26.057  1.00  0.00     0.001 A 
ATOM     25  C   UNL A   1      37.837  22.648  24.815  1.00  0.00     0.000 A 
ENDBRANCH  13  20
ENDBRANCH   8   9
ENDBRANCH   6   8
ENDBRANCH   5   6
ENDBRANCH   4   5
ENDBRANCH   3   4
ENDBRANCH   2   3
ENDBRANCH   1   2
BRANCH   1  26
ATOM     26  C   UNL A   1      33.850  30.566  26.874  1.00  0.00     0.261 C 
BRANCH  26  27
ATOM     27  O   UNL A   1      35.113  30.524  27.486  1.00  0.00    -0.460 OA
BRANCH  27  28
ATOM     28  C   UNL A   1      35.427  31.642  28.177  1.00  0.00     0.338 C 
ATOM     29  O   UNL A   1      35.155  32.790  27.898  1.00  0.00    -0.246 OA
BRANCH  28  30
ATOM     30  C   UNL A   1      36.235  31.206  29.326  1.00  0.00     0.060 A 
ATOM     31  C   UNL A   1      37.314  32.049  29.559  1.00  0.00     0.016 A 
ATOM     32  C   UNL A   1      36.264  29.830  29.590  1.00  0.00     0.016 A 
ATOM     33  C   UNL A   1      38.543  31.454  29.609  1.00  0.00     0.010 A 
ATOM     34  C   UNL A   1      37.491  29.236  29.574  1.00  0.00     0.010 A 
ATOM     35  C   UNL A   1      38.609  30.061  29.479  1.00  0.00    -0.014 A 
BRANCH  35  36
ATOM     36  C   UNL A   1      39.904  29.444  29.479  1.00  0.00     0.031 A 
ATOM     37  C   UNL A   1      40.364  29.296  30.871  1.00  0.00     0.074 A 
ATOM     38  C   UNL A   1      40.525  28.982  28.384  1.00  0.00     0.049 A 
ATOM     39  N   UNL A   1      41.011  30.186  31.548  1.00  0.00    -0.248 NA
ATOM     40  C   UNL A   1      39.723  28.254  31.696  1.00  0.00     0.031 C 
ATOM     41  C   UNL A   1      40.021  28.803  27.023  1.00  0.00     0.029 A 
ATOM     42  N   UNL A   1      41.780  28.482  28.307  1.00  0.00    -0.354 N 
ATOM     43  C   UNL A   1      41.103  29.644  32.817  1.00  0.00     0.074 A 
ATOM     44  C   UNL A   1      40.023  28.699  32.917  1.00  0.00     0.031 C 
ATOM     45  C   UNL A   1      40.882  28.009  26.337  1.00  0.00     0.029 A 
ATOM     46  C   UNL A   1      42.050  27.745  27.166  1.00  0.00     0.049 A 
ATOM     47  H   UNL A   1      42.452  28.632  29.012  1.00  0.00     0.167 HD
ATOM     48  C   UNL A   1      42.274  29.691  33.507  1.00  0.00     0.031 A 
ATOM     49  C   UNL A   1      43.122  26.926  26.998  1.00  0.00     0.031 A 
ATOM     50  C   UNL A   1      43.210  30.596  32.882  1.00  0.00     0.049 A 
ATOM     51  C   UNL A   1      44.130  27.318  28.027  1.00  0.00     0.074 A 
ATOM     52  C   UNL A   1      43.198  31.939  32.560  1.00  0.00     0.029 A 
ATOM     53  N   UNL A   1      44.181  30.015  32.094  1.00  0.00    -0.354 N 
ATOM     54  N   UNL A   1      44.743  28.471  28.021  1.00  0.00    -0.248 NA
ATOM     55  C   UNL A   1      44.072  26.658  29.325  1.00  0.00     0.031 C 
ATOM     56  C   UNL A   1      43.850  32.024  31.296  1.00  0.00     0.029 A 
ATOM     57  C   UNL A   1      44.305  30.750  30.943  1.00  0.00     0.049 A 
ATOM     58  H   UNL A   1      44.698  29.209  32.320  1.00  0.00     0.167 HD
ATOM     59  C   UNL A   1      44.756  28.880  29.348  1.00  0.00     0.074 A 
ATOM     60  C   UNL A   1      44.403  27.686  30.115  1.00  0.00     0.031 C 
ATOM     61  C   UNL A   1      44.752  30.207  29.676  1.00  0.00     0.031 A 
BRANCH  48  62
ATOM     62  C   UNL A   1      42.728  28.581  34.422  1.00  0.00    -0.014 A 
ATOM     63  C   UNL A   1      43.309  28.934  35.652  1.00  0.00     0.010 A 
ATOM     64  C   UNL A   1      42.840  27.232  34.024  1.00  0.00     0.010 A 
ATOM     65  C   UNL A   1      44.016  27.994  36.412  1.00  0.00     0.020 A 
ATOM     66  C   UNL A   1      43.502  26.278  34.792  1.00  0.00     0.020 A 
ATOM     67  C   UNL A   1      44.111  26.674  35.971  1.00  0.00     0.054 A 
BRANCH  67  68
ATOM     68  S   UNL A   1      45.073  25.484  36.927  1.00  0.00     0.124 S 
ATOM     69  O   UNL A   1      46.253  26.266  37.277  1.00  0.00    -0.237 OA
ATOM     70  O   UNL A   1      44.163  25.173  38.027  1.00  0.00    -0.237 OA
ATOM     71  O   UNL A   1      45.299  24.391  35.984  1.00  0.00    -0.744 OA
ENDBRANCH  67  68
ENDBRANCH  48  62
BRANCH  49  72
ATOM     72  C   UNL A   1      43.182  25.619  26.289  1.00  0.00    -0.014 A 
ATOM     73  C   UNL A   1      44.038  25.429  25.185  1.00  0.00     0.010 A 
ATOM     74  C   UNL A   1      42.620  24.468  26.878  1.00  0.00     0.010 A 
ATOM     75  C   UNL A   1      44.370  24.139  24.734  1.00  0.00     0.020 A 
ATOM     76  C   UNL A   1      42.941  23.180  26.430  1.00  0.00     0.020 A 
ATOM     77  C   UNL A   1      43.836  23.019  25.376  1.00  0.00     0.054 A 
BRANCH  77  78
ATOM     78  S   UNL A   1      44.415  21.356  24.918  1.00  0.00     0.124 S 
ATOM     79  O   UNL A   1      44.587  21.472  23.473  1.00  0.00    -0.237 OA
ATOM     80  O   UNL A   1      45.645  21.221  25.694  1.00  0.00    -0.237 OA
ATOM     81  O   UNL A   1      43.321  20.482  25.343  1.00  0.00    -0.744 OA
ENDBRANCH  77  78
ENDBRANCH  49  72
BRANCH  61  82
ATOM     82  C   UNL A   1      45.056  31.217  28.592  1.00  0.00    -0.014 A 
ATOM     83  C   UNL A   1      44.103  31.749  27.702  1.00  0.00     0.010 A 
ATOM     84  C   UNL A   1      46.354  31.758  28.585  1.00  0.00     0.010 A 
ATOM     85  C   UNL A   1      44.454  32.775  26.808  1.00  0.00     0.020 A 
ATOM     86  C   UNL A   1      46.704  32.789  27.714  1.00  0.00     0.020 A 
ATOM     87  C   UNL A   1      45.757  33.286  26.820  1.00  0.00     0.054 A 
BRANCH  87  88
ATOM     88  S   UNL A   1      46.209  34.627  25.684  1.00  0.00     0.124 S 
ATOM     89  O   UNL A   1      45.349  34.371  24.533  1.00  0.00    -0.237 OA
ATOM     90  O   UNL A   1      45.892  35.827  26.455  1.00  0.00    -0.237 OA
ATOM     91  O   UNL A   1      47.637  34.415  25.447  1.00  0.00    -0.744 OA
ENDBRANCH  87  88
ENDBRANCH  61  82
ENDBRANCH  35  36
ENDBRANCH  28  30
ENDBRANCH  27  28
ENDBRANCH  26  27
ENDBRANCH   1  26
TORSDOF 20
ENDMDL
MODEL 3
REMARK VINA RESULT:     -10.7      2.895      9.555
REMARK SMILES O=C(Cn1cnc(-c2ccccc2)c1-c1ccccc1)OCCOCCOC(=O)c1ccc(-c2c3nc(c(-c4ccc(S(=O)(=O)[O-])cc4)c4ccc([nH]4)c(-c4ccc(S(=O)(=O)[O-])cc4)c4nc(c(-c5ccc(S(=O)(=O)[O-])cc5)c5ccc2[nH]5)C=C4)C=C3)cc1
REMARK SMILES IDX 25 1 24 2 23 3 22 4 21 5 2 6 1 7 3 8 4 9 5 10 14 11 6 12
REMARK SMILES IDX 7 13 15 14 16 15 20 16 17 17 19 18 18 19 8 20 9 21 13 22
REMARK SMILES IDX 10 23 12 24 11 25 26 26 27 27 28 28 29 29 30 30 31 31 89 32
REMARK SMILES IDX 32 33 88 34 33 35 34 36 35 37 82 38 36 39 87 40 81 41 83 42
REMARK SMILES IDX 37 43 86 44 80 45 79 46 38 48 68 49 49 50 67 51 50 52 53 53
REMARK SMILES IDX 66 54 84 55 51 56 52 57 65 59 85 60 54 61 39 62 40 63 48 64
REMARK SMILES IDX 41 65 47 66 42 67 43 68 44 69 45 70 46 71 69 72 70 73 78 74
REMARK SMILES IDX 71 75 77 76 72 77 73 78 74 79 75 80 76 81 55 82 56 83 64 84
REMARK SMILES IDX 57 85 63 86 58 87 59 88 60 89 61 90 62 91
REMARK H PARENT 83 47 53 58
REMARK Flexibility Score: inf
ROOT
ATOM      1  C   UNL A   1      37.313  21.578  25.512  1.00  0.00     0.202 C 
ENDROOT
BRANCH   1   2
ATOM      2  O   UNL A   1      36.459  21.636  24.358  1.00  0.00    -0.374 OA
BRANCH   2   3
ATOM      3  C   UNL A   1      35.550  22.721  24.162  1.00  0.00     0.202 C 
BRANCH   3   4
ATOM      4  C   UNL A   1      34.056  22.452  23.982  1.00  0.00     0.261 C 
BRANCH   4   5
ATOM      5  O   UNL A   1      33.193  23.364  24.660  1.00  0.00    -0.462 OA
BRANCH   5   6
ATOM      6  C   UNL A   1      33.569  24.609  25.033  1.00  0.00     0.326 C 
ATOM      7  O   UNL A   1      33.667  24.860  26.233  1.00  0.00    -0.250 OA
BRANCH   6   8
ATOM      8  C   UNL A   1      33.716  25.697  23.994  1.00  0.00     0.246 C 
BRANCH   8   9
ATOM      9  N   UNL A   1      32.484  26.156  23.412  1.00  0.00    -0.319 N 
ATOM     10  C   UNL A   1      31.681  25.424  22.579  1.00  0.00     0.201 A 
ATOM     11  C   UNL A   1      31.778  27.259  23.812  1.00  0.00     0.076 A 
ATOM     12  N   UNL A   1      30.647  26.123  22.185  1.00  0.00    -0.236 NA
ATOM     13  C   UNL A   1      30.708  27.273  22.933  1.00  0.00     0.096 A 
BRANCH  11  14
ATOM     14  C   UNL A   1      32.068  27.999  25.035  1.00  0.00     0.000 A 
ATOM     15  C   UNL A   1      32.839  29.164  24.947  1.00  0.00     0.010 A 
ATOM     16  C   UNL A   1      31.489  27.653  26.259  1.00  0.00     0.010 A 
ATOM     17  C   UNL A   1      33.011  29.984  26.061  1.00  0.00     0.001 A 
ATOM     18  C   UNL A   1      31.639  28.486  27.368  1.00  0.00     0.001 A 
ATOM     19  C   UNL A   1      32.401  29.649  27.269  1.00  0.00     0.000 A 
ENDBRANCH  11  14
BRANCH  13  20
ATOM     20  C   UNL A   1      29.692  28.289  22.900  1.00  0.00     0.002 A 
ATOM     21  C   UNL A   1      28.358  27.942  23.111  1.00  0.00     0.010 A 
ATOM     22  C   UNL A   1      30.052  29.626  22.699  1.00  0.00     0.010 A 
ATOM     23  C   UNL A   1      27.391  28.940  23.175  1.00  0.00     0.001 A 
ATOM     24  C   UNL A   1      29.086  30.621  22.763  1.00  0.00     0.001 A 
ATOM     25  C   UNL A   1      27.758  30.278  23.010  1.00  0.00     0.000 A 
ENDBRANCH  13  20
ENDBRANCH   8   9
ENDBRANCH   6   8
ENDBRANCH   5   6
ENDBRANCH   4   5
ENDBRANCH   3   4
ENDBRANCH   2   3
ENDBRANCH   1   2
BRANCH   1  26
ATOM     26  C   UNL A   1      38.300  22.694  25.746  1.00  0.00     0.261 C 
BRANCH  26  27
ATOM     27  O   UNL A   1      39.394  22.161  26.446  1.00  0.00    -0.460 OA
BRANCH  27  28
ATOM     28  C   UNL A   1      40.308  23.083  26.824  1.00  0.00     0.338 C 
ATOM     29  O   UNL A   1      41.475  22.904  27.099  1.00  0.00    -0.246 OA
BRANCH  28  30
ATOM     30  C   UNL A   1      39.593  24.365  26.904  1.00  0.00     0.060 A 
ATOM     31  C   UNL A   1      40.208  25.356  26.149  1.00  0.00     0.016 A 
ATOM     32  C   UNL A   1      38.896  24.626  28.091  1.00  0.00     0.016 A 
ATOM     33  C   UNL A   1      40.521  26.511  26.811  1.00  0.00     0.010 A 
ATOM     34  C   UNL A   1      39.263  25.747  28.775  1.00  0.00     0.010 A 
ATOM     35  C   UNL A   1      40.154  26.620  28.158  1.00  0.00    -0.014 A 
BRANCH  35  36
ATOM     36  C   UNL A   1      40.531  27.811  28.865  1.00  0.00     0.031 A 
ATOM     37  C   UNL A   1      41.732  28.383  28.233  1.00  0.00     0.074 A 
ATOM     38  C   UNL A   1      39.823  28.356  29.864  1.00  0.00     0.049 A 
ATOM     39  N   UNL A   1      42.954  28.071  28.518  1.00  0.00    -0.248 NA
ATOM     40  C   UNL A   1      41.567  29.053  26.929  1.00  0.00     0.031 C 
ATOM     41  C   UNL A   1      38.478  28.041  30.344  1.00  0.00     0.029 A 
ATOM     42  N   UNL A   1      40.172  29.415  30.629  1.00  0.00    -0.354 N 
ATOM     43  C   UNL A   1      43.705  28.766  27.589  1.00  0.00     0.074 A 
ATOM     44  C   UNL A   1      42.822  29.017  26.481  1.00  0.00     0.031 C 
ATOM     45  C   UNL A   1      38.047  29.052  31.141  1.00  0.00     0.029 A 
ATOM     46  C   UNL A   1      39.133  30.004  31.330  1.00  0.00     0.049 A 
ATOM     47  H   UNL A   1      41.100  29.743  30.683  1.00  0.00     0.167 HD
ATOM     48  C   UNL A   1      44.826  29.437  27.966  1.00  0.00     0.031 A 
ATOM     49  C   UNL A   1      39.183  31.224  31.928  1.00  0.00     0.031 A 
ATOM     50  C   UNL A   1      45.229  29.066  29.303  1.00  0.00     0.049 A 
ATOM     51  C   UNL A   1      40.627  31.571  32.080  1.00  0.00     0.074 A 
ATOM     52  C   UNL A   1      45.575  27.880  29.921  1.00  0.00     0.029 A 
ATOM     53  N   UNL A   1      44.872  29.939  30.308  1.00  0.00    -0.354 N 
ATOM     54  N   UNL A   1      41.437  30.917  32.867  1.00  0.00    -0.248 NA
ATOM     55  C   UNL A   1      41.273  32.292  30.991  1.00  0.00     0.031 C 
ATOM     56  C   UNL A   1      44.998  27.956  31.221  1.00  0.00     0.029 A 
ATOM     57  C   UNL A   1      44.401  29.211  31.370  1.00  0.00     0.049 A 
ATOM     58  H   UNL A   1      44.943  30.920  30.270  1.00  0.00     0.167 HD
ATOM     59  C   UNL A   1      42.613  30.780  32.140  1.00  0.00     0.074 A 
ATOM     60  C   UNL A   1      42.481  31.717  31.025  1.00  0.00     0.031 C 
ATOM     61  C   UNL A   1      43.441  29.710  32.336  1.00  0.00     0.031 A 
BRANCH  48  62
ATOM     62  C   UNL A   1      45.245  30.744  27.342  1.00  0.00    -0.014 A 
ATOM     63  C   UNL A   1      46.610  30.941  27.069  1.00  0.00     0.010 A 
ATOM     64  C   UNL A   1      44.404  31.874  27.246  1.00  0.00     0.010 A 
ATOM     65  C   UNL A   1      47.111  32.213  26.775  1.00  0.00     0.020 A 
ATOM     66  C   UNL A   1      44.884  33.137  26.911  1.00  0.00     0.020 A 
ATOM     67  C   UNL A   1      46.243  33.303  26.704  1.00  0.00     0.054 A 
BRANCH  67  68
ATOM     68  S   UNL A   1      46.906  34.950  26.381  1.00  0.00     0.124 S 
ATOM     69  O   UNL A   1      45.689  35.748  26.278  1.00  0.00    -0.237 OA
ATOM     70  O   UNL A   1      47.726  35.184  27.567  1.00  0.00    -0.237 OA
ATOM     71  O   UNL A   1      47.654  34.779  25.137  1.00  0.00    -0.744 OA
ENDBRANCH  67  68
ENDBRANCH  48  62
BRANCH  49  72
ATOM     72  C   UNL A   1      38.108  32.249  32.024  1.00  0.00    -0.014 A 
ATOM     73  C   UNL A   1      37.743  33.025  30.905  1.00  0.00     0.010 A 
ATOM     74  C   UNL A   1      37.238  32.261  33.133  1.00  0.00     0.010 A 
ATOM     75  C   UNL A   1      36.524  33.728  30.873  1.00  0.00     0.020 A 
ATOM     76  C   UNL A   1      36.026  32.963  33.111  1.00  0.00     0.020 A 
ATOM     77  C   UNL A   1      35.661  33.673  31.970  1.00  0.00     0.054 A 
BRANCH  77  78
ATOM     78  S   UNL A   1      34.006  34.421  31.853  1.00  0.00     0.124 S 
ATOM     79  O   UNL A   1      33.249  33.661  32.843  1.00  0.00    -0.237 OA
ATOM     80  O   UNL A   1      34.263  35.819  32.188  1.00  0.00    -0.237 OA
ATOM     81  O   UNL A   1      33.620  34.183  30.462  1.00  0.00    -0.744 OA
ENDBRANCH  77  78
ENDBRANCH  49  72
BRANCH  61  82
ATOM     82  C   UNL A   1      43.232  28.853  33.565  1.00  0.00    -0.014 A 
ATOM     83  C   UNL A   1      43.633  29.209  34.868  1.00  0.00     0.010 A 
ATOM     84  C   UNL A   1      42.452  27.696  33.398  1.00  0.00     0.010 A 
ATOM     85  C   UNL A   1      43.286  28.405  35.967  1.00  0.00     0.020 A 
ATOM     86  C   UNL A   1      42.087  26.904  34.486  1.00  0.00     0.020 A 
ATOM     87  C   UNL A   1      42.516  27.254  35.765  1.00  0.00     0.054 A 
BRANCH  87  88
ATOM     88  S   UNL A   1      42.045  26.225  37.184  1.00  0.00     0.124 S 
ATOM     89  O   UNL A   1      40.736  26.762  37.545  1.00  0.00    -0.237 OA
ATOM     90  O   UNL A   1      42.040  24.877  36.620  1.00  0.00    -0.237 OA
ATOM     91  O   UNL A   1      43.105  26.473  38.161  1.00  0.00    -0.744 OA
ENDBRANCH  87  88
ENDBRANCH  61  82
ENDBRANCH  35  36
ENDBRANCH  28  30
ENDBRANCH  27  28
ENDBRANCH  26  27
ENDBRANCH   1  26
TORSDOF 20
ENDMDL
