MODEL 1
REMARK VINA RESULT:      -9.3      0.000      0.000
REMARK SMILES O=C(OCCOCCOC(=O)c1cc(-c2ccc(N3C(=O)[C@@H]4CC=CC[C@H]4C3=O)cc2)nc2c(Cl)cccc12)c1ccc(-c2c3nc(c(-c4ccc(S(=O)(=O)[O-])cc4)c4ccc([nH]4)c(-c4ccc(S(=O)(=O)[O-])cc4)c4nc(c(-c5ccc(S(=O)(=O)[O-])cc5)c5ccc2[nH]5)C=C4)C=C3)cc1
REMARK SMILES IDX 5 1 4 2 3 3 2 4 1 5 40 6 41 7 99 8 42 9 98 10 43 11 44 12
REMARK SMILES IDX 45 13 92 14 46 15 97 16 91 17 93 18 47 19 96 20 90 21 89 22
REMARK SMILES IDX 48 24 78 25 59 26 77 27 60 28 63 29 76 30 94 31 61 32 62 33
REMARK SMILES IDX 75 35 95 36 64 37 49 38 50 39 58 40 51 41 57 42 52 43 53 44
REMARK SMILES IDX 54 45 55 46 56 47 79 48 80 49 88 50 81 51 87 52 82 53 83 54
REMARK SMILES IDX 84 55 85 56 86 57 65 58 66 59 74 60 67 61 73 62 68 63 69 64
REMARK SMILES IDX 70 65 71 66 72 67 6 68 7 69 8 70 9 71 10 72 11 73 12 74
REMARK SMILES IDX 13 75 39 76 14 77 33 78 38 79 32 80 34 81 37 82 35 83 36 84
REMARK SMILES IDX 15 85 16 86 31 87 17 88 30 89 18 90 19 91 20 92 28 93 21 94
REMARK SMILES IDX 22 95 27 96 29 97 23 98 26 99 24 100 25 101
REMARK H PARENT 93 23 63 34
REMARK Flexibility Score: inf
ROOT
ATOM      1  C   UNL A   1      35.147  33.352  27.962  1.00  0.00     0.202 C 
ENDROOT
BRANCH   1   2
ATOM      2  C   UNL A   1      34.101  32.294  28.328  1.00  0.00     0.261 C 
BRANCH   2   3
ATOM      3  O   UNL A   1      34.217  31.156  27.458  1.00  0.00    -0.460 OA
BRANCH   3   4
ATOM      4  C   UNL A   1      34.719  29.932  27.737  1.00  0.00     0.338 C 
ATOM      5  O   UNL A   1      33.939  28.981  27.792  1.00  0.00    -0.246 OA
BRANCH   4   6
ATOM      6  C   UNL A   1      36.168  29.660  27.988  1.00  0.00     0.060 A 
ATOM      7  C   UNL A   1      37.201  29.956  27.098  1.00  0.00     0.016 A 
ATOM      8  C   UNL A   1      36.517  29.154  29.252  1.00  0.00     0.016 A 
ATOM      9  C   UNL A   1      38.527  29.727  27.414  1.00  0.00     0.010 A 
ATOM     10  C   UNL A   1      37.858  28.942  29.595  1.00  0.00     0.010 A 
ATOM     11  C   UNL A   1      38.861  29.221  28.664  1.00  0.00    -0.014 A 
BRANCH  11  12
ATOM     12  C   UNL A   1      40.275  28.883  28.881  1.00  0.00     0.031 A 
ATOM     13  C   UNL A   1      41.115  29.853  29.652  1.00  0.00     0.074 A 
ATOM     14  C   UNL A   1      40.711  27.652  28.562  1.00  0.00     0.049 A 
ATOM     15  N   UNL A   1      42.366  29.761  30.005  1.00  0.00    -0.248 NA
ATOM     16  C   UNL A   1      40.445  31.085  30.109  1.00  0.00     0.031 C 
ATOM     17  C   UNL A   1      39.890  26.598  27.956  1.00  0.00     0.029 A 
ATOM     18  N   UNL A   1      41.927  27.057  28.750  1.00  0.00    -0.354 N 
ATOM     19  C   UNL A   1      42.642  30.932  30.700  1.00  0.00     0.074 A 
ATOM     20  C   UNL A   1      41.432  31.718  30.722  1.00  0.00     0.031 C 
ATOM     21  C   UNL A   1      40.619  25.474  27.860  1.00  0.00     0.029 A 
ATOM     22  C   UNL A   1      41.971  25.750  28.328  1.00  0.00     0.049 A 
ATOM     23  H   UNL A   1      42.698  27.520  29.150  1.00  0.00     0.167 HD
ATOM     24  C   UNL A   1      43.817  31.313  31.253  1.00  0.00     0.031 A 
ATOM     25  C   UNL A   1      43.006  24.889  28.301  1.00  0.00     0.031 A 
ATOM     26  C   UNL A   1      45.005  30.509  31.186  1.00  0.00     0.049 A 
ATOM     27  C   UNL A   1      44.331  25.385  28.813  1.00  0.00     0.074 A 
ATOM     28  C   UNL A   1      46.281  30.810  31.618  1.00  0.00     0.029 A 
ATOM     29  N   UNL A   1      45.052  29.232  30.641  1.00  0.00    -0.354 N 
ATOM     30  N   UNL A   1      44.614  26.533  29.385  1.00  0.00    -0.248 NA
ATOM     31  C   UNL A   1      45.479  24.484  28.662  1.00  0.00     0.031 C 
ATOM     32  C   UNL A   1      47.112  29.732  31.289  1.00  0.00     0.029 A 
ATOM     33  C   UNL A   1      46.340  28.736  30.707  1.00  0.00     0.049 A 
ATOM     34  H   UNL A   1      44.280  28.749  30.264  1.00  0.00     0.167 HD
ATOM     35  C   UNL A   1      45.970  26.489  29.677  1.00  0.00     0.074 A 
ATOM     36  C   UNL A   1      46.444  25.190  29.236  1.00  0.00     0.031 C 
ATOM     37  C   UNL A   1      46.759  27.432  30.252  1.00  0.00     0.031 A 
BRANCH  24  38
ATOM     38  C   UNL A   1      43.866  32.687  31.862  1.00  0.00    -0.014 A 
ATOM     39  C   UNL A   1      44.193  33.824  31.101  1.00  0.00     0.010 A 
ATOM     40  C   UNL A   1      43.639  32.831  33.243  1.00  0.00     0.010 A 
ATOM     41  C   UNL A   1      44.346  35.069  31.720  1.00  0.00     0.020 A 
ATOM     42  C   UNL A   1      43.765  34.078  33.862  1.00  0.00     0.020 A 
ATOM     43  C   UNL A   1      44.142  35.185  33.099  1.00  0.00     0.054 A 
BRANCH  43  44
ATOM     44  S   UNL A   1      44.376  36.803  33.885  1.00  0.00     0.124 S 
ATOM     45  O   UNL A   1      45.765  36.723  34.329  1.00  0.00    -0.237 OA
ATOM     46  O   UNL A   1      44.120  37.734  32.788  1.00  0.00    -0.237 OA
ATOM     47  O   UNL A   1      43.380  36.816  34.954  1.00  0.00    -0.744 OA
ENDBRANCH  43  44
ENDBRANCH  24  38
BRANCH  25  48
ATOM     48  C   UNL A   1      42.845  23.524  27.723  1.00  0.00    -0.014 A 
ATOM     49  C   UNL A   1      42.385  22.450  28.504  1.00  0.00     0.010 A 
ATOM     50  C   UNL A   1      43.158  23.291  26.370  1.00  0.00     0.010 A 
ATOM     51  C   UNL A   1      42.259  21.170  27.950  1.00  0.00     0.020 A 
ATOM     52  C   UNL A   1      43.005  22.022  25.804  1.00  0.00     0.020 A 
ATOM     53  C   UNL A   1      42.570  20.965  26.603  1.00  0.00     0.054 A 
BRANCH  53  54
ATOM     54  S   UNL A   1      42.371  19.305  25.894  1.00  0.00     0.124 S 
ATOM     55  O   UNL A   1      43.153  19.404  24.666  1.00  0.00    -0.237 OA
ATOM     56  O   UNL A   1      42.932  18.447  26.934  1.00  0.00    -0.237 OA
ATOM     57  O   UNL A   1      40.927  19.182  25.710  1.00  0.00    -0.744 OA
ENDBRANCH  53  54
ENDBRANCH  25  48
BRANCH  37  58
ATOM     58  C   UNL A   1      48.201  27.068  30.461  1.00  0.00    -0.014 A 
ATOM     59  C   UNL A   1      49.182  27.413  29.518  1.00  0.00     0.010 A 
ATOM     60  C   UNL A   1      48.579  26.423  31.653  1.00  0.00     0.010 A 
ATOM     61  C   UNL A   1      50.520  27.090  29.750  1.00  0.00     0.020 A 
ATOM     62  C   UNL A   1      49.919  26.124  31.900  1.00  0.00     0.020 A 
ATOM     63  C   UNL A   1      50.879  26.447  30.939  1.00  0.00     0.054 A 
BRANCH  63  64
ATOM     64  S   UNL A   1      52.628  26.082  31.241  1.00  0.00     0.124 S 
ATOM     65  O   UNL A   1      52.553  24.800  31.936  1.00  0.00    -0.237 OA
ATOM     66  O   UNL A   1      53.184  26.034  29.890  1.00  0.00    -0.237 OA
ATOM     67  O   UNL A   1      53.082  27.207  32.054  1.00  0.00    -0.744 OA
ENDBRANCH  63  64
ENDBRANCH  37  58
ENDBRANCH  11  12
ENDBRANCH   4   6
ENDBRANCH   3   4
ENDBRANCH   2   3
ENDBRANCH   1   2
BRANCH   1  68
ATOM     68  O   UNL A   1      35.717  34.030  29.079  1.00  0.00    -0.374 OA
BRANCH  68  69
ATOM     69  C   UNL A   1      37.148  34.070  29.128  1.00  0.00     0.202 C 
BRANCH  69  70
ATOM     70  C   UNL A   1      37.603  33.614  30.511  1.00  0.00     0.261 C 
BRANCH  70  71
ATOM     71  O   UNL A   1      37.304  32.215  30.623  1.00  0.00    -0.460 OA
BRANCH  71  72
ATOM     72  C   UNL A   1      36.354  31.877  31.530  1.00  0.00     0.338 C 
ATOM     73  O   UNL A   1      35.185  31.603  31.328  1.00  0.00    -0.246 OA
BRANCH  72  74
ATOM     74  C   UNL A   1      37.037  31.671  32.824  1.00  0.00     0.071 A 
ATOM     75  C   UNL A   1      38.006  30.665  32.851  1.00  0.00     0.045 A 
ATOM     76  C   UNL A   1      36.800  32.495  33.945  1.00  0.00     0.016 A 
ATOM     77  C   UNL A   1      38.791  30.552  33.977  1.00  0.00     0.072 A 
ATOM     78  C   UNL A   1      37.628  32.287  35.064  1.00  0.00     0.090 A 
ATOM     79  C   UNL A   1      35.784  33.488  33.996  1.00  0.00     0.011 A 
ATOM     80  N   UNL A   1      38.607  31.345  35.056  1.00  0.00    -0.246 NA
ATOM     81  C   UNL A   1      37.404  33.098  36.188  1.00  0.00     0.067 A 
ATOM     82  C   UNL A   1      35.599  34.284  35.119  1.00  0.00     0.002 A 
ATOM     83  Cl  UNL A   1      38.362  32.904  37.622  1.00  0.00    -0.082 Cl
ATOM     84  C   UNL A   1      36.412  34.087  36.220  1.00  0.00     0.023 A 
BRANCH  77  85
ATOM     85  C   UNL A   1      39.874  29.569  34.085  1.00  0.00     0.000 A 
ATOM     86  C   UNL A   1      40.211  28.713  33.026  1.00  0.00     0.012 A 
ATOM     87  C   UNL A   1      40.626  29.476  35.261  1.00  0.00     0.012 A 
ATOM     88  C   UNL A   1      41.282  27.806  33.135  1.00  0.00     0.027 A 
ATOM     89  C   UNL A   1      41.669  28.548  35.382  1.00  0.00     0.027 A 
ATOM     90  C   UNL A   1      42.024  27.706  34.319  1.00  0.00     0.052 A 
BRANCH  90  91
ATOM     91  N   UNL A   1      43.115  26.802  34.445  1.00  0.00    -0.250 N 
ATOM     92  C   UNL A   1      42.998  25.462  34.802  1.00  0.00     0.238 C 
ATOM     93  C   UNL A   1      44.440  27.126  34.176  1.00  0.00     0.238 C 
ATOM     94  O   UNL A   1      42.033  24.839  35.214  1.00  0.00    -0.274 OA
ATOM     95  C   UNL A   1      44.306  24.828  34.407  1.00  0.00     0.096 C 
ATOM     96  C   UNL A   1      45.258  25.973  34.685  1.00  0.00     0.096 C 
ATOM     97  O   UNL A   1      44.921  28.149  33.716  1.00  0.00    -0.274 OA
ATOM     98  C   UNL A   1      44.771  23.558  35.092  1.00  0.00     0.041 C 
ATOM     99  C   UNL A   1      46.614  25.718  34.056  1.00  0.00     0.041 C 
ATOM    100  C   UNL A   1      46.250  23.350  34.837  1.00  0.00    -0.030 C 
ATOM    101  C   UNL A   1      47.065  24.305  34.350  1.00  0.00    -0.030 C 
ENDBRANCH  90  91
ENDBRANCH  77  85
ENDBRANCH  72  74
ENDBRANCH  71  72
ENDBRANCH  70  71
ENDBRANCH  69  70
ENDBRANCH  68  69
ENDBRANCH   1  68
TORSDOF 19
ENDMDL
MODEL 2
REMARK VINA RESULT:      -8.6      5.633     11.667
REMARK SMILES O=C(OCCOCCOC(=O)c1cc(-c2ccc(N3C(=O)[C@@H]4CC=CC[C@H]4C3=O)cc2)nc2c(Cl)cccc12)c1ccc(-c2c3nc(c(-c4ccc(S(=O)(=O)[O-])cc4)c4ccc([nH]4)c(-c4ccc(S(=O)(=O)[O-])cc4)c4nc(c(-c5ccc(S(=O)(=O)[O-])cc5)c5ccc2[nH]5)C=C4)C=C3)cc1
REMARK SMILES IDX 5 1 4 2 3 3 2 4 1 5 40 6 41 7 99 8 42 9 98 10 43 11 44 12
REMARK SMILES IDX 45 13 92 14 46 15 97 16 91 17 93 18 47 19 96 20 90 21 89 22
REMARK SMILES IDX 48 24 78 25 59 26 77 27 60 28 63 29 76 30 94 31 61 32 62 33
REMARK SMILES IDX 75 35 95 36 64 37 49 38 50 39 58 40 51 41 57 42 52 43 53 44
REMARK SMILES IDX 54 45 55 46 56 47 79 48 80 49 88 50 81 51 87 52 82 53 83 54
REMARK SMILES IDX 84 55 85 56 86 57 65 58 66 59 74 60 67 61 73 62 68 63 69 64
REMARK SMILES IDX 70 65 71 66 72 67 6 68 7 69 8 70 9 71 10 72 11 73 12 74
REMARK SMILES IDX 13 75 39 76 14 77 33 78 38 79 32 80 34 81 37 82 35 83 36 84
REMARK SMILES IDX 15 85 16 86 31 87 17 88 30 89 18 90 19 91 20 92 28 93 21 94
REMARK SMILES IDX 22 95 27 96 29 97 23 98 26 99 24 100 25 101
REMARK H PARENT 93 23 63 34
REMARK Flexibility Score: inf
ROOT
ATOM      1  C   UNL A   1      33.844  33.620  28.687  1.00  0.00     0.202 C 
ENDROOT
BRANCH   1   2
ATOM      2  C   UNL A   1      33.688  35.083  29.114  1.00  0.00     0.261 C 
BRANCH   2   3
ATOM      3  O   UNL A   1      32.815  35.179  30.251  1.00  0.00    -0.460 OA
BRANCH   3   4
ATOM      4  C   UNL A   1      33.105  34.963  31.554  1.00  0.00     0.338 C 
ATOM      5  O   UNL A   1      32.285  35.317  32.401  1.00  0.00    -0.246 OA
BRANCH   4   6
ATOM      6  C   UNL A   1      34.368  34.321  32.034  1.00  0.00     0.060 A 
ATOM      7  C   UNL A   1      34.494  32.979  32.393  1.00  0.00     0.016 A 
ATOM      8  C   UNL A   1      35.531  35.110  32.031  1.00  0.00     0.016 A 
ATOM      9  C   UNL A   1      35.706  32.436  32.778  1.00  0.00     0.010 A 
ATOM     10  C   UNL A   1      36.769  34.567  32.393  1.00  0.00     0.010 A 
ATOM     11  C   UNL A   1      36.848  33.226  32.778  1.00  0.00    -0.014 A 
BRANCH  11  12
ATOM     12  C   UNL A   1      38.070  32.616  33.321  1.00  0.00     0.031 A 
ATOM     13  C   UNL A   1      38.928  31.820  32.387  1.00  0.00     0.074 A 
ATOM     14  C   UNL A   1      38.476  32.951  34.558  1.00  0.00     0.049 A 
ATOM     15  N   UNL A   1      40.064  31.225  32.617  1.00  0.00    -0.248 NA
ATOM     16  C   UNL A   1      38.450  31.699  30.997  1.00  0.00     0.031 C 
ATOM     17  C   UNL A   1      37.763  33.861  35.461  1.00  0.00     0.029 A 
ATOM     18  N   UNL A   1      39.605  32.615  35.251  1.00  0.00    -0.354 N 
ATOM     19  C   UNL A   1      40.424  30.635  31.412  1.00  0.00     0.074 A 
ATOM     20  C   UNL A   1      39.391  30.943  30.453  1.00  0.00     0.031 C 
ATOM     21  C   UNL A   1      38.495  34.039  36.573  1.00  0.00     0.029 A 
ATOM     22  C   UNL A   1      39.686  33.203  36.491  1.00  0.00     0.049 A 
ATOM     23  H   UNL A   1      40.296  32.009  34.896  1.00  0.00     0.167 HD
ATOM     24  C   UNL A   1      41.520  29.888  31.147  1.00  0.00     0.031 A 
ATOM     25  C   UNL A   1      40.613  33.053  37.456  1.00  0.00     0.031 A 
ATOM     26  C   UNL A   1      42.513  29.584  32.139  1.00  0.00     0.049 A 
ATOM     27  C   UNL A   1      41.758  32.119  37.174  1.00  0.00     0.074 A 
ATOM     28  C   UNL A   1      43.621  28.766  32.036  1.00  0.00     0.029 A 
ATOM     29  N   UNL A   1      42.507  30.098  33.431  1.00  0.00    -0.354 N 
ATOM     30  N   UNL A   1      42.046  31.483  36.061  1.00  0.00    -0.248 NA
ATOM     31  C   UNL A   1      42.691  31.864  38.277  1.00  0.00     0.031 C 
ATOM     32  C   UNL A   1      44.257  28.746  33.283  1.00  0.00     0.029 A 
ATOM     33  C   UNL A   1      43.580  29.600  34.144  1.00  0.00     0.049 A 
ATOM     34  H   UNL A   1      41.836  30.726  33.786  1.00  0.00     0.167 HD
ATOM     35  C   UNL A   1      43.204  30.764  36.323  1.00  0.00     0.074 A 
ATOM     36  C   UNL A   1      43.572  31.060  37.695  1.00  0.00     0.031 C 
ATOM     37  C   UNL A   1      43.901  29.929  35.512  1.00  0.00     0.031 A 
BRANCH  24  38
ATOM     38  C   UNL A   1      41.613  29.281  29.774  1.00  0.00    -0.014 A 
ATOM     39  C   UNL A   1      41.021  28.042  29.470  1.00  0.00     0.010 A 
ATOM     40  C   UNL A   1      42.362  29.942  28.784  1.00  0.00     0.010 A 
ATOM     41  C   UNL A   1      41.225  27.449  28.219  1.00  0.00     0.020 A 
ATOM     42  C   UNL A   1      42.547  29.366  27.524  1.00  0.00     0.020 A 
ATOM     43  C   UNL A   1      41.996  28.111  27.258  1.00  0.00     0.054 A 
BRANCH  43  44
ATOM     44  S   UNL A   1      42.272  27.309  25.654  1.00  0.00     0.124 S 
ATOM     45  O   UNL A   1      41.131  26.401  25.572  1.00  0.00    -0.237 OA
ATOM     46  O   UNL A   1      42.247  28.436  24.724  1.00  0.00    -0.237 OA
ATOM     47  O   UNL A   1      43.573  26.663  25.809  1.00  0.00    -0.744 OA
ENDBRANCH  43  44
ENDBRANCH  24  38
BRANCH  25  48
ATOM     48  C   UNL A   1      40.460  33.740  38.769  1.00  0.00    -0.014 A 
ATOM     49  C   UNL A   1      39.705  33.168  39.808  1.00  0.00     0.010 A 
ATOM     50  C   UNL A   1      41.076  34.988  38.988  1.00  0.00     0.010 A 
ATOM     51  C   UNL A   1      39.554  33.839  41.030  1.00  0.00     0.020 A 
ATOM     52  C   UNL A   1      40.954  35.646  40.215  1.00  0.00     0.020 A 
ATOM     53  C   UNL A   1      40.180  35.073  41.225  1.00  0.00     0.054 A 
BRANCH  53  54
ATOM     54  S   UNL A   1      40.000  35.910  42.825  1.00  0.00     0.124 S 
ATOM     55  O   UNL A   1      38.591  35.679  43.131  1.00  0.00    -0.237 OA
ATOM     56  O   UNL A   1      40.956  35.197  43.667  1.00  0.00    -0.237 OA
ATOM     57  O   UNL A   1      40.356  37.296  42.529  1.00  0.00    -0.744 OA
ENDBRANCH  53  54
ENDBRANCH  25  48
BRANCH  37  58
ATOM     58  C   UNL A   1      45.145  29.314  36.086  1.00  0.00    -0.014 A 
ATOM     59  C   UNL A   1      45.109  28.068  36.732  1.00  0.00     0.010 A 
ATOM     60  C   UNL A   1      46.376  29.974  35.920  1.00  0.00     0.010 A 
ATOM     61  C   UNL A   1      46.284  27.503  37.232  1.00  0.00     0.020 A 
ATOM     62  C   UNL A   1      47.556  29.400  36.394  1.00  0.00     0.020 A 
ATOM     63  C   UNL A   1      47.499  28.173  37.059  1.00  0.00     0.054 A 
BRANCH  63  64
ATOM     64  S   UNL A   1      49.018  27.399  37.672  1.00  0.00     0.124 S 
ATOM     65  O   UNL A   1      49.167  26.265  36.764  1.00  0.00    -0.237 OA
ATOM     66  O   UNL A   1      50.006  28.464  37.516  1.00  0.00    -0.237 OA
ATOM     67  O   UNL A   1      48.697  27.053  39.054  1.00  0.00    -0.744 OA
ENDBRANCH  63  64
ENDBRANCH  37  58
ENDBRANCH  11  12
ENDBRANCH   4   6
ENDBRANCH   3   4
ENDBRANCH   2   3
ENDBRANCH   1   2
BRANCH   1  68
ATOM     68  O   UNL A   1      34.838  33.400  27.688  1.00  0.00    -0.374 OA
BRANCH  68  69
ATOM     69  C   UNL A   1      35.441  32.101  27.675  1.00  0.00     0.202 C 
BRANCH  69  70
ATOM     70  C   UNL A   1      34.377  31.063  28.022  1.00  0.00     0.261 C 
BRANCH  70  71
ATOM     71  O   UNL A   1      33.745  30.668  26.795  1.00  0.00    -0.460 OA
BRANCH  71  72
ATOM     72  C   UNL A   1      32.429  30.975  26.675  1.00  0.00     0.338 C 
ATOM     73  O   UNL A   1      31.844  31.955  27.102  1.00  0.00    -0.246 OA
BRANCH  72  74
ATOM     74  C   UNL A   1      31.838  30.012  25.723  1.00  0.00     0.071 A 
ATOM     75  C   UNL A   1      32.357  28.715  25.766  1.00  0.00     0.045 A 
ATOM     76  C   UNL A   1      30.755  30.345  24.883  1.00  0.00     0.016 A 
ATOM     77  C   UNL A   1      31.723  27.741  25.027  1.00  0.00     0.072 A 
ATOM     78  C   UNL A   1      30.190  29.291  24.139  1.00  0.00     0.090 A 
ATOM     79  C   UNL A   1      30.231  31.660  24.751  1.00  0.00     0.011 A 
ATOM     80  N   UNL A   1      30.665  28.022  24.234  1.00  0.00    -0.246 NA
ATOM     81  C   UNL A   1      29.111  29.606  23.298  1.00  0.00     0.067 A 
ATOM     82  C   UNL A   1      29.152  31.934  23.921  1.00  0.00     0.002 A 
ATOM     83  Cl  UNL A   1      28.361  28.379  22.327  1.00  0.00    -0.082 Cl
ATOM     84  C   UNL A   1      28.591  30.903  23.190  1.00  0.00     0.023 A 
BRANCH  77  85
ATOM     85  C   UNL A   1      32.150  26.338  25.047  1.00  0.00     0.000 A 
ATOM     86  C   UNL A   1      32.395  25.650  26.245  1.00  0.00     0.012 A 
ATOM     87  C   UNL A   1      32.303  25.631  23.849  1.00  0.00     0.012 A 
ATOM     88  C   UNL A   1      32.761  24.292  26.244  1.00  0.00     0.027 A 
ATOM     89  C   UNL A   1      32.704  24.288  23.847  1.00  0.00     0.027 A 
ATOM     90  C   UNL A   1      32.928  23.591  25.042  1.00  0.00     0.052 A 
BRANCH  90  91
ATOM     91  N   UNL A   1      33.291  22.216  25.020  1.00  0.00    -0.250 N 
ATOM     92  C   UNL A   1      32.390  21.157  25.071  1.00  0.00     0.238 C 
ATOM     93  C   UNL A   1      34.594  21.748  24.892  1.00  0.00     0.238 C 
ATOM     94  O   UNL A   1      31.189  21.155  25.291  1.00  0.00    -0.274 OA
ATOM     95  C   UNL A   1      33.166  19.951  24.610  1.00  0.00     0.096 C 
ATOM     96  C   UNL A   1      34.533  20.274  25.176  1.00  0.00     0.096 C 
ATOM     97  O   UNL A   1      35.632  22.359  24.689  1.00  0.00    -0.274 OA
ATOM     98  C   UNL A   1      32.723  18.561  25.023  1.00  0.00     0.041 C 
ATOM     99  C   UNL A   1      35.597  19.379  24.572  1.00  0.00     0.041 C 
ATOM    100  C   UNL A   1      33.852  17.575  24.800  1.00  0.00    -0.030 C 
ATOM    101  C   UNL A   1      35.128  17.942  24.572  1.00  0.00    -0.030 C 
ENDBRANCH  90  91
ENDBRANCH  77  85
ENDBRANCH  72  74
ENDBRANCH  71  72
ENDBRANCH  70  71
ENDBRANCH  69  70
ENDBRANCH  68  69
ENDBRANCH   1  68
TORSDOF 19
ENDMDL
MODEL 3
REMARK VINA RESULT:      -8.5      4.120     11.479
REMARK SMILES O=C(OCCOCCOC(=O)c1cc(-c2ccc(N3C(=O)[C@@H]4CC=CC[C@H]4C3=O)cc2)nc2c(Cl)cccc12)c1ccc(-c2c3nc(c(-c4ccc(S(=O)(=O)[O-])cc4)c4ccc([nH]4)c(-c4ccc(S(=O)(=O)[O-])cc4)c4nc(c(-c5ccc(S(=O)(=O)[O-])cc5)c5ccc2[nH]5)C=C4)C=C3)cc1
REMARK SMILES IDX 5 1 4 2 3 3 2 4 1 5 40 6 41 7 99 8 42 9 98 10 43 11 44 12
REMARK SMILES IDX 45 13 92 14 46 15 97 16 91 17 93 18 47 19 96 20 90 21 89 22
REMARK SMILES IDX 48 24 78 25 59 26 77 27 60 28 63 29 76 30 94 31 61 32 62 33
REMARK SMILES IDX 75 35 95 36 64 37 49 38 50 39 58 40 51 41 57 42 52 43 53 44
REMARK SMILES IDX 54 45 55 46 56 47 79 48 80 49 88 50 81 51 87 52 82 53 83 54
REMARK SMILES IDX 84 55 85 56 86 57 65 58 66 59 74 60 67 61 73 62 68 63 69 64
REMARK SMILES IDX 70 65 71 66 72 67 6 68 7 69 8 70 9 71 10 72 11 73 12 74
REMARK SMILES IDX 13 75 39 76 14 77 33 78 38 79 32 80 34 81 37 82 35 83 36 84
REMARK SMILES IDX 15 85 16 86 31 87 17 88 30 89 18 90 19 91 20 92 28 93 21 94
REMARK SMILES IDX 22 95 27 96 29 97 23 98 26 99 24 100 25 101
REMARK H PARENT 93 23 63 34
REMARK Flexibility Score: inf
ROOT
ATOM      1  C   UNL A   1      46.247  27.507  24.421  1.00  0.00     0.202 C 
ENDROOT
BRANCH   1   2
ATOM      2  C   UNL A   1      45.273  27.509  25.603  1.00  0.00     0.261 C 
BRANCH   2   3
ATOM      3  O   UNL A   1      44.041  26.868  25.234  1.00  0.00    -0.460 OA
BRANCH   3   4
ATOM      4  C   UNL A   1      42.783  27.177  25.624  1.00  0.00     0.338 C 
ATOM      5  O   UNL A   1      41.847  26.836  24.900  1.00  0.00    -0.246 OA
BRANCH   4   6
ATOM      6  C   UNL A   1      42.456  27.914  26.884  1.00  0.00     0.060 A 
ATOM      7  C   UNL A   1      42.743  29.259  27.118  1.00  0.00     0.016 A 
ATOM      8  C   UNL A   1      41.725  27.220  27.863  1.00  0.00     0.016 A 
ATOM      9  C   UNL A   1      42.366  29.894  28.287  1.00  0.00     0.010 A 
ATOM     10  C   UNL A   1      41.314  27.857  29.039  1.00  0.00     0.010 A 
ATOM     11  C   UNL A   1      41.649  29.197  29.252  1.00  0.00    -0.014 A 
BRANCH  11  12
ATOM     12  C   UNL A   1      41.396  29.898  30.518  1.00  0.00     0.031 A 
ATOM     13  C   UNL A   1      40.159  30.735  30.619  1.00  0.00     0.074 A 
ATOM     14  C   UNL A   1      42.158  29.612  31.589  1.00  0.00     0.049 A 
ATOM     15  N   UNL A   1      39.701  31.410  31.635  1.00  0.00    -0.248 NA
ATOM     16  C   UNL A   1      39.309  30.800  29.415  1.00  0.00     0.031 C 
ATOM     17  C   UNL A   1      43.283  28.670  31.595  1.00  0.00     0.029 A 
ATOM     18  N   UNL A   1      42.074  30.036  32.885  1.00  0.00    -0.354 N 
ATOM     19  C   UNL A   1      38.528  32.003  31.188  1.00  0.00     0.074 A 
ATOM     20  C   UNL A   1      38.340  31.609  29.812  1.00  0.00     0.031 C 
ATOM     21  C   UNL A   1      43.757  28.561  32.847  1.00  0.00     0.029 A 
ATOM     22  C   UNL A   1      43.020  29.475  33.710  1.00  0.00     0.049 A 
ATOM     23  H   UNL A   1      41.400  30.681  33.199  1.00  0.00     0.167 HD
ATOM     24  C   UNL A   1      37.695  32.819  31.874  1.00  0.00     0.031 A 
ATOM     25  C   UNL A   1      43.270  29.704  35.013  1.00  0.00     0.031 A 
ATOM     26  C   UNL A   1      37.933  33.206  33.236  1.00  0.00     0.049 A 
ATOM     27  C   UNL A   1      42.400  30.710  35.717  1.00  0.00     0.074 A 
ATOM     28  C   UNL A   1      37.227  34.096  34.021  1.00  0.00     0.029 A 
ATOM     29  N   UNL A   1      38.973  32.715  34.016  1.00  0.00    -0.354 N 
ATOM     30  N   UNL A   1      41.344  31.345  35.262  1.00  0.00    -0.248 NA
ATOM     31  C   UNL A   1      42.762  31.046  37.098  1.00  0.00     0.031 C 
ATOM     32  C   UNL A   1      37.872  34.180  35.261  1.00  0.00     0.029 A 
ATOM     33  C   UNL A   1      38.943  33.297  35.268  1.00  0.00     0.049 A 
ATOM     34  H   UNL A   1      39.636  32.048  33.719  1.00  0.00     0.167 HD
ATOM     35  C   UNL A   1      40.903  32.146  36.306  1.00  0.00     0.074 A 
ATOM     36  C   UNL A   1      41.797  31.898  37.422  1.00  0.00     0.031 C 
ATOM     37  C   UNL A   1      39.860  33.013  36.346  1.00  0.00     0.031 A 
BRANCH  24  38
ATOM     38  C   UNL A   1      36.541  33.408  31.111  1.00  0.00    -0.014 A 
ATOM     39  C   UNL A   1      36.671  33.826  29.774  1.00  0.00     0.010 A 
ATOM     40  C   UNL A   1      35.313  33.602  31.771  1.00  0.00     0.010 A 
ATOM     41  C   UNL A   1      35.613  34.477  29.131  1.00  0.00     0.020 A 
ATOM     42  C   UNL A   1      34.245  34.229  31.123  1.00  0.00     0.020 A 
ATOM     43  C   UNL A   1      34.411  34.685  29.814  1.00  0.00     0.054 A 
BRANCH  43  44
ATOM     44  S   UNL A   1      33.064  35.559  28.970  1.00  0.00     0.124 S 
ATOM     45  O   UNL A   1      32.240  35.998  30.093  1.00  0.00    -0.237 OA
ATOM     46  O   UNL A   1      33.768  36.620  28.254  1.00  0.00    -0.237 OA
ATOM     47  O   UNL A   1      32.463  34.533  28.121  1.00  0.00    -0.744 OA
ENDBRANCH  43  44
ENDBRANCH  24  38
BRANCH  25  48
ATOM     48  C   UNL A   1      44.409  29.030  35.698  1.00  0.00    -0.014 A 
ATOM     49  C   UNL A   1      44.242  27.796  36.349  1.00  0.00     0.010 A 
ATOM     50  C   UNL A   1      45.684  29.631  35.703  1.00  0.00     0.010 A 
ATOM     51  C   UNL A   1      45.320  27.187  37.006  1.00  0.00     0.020 A 
ATOM     52  C   UNL A   1      46.769  29.012  36.330  1.00  0.00     0.020 A 
ATOM     53  C   UNL A   1      46.576  27.799  36.992  1.00  0.00     0.054 A 
BRANCH  53  54
ATOM     54  S   UNL A   1      47.967  26.979  37.822  1.00  0.00     0.124 S 
ATOM     55  O   UNL A   1      47.793  27.413  39.205  1.00  0.00    -0.237 OA
ATOM     56  O   UNL A   1      47.702  25.567  37.562  1.00  0.00    -0.237 OA
ATOM     57  O   UNL A   1      49.140  27.520  37.139  1.00  0.00    -0.744 OA
ENDBRANCH  53  54
ENDBRANCH  25  48
BRANCH  37  58
ATOM     58  C   UNL A   1      39.621  33.721  37.649  1.00  0.00    -0.014 A 
ATOM     59  C   UNL A   1      38.822  33.148  38.651  1.00  0.00     0.010 A 
ATOM     60  C   UNL A   1      40.258  34.953  37.887  1.00  0.00     0.010 A 
ATOM     61  C   UNL A   1      38.638  33.812  39.865  1.00  0.00     0.020 A 
ATOM     62  C   UNL A   1      40.099  35.605  39.109  1.00  0.00     0.020 A 
ATOM     63  C   UNL A   1      39.278  35.036  40.086  1.00  0.00     0.054 A 
BRANCH  63  64
ATOM     64  S   UNL A   1      39.066  35.857  41.687  1.00  0.00     0.124 S 
ATOM     65  O   UNL A   1      39.111  37.267  41.313  1.00  0.00    -0.237 OA
ATOM     66  O   UNL A   1      37.763  35.364  42.130  1.00  0.00    -0.237 OA
ATOM     67  O   UNL A   1      40.203  35.383  42.472  1.00  0.00    -0.744 OA
ENDBRANCH  63  64
ENDBRANCH  37  58
ENDBRANCH  11  12
ENDBRANCH   4   6
ENDBRANCH   3   4
ENDBRANCH   2   3
ENDBRANCH   1   2
BRANCH   1  68
ATOM     68  O   UNL A   1      47.395  26.683  24.604  1.00  0.00    -0.374 OA
BRANCH  68  69
ATOM     69  C   UNL A   1      48.622  27.365  24.889  1.00  0.00     0.202 C 
BRANCH  69  70
ATOM     70  C   UNL A   1      49.463  26.494  25.817  1.00  0.00     0.261 C 
BRANCH  70  71
ATOM     71  O   UNL A   1      48.808  26.468  27.094  1.00  0.00    -0.460 OA
BRANCH  71  72
ATOM     72  C   UNL A   1      48.731  25.259  27.702  1.00  0.00     0.338 C 
ATOM     73  O   UNL A   1      49.562  24.369  27.715  1.00  0.00    -0.246 OA
BRANCH  72  74
ATOM     74  C   UNL A   1      47.529  25.275  28.561  1.00  0.00     0.071 A 
ATOM     75  C   UNL A   1      46.343  24.847  27.960  1.00  0.00     0.045 A 
ATOM     76  C   UNL A   1      47.581  25.612  29.930  1.00  0.00     0.016 A 
ATOM     77  C   UNL A   1      45.236  24.676  28.762  1.00  0.00     0.072 A 
ATOM     78  C   UNL A   1      46.393  25.438  30.666  1.00  0.00     0.090 A 
ATOM     79  C   UNL A   1      48.742  26.116  30.578  1.00  0.00     0.011 A 
ATOM     80  N   UNL A   1      45.262  24.964  30.083  1.00  0.00    -0.246 NA
ATOM     81  C   UNL A   1      46.428  25.770  32.029  1.00  0.00     0.067 A 
ATOM     82  C   UNL A   1      48.747  26.420  31.933  1.00  0.00     0.002 A 
ATOM     83  Cl  UNL A   1      45.009  25.607  33.015  1.00  0.00    -0.082 Cl
ATOM     84  C   UNL A   1      47.584  26.248  32.661  1.00  0.00     0.023 A 
BRANCH  77  85
ATOM     85  C   UNL A   1      43.959  24.175  28.243  1.00  0.00     0.000 A 
ATOM     86  C   UNL A   1      42.877  23.880  29.087  1.00  0.00     0.012 A 
ATOM     87  C   UNL A   1      43.778  23.997  26.868  1.00  0.00     0.012 A 
ATOM     88  C   UNL A   1      41.646  23.441  28.565  1.00  0.00     0.027 A 
ATOM     89  C   UNL A   1      42.563  23.526  26.352  1.00  0.00     0.027 A 
ATOM     90  C   UNL A   1      41.472  23.251  27.188  1.00  0.00     0.052 A 
BRANCH  90  91
ATOM     91  N   UNL A   1      40.233  22.815  26.642  1.00  0.00    -0.250 N 
ATOM     92  C   UNL A   1      39.976  21.526  26.188  1.00  0.00     0.238 C 
ATOM     93  C   UNL A   1      39.097  23.611  26.538  1.00  0.00     0.238 C 
ATOM     94  O   UNL A   1      40.735  20.586  26.015  1.00  0.00    -0.274 OA
ATOM     95  C   UNL A   1      38.475  21.426  26.101  1.00  0.00     0.096 C 
ATOM     96  C   UNL A   1      38.131  22.840  25.683  1.00  0.00     0.096 C 
ATOM     97  O   UNL A   1      38.890  24.743  26.946  1.00  0.00    -0.274 OA
ATOM     98  C   UNL A   1      37.834  20.415  25.171  1.00  0.00     0.041 C 
ATOM     99  C   UNL A   1      36.648  23.111  25.847  1.00  0.00     0.041 C 
ATOM    100  C   UNL A   1      36.379  20.772  24.948  1.00  0.00    -0.030 C 
ATOM    101  C   UNL A   1      35.846  21.966  25.275  1.00  0.00    -0.030 C 
ENDBRANCH  90  91
ENDBRANCH  77  85
ENDBRANCH  72  74
ENDBRANCH  71  72
ENDBRANCH  70  71
ENDBRANCH  69  70
ENDBRANCH  68  69
ENDBRANCH   1  68
TORSDOF 19
ENDMDL
