MODEL 1
REMARK VINA RESULT:     -10.4      0.000      0.000
REMARK SMILES O=C(OCCOCCOC(=O)c1cc(S(=O)(=O)Nc2cccc(Cl)c2)ccc1O)c1ccc(-c2c3nc(c(-c4ccc(S(=O)(=O)[O-])cc4)c4ccc([nH]4)c(-c4ccc(S(=O)(=O)[O-])cc4)c4nc(c(-c5ccc(S(=O)(=O)[O-])cc5)c5ccc2[nH]5)C=C4)C=C3)cc1
REMARK SMILES IDX 6 1 5 2 4 3 3 4 2 5 1 6 30 7 31 8 89 9 32 10 88 11 33 12
REMARK SMILES IDX 34 13 35 14 82 15 36 16 87 17 81 18 83 19 37 20 86 21 80 22
REMARK SMILES IDX 79 23 38 25 68 26 49 27 67 28 50 29 53 30 66 31 84 32 51 33
REMARK SMILES IDX 52 34 65 36 85 37 54 38 39 39 40 40 48 41 41 42 47 43 42 44
REMARK SMILES IDX 43 45 44 46 45 47 46 48 69 49 70 50 78 51 71 52 77 53 72 54
REMARK SMILES IDX 73 55 74 56 75 57 76 58 55 59 56 60 64 61 57 62 63 63 58 64
REMARK SMILES IDX 59 65 60 66 61 67 62 68 7 69 8 70 9 71 10 72 11 73 12 74
REMARK SMILES IDX 13 75 28 76 14 77 27 78 26 79 29 80 15 82 16 83 17 84 18 85
REMARK SMILES IDX 19 87 20 88 25 89 21 90 23 91 22 92 24 93
REMARK H PARENT 83 24 53 35 29 81 18 86
REMARK Flexibility Score: inf
ROOT
ATOM      1  O   UNL A   1      35.175  31.354  28.666  1.00  0.00    -0.374 OA
ENDROOT
BRANCH   1   2
ATOM      2  C   UNL A   1      34.897  32.268  29.724  1.00  0.00     0.202 C 
BRANCH   2   3
ATOM      3  C   UNL A   1      36.124  32.738  30.512  1.00  0.00     0.261 C 
BRANCH   3   4
ATOM      4  O   UNL A   1      36.457  31.775  31.528  1.00  0.00    -0.460 OA
BRANCH   4   5
ATOM      5  C   UNL A   1      37.030  30.559  31.367  1.00  0.00     0.338 C 
ATOM      6  O   UNL A   1      36.413  29.566  31.749  1.00  0.00    -0.246 OA
BRANCH   5   7
ATOM      7  C   UNL A   1      38.395  30.362  30.791  1.00  0.00     0.060 A 
ATOM      8  C   UNL A   1      39.539  30.082  31.541  1.00  0.00     0.016 A 
ATOM      9  C   UNL A   1      38.505  30.334  29.390  1.00  0.00     0.016 A 
ATOM     10  C   UNL A   1      40.760  29.814  30.941  1.00  0.00     0.010 A 
ATOM     11  C   UNL A   1      39.721  30.022  28.773  1.00  0.00     0.010 A 
ATOM     12  C   UNL A   1      40.850  29.756  29.555  1.00  0.00    -0.014 A 
BRANCH  12  13
ATOM     13  C   UNL A   1      42.151  29.415  28.958  1.00  0.00     0.031 A 
ATOM     14  C   UNL A   1      42.374  28.025  28.458  1.00  0.00     0.074 A 
ATOM     15  C   UNL A   1      43.069  30.389  28.802  1.00  0.00     0.049 A 
ATOM     16  N   UNL A   1      43.458  27.498  27.961  1.00  0.00    -0.248 NA
ATOM     17  C   UNL A   1      41.222  27.108  28.513  1.00  0.00     0.031 C 
ATOM     18  C   UNL A   1      42.876  31.797  29.167  1.00  0.00     0.029 A 
ATOM     19  N   UNL A   1      44.336  30.353  28.285  1.00  0.00    -0.354 N 
ATOM     20  C   UNL A   1      43.132  26.179  27.676  1.00  0.00     0.074 A 
ATOM     21  C   UNL A   1      41.747  25.987  28.040  1.00  0.00     0.031 C 
ATOM     22  C   UNL A   1      43.985  32.488  28.857  1.00  0.00     0.029 A 
ATOM     23  C   UNL A   1      44.986  31.563  28.343  1.00  0.00     0.049 A 
ATOM     24  H   UNL A   1      44.742  29.539  27.908  1.00  0.00     0.167 HD
ATOM     25  C   UNL A   1      43.939  25.216  27.177  1.00  0.00     0.031 A 
ATOM     26  C   UNL A   1      46.268  31.869  28.061  1.00  0.00     0.031 A 
ATOM     27  C   UNL A   1      45.316  25.446  26.836  1.00  0.00     0.049 A 
ATOM     28  C   UNL A   1      47.166  30.753  27.600  1.00  0.00     0.074 A 
ATOM     29  C   UNL A   1      46.243  24.547  26.344  1.00  0.00     0.029 A 
ATOM     30  N   UNL A   1      45.963  26.667  26.965  1.00  0.00    -0.354 N 
ATOM     31  N   UNL A   1      46.856  29.502  27.344  1.00  0.00    -0.248 NA
ATOM     32  C   UNL A   1      48.586  31.074  27.412  1.00  0.00     0.031 C 
ATOM     33  C   UNL A   1      47.469  25.211  26.236  1.00  0.00     0.029 A 
ATOM     34  C   UNL A   1      47.291  26.537  26.605  1.00  0.00     0.049 A 
ATOM     35  H   UNL A   1      45.539  27.503  27.267  1.00  0.00     0.167 HD
ATOM     36  C   UNL A   1      48.042  28.887  26.968  1.00  0.00     0.074 A 
ATOM     37  C   UNL A   1      49.069  29.911  26.996  1.00  0.00     0.031 C 
ATOM     38  C   UNL A   1      48.275  27.591  26.645  1.00  0.00     0.031 A 
BRANCH  25  39
ATOM     39  C   UNL A   1      43.382  23.826  27.061  1.00  0.00    -0.014 A 
ATOM     40  C   UNL A   1      43.224  22.995  28.184  1.00  0.00     0.010 A 
ATOM     41  C   UNL A   1      42.980  23.358  25.798  1.00  0.00     0.010 A 
ATOM     42  C   UNL A   1      42.688  21.710  28.039  1.00  0.00     0.020 A 
ATOM     43  C   UNL A   1      42.428  22.083  25.652  1.00  0.00     0.020 A 
ATOM     44  C   UNL A   1      42.294  21.263  26.774  1.00  0.00     0.054 A 
BRANCH  44  45
ATOM     45  S   UNL A   1      41.566  19.609  26.619  1.00  0.00     0.124 S 
ATOM     46  O   UNL A   1      42.206  18.893  27.721  1.00  0.00    -0.237 OA
ATOM     47  O   UNL A   1      40.139  19.870  26.787  1.00  0.00    -0.237 OA
ATOM     48  O   UNL A   1      41.964  19.176  25.282  1.00  0.00    -0.744 OA
ENDBRANCH  44  45
ENDBRANCH  25  39
BRANCH  26  49
ATOM     49  C   UNL A   1      46.797  33.240  28.315  1.00  0.00    -0.014 A 
ATOM     50  C   UNL A   1      47.301  33.609  29.575  1.00  0.00     0.010 A 
ATOM     51  C   UNL A   1      46.765  34.206  27.291  1.00  0.00     0.010 A 
ATOM     52  C   UNL A   1      47.726  34.921  29.813  1.00  0.00     0.020 A 
ATOM     53  C   UNL A   1      47.218  35.509  27.514  1.00  0.00     0.020 A 
ATOM     54  C   UNL A   1      47.675  35.865  28.783  1.00  0.00     0.054 A 
BRANCH  54  55
ATOM     55  S   UNL A   1      48.228  37.562  29.109  1.00  0.00     0.124 S 
ATOM     56  O   UNL A   1      47.013  38.330  28.858  1.00  0.00    -0.237 OA
ATOM     57  O   UNL A   1      48.656  37.495  30.504  1.00  0.00    -0.237 OA
ATOM     58  O   UNL A   1      49.306  37.763  28.143  1.00  0.00    -0.744 OA
ENDBRANCH  54  55
ENDBRANCH  26  49
BRANCH  38  59
ATOM     59  C   UNL A   1      49.685  27.217  26.293  1.00  0.00    -0.014 A 
ATOM     60  C   UNL A   1      50.584  26.800  27.289  1.00  0.00     0.010 A 
ATOM     61  C   UNL A   1      50.082  27.193  24.945  1.00  0.00     0.010 A 
ATOM     62  C   UNL A   1      51.865  26.369  26.942  1.00  0.00     0.020 A 
ATOM     63  C   UNL A   1      51.353  26.737  24.592  1.00  0.00     0.020 A 
ATOM     64  C   UNL A   1      52.238  26.334  25.595  1.00  0.00     0.054 A 
BRANCH  64  65
ATOM     65  S   UNL A   1      53.876  25.690  25.164  1.00  0.00     0.124 S 
ATOM     66  O   UNL A   1      54.752  26.498  26.007  1.00  0.00    -0.237 OA
ATOM     67  O   UNL A   1      53.773  24.280  25.533  1.00  0.00    -0.237 OA
ATOM     68  O   UNL A   1      53.982  25.946  23.729  1.00  0.00    -0.744 OA
ENDBRANCH  64  65
ENDBRANCH  38  59
ENDBRANCH  12  13
ENDBRANCH   5   7
ENDBRANCH   4   5
ENDBRANCH   3   4
ENDBRANCH   2   3
ENDBRANCH   1   2
BRANCH   1  69
ATOM     69  C   UNL A   1      34.183  31.266  27.633  1.00  0.00     0.202 C 
BRANCH  69  70
ATOM     70  C   UNL A   1      34.098  29.815  27.152  1.00  0.00     0.261 C 
BRANCH  70  71
ATOM     71  O   UNL A   1      33.503  29.834  25.846  1.00  0.00    -0.460 OA
BRANCH  71  72
ATOM     72  C   UNL A   1      32.145  29.777  25.802  1.00  0.00     0.342 C 
ATOM     73  O   UNL A   1      31.362  30.330  26.536  1.00  0.00    -0.246 OA
BRANCH  72  74
ATOM     74  C   UNL A   1      31.774  29.170  24.493  1.00  0.00     0.103 A 
ATOM     75  C   UNL A   1      32.536  28.073  24.053  1.00  0.00     0.041 A 
ATOM     76  C   UNL A   1      30.606  29.528  23.804  1.00  0.00     0.130 A 
ATOM     77  C   UNL A   1      32.061  27.292  22.997  1.00  0.00     0.088 A 
ATOM     78  C   UNL A   1      30.116  28.716  22.784  1.00  0.00     0.048 A 
ATOM     79  C   UNL A   1      30.812  27.564  22.426  1.00  0.00     0.026 A 
BRANCH  76  80
ATOM     80  O   UNL A   1      29.936  30.675  24.118  1.00  0.00    -0.507 OA
ATOM     81  H   UNL A   1      29.678  30.840  25.003  1.00  0.00     0.293 HD
ENDBRANCH  76  80
BRANCH  77  82
ATOM     82  S   UNL A   1      32.976  25.874  22.436  1.00  0.00     0.261 S 
ATOM     83  O   UNL A   1      33.454  26.134  21.097  1.00  0.00    -0.201 OA
ATOM     84  O   UNL A   1      33.903  25.534  23.496  1.00  0.00    -0.201 OA
BRANCH  82  85
ATOM     85  N   UNL A   1      31.900  24.546  22.319  1.00  0.00    -0.280 N 
ATOM     86  H   UNL A   1      31.293  24.458  21.549  1.00  0.00     0.180 HD
BRANCH  85  87
ATOM     87  C   UNL A   1      31.899  23.568  23.365  1.00  0.00     0.050 A 
ATOM     88  C   UNL A   1      32.603  22.378  23.168  1.00  0.00     0.027 A 
ATOM     89  C   UNL A   1      31.127  23.747  24.516  1.00  0.00     0.047 A 
ATOM     90  C   UNL A   1      32.512  21.346  24.101  1.00  0.00     0.004 A 
ATOM     91  C   UNL A   1      31.053  22.714  25.453  1.00  0.00     0.043 A 
ATOM     92  C   UNL A   1      31.731  21.511  25.245  1.00  0.00     0.020 A 
ATOM     93  Cl  UNL A   1      30.086  22.907  26.863  1.00  0.00    -0.084 Cl
ENDBRANCH  85  87
ENDBRANCH  82  85
ENDBRANCH  77  82
ENDBRANCH  72  74
ENDBRANCH  71  72
ENDBRANCH  70  71
ENDBRANCH  69  70
ENDBRANCH   1  69
TORSDOF 21
ENDMDL
MODEL 2
REMARK VINA RESULT:     -10.0      5.977      8.490
REMARK SMILES O=C(OCCOCCOC(=O)c1cc(S(=O)(=O)Nc2cccc(Cl)c2)ccc1O)c1ccc(-c2c3nc(c(-c4ccc(S(=O)(=O)[O-])cc4)c4ccc([nH]4)c(-c4ccc(S(=O)(=O)[O-])cc4)c4nc(c(-c5ccc(S(=O)(=O)[O-])cc5)c5ccc2[nH]5)C=C4)C=C3)cc1
REMARK SMILES IDX 6 1 5 2 4 3 3 4 2 5 1 6 30 7 31 8 89 9 32 10 88 11 33 12
REMARK SMILES IDX 34 13 35 14 82 15 36 16 87 17 81 18 83 19 37 20 86 21 80 22
REMARK SMILES IDX 79 23 38 25 68 26 49 27 67 28 50 29 53 30 66 31 84 32 51 33
REMARK SMILES IDX 52 34 65 36 85 37 54 38 39 39 40 40 48 41 41 42 47 43 42 44
REMARK SMILES IDX 43 45 44 46 45 47 46 48 69 49 70 50 78 51 71 52 77 53 72 54
REMARK SMILES IDX 73 55 74 56 75 57 76 58 55 59 56 60 64 61 57 62 63 63 58 64
REMARK SMILES IDX 59 65 60 66 61 67 62 68 7 69 8 70 9 71 10 72 11 73 12 74
REMARK SMILES IDX 13 75 28 76 14 77 27 78 26 79 29 80 15 82 16 83 17 84 18 85
REMARK SMILES IDX 19 87 20 88 25 89 21 90 23 91 22 92 24 93
REMARK H PARENT 83 24 53 35 29 81 18 86
REMARK Flexibility Score: inf
ROOT
ATOM      1  O   UNL A   1      34.579  31.179  27.180  1.00  0.00    -0.374 OA
ENDROOT
BRANCH   1   2
ATOM      2  C   UNL A   1      33.812  31.935  28.114  1.00  0.00     0.202 C 
BRANCH   2   3
ATOM      3  C   UNL A   1      33.905  33.455  27.946  1.00  0.00     0.261 C 
BRANCH   3   4
ATOM      4  O   UNL A   1      33.046  34.110  28.897  1.00  0.00    -0.460 OA
BRANCH   4   5
ATOM      5  C   UNL A   1      33.328  34.450  30.177  1.00  0.00     0.338 C 
ATOM      6  O   UNL A   1      32.557  35.208  30.764  1.00  0.00    -0.246 OA
BRANCH   5   7
ATOM      7  C   UNL A   1      34.552  33.989  30.902  1.00  0.00     0.060 A 
ATOM      8  C   UNL A   1      34.637  32.807  31.639  1.00  0.00     0.016 A 
ATOM      9  C   UNL A   1      35.727  34.739  30.723  1.00  0.00     0.016 A 
ATOM     10  C   UNL A   1      35.830  32.386  32.209  1.00  0.00     0.010 A 
ATOM     11  C   UNL A   1      36.943  34.302  31.257  1.00  0.00     0.010 A 
ATOM     12  C   UNL A   1      36.993  33.117  31.997  1.00  0.00    -0.014 A 
BRANCH  12  13
ATOM     13  C   UNL A   1      38.247  32.608  32.575  1.00  0.00     0.031 A 
ATOM     14  C   UNL A   1      39.140  31.763  31.727  1.00  0.00     0.074 A 
ATOM     15  C   UNL A   1      38.591  32.990  33.819  1.00  0.00     0.049 A 
ATOM     16  N   UNL A   1      40.250  31.162  32.054  1.00  0.00    -0.248 NA
ATOM     17  C   UNL A   1      38.740  31.577  30.321  1.00  0.00     0.031 C 
ATOM     18  C   UNL A   1      37.818  33.907  34.665  1.00  0.00     0.029 A 
ATOM     19  N   UNL A   1      39.681  32.676  34.586  1.00  0.00    -0.354 N 
ATOM     20  C   UNL A   1      40.664  30.497  30.907  1.00  0.00     0.074 A 
ATOM     21  C   UNL A   1      39.698  30.779  29.871  1.00  0.00     0.031 C 
ATOM     22  C   UNL A   1      38.462  34.081  35.830  1.00  0.00     0.029 A 
ATOM     23  C   UNL A   1      39.650  33.236  35.840  1.00  0.00     0.049 A 
ATOM     24  H   UNL A   1      40.417  32.103  34.268  1.00  0.00     0.167 HD
ATOM     25  C   UNL A   1      41.748  29.703  30.756  1.00  0.00     0.031 A 
ATOM     26  C   UNL A   1      40.465  33.040  36.895  1.00  0.00     0.031 A 
ATOM     27  C   UNL A   1      42.681  29.440  31.816  1.00  0.00     0.049 A 
ATOM     28  C   UNL A   1      41.607  32.074  36.723  1.00  0.00     0.074 A 
ATOM     29  C   UNL A   1      43.804  28.636  31.795  1.00  0.00     0.029 A 
ATOM     30  N   UNL A   1      42.588  29.973  33.095  1.00  0.00    -0.354 N 
ATOM     31  N   UNL A   1      41.987  31.437  35.639  1.00  0.00    -0.248 NA
ATOM     32  C   UNL A   1      42.415  31.778  37.912  1.00  0.00     0.031 C 
ATOM     33  C   UNL A   1      44.355  28.633  33.080  1.00  0.00     0.029 A 
ATOM     34  C   UNL A   1      43.608  29.480  33.886  1.00  0.00     0.049 A 
ATOM     35  H   UNL A   1      41.898  30.609  33.393  1.00  0.00     0.167 HD
ATOM     36  C   UNL A   1      43.076  30.663  36.016  1.00  0.00     0.074 A 
ATOM     37  C   UNL A   1      43.315  30.939  37.419  1.00  0.00     0.031 C 
ATOM     38  C   UNL A   1      43.806  29.789  35.281  1.00  0.00     0.031 A 
BRANCH  25  39
ATOM     39  C   UNL A   1      41.923  29.001  29.440  1.00  0.00    -0.014 A 
ATOM     40  C   UNL A   1      42.661  29.571  28.388  1.00  0.00     0.010 A 
ATOM     41  C   UNL A   1      41.357  27.725  29.269  1.00  0.00     0.010 A 
ATOM     42  C   UNL A   1      42.814  28.882  27.180  1.00  0.00     0.020 A 
ATOM     43  C   UNL A   1      41.524  27.025  28.072  1.00  0.00     0.020 A 
ATOM     44  C   UNL A   1      42.244  27.613  27.030  1.00  0.00     0.054 A 
BRANCH  44  45
ATOM     45  S   UNL A   1      42.491  26.724  25.469  1.00  0.00     0.124 S 
ATOM     46  O   UNL A   1      42.658  27.821  24.519  1.00  0.00    -0.237 OA
ATOM     47  O   UNL A   1      43.692  25.936  25.735  1.00  0.00    -0.237 OA
ATOM     48  O   UNL A   1      41.264  25.947  25.312  1.00  0.00    -0.744 OA
ENDBRANCH  44  45
ENDBRANCH  25  39
BRANCH  26  49
ATOM     49  C   UNL A   1      40.169  33.668  38.215  1.00  0.00    -0.014 A 
ATOM     50  C   UNL A   1      39.288  33.066  39.131  1.00  0.00     0.010 A 
ATOM     51  C   UNL A   1      40.748  34.907  38.549  1.00  0.00     0.010 A 
ATOM     52  C   UNL A   1      38.967  33.707  40.334  1.00  0.00     0.020 A 
ATOM     53  C   UNL A   1      40.457  35.536  39.762  1.00  0.00     0.020 A 
ATOM     54  C   UNL A   1      39.548  34.941  40.638  1.00  0.00     0.054 A 
BRANCH  54  55
ATOM     55  S   UNL A   1      39.119  35.760  42.200  1.00  0.00     0.124 S 
ATOM     56  O   UNL A   1      40.106  35.200  43.117  1.00  0.00    -0.237 OA
ATOM     57  O   UNL A   1      39.287  37.174  41.876  1.00  0.00    -0.237 OA
ATOM     58  O   UNL A   1      37.738  35.342  42.436  1.00  0.00    -0.744 OA
ENDBRANCH  54  55
ENDBRANCH  26  49
BRANCH  38  59
ATOM     59  C   UNL A   1      44.928  29.078  35.980  1.00  0.00    -0.014 A 
ATOM     60  C   UNL A   1      46.181  29.695  36.133  1.00  0.00     0.010 A 
ATOM     61  C   UNL A   1      44.694  27.823  36.570  1.00  0.00     0.010 A 
ATOM     62  C   UNL A   1      47.188  29.063  36.862  1.00  0.00     0.020 A 
ATOM     63  C   UNL A   1      45.692  27.201  37.322  1.00  0.00     0.020 A 
ATOM     64  C   UNL A   1      46.935  27.824  37.458  1.00  0.00     0.054 A 
BRANCH  64  65
ATOM     65  S   UNL A   1      48.232  27.065  38.470  1.00  0.00     0.124 S 
ATOM     66  O   UNL A   1      47.464  26.170  39.330  1.00  0.00    -0.237 OA
ATOM     67  O   UNL A   1      49.075  26.410  37.472  1.00  0.00    -0.237 OA
ATOM     68  O   UNL A   1      48.852  28.203  39.149  1.00  0.00    -0.744 OA
ENDBRANCH  64  65
ENDBRANCH  38  59
ENDBRANCH  12  13
ENDBRANCH   5   7
ENDBRANCH   4   5
ENDBRANCH   3   4
ENDBRANCH   2   3
ENDBRANCH   1   2
BRANCH   1  69
ATOM     69  C   UNL A   1      34.918  29.843  27.579  1.00  0.00     0.202 C 
BRANCH  69  70
ATOM     70  C   UNL A   1      33.711  28.933  27.330  1.00  0.00     0.261 C 
BRANCH  70  71
ATOM     71  O   UNL A   1      33.388  29.027  25.934  1.00  0.00    -0.460 OA
BRANCH  71  72
ATOM     72  C   UNL A   1      32.111  29.387  25.635  1.00  0.00     0.342 C 
ATOM     73  O   UNL A   1      31.425  30.205  26.200  1.00  0.00    -0.246 OA
BRANCH  72  74
ATOM     74  C   UNL A   1      31.804  28.830  24.288  1.00  0.00     0.103 A 
ATOM     75  C   UNL A   1      32.522  27.692  23.882  1.00  0.00     0.041 A 
ATOM     76  C   UNL A   1      30.722  29.281  23.518  1.00  0.00     0.130 A 
ATOM     77  C   UNL A   1      32.080  26.964  22.775  1.00  0.00     0.088 A 
ATOM     78  C   UNL A   1      30.259  28.524  22.445  1.00  0.00     0.048 A 
ATOM     79  C   UNL A   1      30.901  27.333  22.115  1.00  0.00     0.026 A 
BRANCH  76  80
ATOM     80  O   UNL A   1      30.108  30.467  23.805  1.00  0.00    -0.507 OA
ATOM     81  H   UNL A   1      30.033  30.752  24.694  1.00  0.00     0.293 HD
ENDBRANCH  76  80
BRANCH  77  82
ATOM     82  S   UNL A   1      32.938  25.496  22.254  1.00  0.00     0.261 S 
ATOM     83  O   UNL A   1      33.277  25.631  20.856  1.00  0.00    -0.201 OA
ATOM     84  O   UNL A   1      33.969  25.247  23.241  1.00  0.00    -0.201 OA
BRANCH  82  85
ATOM     85  N   UNL A   1      31.859  24.169  22.367  1.00  0.00    -0.280 N 
ATOM     86  H   UNL A   1      31.085  24.100  21.764  1.00  0.00     0.180 HD
BRANCH  85  87
ATOM     87  C   UNL A   1      32.107  23.165  23.357  1.00  0.00     0.050 A 
ATOM     88  C   UNL A   1      32.419  21.871  22.933  1.00  0.00     0.027 A 
ATOM     89  C   UNL A   1      31.937  23.439  24.717  1.00  0.00     0.047 A 
ATOM     90  C   UNL A   1      32.528  20.836  23.862  1.00  0.00     0.004 A 
ATOM     91  C   UNL A   1      32.063  22.399  25.641  1.00  0.00     0.043 A 
ATOM     92  C   UNL A   1      32.345  21.099  25.219  1.00  0.00     0.020 A 
ATOM     93  Cl  UNL A   1      31.831  22.714  27.317  1.00  0.00    -0.084 Cl
ENDBRANCH  85  87
ENDBRANCH  82  85
ENDBRANCH  77  82
ENDBRANCH  72  74
ENDBRANCH  71  72
ENDBRANCH  70  71
ENDBRANCH  69  70
ENDBRANCH   1  69
TORSDOF 21
ENDMDL
MODEL 3
REMARK VINA RESULT:      -9.9      5.984     11.889
REMARK SMILES O=C(OCCOCCOC(=O)c1cc(S(=O)(=O)Nc2cccc(Cl)c2)ccc1O)c1ccc(-c2c3nc(c(-c4ccc(S(=O)(=O)[O-])cc4)c4ccc([nH]4)c(-c4ccc(S(=O)(=O)[O-])cc4)c4nc(c(-c5ccc(S(=O)(=O)[O-])cc5)c5ccc2[nH]5)C=C4)C=C3)cc1
REMARK SMILES IDX 6 1 5 2 4 3 3 4 2 5 1 6 30 7 31 8 89 9 32 10 88 11 33 12
REMARK SMILES IDX 34 13 35 14 82 15 36 16 87 17 81 18 83 19 37 20 86 21 80 22
REMARK SMILES IDX 79 23 38 25 68 26 49 27 67 28 50 29 53 30 66 31 84 32 51 33
REMARK SMILES IDX 52 34 65 36 85 37 54 38 39 39 40 40 48 41 41 42 47 43 42 44
REMARK SMILES IDX 43 45 44 46 45 47 46 48 69 49 70 50 78 51 71 52 77 53 72 54
REMARK SMILES IDX 73 55 74 56 75 57 76 58 55 59 56 60 64 61 57 62 63 63 58 64
REMARK SMILES IDX 59 65 60 66 61 67 62 68 7 69 8 70 9 71 10 72 11 73 12 74
REMARK SMILES IDX 13 75 28 76 14 77 27 78 26 79 29 80 15 82 16 83 17 84 18 85
REMARK SMILES IDX 19 87 20 88 25 89 21 90 23 91 22 92 24 93
REMARK H PARENT 83 24 53 35 29 81 18 86
REMARK Flexibility Score: inf
ROOT
ATOM      1  O   UNL A   1      40.376  22.987  27.145  1.00  0.00    -0.374 OA
ENDROOT
BRANCH   1   2
ATOM      2  C   UNL A   1      41.266  22.233  26.323  1.00  0.00     0.202 C 
BRANCH   2   3
ATOM      3  C   UNL A   1      42.252  23.069  25.502  1.00  0.00     0.261 C 
BRANCH   3   4
ATOM      4  O   UNL A   1      42.797  24.127  26.312  1.00  0.00    -0.460 OA
BRANCH   4   5
ATOM      5  C   UNL A   1      42.460  25.438  26.305  1.00  0.00     0.338 C 
ATOM      6  O   UNL A   1      42.327  26.003  25.220  1.00  0.00    -0.246 OA
BRANCH   5   7
ATOM      7  C   UNL A   1      42.286  26.251  27.548  1.00  0.00     0.060 A 
ATOM      8  C   UNL A   1      42.867  27.502  27.764  1.00  0.00     0.016 A 
ATOM      9  C   UNL A   1      41.375  25.774  28.506  1.00  0.00     0.016 A 
ATOM     10  C   UNL A   1      42.589  28.250  28.899  1.00  0.00     0.010 A 
ATOM     11  C   UNL A   1      41.055  26.538  29.633  1.00  0.00     0.010 A 
ATOM     12  C   UNL A   1      41.662  27.784  29.824  1.00  0.00    -0.014 A 
BRANCH  12  13
ATOM     13  C   UNL A   1      41.356  28.632  30.986  1.00  0.00     0.031 A 
ATOM     14  C   UNL A   1      40.182  29.554  30.918  1.00  0.00     0.074 A 
ATOM     15  C   UNL A   1      42.091  28.489  32.106  1.00  0.00     0.049 A 
ATOM     16  N   UNL A   1      39.776  30.428  31.796  1.00  0.00    -0.248 NA
ATOM     17  C   UNL A   1      39.347  29.474  29.707  1.00  0.00     0.031 C 
ATOM     18  C   UNL A   1      43.184  27.526  32.281  1.00  0.00     0.029 A 
ATOM     19  N   UNL A   1      42.024  29.134  33.312  1.00  0.00    -0.354 N 
ATOM     20  C   UNL A   1      38.659  31.029  31.231  1.00  0.00     0.074 A 
ATOM     21  C   UNL A   1      38.440  30.412  29.944  1.00  0.00     0.031 C 
ATOM     22  C   UNL A   1      43.681  27.644  33.523  1.00  0.00     0.029 A 
ATOM     23  C   UNL A   1      42.992  28.734  34.203  1.00  0.00     0.049 A 
ATOM     24  H   UNL A   1      41.348  29.819  33.521  1.00  0.00     0.167 HD
ATOM     25  C   UNL A   1      37.907  32.028  31.746  1.00  0.00     0.031 A 
ATOM     26  C   UNL A   1      43.315  29.235  35.411  1.00  0.00     0.031 A 
ATOM     27  C   UNL A   1      38.164  32.621  33.029  1.00  0.00     0.049 A 
ATOM     28  C   UNL A   1      42.519  30.411  35.913  1.00  0.00     0.074 A 
ATOM     29  C   UNL A   1      37.489  33.654  33.651  1.00  0.00     0.029 A 
ATOM     30  N   UNL A   1      39.191  32.237  33.881  1.00  0.00    -0.354 N 
ATOM     31  N   UNL A   1      41.471  30.985  35.369  1.00  0.00    -0.248 NA
ATOM     32  C   UNL A   1      42.958  31.023  37.173  1.00  0.00     0.031 C 
ATOM     33  C   UNL A   1      38.148  33.935  34.852  1.00  0.00     0.029 A 
ATOM     34  C   UNL A   1      39.197  33.041  35.005  1.00  0.00     0.049 A 
ATOM     35  H   UNL A   1      39.821  31.499  33.711  1.00  0.00     0.167 HD
ATOM     36  C   UNL A   1      41.126  32.027  36.218  1.00  0.00     0.074 A 
ATOM     37  C   UNL A   1      42.056  31.982  37.330  1.00  0.00     0.031 C 
ATOM     38  C   UNL A   1      40.143  32.953  36.089  1.00  0.00     0.031 A 
BRANCH  25  39
ATOM     39  C   UNL A   1      36.809  32.590  30.890  1.00  0.00    -0.014 A 
ATOM     40  C   UNL A   1      35.462  32.238  31.085  1.00  0.00     0.010 A 
ATOM     41  C   UNL A   1      37.138  33.517  29.885  1.00  0.00     0.010 A 
ATOM     42  C   UNL A   1      34.465  32.793  30.276  1.00  0.00     0.020 A 
ATOM     43  C   UNL A   1      36.143  34.088  29.088  1.00  0.00     0.020 A 
ATOM     44  C   UNL A   1      34.812  33.714  29.282  1.00  0.00     0.054 A 
BRANCH  44  45
ATOM     45  S   UNL A   1      33.496  34.449  28.273  1.00  0.00     0.124 S 
ATOM     46  O   UNL A   1      32.648  35.070  29.288  1.00  0.00    -0.237 OA
ATOM     47  O   UNL A   1      34.229  35.377  27.416  1.00  0.00    -0.237 OA
ATOM     48  O   UNL A   1      32.905  33.305  27.584  1.00  0.00    -0.744 OA
ENDBRANCH  44  45
ENDBRANCH  25  39
BRANCH  26  49
ATOM     49  C   UNL A   1      44.496  28.717  36.160  1.00  0.00    -0.014 A 
ATOM     50  C   UNL A   1      45.785  29.236  35.946  1.00  0.00     0.010 A 
ATOM     51  C   UNL A   1      44.336  27.661  37.078  1.00  0.00     0.010 A 
ATOM     52  C   UNL A   1      46.890  28.687  36.607  1.00  0.00     0.020 A 
ATOM     53  C   UNL A   1      45.431  27.131  37.765  1.00  0.00     0.020 A 
ATOM     54  C   UNL A   1      46.707  27.633  37.506  1.00  0.00     0.054 A 
BRANCH  54  55
ATOM     55  S   UNL A   1      48.151  26.930  38.352  1.00  0.00     0.124 S 
ATOM     56  O   UNL A   1      48.809  28.125  38.871  1.00  0.00    -0.237 OA
ATOM     57  O   UNL A   1      47.542  26.058  39.353  1.00  0.00    -0.237 OA
ATOM     58  O   UNL A   1      48.867  26.235  37.284  1.00  0.00    -0.744 OA
ENDBRANCH  54  55
ENDBRANCH  26  49
BRANCH  38  59
ATOM     59  C   UNL A   1      40.026  33.980  37.177  1.00  0.00    -0.014 A 
ATOM     60  C   UNL A   1      40.479  35.294  36.972  1.00  0.00     0.010 A 
ATOM     61  C   UNL A   1      39.372  33.649  38.378  1.00  0.00     0.010 A 
ATOM     62  C   UNL A   1      40.285  36.264  37.956  1.00  0.00     0.020 A 
ATOM     63  C   UNL A   1      39.153  34.624  39.352  1.00  0.00     0.020 A 
ATOM     64  C   UNL A   1      39.617  35.924  39.137  1.00  0.00     0.054 A 
BRANCH  64  65
ATOM     65  S   UNL A   1      39.302  37.222  40.361  1.00  0.00     0.124 S 
ATOM     66  O   UNL A   1      38.304  36.594  41.222  1.00  0.00    -0.237 OA
ATOM     67  O   UNL A   1      40.618  37.419  40.964  1.00  0.00    -0.237 OA
ATOM     68  O   UNL A   1      38.817  38.344  39.559  1.00  0.00    -0.744 OA
ENDBRANCH  64  65
ENDBRANCH  38  59
ENDBRANCH  12  13
ENDBRANCH   5   7
ENDBRANCH   4   5
ENDBRANCH   3   4
ENDBRANCH   2   3
ENDBRANCH   1   2
BRANCH   1  69
ATOM     69  C   UNL A   1      39.035  23.127  26.657  1.00  0.00     0.202 C 
BRANCH  69  70
ATOM     70  C   UNL A   1      38.717  21.942  25.740  1.00  0.00     0.261 C 
BRANCH  70  71
ATOM     71  O   UNL A   1      37.298  21.731  25.796  1.00  0.00    -0.460 OA
BRANCH  71  72
ATOM     72  C   UNL A   1      36.616  21.914  24.634  1.00  0.00     0.342 C 
ATOM     73  O   UNL A   1      37.070  22.199  23.552  1.00  0.00    -0.246 OA
BRANCH  72  74
ATOM     74  C   UNL A   1      35.238  21.389  24.847  1.00  0.00     0.103 A 
ATOM     75  C   UNL A   1      34.187  22.323  24.853  1.00  0.00     0.041 A 
ATOM     76  C   UNL A   1      34.950  20.016  24.851  1.00  0.00     0.130 A 
ATOM     77  C   UNL A   1      32.869  21.868  24.755  1.00  0.00     0.088 A 
ATOM     78  C   UNL A   1      33.638  19.573  24.706  1.00  0.00     0.048 A 
ATOM     79  C   UNL A   1      32.607  20.502  24.594  1.00  0.00     0.026 A 
BRANCH  76  80
ATOM     80  O   UNL A   1      35.948  19.096  25.000  1.00  0.00    -0.507 OA
ATOM     81  H   UNL A   1      36.189  18.546  24.281  1.00  0.00     0.293 HD
ENDBRANCH  76  80
BRANCH  77  82
ATOM     82  S   UNL A   1      31.515  23.019  24.721  1.00  0.00     0.261 S 
ATOM     83  O   UNL A   1      31.067  23.163  23.354  1.00  0.00    -0.201 OA
ATOM     84  O   UNL A   1      30.592  22.604  25.758  1.00  0.00    -0.201 OA
BRANCH  82  85
ATOM     85  N   UNL A   1      32.097  24.556  25.206  1.00  0.00    -0.280 N 
ATOM     86  H   UNL A   1      32.540  24.671  26.078  1.00  0.00     0.180 HD
BRANCH  85  87
ATOM     87  C   UNL A   1      31.926  25.667  24.320  1.00  0.00     0.050 A 
ATOM     88  C   UNL A   1      33.055  26.210  23.703  1.00  0.00     0.027 A 
ATOM     89  C   UNL A   1      30.676  26.267  24.154  1.00  0.00     0.047 A 
ATOM     90  C   UNL A   1      32.949  27.376  22.946  1.00  0.00     0.004 A 
ATOM     91  C   UNL A   1      30.575  27.427  23.382  1.00  0.00     0.043 A 
ATOM     92  C   UNL A   1      31.706  27.989  22.788  1.00  0.00     0.020 A 
ATOM     93  Cl  UNL A   1      29.047  28.194  23.188  1.00  0.00    -0.084 Cl
ENDBRANCH  85  87
ENDBRANCH  82  85
ENDBRANCH  77  82
ENDBRANCH  72  74
ENDBRANCH  71  72
ENDBRANCH  70  71
ENDBRANCH  69  70
ENDBRANCH   1  69
TORSDOF 21
ENDMDL
