MODEL 1
REMARK VINA RESULT:     -10.6      0.000      0.000
REMARK SMILES O=C(OCCOCCOC(=O)[C@@H]1[C@@H](C(=O)NCCCn2ccnc2)[C@@H]2C=C[C@H]1C2)c1ccc(-c2c3nc(c(-c4ccc(S(=O)(=O)[O-])cc4)c4ccc([nH]4)c(-c4ccc(S(=O)(=O)[O-])cc4)c4nc(c(-c5ccc(S(=O)(=O)[O-])cc5)c5ccc2[nH]5)C=C4)C=C3)cc1
REMARK SMILES IDX 7 1 6 2 5 3 4 4 3 5 2 6 1 7 30 8 31 9 89 10 32 11 88 12
REMARK SMILES IDX 33 13 34 14 35 15 82 16 36 17 87 18 81 19 83 20 37 21 86 22
REMARK SMILES IDX 80 23 79 24 38 26 68 27 49 28 67 29 50 30 53 31 66 32 84 33
REMARK SMILES IDX 51 34 52 35 65 37 85 38 54 39 39 40 40 41 48 42 41 43 47 44
REMARK SMILES IDX 42 45 43 46 44 47 45 48 46 49 69 50 70 51 78 52 71 53 77 54
REMARK SMILES IDX 72 55 73 56 74 57 75 58 76 59 55 60 56 61 64 62 57 63 63 64
REMARK SMILES IDX 58 65 59 66 60 67 61 68 62 69 8 70 9 71 10 72 11 73 12 74
REMARK SMILES IDX 13 75 28 76 25 77 27 78 29 79 26 80 14 81 15 82 16 83 17 85
REMARK SMILES IDX 18 86 19 87 20 88 21 89 24 90 22 91 23 92
REMARK H PARENT 83 25 53 36 16 84
REMARK Flexibility Score: inf
ROOT
ATOM      1  C   UNL A   1      34.733  21.473  26.880  1.00  0.00     0.202 C 
ENDROOT
BRANCH   1   2
ATOM      2  O   UNL A   1      35.555  21.351  25.706  1.00  0.00    -0.374 OA
BRANCH   2   3
ATOM      3  C   UNL A   1      36.617  22.287  25.542  1.00  0.00     0.202 C 
BRANCH   3   4
ATOM      4  C   UNL A   1      38.057  21.803  25.708  1.00  0.00     0.261 C 
BRANCH   4   5
ATOM      5  O   UNL A   1      38.866  22.681  26.527  1.00  0.00    -0.460 OA
BRANCH   5   6
ATOM      6  C   UNL A   1      40.215  22.556  26.529  1.00  0.00     0.338 C 
ATOM      7  O   UNL A   1      40.806  21.532  26.209  1.00  0.00    -0.246 OA
BRANCH   6   8
ATOM      8  C   UNL A   1      40.894  23.856  26.629  1.00  0.00     0.060 A 
ATOM      9  C   UNL A   1      42.037  24.010  27.411  1.00  0.00     0.016 A 
ATOM     10  C   UNL A   1      40.243  24.964  26.085  1.00  0.00     0.016 A 
ATOM     11  C   UNL A   1      42.285  25.220  27.981  1.00  0.00     0.010 A 
ATOM     12  C   UNL A   1      40.577  26.214  26.561  1.00  0.00     0.010 A 
ATOM     13  C   UNL A   1      41.475  26.289  27.627  1.00  0.00    -0.014 A 
BRANCH  13  14
ATOM     14  C   UNL A   1      41.588  27.439  28.503  1.00  0.00     0.031 A 
ATOM     15  C   UNL A   1      42.855  28.207  28.371  1.00  0.00     0.074 A 
ATOM     16  C   UNL A   1      40.604  27.713  29.376  1.00  0.00     0.049 A 
ATOM     17  N   UNL A   1      43.691  28.566  29.292  1.00  0.00    -0.248 NA
ATOM     18  C   UNL A   1      43.319  28.466  26.994  1.00  0.00     0.031 C 
ATOM     19  C   UNL A   1      39.268  27.109  29.446  1.00  0.00     0.029 A 
ATOM     20  N   UNL A   1      40.532  28.731  30.273  1.00  0.00    -0.354 N 
ATOM     21  C   UNL A   1      44.700  29.254  28.625  1.00  0.00     0.074 A 
ATOM     22  C   UNL A   1      44.504  29.025  27.216  1.00  0.00     0.031 C 
ATOM     23  C   UNL A   1      38.438  27.975  30.062  1.00  0.00     0.029 A 
ATOM     24  C   UNL A   1      39.223  29.101  30.536  1.00  0.00     0.049 A 
ATOM     25  H   UNL A   1      41.319  29.155  30.686  1.00  0.00     0.167 HD
ATOM     26  C   UNL A   1      45.500  30.171  29.231  1.00  0.00     0.031 A 
ATOM     27  C   UNL A   1      38.813  30.328  30.929  1.00  0.00     0.031 A 
ATOM     28  C   UNL A   1      45.582  29.994  30.652  1.00  0.00     0.049 A 
ATOM     29  C   UNL A   1      39.987  31.028  31.506  1.00  0.00     0.074 A 
ATOM     30  C   UNL A   1      46.074  29.004  31.478  1.00  0.00     0.029 A 
ATOM     31  N   UNL A   1      44.807  30.803  31.447  1.00  0.00    -0.354 N 
ATOM     32  N   UNL A   1      40.600  30.637  32.590  1.00  0.00    -0.248 NA
ATOM     33  C   UNL A   1      40.754  31.928  30.657  1.00  0.00     0.031 C 
ATOM     34  C   UNL A   1      45.224  29.012  32.620  1.00  0.00     0.029 A 
ATOM     35  C   UNL A   1      44.268  30.013  32.430  1.00  0.00     0.049 A 
ATOM     36  H   UNL A   1      44.666  31.771  31.332  1.00  0.00     0.167 HD
ATOM     37  C   UNL A   1      41.943  30.908  32.369  1.00  0.00     0.074 A 
ATOM     38  C   UNL A   1      41.960  31.811  31.222  1.00  0.00     0.031 C 
ATOM     39  C   UNL A   1      42.926  30.162  32.957  1.00  0.00     0.031 A 
BRANCH  26  40
ATOM     40  C   UNL A   1      45.879  31.452  28.533  1.00  0.00    -0.014 A 
ATOM     41  C   UNL A   1      44.979  32.532  28.507  1.00  0.00     0.010 A 
ATOM     42  C   UNL A   1      46.991  31.520  27.662  1.00  0.00     0.010 A 
ATOM     43  C   UNL A   1      45.156  33.594  27.607  1.00  0.00     0.020 A 
ATOM     44  C   UNL A   1      47.204  32.592  26.801  1.00  0.00     0.020 A 
ATOM     45  C   UNL A   1      46.258  33.603  26.747  1.00  0.00     0.054 A 
BRANCH  45  46
ATOM     46  S   UNL A   1      46.401  34.885  25.480  1.00  0.00     0.124 S 
ATOM     47  O   UNL A   1      47.807  34.772  25.103  1.00  0.00    -0.237 OA
ATOM     48  O   UNL A   1      45.436  34.442  24.478  1.00  0.00    -0.237 OA
ATOM     49  O   UNL A   1      46.038  36.108  26.190  1.00  0.00    -0.744 OA
ENDBRANCH  45  46
ENDBRANCH  26  40
BRANCH  27  50
ATOM     50  C   UNL A   1      37.607  31.008  30.398  1.00  0.00    -0.014 A 
ATOM     51  C   UNL A   1      36.533  31.343  31.235  1.00  0.00     0.010 A 
ATOM     52  C   UNL A   1      37.599  31.521  29.079  1.00  0.00     0.010 A 
ATOM     53  C   UNL A   1      35.499  32.175  30.773  1.00  0.00     0.020 A 
ATOM     54  C   UNL A   1      36.566  32.332  28.607  1.00  0.00     0.020 A 
ATOM     55  C   UNL A   1      35.526  32.669  29.463  1.00  0.00     0.054 A 
BRANCH  55  56
ATOM     56  S   UNL A   1      34.248  33.835  28.918  1.00  0.00     0.124 S 
ATOM     57  O   UNL A   1      33.485  33.034  27.965  1.00  0.00    -0.237 OA
ATOM     58  O   UNL A   1      33.563  34.160  30.165  1.00  0.00    -0.237 OA
ATOM     59  O   UNL A   1      35.013  34.934  28.328  1.00  0.00    -0.744 OA
ENDBRANCH  55  56
ENDBRANCH  27  50
BRANCH  39  60
ATOM     60  C   UNL A   1      42.525  29.181  34.039  1.00  0.00    -0.014 A 
ATOM     61  C   UNL A   1      41.921  27.941  33.743  1.00  0.00     0.010 A 
ATOM     62  C   UNL A   1      42.933  29.426  35.361  1.00  0.00     0.010 A 
ATOM     63  C   UNL A   1      41.719  26.981  34.744  1.00  0.00     0.020 A 
ATOM     64  C   UNL A   1      42.748  28.465  36.361  1.00  0.00     0.020 A 
ATOM     65  C   UNL A   1      42.139  27.248  36.049  1.00  0.00     0.054 A 
BRANCH  65  66
ATOM     66  S   UNL A   1      41.954  25.962  37.318  1.00  0.00     0.124 S 
ATOM     67  O   UNL A   1      42.303  24.745  36.592  1.00  0.00    -0.237 OA
ATOM     68  O   UNL A   1      42.908  26.377  38.345  1.00  0.00    -0.237 OA
ATOM     69  O   UNL A   1      40.550  26.065  37.716  1.00  0.00    -0.744 OA
ENDBRANCH  65  66
ENDBRANCH  39  60
ENDBRANCH  13  14
ENDBRANCH   6   8
ENDBRANCH   5   6
ENDBRANCH   4   5
ENDBRANCH   3   4
ENDBRANCH   2   3
ENDBRANCH   1   2
BRANCH   1  70
ATOM     70  C   UNL A   1      33.946  22.769  27.123  1.00  0.00     0.261 C 
BRANCH  70  71
ATOM     71  O   UNL A   1      32.530  22.661  26.856  1.00  0.00    -0.463 OA
BRANCH  71  72
ATOM     72  C   UNL A   1      31.907  23.830  26.569  1.00  0.00     0.310 C 
ATOM     73  O   UNL A   1      31.304  24.504  27.401  1.00  0.00    -0.252 OA
BRANCH  72  74
ATOM     74  C   UNL A   1      32.025  24.282  25.137  1.00  0.00     0.119 C 
ATOM     75  C   UNL A   1      32.843  23.377  24.181  1.00  0.00     0.100 C 
ATOM     76  C   UNL A   1      32.621  25.693  24.911  1.00  0.00     0.027 C 
ATOM     77  C   UNL A   1      33.657  24.435  23.374  1.00  0.00     0.025 C 
ATOM     78  C   UNL A   1      34.102  25.737  25.195  1.00  0.00    -0.027 C 
ATOM     79  C   UNL A   1      32.725  25.664  23.385  1.00  0.00     0.017 C 
ATOM     80  C   UNL A   1      34.724  24.976  24.288  1.00  0.00    -0.027 C 
BRANCH  75  81
ATOM     81  C   UNL A   1      31.926  22.578  23.269  1.00  0.00     0.224 C 
ATOM     82  O   UNL A   1      31.198  23.110  22.430  1.00  0.00    -0.275 OA
ATOM     83  N   UNL A   1      31.891  21.218  23.362  1.00  0.00    -0.356 N 
ATOM     84  H   UNL A   1      31.251  20.775  22.758  1.00  0.00     0.163 HD
BRANCH  83  85
ATOM     85  C   UNL A   1      32.651  20.318  24.213  1.00  0.00     0.117 C 
BRANCH  85  86
ATOM     86  C   UNL A   1      32.908  18.970  23.534  1.00  0.00     0.043 C 
BRANCH  86  87
ATOM     87  C   UNL A   1      32.280  17.769  24.229  1.00  0.00     0.125 C 
BRANCH  87  88
ATOM     88  N   UNL A   1      33.273  16.830  24.696  1.00  0.00    -0.337 N 
ATOM     89  C   UNL A   1      34.627  16.989  24.632  1.00  0.00     0.107 A 
ATOM     90  C   UNL A   1      33.019  15.585  25.191  1.00  0.00     0.199 A 
ATOM     91  C   UNL A   1      35.140  15.789  25.066  1.00  0.00     0.130 A 
ATOM     92  N   UNL A   1      34.133  14.925  25.415  1.00  0.00    -0.245 NA
ENDBRANCH  87  88
ENDBRANCH  86  87
ENDBRANCH  85  86
ENDBRANCH  83  85
ENDBRANCH  75  81
ENDBRANCH  72  74
ENDBRANCH  71  72
ENDBRANCH  70  71
ENDBRANCH   1  70
TORSDOF 22
ENDMDL
MODEL 2
REMARK VINA RESULT:     -10.4      3.783      9.215
REMARK SMILES O=C(OCCOCCOC(=O)[C@@H]1[C@@H](C(=O)NCCCn2ccnc2)[C@@H]2C=C[C@H]1C2)c1ccc(-c2c3nc(c(-c4ccc(S(=O)(=O)[O-])cc4)c4ccc([nH]4)c(-c4ccc(S(=O)(=O)[O-])cc4)c4nc(c(-c5ccc(S(=O)(=O)[O-])cc5)c5ccc2[nH]5)C=C4)C=C3)cc1
REMARK SMILES IDX 7 1 6 2 5 3 4 4 3 5 2 6 1 7 30 8 31 9 89 10 32 11 88 12
REMARK SMILES IDX 33 13 34 14 35 15 82 16 36 17 87 18 81 19 83 20 37 21 86 22
REMARK SMILES IDX 80 23 79 24 38 26 68 27 49 28 67 29 50 30 53 31 66 32 84 33
REMARK SMILES IDX 51 34 52 35 65 37 85 38 54 39 39 40 40 41 48 42 41 43 47 44
REMARK SMILES IDX 42 45 43 46 44 47 45 48 46 49 69 50 70 51 78 52 71 53 77 54
REMARK SMILES IDX 72 55 73 56 74 57 75 58 76 59 55 60 56 61 64 62 57 63 63 64
REMARK SMILES IDX 58 65 59 66 60 67 61 68 62 69 8 70 9 71 10 72 11 73 12 74
REMARK SMILES IDX 13 75 28 76 25 77 27 78 29 79 26 80 14 81 15 82 16 83 17 85
REMARK SMILES IDX 18 86 19 87 20 88 21 89 24 90 22 91 23 92
REMARK H PARENT 83 25 53 36 16 84
REMARK Flexibility Score: inf
ROOT
ATOM      1  C   UNL A   1      34.433  20.335  25.386  1.00  0.00     0.202 C 
ENDROOT
BRANCH   1   2
ATOM      2  O   UNL A   1      35.798  20.399  24.937  1.00  0.00    -0.374 OA
BRANCH   2   3
ATOM      3  C   UNL A   1      36.483  21.641  25.078  1.00  0.00     0.202 C 
BRANCH   3   4
ATOM      4  C   UNL A   1      37.828  21.663  25.804  1.00  0.00     0.261 C 
BRANCH   4   5
ATOM      5  O   UNL A   1      38.866  20.933  25.107  1.00  0.00    -0.460 OA
BRANCH   5   6
ATOM      6  C   UNL A   1      39.681  20.093  25.791  1.00  0.00     0.338 C 
ATOM      7  O   UNL A   1      39.682  18.877  25.649  1.00  0.00    -0.246 OA
BRANCH   6   8
ATOM      8  C   UNL A   1      40.778  20.807  26.462  1.00  0.00     0.060 A 
ATOM      9  C   UNL A   1      40.811  20.928  27.849  1.00  0.00     0.016 A 
ATOM     10  C   UNL A   1      41.664  21.524  25.657  1.00  0.00     0.016 A 
ATOM     11  C   UNL A   1      41.402  22.023  28.399  1.00  0.00     0.010 A 
ATOM     12  C   UNL A   1      42.372  22.559  26.231  1.00  0.00     0.010 A 
ATOM     13  C   UNL A   1      42.088  22.888  27.558  1.00  0.00    -0.014 A 
BRANCH  13  14
ATOM     14  C   UNL A   1      42.402  24.173  28.152  1.00  0.00     0.031 A 
ATOM     15  C   UNL A   1      41.362  25.222  27.966  1.00  0.00     0.074 A 
ATOM     16  C   UNL A   1      43.578  24.353  28.775  1.00  0.00     0.049 A 
ATOM     17  N   UNL A   1      41.490  26.425  27.505  1.00  0.00    -0.248 NA
ATOM     18  C   UNL A   1      39.965  24.798  28.179  1.00  0.00     0.031 C 
ATOM     19  C   UNL A   1      44.568  23.332  29.141  1.00  0.00     0.029 A 
ATOM     20  N   UNL A   1      44.049  25.473  29.380  1.00  0.00    -0.354 N 
ATOM     21  C   UNL A   1      40.210  26.970  27.541  1.00  0.00     0.074 A 
ATOM     22  C   UNL A   1      39.300  25.887  27.807  1.00  0.00     0.031 C 
ATOM     23  C   UNL A   1      45.305  23.799  30.169  1.00  0.00     0.029 A 
ATOM     24  C   UNL A   1      44.922  25.178  30.416  1.00  0.00     0.049 A 
ATOM     25  H   UNL A   1      43.799  26.388  29.115  1.00  0.00     0.167 HD
ATOM     26  C   UNL A   1      39.974  28.308  27.592  1.00  0.00     0.031 A 
ATOM     27  C   UNL A   1      45.149  25.950  31.502  1.00  0.00     0.031 A 
ATOM     28  C   UNL A   1      41.065  29.091  27.089  1.00  0.00     0.049 A 
ATOM     29  C   UNL A   1      44.728  27.333  31.164  1.00  0.00     0.074 A 
ATOM     30  C   UNL A   1      41.668  29.235  25.856  1.00  0.00     0.029 A 
ATOM     31  N   UNL A   1      41.922  29.660  28.000  1.00  0.00    -0.354 N 
ATOM     32  N   UNL A   1      45.304  28.059  30.246  1.00  0.00    -0.248 NA
ATOM     33  C   UNL A   1      43.395  27.773  31.549  1.00  0.00     0.031 C 
ATOM     34  C   UNL A   1      43.042  29.481  26.137  1.00  0.00     0.029 A 
ATOM     35  C   UNL A   1      43.198  29.484  27.525  1.00  0.00     0.049 A 
ATOM     36  H   UNL A   1      41.668  30.110  28.838  1.00  0.00     0.167 HD
ATOM     37  C   UNL A   1      44.279  28.790  29.660  1.00  0.00     0.074 A 
ATOM     38  C   UNL A   1      43.155  28.665  30.582  1.00  0.00     0.031 C 
ATOM     39  C   UNL A   1      44.349  29.194  28.356  1.00  0.00     0.031 A 
BRANCH  26  40
ATOM     40  C   UNL A   1      38.887  28.871  28.471  1.00  0.00    -0.014 A 
ATOM     41  C   UNL A   1      38.194  30.030  28.079  1.00  0.00     0.010 A 
ATOM     42  C   UNL A   1      38.720  28.443  29.808  1.00  0.00     0.010 A 
ATOM     43  C   UNL A   1      37.425  30.754  29.001  1.00  0.00     0.020 A 
ATOM     44  C   UNL A   1      37.920  29.126  30.719  1.00  0.00     0.020 A 
ATOM     45  C   UNL A   1      37.312  30.305  30.320  1.00  0.00     0.054 A 
BRANCH  45  46
ATOM     46  S   UNL A   1      36.455  31.320  31.547  1.00  0.00     0.124 S 
ATOM     47  O   UNL A   1      37.428  32.382  31.784  1.00  0.00    -0.237 OA
ATOM     48  O   UNL A   1      35.243  31.715  30.834  1.00  0.00    -0.237 OA
ATOM     49  O   UNL A   1      36.244  30.401  32.663  1.00  0.00    -0.744 OA
ENDBRANCH  45  46
ENDBRANCH  26  40
BRANCH  27  50
ATOM     50  C   UNL A   1      45.270  25.423  32.883  1.00  0.00    -0.014 A 
ATOM     51  C   UNL A   1      44.150  24.950  33.581  1.00  0.00     0.010 A 
ATOM     52  C   UNL A   1      46.546  25.191  33.449  1.00  0.00     0.010 A 
ATOM     53  C   UNL A   1      44.304  24.255  34.793  1.00  0.00     0.020 A 
ATOM     54  C   UNL A   1      46.706  24.518  34.662  1.00  0.00     0.020 A 
ATOM     55  C   UNL A   1      45.582  24.039  35.322  1.00  0.00     0.054 A 
BRANCH  55  56
ATOM     56  S   UNL A   1      45.774  23.040  36.824  1.00  0.00     0.124 S 
ATOM     57  O   UNL A   1      44.862  23.702  37.753  1.00  0.00    -0.237 OA
ATOM     58  O   UNL A   1      45.368  21.712  36.375  1.00  0.00    -0.237 OA
ATOM     59  O   UNL A   1      47.194  23.175  37.149  1.00  0.00    -0.744 OA
ENDBRANCH  55  56
ENDBRANCH  27  50
BRANCH  39  60
ATOM     60  C   UNL A   1      45.668  29.032  27.630  1.00  0.00    -0.014 A 
ATOM     61  C   UNL A   1      46.633  30.060  27.584  1.00  0.00     0.010 A 
ATOM     62  C   UNL A   1      46.024  27.761  27.147  1.00  0.00     0.010 A 
ATOM     63  C   UNL A   1      47.910  29.827  27.057  1.00  0.00     0.020 A 
ATOM     64  C   UNL A   1      47.303  27.518  26.634  1.00  0.00     0.020 A 
ATOM     65  C   UNL A   1      48.239  28.553  26.589  1.00  0.00     0.054 A 
BRANCH  65  66
ATOM     66  S   UNL A   1      49.926  28.239  25.991  1.00  0.00     0.124 S 
ATOM     67  O   UNL A   1      50.235  26.939  26.581  1.00  0.00    -0.237 OA
ATOM     68  O   UNL A   1      49.765  28.247  24.538  1.00  0.00    -0.237 OA
ATOM     69  O   UNL A   1      50.699  29.360  26.524  1.00  0.00    -0.744 OA
ENDBRANCH  65  66
ENDBRANCH  39  60
ENDBRANCH  13  14
ENDBRANCH   6   8
ENDBRANCH   5   6
ENDBRANCH   4   5
ENDBRANCH   3   4
ENDBRANCH   2   3
ENDBRANCH   1   2
BRANCH   1  70
ATOM     70  C   UNL A   1      33.332  21.022  24.564  1.00  0.00     0.261 C 
BRANCH  70  71
ATOM     71  O   UNL A   1      32.463  21.878  25.338  1.00  0.00    -0.463 OA
BRANCH  71  72
ATOM     72  C   UNL A   1      31.926  22.920  24.658  1.00  0.00     0.310 C 
ATOM     73  O   UNL A   1      31.260  22.797  23.633  1.00  0.00    -0.252 OA
BRANCH  72  74
ATOM     74  C   UNL A   1      32.176  24.276  25.265  1.00  0.00     0.119 C 
ATOM     75  C   UNL A   1      31.634  25.503  24.489  1.00  0.00     0.100 C 
ATOM     76  C   UNL A   1      33.656  24.639  25.543  1.00  0.00     0.027 C 
ATOM     77  C   UNL A   1      32.824  26.502  24.616  1.00  0.00     0.025 C 
ATOM     78  C   UNL A   1      34.424  24.910  24.273  1.00  0.00    -0.027 C 
ATOM     79  C   UNL A   1      33.465  26.099  25.960  1.00  0.00     0.017 C 
ATOM     80  C   UNL A   1      33.922  26.014  23.709  1.00  0.00    -0.027 C 
BRANCH  75  81
ATOM     81  C   UNL A   1      30.381  26.054  25.150  1.00  0.00     0.224 C 
ATOM     82  O   UNL A   1      30.050  25.754  26.298  1.00  0.00    -0.275 OA
ATOM     83  N   UNL A   1      29.576  26.920  24.468  1.00  0.00    -0.356 N 
ATOM     84  H   UNL A   1      28.770  27.209  24.954  1.00  0.00     0.163 HD
BRANCH  83  85
ATOM     85  C   UNL A   1      29.723  27.482  23.137  1.00  0.00     0.117 C 
BRANCH  85  86
ATOM     86  C   UNL A   1      28.873  28.744  22.952  1.00  0.00     0.043 C 
BRANCH  86  87
ATOM     87  C   UNL A   1      29.644  30.055  23.027  1.00  0.00     0.125 C 
BRANCH  87  88
ATOM     88  N   UNL A   1      28.947  31.134  22.367  1.00  0.00    -0.337 N 
ATOM     89  C   UNL A   1      28.584  31.176  21.052  1.00  0.00     0.107 A 
ATOM     90  C   UNL A   1      28.621  32.332  22.932  1.00  0.00     0.199 A 
ATOM     91  C   UNL A   1      28.079  32.442  20.870  1.00  0.00     0.130 A 
ATOM     92  N   UNL A   1      28.103  33.151  22.044  1.00  0.00    -0.245 NA
ENDBRANCH  87  88
ENDBRANCH  86  87
ENDBRANCH  85  86
ENDBRANCH  83  85
ENDBRANCH  75  81
ENDBRANCH  72  74
ENDBRANCH  71  72
ENDBRANCH  70  71
ENDBRANCH   1  70
TORSDOF 22
ENDMDL
MODEL 3
REMARK VINA RESULT:     -10.3      2.537      4.540
REMARK SMILES O=C(OCCOCCOC(=O)[C@@H]1[C@@H](C(=O)NCCCn2ccnc2)[C@@H]2C=C[C@H]1C2)c1ccc(-c2c3nc(c(-c4ccc(S(=O)(=O)[O-])cc4)c4ccc([nH]4)c(-c4ccc(S(=O)(=O)[O-])cc4)c4nc(c(-c5ccc(S(=O)(=O)[O-])cc5)c5ccc2[nH]5)C=C4)C=C3)cc1
REMARK SMILES IDX 7 1 6 2 5 3 4 4 3 5 2 6 1 7 30 8 31 9 89 10 32 11 88 12
REMARK SMILES IDX 33 13 34 14 35 15 82 16 36 17 87 18 81 19 83 20 37 21 86 22
REMARK SMILES IDX 80 23 79 24 38 26 68 27 49 28 67 29 50 30 53 31 66 32 84 33
REMARK SMILES IDX 51 34 52 35 65 37 85 38 54 39 39 40 40 41 48 42 41 43 47 44
REMARK SMILES IDX 42 45 43 46 44 47 45 48 46 49 69 50 70 51 78 52 71 53 77 54
REMARK SMILES IDX 72 55 73 56 74 57 75 58 76 59 55 60 56 61 64 62 57 63 63 64
REMARK SMILES IDX 58 65 59 66 60 67 61 68 62 69 8 70 9 71 10 72 11 73 12 74
REMARK SMILES IDX 13 75 28 76 25 77 27 78 29 79 26 80 14 81 15 82 16 83 17 85
REMARK SMILES IDX 18 86 19 87 20 88 21 89 24 90 22 91 23 92
REMARK H PARENT 83 25 53 36 16 84
REMARK Flexibility Score: inf
ROOT
ATOM      1  C   UNL A   1      34.329  21.473  27.233  1.00  0.00     0.202 C 
ENDROOT
BRANCH   1   2
ATOM      2  O   UNL A   1      35.072  21.173  26.039  1.00  0.00    -0.374 OA
BRANCH   2   3
ATOM      3  C   UNL A   1      35.888  22.205  25.490  1.00  0.00     0.202 C 
BRANCH   3   4
ATOM      4  C   UNL A   1      37.390  21.960  25.348  1.00  0.00     0.261 C 
BRANCH   4   5
ATOM      5  O   UNL A   1      38.195  22.861  26.146  1.00  0.00    -0.460 OA
BRANCH   5   6
ATOM      6  C   UNL A   1      39.450  22.505  26.513  1.00  0.00     0.338 C 
ATOM      7  O   UNL A   1      39.878  21.359  26.456  1.00  0.00    -0.246 OA
BRANCH   6   8
ATOM      8  C   UNL A   1      40.335  23.669  26.665  1.00  0.00     0.060 A 
ATOM      9  C   UNL A   1      41.351  23.677  27.618  1.00  0.00     0.016 A 
ATOM     10  C   UNL A   1      39.996  24.830  25.969  1.00  0.00     0.016 A 
ATOM     11  C   UNL A   1      41.729  24.863  28.166  1.00  0.00     0.010 A 
ATOM     12  C   UNL A   1      40.478  26.033  26.437  1.00  0.00     0.010 A 
ATOM     13  C   UNL A   1      41.198  26.029  27.634  1.00  0.00    -0.014 A 
BRANCH  13  14
ATOM     14  C   UNL A   1      41.385  27.203  28.463  1.00  0.00     0.031 A 
ATOM     15  C   UNL A   1      42.681  27.908  28.270  1.00  0.00     0.074 A 
ATOM     16  C   UNL A   1      40.439  27.554  29.350  1.00  0.00     0.049 A 
ATOM     17  N   UNL A   1      43.558  28.262  29.155  1.00  0.00    -0.248 NA
ATOM     18  C   UNL A   1      43.118  28.096  26.872  1.00  0.00     0.031 C 
ATOM     19  C   UNL A   1      39.080  27.014  29.477  1.00  0.00     0.029 A 
ATOM     20  N   UNL A   1      40.437  28.605  30.209  1.00  0.00    -0.354 N 
ATOM     21  C   UNL A   1      44.577  28.879  28.436  1.00  0.00     0.074 A 
ATOM     22  C   UNL A   1      44.333  28.607  27.043  1.00  0.00     0.031 C 
ATOM     23  C   UNL A   1      38.307  27.938  30.081  1.00  0.00     0.029 A 
ATOM     24  C   UNL A   1      39.153  29.044  30.492  1.00  0.00     0.049 A 
ATOM     25  H   UNL A   1      41.253  29.008  30.586  1.00  0.00     0.167 HD
ATOM     26  C   UNL A   1      45.434  29.780  28.987  1.00  0.00     0.031 A 
ATOM     27  C   UNL A   1      38.809  30.301  30.849  1.00  0.00     0.031 A 
ATOM     28  C   UNL A   1      45.547  29.651  30.411  1.00  0.00     0.049 A 
ATOM     29  C   UNL A   1      40.029  30.968  31.369  1.00  0.00     0.074 A 
ATOM     30  C   UNL A   1      46.017  28.670  31.261  1.00  0.00     0.029 A 
ATOM     31  N   UNL A   1      44.831  30.523  31.194  1.00  0.00    -0.354 N 
ATOM     32  N   UNL A   1      40.653  30.590  32.451  1.00  0.00    -0.248 NA
ATOM     33  C   UNL A   1      40.811  31.801  30.468  1.00  0.00     0.031 C 
ATOM     34  C   UNL A   1      45.199  28.758  32.423  1.00  0.00     0.029 A 
ATOM     35  C   UNL A   1      44.284  29.794  32.220  1.00  0.00     0.049 A 
ATOM     36  H   UNL A   1      44.730  31.491  31.047  1.00  0.00     0.167 HD
ATOM     37  C   UNL A   1      42.000  30.792  32.185  1.00  0.00     0.074 A 
ATOM     38  C   UNL A   1      42.026  31.650  31.005  1.00  0.00     0.031 C 
ATOM     39  C   UNL A   1      42.965  30.023  32.776  1.00  0.00     0.031 A 
BRANCH  26  40
ATOM     40  C   UNL A   1      45.850  31.016  28.232  1.00  0.00    -0.014 A 
ATOM     41  C   UNL A   1      47.209  31.248  27.955  1.00  0.00     0.010 A 
ATOM     42  C   UNL A   1      44.959  32.096  28.030  1.00  0.00     0.010 A 
ATOM     43  C   UNL A   1      47.655  32.517  27.557  1.00  0.00     0.020 A 
ATOM     44  C   UNL A   1      45.383  33.345  27.588  1.00  0.00     0.020 A 
ATOM     45  C   UNL A   1      46.738  33.560  27.396  1.00  0.00     0.054 A 
BRANCH  45  46
ATOM     46  S   UNL A   1      47.329  35.232  27.040  1.00  0.00     0.124 S 
ATOM     47  O   UNL A   1      48.733  35.138  27.428  1.00  0.00    -0.237 OA
ATOM     48  O   UNL A   1      47.072  35.355  25.608  1.00  0.00    -0.237 OA
ATOM     49  O   UNL A   1      46.497  36.077  27.893  1.00  0.00    -0.744 OA
ENDBRANCH  45  46
ENDBRANCH  26  40
BRANCH  27  50
ATOM     50  C   UNL A   1      37.620  31.016  30.324  1.00  0.00    -0.014 A 
ATOM     51  C   UNL A   1      36.571  31.402  31.171  1.00  0.00     0.010 A 
ATOM     52  C   UNL A   1      37.612  31.508  28.997  1.00  0.00     0.010 A 
ATOM     53  C   UNL A   1      35.561  32.263  30.710  1.00  0.00     0.020 A 
ATOM     54  C   UNL A   1      36.601  32.349  28.526  1.00  0.00     0.020 A 
ATOM     55  C   UNL A   1      35.586  32.735  29.392  1.00  0.00     0.054 A 
BRANCH  55  56
ATOM     56  S   UNL A   1      34.342  33.938  28.846  1.00  0.00     0.124 S 
ATOM     57  O   UNL A   1      33.258  33.074  28.389  1.00  0.00    -0.237 OA
ATOM     58  O   UNL A   1      34.079  34.696  30.065  1.00  0.00    -0.237 OA
ATOM     59  O   UNL A   1      35.025  34.685  27.790  1.00  0.00    -0.744 OA
ENDBRANCH  55  56
ENDBRANCH  27  50
BRANCH  39  60
ATOM     60  C   UNL A   1      42.550  29.101  33.903  1.00  0.00    -0.014 A 
ATOM     61  C   UNL A   1      41.864  27.891  33.672  1.00  0.00     0.010 A 
ATOM     62  C   UNL A   1      43.024  29.362  35.200  1.00  0.00     0.010 A 
ATOM     63  C   UNL A   1      41.646  26.976  34.710  1.00  0.00     0.020 A 
ATOM     64  C   UNL A   1      42.823  28.445  36.238  1.00  0.00     0.020 A 
ATOM     65  C   UNL A   1      42.132  27.257  35.989  1.00  0.00     0.054 A 
BRANCH  65  66
ATOM     66  S   UNL A   1      41.923  26.024  37.306  1.00  0.00     0.124 S 
ATOM     67  O   UNL A   1      42.945  26.414  38.272  1.00  0.00    -0.237 OA
ATOM     68  O   UNL A   1      40.541  26.235  37.734  1.00  0.00    -0.237 OA
ATOM     69  O   UNL A   1      42.162  24.749  36.631  1.00  0.00    -0.744 OA
ENDBRANCH  65  66
ENDBRANCH  39  60
ENDBRANCH  13  14
ENDBRANCH   6   8
ENDBRANCH   5   6
ENDBRANCH   4   5
ENDBRANCH   3   4
ENDBRANCH   2   3
ENDBRANCH   1   2
BRANCH   1  70
ATOM     70  C   UNL A   1      33.787  22.894  27.450  1.00  0.00     0.261 C 
BRANCH  70  71
ATOM     71  O   UNL A   1      32.380  23.042  27.158  1.00  0.00    -0.463 OA
BRANCH  71  72
ATOM     72  C   UNL A   1      32.030  24.220  26.587  1.00  0.00     0.310 C 
ATOM     73  O   UNL A   1      31.359  25.080  27.151  1.00  0.00    -0.252 OA
BRANCH  72  74
ATOM     74  C   UNL A   1      32.552  24.432  25.189  1.00  0.00     0.119 C 
ATOM     75  C   UNL A   1      31.923  25.591  24.374  1.00  0.00     0.100 C 
ATOM     76  C   UNL A   1      32.464  23.217  24.234  1.00  0.00     0.027 C 
ATOM     77  C   UNL A   1      31.754  24.928  22.973  1.00  0.00     0.025 C 
ATOM     78  C   UNL A   1      31.045  22.927  23.812  1.00  0.00    -0.027 C 
ATOM     79  C   UNL A   1      32.907  23.903  22.939  1.00  0.00     0.017 C 
ATOM     80  C   UNL A   1      30.612  23.952  23.070  1.00  0.00    -0.027 C 
BRANCH  75  81
ATOM     81  C   UNL A   1      32.863  26.783  24.308  1.00  0.00     0.224 C 
ATOM     82  O   UNL A   1      34.080  26.661  24.167  1.00  0.00    -0.275 OA
ATOM     83  N   UNL A   1      32.364  28.049  24.405  1.00  0.00    -0.356 N 
ATOM     84  H   UNL A   1      33.039  28.766  24.382  1.00  0.00     0.163 HD
BRANCH  83  85
ATOM     85  C   UNL A   1      30.992  28.507  24.535  1.00  0.00     0.117 C 
BRANCH  85  86
ATOM     86  C   UNL A   1      30.144  28.126  23.317  1.00  0.00     0.043 C 
BRANCH  86  87
ATOM     87  C   UNL A   1      30.009  29.216  22.262  1.00  0.00     0.125 C 
BRANCH  87  88
ATOM     88  N   UNL A   1      28.971  30.165  22.591  1.00  0.00    -0.337 N 
ATOM     89  C   UNL A   1      29.036  31.520  22.434  1.00  0.00     0.107 A 
ATOM     90  C   UNL A   1      27.788  29.869  23.202  1.00  0.00     0.199 A 
ATOM     91  C   UNL A   1      27.879  31.993  23.007  1.00  0.00     0.130 A 
ATOM     92  N   UNL A   1      27.109  30.960  23.478  1.00  0.00    -0.245 NA
ENDBRANCH  87  88
ENDBRANCH  86  87
ENDBRANCH  85  86
ENDBRANCH  83  85
ENDBRANCH  75  81
ENDBRANCH  72  74
ENDBRANCH  71  72
ENDBRANCH  70  71
ENDBRANCH   1  70
TORSDOF 22
ENDMDL
