MODEL 1
REMARK VINA RESULT:     -10.7      0.000      0.000
REMARK SMILES O=C(OCCOCCOC(=O)c1nccnc1C(=O)Nc1ccc2c(c1)OCO2)c1ccc(-c2c3nc(c(-c4ccc(S(=O)(=O)[O-])cc4)c4ccc([nH]4)c(-c4ccc(S(=O)(=O)[O-])cc4)c4nc(c(-c5ccc(S(=O)(=O)[O-])cc5)c5ccc2[nH]5)C=C4)C=C3)cc1
REMARK SMILES IDX 5 1 4 2 3 3 2 4 1 5 30 6 31 7 89 8 32 9 88 10 33 11 34 12
REMARK SMILES IDX 35 13 82 14 36 15 87 16 81 17 83 18 37 19 86 20 80 21 79 22
REMARK SMILES IDX 38 24 68 25 49 26 67 27 50 28 53 29 66 30 84 31 51 32 52 33
REMARK SMILES IDX 65 35 85 36 54 37 39 38 40 39 48 40 41 41 47 42 42 43 43 44
REMARK SMILES IDX 44 45 45 46 46 47 69 48 70 49 78 50 71 51 77 52 72 53 73 54
REMARK SMILES IDX 74 55 75 56 76 57 55 58 56 59 64 60 57 61 63 62 58 63 59 64
REMARK SMILES IDX 60 65 61 66 62 67 6 68 7 69 8 70 9 71 10 72 11 73 12 74
REMARK SMILES IDX 13 75 17 76 14 77 16 78 15 79 18 80 19 81 20 82 21 84 22 85
REMARK SMILES IDX 26 86 23 87 25 88 24 89 27 90 29 91 28 92
REMARK H PARENT 83 23 53 34 20 83
REMARK Flexibility Score: inf
ROOT
ATOM      1  C   UNL A   1      32.142  30.268  25.707  1.00  0.00     0.202 C 
ENDROOT
BRANCH   1   2
ATOM      2  C   UNL A   1      32.528  30.665  27.140  1.00  0.00     0.261 C 
BRANCH   2   3
ATOM      3  O   UNL A   1      33.813  30.206  27.599  1.00  0.00    -0.460 OA
BRANCH   3   4
ATOM      4  C   UNL A   1      34.659  30.830  28.449  1.00  0.00     0.338 C 
ATOM      5  O   UNL A   1      34.291  31.814  29.081  1.00  0.00    -0.246 OA
BRANCH   4   6
ATOM      6  C   UNL A   1      36.029  30.321  28.651  1.00  0.00     0.060 A 
ATOM      7  C   UNL A   1      36.478  29.808  29.869  1.00  0.00     0.016 A 
ATOM      8  C   UNL A   1      36.852  30.240  27.528  1.00  0.00     0.016 A 
ATOM      9  C   UNL A   1      37.789  29.374  30.017  1.00  0.00     0.010 A 
ATOM     10  C   UNL A   1      38.136  29.715  27.651  1.00  0.00     0.010 A 
ATOM     11  C   UNL A   1      38.630  29.324  28.907  1.00  0.00    -0.014 A 
BRANCH  11  12
ATOM     12  C   UNL A   1      40.052  28.946  29.045  1.00  0.00     0.031 A 
ATOM     13  C   UNL A   1      41.018  29.993  29.516  1.00  0.00     0.074 A 
ATOM     14  C   UNL A   1      40.474  27.706  28.738  1.00  0.00     0.049 A 
ATOM     15  N   UNL A   1      42.320  30.008  29.447  1.00  0.00    -0.248 NA
ATOM     16  C   UNL A   1      40.428  31.200  30.122  1.00  0.00     0.031 C 
ATOM     17  C   UNL A   1      39.616  26.583  28.355  1.00  0.00     0.029 A 
ATOM     18  N   UNL A   1      41.741  27.185  28.696  1.00  0.00    -0.354 N 
ATOM     19  C   UNL A   1      42.702  31.258  29.923  1.00  0.00     0.074 A 
ATOM     20  C   UNL A   1      41.495  31.964  30.290  1.00  0.00     0.031 C 
ATOM     21  C   UNL A   1      40.380  25.501  28.136  1.00  0.00     0.029 A 
ATOM     22  C   UNL A   1      41.782  25.878  28.273  1.00  0.00     0.049 A 
ATOM     23  H   UNL A   1      42.544  27.699  28.942  1.00  0.00     0.167 HD
ATOM     24  C   UNL A   1      43.951  31.769  30.022  1.00  0.00     0.031 A 
ATOM     25  C   UNL A   1      42.836  25.092  27.980  1.00  0.00     0.031 A 
ATOM     26  C   UNL A   1      45.132  31.033  29.670  1.00  0.00     0.049 A 
ATOM     27  C   UNL A   1      44.216  25.681  28.082  1.00  0.00     0.074 A 
ATOM     28  C   UNL A   1      46.451  31.447  29.687  1.00  0.00     0.029 A 
ATOM     29  N   UNL A   1      45.130  29.707  29.253  1.00  0.00    -0.354 N 
ATOM     30  N   UNL A   1      44.567  26.895  28.440  1.00  0.00    -0.248 NA
ATOM     31  C   UNL A   1      45.339  24.806  27.721  1.00  0.00     0.031 C 
ATOM     32  C   UNL A   1      47.245  30.377  29.256  1.00  0.00     0.029 A 
ATOM     33  C   UNL A   1      46.424  29.285  29.013  1.00  0.00     0.049 A 
ATOM     34  H   UNL A   1      44.325  29.151  29.146  1.00  0.00     0.167 HD
ATOM     35  C   UNL A   1      45.952  26.928  28.355  1.00  0.00     0.074 A 
ATOM     36  C   UNL A   1      46.375  25.607  27.930  1.00  0.00     0.031 C 
ATOM     37  C   UNL A   1      46.802  27.957  28.598  1.00  0.00     0.031 A 
BRANCH  24  38
ATOM     38  C   UNL A   1      44.067  33.204  30.455  1.00  0.00    -0.014 A 
ATOM     39  C   UNL A   1      43.949  34.263  29.535  1.00  0.00     0.010 A 
ATOM     40  C   UNL A   1      44.351  33.496  31.801  1.00  0.00     0.010 A 
ATOM     41  C   UNL A   1      44.178  35.581  29.943  1.00  0.00     0.020 A 
ATOM     42  C   UNL A   1      44.554  34.815  32.218  1.00  0.00     0.020 A 
ATOM     43  C   UNL A   1      44.495  35.846  31.279  1.00  0.00     0.054 A 
BRANCH  43  44
ATOM     44  S   UNL A   1      44.826  37.558  31.778  1.00  0.00     0.124 S 
ATOM     45  O   UNL A   1      43.906  38.302  30.920  1.00  0.00    -0.237 OA
ATOM     46  O   UNL A   1      44.492  37.552  33.200  1.00  0.00    -0.237 OA
ATOM     47  O   UNL A   1      46.244  37.739  31.476  1.00  0.00    -0.744 OA
ENDBRANCH  43  44
ENDBRANCH  24  38
BRANCH  25  48
ATOM     48  C   UNL A   1      42.614  23.694  27.519  1.00  0.00    -0.014 A 
ATOM     49  C   UNL A   1      42.482  23.406  26.151  1.00  0.00     0.010 A 
ATOM     50  C   UNL A   1      42.582  22.634  28.446  1.00  0.00     0.010 A 
ATOM     51  C   UNL A   1      42.325  22.085  25.716  1.00  0.00     0.020 A 
ATOM     52  C   UNL A   1      42.453  21.312  28.014  1.00  0.00     0.020 A 
ATOM     53  C   UNL A   1      42.319  21.045  26.651  1.00  0.00     0.054 A 
BRANCH  53  54
ATOM     54  S   UNL A   1      42.206  19.333  26.060  1.00  0.00     0.124 S 
ATOM     55  O   UNL A   1      42.615  18.577  27.240  1.00  0.00    -0.237 OA
ATOM     56  O   UNL A   1      40.796  19.217  25.691  1.00  0.00    -0.237 OA
ATOM     57  O   UNL A   1      43.138  19.299  24.936  1.00  0.00    -0.744 OA
ENDBRANCH  53  54
ENDBRANCH  25  48
BRANCH  37  58
ATOM     58  C   UNL A   1      48.269  27.682  28.446  1.00  0.00    -0.014 A 
ATOM     59  C   UNL A   1      49.055  27.317  29.553  1.00  0.00     0.010 A 
ATOM     60  C   UNL A   1      48.848  27.719  27.165  1.00  0.00     0.010 A 
ATOM     61  C   UNL A   1      50.405  27.007  29.380  1.00  0.00     0.020 A 
ATOM     62  C   UNL A   1      50.192  27.390  26.988  1.00  0.00     0.020 A 
ATOM     63  C   UNL A   1      50.965  27.045  28.099  1.00  0.00     0.054 A 
BRANCH  63  64
ATOM     64  S   UNL A   1      52.705  26.577  27.888  1.00  0.00     0.124 S 
ATOM     65  O   UNL A   1      53.011  25.964  29.179  1.00  0.00    -0.237 OA
ATOM     66  O   UNL A   1      52.656  25.659  26.753  1.00  0.00    -0.237 OA
ATOM     67  O   UNL A   1      53.375  27.848  27.625  1.00  0.00    -0.744 OA
ENDBRANCH  63  64
ENDBRANCH  37  58
ENDBRANCH  11  12
ENDBRANCH   4   6
ENDBRANCH   3   4
ENDBRANCH   2   3
ENDBRANCH   1   2
BRANCH   1  68
ATOM     68  O   UNL A   1      31.971  28.892  25.382  1.00  0.00    -0.374 OA
BRANCH  68  69
ATOM     69  C   UNL A   1      31.329  28.058  26.347  1.00  0.00     0.202 C 
BRANCH  69  70
ATOM     70  C   UNL A   1      32.203  26.851  26.596  1.00  0.00     0.261 C 
BRANCH  70  71
ATOM     71  O   UNL A   1      32.201  26.150  25.350  1.00  0.00    -0.458 OA
BRANCH  71  72
ATOM     72  C   UNL A   1      33.375  25.587  25.040  1.00  0.00     0.359 C 
ATOM     73  O   UNL A   1      34.427  25.667  25.662  1.00  0.00    -0.244 OA
BRANCH  72  74
ATOM     74  C   UNL A   1      33.239  24.961  23.728  1.00  0.00     0.179 A 
ATOM     75  N   UNL A   1      33.409  23.596  23.789  1.00  0.00    -0.245 NA
ATOM     76  C   UNL A   1      33.011  25.639  22.537  1.00  0.00     0.161 A 
ATOM     77  C   UNL A   1      33.388  22.939  22.617  1.00  0.00     0.132 A 
ATOM     78  N   UNL A   1      32.925  24.918  21.367  1.00  0.00    -0.247 NA
ATOM     79  C   UNL A   1      33.139  23.586  21.427  1.00  0.00     0.132 A 
BRANCH  76  80
ATOM     80  C   UNL A   1      33.191  27.087  22.242  1.00  0.00     0.276 C 
ATOM     81  O   UNL A   1      34.364  27.443  22.032  1.00  0.00    -0.267 OA
ATOM     82  N   UNL A   1      32.282  28.102  22.117  1.00  0.00    -0.320 N 
ATOM     83  H   UNL A   1      32.723  28.907  21.763  1.00  0.00     0.170 HD
BRANCH  82  84
ATOM     84  C   UNL A   1      30.927  28.355  22.334  1.00  0.00     0.045 A 
ATOM     85  C   UNL A   1      30.000  27.453  22.852  1.00  0.00     0.030 A 
ATOM     86  C   UNL A   1      30.521  29.680  22.068  1.00  0.00     0.076 A 
ATOM     87  C   UNL A   1      28.733  27.897  23.272  1.00  0.00     0.053 A 
ATOM     88  C   UNL A   1      29.267  30.085  22.468  1.00  0.00     0.167 A 
ATOM     89  C   UNL A   1      28.404  29.222  23.085  1.00  0.00     0.165 A 
ATOM     90  O   UNL A   1      28.765  31.342  22.357  1.00  0.00    -0.454 OA
ATOM     91  O   UNL A   1      27.250  29.830  23.466  1.00  0.00    -0.454 OA
ATOM     92  C   UNL A   1      27.469  31.172  22.973  1.00  0.00     0.468 C 
ENDBRANCH  82  84
ENDBRANCH  76  80
ENDBRANCH  72  74
ENDBRANCH  71  72
ENDBRANCH  70  71
ENDBRANCH  69  70
ENDBRANCH  68  69
ENDBRANCH   1  68
TORSDOF 19
ENDMDL
MODEL 2
REMARK VINA RESULT:     -10.6      5.218      9.702
REMARK SMILES O=C(OCCOCCOC(=O)c1nccnc1C(=O)Nc1ccc2c(c1)OCO2)c1ccc(-c2c3nc(c(-c4ccc(S(=O)(=O)[O-])cc4)c4ccc([nH]4)c(-c4ccc(S(=O)(=O)[O-])cc4)c4nc(c(-c5ccc(S(=O)(=O)[O-])cc5)c5ccc2[nH]5)C=C4)C=C3)cc1
REMARK SMILES IDX 5 1 4 2 3 3 2 4 1 5 30 6 31 7 89 8 32 9 88 10 33 11 34 12
REMARK SMILES IDX 35 13 82 14 36 15 87 16 81 17 83 18 37 19 86 20 80 21 79 22
REMARK SMILES IDX 38 24 68 25 49 26 67 27 50 28 53 29 66 30 84 31 51 32 52 33
REMARK SMILES IDX 65 35 85 36 54 37 39 38 40 39 48 40 41 41 47 42 42 43 43 44
REMARK SMILES IDX 44 45 45 46 46 47 69 48 70 49 78 50 71 51 77 52 72 53 73 54
REMARK SMILES IDX 74 55 75 56 76 57 55 58 56 59 64 60 57 61 63 62 58 63 59 64
REMARK SMILES IDX 60 65 61 66 62 67 6 68 7 69 8 70 9 71 10 72 11 73 12 74
REMARK SMILES IDX 13 75 17 76 14 77 16 78 15 79 18 80 19 81 20 82 21 84 22 85
REMARK SMILES IDX 26 86 23 87 25 88 24 89 27 90 29 91 28 92
REMARK H PARENT 83 23 53 34 20 83
REMARK Flexibility Score: inf
ROOT
ATOM      1  C   UNL A   1      32.226  30.855  26.889  1.00  0.00     0.202 C 
ENDROOT
BRANCH   1   2
ATOM      2  C   UNL A   1      31.977  32.363  27.044  1.00  0.00     0.261 C 
BRANCH   2   3
ATOM      3  O   UNL A   1      33.135  33.167  27.337  1.00  0.00    -0.460 OA
BRANCH   3   4
ATOM      4  C   UNL A   1      33.397  33.857  28.470  1.00  0.00     0.338 C 
ATOM      5  O   UNL A   1      32.610  34.703  28.879  1.00  0.00    -0.246 OA
BRANCH   4   6
ATOM      6  C   UNL A   1      34.621  33.583  29.247  1.00  0.00     0.060 A 
ATOM      7  C   UNL A   1      35.830  34.243  29.019  1.00  0.00     0.016 A 
ATOM      8  C   UNL A   1      34.508  32.717  30.333  1.00  0.00     0.016 A 
ATOM      9  C   UNL A   1      36.964  33.923  29.754  1.00  0.00     0.010 A 
ATOM     10  C   UNL A   1      35.620  32.466  31.134  1.00  0.00     0.010 A 
ATOM     11  C   UNL A   1      36.868  33.030  30.819  1.00  0.00    -0.014 A 
BRANCH  11  12
ATOM     12  C   UNL A   1      38.068  32.606  31.569  1.00  0.00     0.031 A 
ATOM     13  C   UNL A   1      38.925  31.525  30.976  1.00  0.00     0.074 A 
ATOM     14  C   UNL A   1      38.375  33.155  32.758  1.00  0.00     0.049 A 
ATOM     15  N   UNL A   1      39.838  30.789  31.545  1.00  0.00    -0.248 NA
ATOM     16  C   UNL A   1      38.694  31.216  29.554  1.00  0.00     0.031 C 
ATOM     17  C   UNL A   1      37.669  34.271  33.390  1.00  0.00     0.029 A 
ATOM     18  N   UNL A   1      39.366  32.841  33.651  1.00  0.00    -0.354 N 
ATOM     19  C   UNL A   1      40.235  29.875  30.574  1.00  0.00     0.074 A 
ATOM     20  C   UNL A   1      39.471  30.159  29.380  1.00  0.00     0.031 C 
ATOM     21  C   UNL A   1      38.262  34.559  34.560  1.00  0.00     0.029 A 
ATOM     22  C   UNL A   1      39.327  33.594  34.800  1.00  0.00     0.049 A 
ATOM     23  H   UNL A   1      40.040  32.141  33.486  1.00  0.00     0.167 HD
ATOM     24  C   UNL A   1      41.141  28.876  30.686  1.00  0.00     0.031 A 
ATOM     25  C   UNL A   1      40.038  33.480  35.939  1.00  0.00     0.031 A 
ATOM     26  C   UNL A   1      41.900  28.633  31.881  1.00  0.00     0.049 A 
ATOM     27  C   UNL A   1      41.032  32.356  36.051  1.00  0.00     0.074 A 
ATOM     28  C   UNL A   1      42.819  27.634  32.136  1.00  0.00     0.029 A 
ATOM     29  N   UNL A   1      41.836  29.426  33.020  1.00  0.00    -0.354 N 
ATOM     30  N   UNL A   1      41.333  31.434  35.165  1.00  0.00    -0.248 NA
ATOM     31  C   UNL A   1      41.763  32.242  37.318  1.00  0.00     0.031 C 
ATOM     32  C   UNL A   1      43.293  27.808  33.442  1.00  0.00     0.029 A 
ATOM     33  C   UNL A   1      42.701  28.940  33.983  1.00  0.00     0.049 A 
ATOM     34  H   UNL A   1      41.259  30.216  33.126  1.00  0.00     0.167 HD
ATOM     35  C   UNL A   1      42.296  30.634  35.765  1.00  0.00     0.074 A 
ATOM     36  C   UNL A   1      42.539  31.192  37.082  1.00  0.00     0.031 C 
ATOM     37  C   UNL A   1      42.919  29.532  35.279  1.00  0.00     0.031 A 
BRANCH  24  38
ATOM     38  C   UNL A   1      41.282  27.950  29.510  1.00  0.00    -0.014 A 
ATOM     39  C   UNL A   1      40.452  26.825  29.354  1.00  0.00     0.010 A 
ATOM     40  C   UNL A   1      42.302  28.183  28.570  1.00  0.00     0.010 A 
ATOM     41  C   UNL A   1      40.682  25.917  28.316  1.00  0.00     0.020 A 
ATOM     42  C   UNL A   1      42.518  27.291  27.515  1.00  0.00     0.020 A 
ATOM     43  C   UNL A   1      41.724  26.148  27.413  1.00  0.00     0.054 A 
BRANCH  43  44
ATOM     44  S   UNL A   1      42.029  24.937  26.098  1.00  0.00     0.124 S 
ATOM     45  O   UNL A   1      40.777  24.183  26.090  1.00  0.00    -0.237 OA
ATOM     46  O   UNL A   1      42.261  25.780  24.927  1.00  0.00    -0.237 OA
ATOM     47  O   UNL A   1      43.197  24.199  26.571  1.00  0.00    -0.744 OA
ENDBRANCH  43  44
ENDBRANCH  24  38
BRANCH  25  48
ATOM     48  C   UNL A   1      39.794  34.424  37.063  1.00  0.00    -0.014 A 
ATOM     49  C   UNL A   1      39.016  34.034  38.166  1.00  0.00     0.010 A 
ATOM     50  C   UNL A   1      40.381  35.704  37.060  1.00  0.00     0.010 A 
ATOM     51  C   UNL A   1      38.831  34.904  39.246  1.00  0.00     0.020 A 
ATOM     52  C   UNL A   1      40.221  36.565  38.149  1.00  0.00     0.020 A 
ATOM     53  C   UNL A   1      39.441  36.162  39.234  1.00  0.00     0.054 A 
BRANCH  53  54
ATOM     54  S   UNL A   1      39.263  37.240  40.683  1.00  0.00     0.124 S 
ATOM     55  O   UNL A   1      38.411  38.306  40.166  1.00  0.00    -0.237 OA
ATOM     56  O   UNL A   1      38.642  36.352  41.665  1.00  0.00    -0.237 OA
ATOM     57  O   UNL A   1      40.639  37.626  40.989  1.00  0.00    -0.744 OA
ENDBRANCH  53  54
ENDBRANCH  25  48
BRANCH  37  58
ATOM     58  C   UNL A   1      43.947  28.884  36.159  1.00  0.00    -0.014 A 
ATOM     59  C   UNL A   1      43.623  27.767  36.948  1.00  0.00     0.010 A 
ATOM     60  C   UNL A   1      45.271  29.358  36.136  1.00  0.00     0.010 A 
ATOM     61  C   UNL A   1      44.609  27.141  37.714  1.00  0.00     0.020 A 
ATOM     62  C   UNL A   1      46.261  28.723  36.886  1.00  0.00     0.020 A 
ATOM     63  C   UNL A   1      45.921  27.623  37.678  1.00  0.00     0.054 A 
BRANCH  63  64
ATOM     64  S   UNL A   1      47.199  26.757  38.631  1.00  0.00     0.124 S 
ATOM     65  O   UNL A   1      46.866  25.357  38.380  1.00  0.00    -0.237 OA
ATOM     66  O   UNL A   1      48.436  27.230  38.015  1.00  0.00    -0.237 OA
ATOM     67  O   UNL A   1      46.978  27.216  40.000  1.00  0.00    -0.744 OA
ENDBRANCH  63  64
ENDBRANCH  37  58
ENDBRANCH  11  12
ENDBRANCH   4   6
ENDBRANCH   3   4
ENDBRANCH   2   3
ENDBRANCH   1   2
BRANCH   1  68
ATOM     68  O   UNL A   1      33.553  30.379  26.687  1.00  0.00    -0.374 OA
BRANCH  68  69
ATOM     69  C   UNL A   1      33.847  29.043  27.097  1.00  0.00     0.202 C 
BRANCH  69  70
ATOM     70  C   UNL A   1      33.571  28.113  25.940  1.00  0.00     0.261 C 
BRANCH  70  71
ATOM     71  O   UNL A   1      33.160  26.891  26.559  1.00  0.00    -0.458 OA
BRANCH  71  72
ATOM     72  C   UNL A   1      31.833  26.758  26.674  1.00  0.00     0.359 C 
ATOM     73  O   UNL A   1      31.058  27.505  27.258  1.00  0.00    -0.244 OA
BRANCH  72  74
ATOM     74  C   UNL A   1      31.460  25.471  26.097  1.00  0.00     0.179 A 
ATOM     75  N   UNL A   1      31.325  24.495  27.058  1.00  0.00    -0.245 NA
ATOM     76  C   UNL A   1      31.298  25.218  24.740  1.00  0.00     0.161 A 
ATOM     77  C   UNL A   1      31.068  23.252  26.616  1.00  0.00     0.132 A 
ATOM     78  N   UNL A   1      30.963  23.945  24.335  1.00  0.00    -0.247 NA
ATOM     79  C   UNL A   1      30.878  22.983  25.279  1.00  0.00     0.132 A 
BRANCH  76  80
ATOM     80  C   UNL A   1      31.774  26.023  23.581  1.00  0.00     0.276 C 
ATOM     81  O   UNL A   1      32.925  25.761  23.191  1.00  0.00    -0.267 OA
ATOM     82  N   UNL A   1      31.148  26.980  22.831  1.00  0.00    -0.320 N 
ATOM     83  H   UNL A   1      31.693  27.199  22.041  1.00  0.00     0.170 HD
BRANCH  82  84
ATOM     84  C   UNL A   1      29.981  27.746  22.832  1.00  0.00     0.045 A 
ATOM     85  C   UNL A   1      28.734  27.334  23.298  1.00  0.00     0.030 A 
ATOM     86  C   UNL A   1      30.144  29.076  22.390  1.00  0.00     0.076 A 
ATOM     87  C   UNL A   1      27.703  28.269  23.494  1.00  0.00     0.053 A 
ATOM     88  C   UNL A   1      29.111  29.968  22.572  1.00  0.00     0.167 A 
ATOM     89  C   UNL A   1      27.929  29.583  23.141  1.00  0.00     0.165 A 
ATOM     90  O   UNL A   1      29.144  31.294  22.276  1.00  0.00    -0.454 OA
ATOM     91  O   UNL A   1      27.068  30.621  23.299  1.00  0.00    -0.454 OA
ATOM     92  C   UNL A   1      27.832  31.704  22.718  1.00  0.00     0.468 C 
ENDBRANCH  82  84
ENDBRANCH  76  80
ENDBRANCH  72  74
ENDBRANCH  71  72
ENDBRANCH  70  71
ENDBRANCH  69  70
ENDBRANCH  68  69
ENDBRANCH   1  68
TORSDOF 19
ENDMDL
MODEL 3
REMARK VINA RESULT:     -10.6      6.282     12.898
REMARK SMILES O=C(OCCOCCOC(=O)c1nccnc1C(=O)Nc1ccc2c(c1)OCO2)c1ccc(-c2c3nc(c(-c4ccc(S(=O)(=O)[O-])cc4)c4ccc([nH]4)c(-c4ccc(S(=O)(=O)[O-])cc4)c4nc(c(-c5ccc(S(=O)(=O)[O-])cc5)c5ccc2[nH]5)C=C4)C=C3)cc1
REMARK SMILES IDX 5 1 4 2 3 3 2 4 1 5 30 6 31 7 89 8 32 9 88 10 33 11 34 12
REMARK SMILES IDX 35 13 82 14 36 15 87 16 81 17 83 18 37 19 86 20 80 21 79 22
REMARK SMILES IDX 38 24 68 25 49 26 67 27 50 28 53 29 66 30 84 31 51 32 52 33
REMARK SMILES IDX 65 35 85 36 54 37 39 38 40 39 48 40 41 41 47 42 42 43 43 44
REMARK SMILES IDX 44 45 45 46 46 47 69 48 70 49 78 50 71 51 77 52 72 53 73 54
REMARK SMILES IDX 74 55 75 56 76 57 55 58 56 59 64 60 57 61 63 62 58 63 59 64
REMARK SMILES IDX 60 65 61 66 62 67 6 68 7 69 8 70 9 71 10 72 11 73 12 74
REMARK SMILES IDX 13 75 17 76 14 77 16 78 15 79 18 80 19 81 20 82 21 84 22 85
REMARK SMILES IDX 26 86 23 87 25 88 24 89 27 90 29 91 28 92
REMARK H PARENT 83 23 53 34 20 83
REMARK Flexibility Score: inf
ROOT
ATOM      1  C   UNL A   1      38.471  22.141  25.835  1.00  0.00     0.202 C 
ENDROOT
BRANCH   1   2
ATOM      2  C   UNL A   1      38.453  23.504  26.543  1.00  0.00     0.261 C 
BRANCH   2   3
ATOM      3  O   UNL A   1      39.252  24.540  25.942  1.00  0.00    -0.460 OA
BRANCH   3   4
ATOM      4  C   UNL A   1      40.406  25.069  26.406  1.00  0.00     0.338 C 
ATOM      5  O   UNL A   1      41.480  24.762  25.899  1.00  0.00    -0.246 OA
BRANCH   4   6
ATOM      6  C   UNL A   1      40.391  26.045  27.513  1.00  0.00     0.060 A 
ATOM      7  C   UNL A   1      39.598  25.891  28.651  1.00  0.00     0.016 A 
ATOM      8  C   UNL A   1      41.309  27.092  27.455  1.00  0.00     0.016 A 
ATOM      9  C   UNL A   1      39.591  26.857  29.649  1.00  0.00     0.010 A 
ATOM     10  C   UNL A   1      41.375  28.011  28.499  1.00  0.00     0.010 A 
ATOM     11  C   UNL A   1      40.482  27.926  29.581  1.00  0.00    -0.014 A 
BRANCH  11  12
ATOM     12  C   UNL A   1      40.446  29.013  30.582  1.00  0.00     0.031 A 
ATOM     13  C   UNL A   1      41.438  28.969  31.707  1.00  0.00     0.074 A 
ATOM     14  C   UNL A   1      39.538  30.003  30.501  1.00  0.00     0.049 A 
ATOM     15  N   UNL A   1      41.433  29.614  32.839  1.00  0.00    -0.248 NA
ATOM     16  C   UNL A   1      42.573  28.044  31.539  1.00  0.00     0.031 C 
ATOM     17  C   UNL A   1      38.585  30.199  29.408  1.00  0.00     0.029 A 
ATOM     18  N   UNL A   1      39.269  31.032  31.364  1.00  0.00    -0.354 N 
ATOM     19  C   UNL A   1      42.517  29.117  33.554  1.00  0.00     0.074 A 
ATOM     20  C   UNL A   1      43.162  28.126  32.722  1.00  0.00     0.031 C 
ATOM     21  C   UNL A   1      37.848  31.293  29.658  1.00  0.00     0.029 A 
ATOM     22  C   UNL A   1      38.215  31.819  30.967  1.00  0.00     0.049 A 
ATOM     23  H   UNL A   1      39.781  31.191  32.191  1.00  0.00     0.167 HD
ATOM     24  C   UNL A   1      42.919  29.447  34.804  1.00  0.00     0.031 A 
ATOM     25  C   UNL A   1      37.584  32.819  31.613  1.00  0.00     0.031 A 
ATOM     26  C   UNL A   1      42.269  30.453  35.598  1.00  0.00     0.049 A 
ATOM     27  C   UNL A   1      38.034  33.164  33.006  1.00  0.00     0.074 A 
ATOM     28  C   UNL A   1      42.552  30.855  36.889  1.00  0.00     0.029 A 
ATOM     29  N   UNL A   1      41.208  31.233  35.154  1.00  0.00    -0.354 N 
ATOM     30  N   UNL A   1      38.998  32.624  33.716  1.00  0.00    -0.248 NA
ATOM     31  C   UNL A   1      37.301  34.235  33.693  1.00  0.00     0.031 C 
ATOM     32  C   UNL A   1      41.644  31.863  37.235  1.00  0.00     0.029 A 
ATOM     33  C   UNL A   1      40.825  32.118  36.144  1.00  0.00     0.049 A 
ATOM     34  H   UNL A   1      40.792  31.165  34.265  1.00  0.00     0.167 HD
ATOM     35  C   UNL A   1      38.994  33.294  34.932  1.00  0.00     0.074 A 
ATOM     36  C   UNL A   1      37.943  34.291  34.854  1.00  0.00     0.031 C 
ATOM     37  C   UNL A   1      39.779  33.101  36.021  1.00  0.00     0.031 A 
BRANCH  24  38
ATOM     38  C   UNL A   1      44.055  28.654  35.386  1.00  0.00    -0.014 A 
ATOM     39  C   UNL A   1      43.829  27.519  36.187  1.00  0.00     0.010 A 
ATOM     40  C   UNL A   1      45.377  29.086  35.171  1.00  0.00     0.010 A 
ATOM     41  C   UNL A   1      44.898  26.871  36.812  1.00  0.00     0.020 A 
ATOM     42  C   UNL A   1      46.450  28.424  35.773  1.00  0.00     0.020 A 
ATOM     43  C   UNL A   1      46.201  27.338  36.613  1.00  0.00     0.054 A 
BRANCH  43  44
ATOM     44  S   UNL A   1      47.570  26.507  37.464  1.00  0.00     0.124 S 
ATOM     45  O   UNL A   1      48.403  26.081  36.342  1.00  0.00    -0.237 OA
ATOM     46  O   UNL A   1      48.130  27.570  38.294  1.00  0.00    -0.237 OA
ATOM     47  O   UNL A   1      46.915  25.427  38.199  1.00  0.00    -0.744 OA
ENDBRANCH  43  44
ENDBRANCH  24  38
BRANCH  25  48
ATOM     48  C   UNL A   1      36.440  33.516  30.965  1.00  0.00    -0.014 A 
ATOM     49  C   UNL A   1      35.234  33.708  31.660  1.00  0.00     0.010 A 
ATOM     50  C   UNL A   1      36.567  34.037  29.663  1.00  0.00     0.010 A 
ATOM     51  C   UNL A   1      34.178  34.409  31.069  1.00  0.00     0.020 A 
ATOM     52  C   UNL A   1      35.525  34.761  29.078  1.00  0.00     0.020 A 
ATOM     53  C   UNL A   1      34.333  34.938  29.783  1.00  0.00     0.054 A 
BRANCH  53  54
ATOM     54  S   UNL A   1      32.985  35.921  29.069  1.00  0.00     0.124 S 
ATOM     55  O   UNL A   1      32.349  34.959  28.174  1.00  0.00    -0.237 OA
ATOM     56  O   UNL A   1      32.209  36.299  30.247  1.00  0.00    -0.237 OA
ATOM     57  O   UNL A   1      33.682  37.025  28.413  1.00  0.00    -0.744 OA
ENDBRANCH  53  54
ENDBRANCH  25  48
BRANCH  37  58
ATOM     58  C   UNL A   1      39.555  34.009  37.194  1.00  0.00    -0.014 A 
ATOM     59  C   UNL A   1      38.756  33.606  38.278  1.00  0.00     0.010 A 
ATOM     60  C   UNL A   1      40.216  35.249  37.241  1.00  0.00     0.010 A 
ATOM     61  C   UNL A   1      38.609  34.441  39.388  1.00  0.00     0.020 A 
ATOM     62  C   UNL A   1      40.087  36.076  38.357  1.00  0.00     0.020 A 
ATOM     63  C   UNL A   1      39.276  35.671  39.420  1.00  0.00     0.054 A 
BRANCH  63  64
ATOM     64  S   UNL A   1      39.123  36.712  40.898  1.00  0.00     0.124 S 
ATOM     65  O   UNL A   1      40.496  36.732  41.396  1.00  0.00    -0.237 OA
ATOM     66  O   UNL A   1      38.633  37.975  40.353  1.00  0.00    -0.237 OA
ATOM     67  O   UNL A   1      38.166  35.988  41.732  1.00  0.00    -0.744 OA
ENDBRANCH  63  64
ENDBRANCH  37  58
ENDBRANCH  11  12
ENDBRANCH   4   6
ENDBRANCH   3   4
ENDBRANCH   2   3
ENDBRANCH   1   2
BRANCH   1  68
ATOM     68  O   UNL A   1      39.552  21.244  26.066  1.00  0.00    -0.374 OA
BRANCH  68  69
ATOM     69  C   UNL A   1      40.469  21.566  27.112  1.00  0.00     0.202 C 
BRANCH  69  70
ATOM     70  C   UNL A   1      41.177  20.301  27.538  1.00  0.00     0.261 C 
BRANCH  70  71
ATOM     71  O   UNL A   1      42.486  20.422  26.974  1.00  0.00    -0.458 OA
BRANCH  71  72
ATOM     72  C   UNL A   1      42.684  19.665  25.888  1.00  0.00     0.359 C 
ATOM     73  O   UNL A   1      41.917  18.841  25.405  1.00  0.00    -0.244 OA
BRANCH  72  74
ATOM     74  C   UNL A   1      44.055  19.879  25.437  1.00  0.00     0.179 A 
ATOM     75  N   UNL A   1      44.849  18.777  25.661  1.00  0.00    -0.245 NA
ATOM     76  C   UNL A   1      44.542  21.058  24.886  1.00  0.00     0.161 A 
ATOM     77  C   UNL A   1      46.152  18.908  25.359  1.00  0.00     0.132 A 
ATOM     78  N   UNL A   1      45.869  21.125  24.522  1.00  0.00    -0.247 NA
ATOM     79  C   UNL A   1      46.651  20.057  24.788  1.00  0.00     0.132 A 
BRANCH  76  80
ATOM     80  C   UNL A   1      43.949  22.423  24.935  1.00  0.00     0.276 C 
ATOM     81  O   UNL A   1      43.150  22.687  24.018  1.00  0.00    -0.267 OA
ATOM     82  N   UNL A   1      44.092  23.436  25.843  1.00  0.00    -0.320 N 
ATOM     83  H   UNL A   1      43.437  24.147  25.660  1.00  0.00     0.170 HD
BRANCH  82  84
ATOM     84  C   UNL A   1      44.875  23.780  26.946  1.00  0.00     0.045 A 
ATOM     85  C   UNL A   1      46.258  23.947  26.945  1.00  0.00     0.030 A 
ATOM     86  C   UNL A   1      44.151  24.053  28.125  1.00  0.00     0.076 A 
ATOM     87  C   UNL A   1      46.903  24.548  28.041  1.00  0.00     0.053 A 
ATOM     88  C   UNL A   1      44.809  24.620  29.193  1.00  0.00     0.167 A 
ATOM     89  C   UNL A   1      46.148  24.892  29.142  1.00  0.00     0.165 A 
ATOM     90  O   UNL A   1      44.237  25.014  30.361  1.00  0.00    -0.454 OA
ATOM     91  O   UNL A   1      46.592  25.516  30.264  1.00  0.00    -0.454 OA
ATOM     92  C   UNL A   1      45.380  25.564  31.052  1.00  0.00     0.468 C 
ENDBRANCH  82  84
ENDBRANCH  76  80
ENDBRANCH  72  74
ENDBRANCH  71  72
ENDBRANCH  70  71
ENDBRANCH  69  70
ENDBRANCH  68  69
ENDBRANCH   1  68
TORSDOF 19
ENDMDL
