MODEL 1
REMARK VINA RESULT:     -10.5      0.000      0.000
REMARK SMILES CCCCCCNC(=O)Oc1cccc(-c2ccc([C@@H](C)C(=O)OCCOCCOC(=O)c3ccc(-c4c5nc(c(-c6ccc(S(=O)(=O)[O-])cc6)c6ccc([nH]6)c(-c6ccc(S(=O)(=O)[O-])cc6)c6nc(c(-c7ccc(S(=O)(=O)[O-])cc7)c7ccc4[nH]7)C=C6)C=C5)cc3)cc2C(F)(F)F)c1
REMARK SMILES IDX 24 1 22 2 23 3 20 4 21 5 19 6 16 7 17 8 94 9 18 10 93 11
REMARK SMILES IDX 15 12 11 13 12 14 99 15 13 16 14 17 10 18 8 19 7 20 9 22
REMARK SMILES IDX 6 23 5 24 4 25 3 26 2 27 1 28 95 29 96 30 97 31 98 32 25 33
REMARK SMILES IDX 26 34 27 35 28 36 29 37 30 38 31 39 32 40 33 41 34 42 92 43
REMARK SMILES IDX 35 44 91 45 36 46 37 47 38 48 85 49 39 50 90 51 84 52 86 53
REMARK SMILES IDX 40 54 89 55 83 56 82 57 41 59 71 60 52 61 70 62 53 63 56 64
REMARK SMILES IDX 69 65 87 66 54 67 55 68 68 70 88 71 57 72 42 73 43 74 51 75
REMARK SMILES IDX 44 76 50 77 45 78 46 79 47 80 48 81 49 82 72 83 73 84 81 85
REMARK SMILES IDX 74 86 80 87 75 88 76 89 77 90 78 91 79 92 58 93 59 94 67 95
REMARK SMILES IDX 60 96 66 97 61 98 62 99 63 100 64 101 65 102
REMARK H PARENT 7 21 86 58 56 69
REMARK Flexibility Score: inf
ROOT
ATOM      1  O   UNL A   1      41.929  19.711  26.580  1.00  0.00    -0.463 OA
ENDROOT
BRANCH   1   2
ATOM      2  C   UNL A   1      40.735  20.203  26.161  1.00  0.00     0.313 C 
ATOM      3  O   UNL A   1      39.865  19.540  25.604  1.00  0.00    -0.252 OA
BRANCH   2   4
ATOM      4  C   UNL A   1      40.560  21.691  26.413  1.00  0.00     0.126 C 
ATOM      5  C   UNL A   1      41.260  22.071  27.715  1.00  0.00     0.025 C 
BRANCH   4   6
ATOM      6  C   UNL A   1      39.154  22.280  26.331  1.00  0.00    -0.033 A 
ATOM      7  C   UNL A   1      36.529  23.337  25.884  1.00  0.00    -0.006 A 
ATOM      8  C   UNL A   1      37.585  24.135  26.370  1.00  0.00     0.009 A 
ATOM      9  C   UNL A   1      36.794  21.971  25.651  1.00  0.00     0.064 A 
ATOM     10  C   UNL A   1      38.874  23.624  26.580  1.00  0.00     0.005 A 
ATOM     11  C   UNL A   1      38.094  21.465  25.901  1.00  0.00     0.018 A 
BRANCH   7  12
ATOM     12  C   UNL A   1      35.237  23.980  25.563  1.00  0.00    -0.014 A 
ATOM     13  C   UNL A   1      33.856  25.461  24.224  1.00  0.00     0.133 A 
ATOM     14  C   UNL A   1      32.797  25.334  25.120  1.00  0.00     0.047 A 
ATOM     15  C   UNL A   1      35.063  24.782  24.424  1.00  0.00     0.056 A 
ATOM     16  C   UNL A   1      32.940  24.509  26.229  1.00  0.00     0.004 A 
ATOM     17  C   UNL A   1      34.150  23.846  26.450  1.00  0.00     0.009 A 
BRANCH  13  18
ATOM     18  O   UNL A   1      33.698  26.432  23.214  1.00  0.00    -0.410 OA
BRANCH  18  19
ATOM     19  C   UNL A   1      32.865  26.192  22.135  1.00  0.00     0.412 C 
ATOM     20  N   UNL A   1      31.961  27.195  21.919  1.00  0.00    -0.321 N 
ATOM     21  H   UNL A   1      31.321  27.056  21.185  1.00  0.00     0.167 HD
ATOM     22  O   UNL A   1      32.890  25.198  21.414  1.00  0.00    -0.224 OA
BRANCH  20  23
ATOM     23  C   UNL A   1      31.844  28.440  22.653  1.00  0.00     0.119 C 
BRANCH  23  24
ATOM     24  C   UNL A   1      30.737  28.384  23.707  1.00  0.00     0.021 C 
BRANCH  24  25
ATOM     25  C   UNL A   1      29.365  27.940  23.182  1.00  0.00     0.002 C 
BRANCH  25  26
ATOM     26  C   UNL A   1      28.453  29.066  22.683  1.00  0.00    -0.000 C 
BRANCH  26  27
ATOM     27  C   UNL A   1      28.839  30.476  23.138  1.00  0.00    -0.003 C 
ATOM     28  C   UNL A   1      27.662  31.278  23.674  1.00  0.00     0.004 C 
ENDBRANCH  26  27
ENDBRANCH  25  26
ENDBRANCH  24  25
ENDBRANCH  23  24
ENDBRANCH  20  23
ENDBRANCH  18  19
ENDBRANCH  13  18
ENDBRANCH   7  12
BRANCH   9  29
ATOM     29  C   UNL A   1      35.765  20.985  25.136  1.00  0.00     0.417 C 
ATOM     30  F   UNL A   1      36.321  19.773  24.827  1.00  0.00    -0.166 F 
ATOM     31  F   UNL A   1      34.811  20.709  26.071  1.00  0.00    -0.166 F 
ATOM     32  F   UNL A   1      35.099  21.350  24.010  1.00  0.00    -0.166 F 
ENDBRANCH   9  29
ENDBRANCH   4   6
ENDBRANCH   2   4
ENDBRANCH   1   2
BRANCH   1  33
ATOM     33  C   UNL A   1      42.889  19.426  25.547  1.00  0.00     0.261 C 
BRANCH  33  34
ATOM     34  C   UNL A   1      43.942  20.532  25.441  1.00  0.00     0.202 C 
BRANCH  34  35
ATOM     35  O   UNL A   1      43.491  21.796  24.954  1.00  0.00    -0.374 OA
BRANCH  35  36
ATOM     36  C   UNL A   1      44.438  22.864  24.917  1.00  0.00     0.202 C 
BRANCH  36  37
ATOM     37  C   UNL A   1      43.884  24.294  24.964  1.00  0.00     0.261 C 
BRANCH  37  38
ATOM     38  O   UNL A   1      42.894  24.474  25.991  1.00  0.00    -0.460 OA
BRANCH  38  39
ATOM     39  C   UNL A   1      42.204  25.640  25.910  1.00  0.00     0.338 C 
ATOM     40  O   UNL A   1      41.474  26.001  25.002  1.00  0.00    -0.246 OA
BRANCH  39  41
ATOM     41  C   UNL A   1      42.286  26.366  27.192  1.00  0.00     0.060 A 
ATOM     42  C   UNL A   1      41.533  25.862  28.261  1.00  0.00     0.016 A 
ATOM     43  C   UNL A   1      43.008  27.552  27.331  1.00  0.00     0.016 A 
ATOM     44  C   UNL A   1      41.453  26.572  29.456  1.00  0.00     0.010 A 
ATOM     45  C   UNL A   1      42.921  28.268  28.532  1.00  0.00     0.010 A 
ATOM     46  C   UNL A   1      42.113  27.800  29.586  1.00  0.00    -0.014 A 
BRANCH  46  47
ATOM     47  C   UNL A   1      41.828  28.655  30.765  1.00  0.00     0.031 A 
ATOM     48  C   UNL A   1      40.641  29.583  30.726  1.00  0.00     0.074 A 
ATOM     49  C   UNL A   1      42.580  28.571  31.877  1.00  0.00     0.049 A 
ATOM     50  N   UNL A   1      40.210  30.412  31.641  1.00  0.00    -0.248 NA
ATOM     51  C   UNL A   1      39.835  29.570  29.494  1.00  0.00     0.031 C 
ATOM     52  C   UNL A   1      43.723  27.676  32.061  1.00  0.00     0.029 A 
ATOM     53  N   UNL A   1      42.491  29.250  33.068  1.00  0.00    -0.354 N 
ATOM     54  C   UNL A   1      39.087  31.026  31.094  1.00  0.00     0.074 A 
ATOM     55  C   UNL A   1      38.922  30.493  29.759  1.00  0.00     0.031 C 
ATOM     56  C   UNL A   1      44.231  27.864  33.290  1.00  0.00     0.029 A 
ATOM     57  C   UNL A   1      43.472  28.913  33.970  1.00  0.00     0.049 A 
ATOM     58  H   UNL A   1      41.791  29.915  33.257  1.00  0.00     0.167 HD
ATOM     59  C   UNL A   1      38.264  31.944  31.655  1.00  0.00     0.031 A 
ATOM     60  C   UNL A   1      43.741  29.407  35.195  1.00  0.00     0.031 A 
ATOM     61  C   UNL A   1      38.435  32.482  32.979  1.00  0.00     0.049 A 
ATOM     62  C   UNL A   1      42.858  30.486  35.766  1.00  0.00     0.074 A 
ATOM     63  C   UNL A   1      37.646  33.406  33.640  1.00  0.00     0.029 A 
ATOM     64  N   UNL A   1      39.469  32.151  33.841  1.00  0.00    -0.354 N 
ATOM     65  N   UNL A   1      41.788  31.039  35.245  1.00  0.00    -0.248 NA
ATOM     66  C   UNL A   1      43.217  31.004  37.094  1.00  0.00     0.031 C 
ATOM     67  C   UNL A   1      38.235  33.678  34.879  1.00  0.00     0.029 A 
ATOM     68  C   UNL A   1      39.358  32.877  35.014  1.00  0.00     0.049 A 
ATOM     69  H   UNL A   1      40.180  31.497  33.646  1.00  0.00     0.167 HD
ATOM     70  C   UNL A   1      41.334  31.952  36.192  1.00  0.00     0.074 A 
ATOM     71  C   UNL A   1      42.234  31.865  37.323  1.00  0.00     0.031 C 
ATOM     72  C   UNL A   1      40.264  32.785  36.132  1.00  0.00     0.031 A 
BRANCH  59  73
ATOM     73  C   UNL A   1      37.120  32.455  30.819  1.00  0.00    -0.014 A 
ATOM     74  C   UNL A   1      35.849  31.856  30.876  1.00  0.00     0.010 A 
ATOM     75  C   UNL A   1      37.311  33.578  29.993  1.00  0.00     0.010 A 
ATOM     76  C   UNL A   1      34.800  32.348  30.094  1.00  0.00     0.020 A 
ATOM     77  C   UNL A   1      36.258  34.090  29.229  1.00  0.00     0.020 A 
ATOM     78  C   UNL A   1      35.012  33.461  29.274  1.00  0.00     0.054 A 
BRANCH  78  79
ATOM     79  S   UNL A   1      33.627  34.093  28.288  1.00  0.00     0.124 S 
ATOM     80  O   UNL A   1      34.286  35.082  27.439  1.00  0.00    -0.237 OA
ATOM     81  O   UNL A   1      33.149  32.896  27.602  1.00  0.00    -0.237 OA
ATOM     82  O   UNL A   1      32.711  34.643  29.286  1.00  0.00    -0.744 OA
ENDBRANCH  78  79
ENDBRANCH  59  73
BRANCH  60  83
ATOM     83  C   UNL A   1      44.915  28.904  35.958  1.00  0.00    -0.014 A 
ATOM     84  C   UNL A   1      44.790  27.819  36.842  1.00  0.00     0.010 A 
ATOM     85  C   UNL A   1      46.172  29.518  35.803  1.00  0.00     0.010 A 
ATOM     86  C   UNL A   1      45.896  27.366  37.568  1.00  0.00     0.020 A 
ATOM     87  C   UNL A   1      47.286  29.051  36.506  1.00  0.00     0.020 A 
ATOM     88  C   UNL A   1      47.138  27.984  37.393  1.00  0.00     0.054 A 
BRANCH  88  89
ATOM     89  S   UNL A   1      48.571  27.348  38.306  1.00  0.00     0.124 S 
ATOM     90  O   UNL A   1      47.980  26.995  39.593  1.00  0.00    -0.237 OA
ATOM     91  O   UNL A   1      49.000  26.224  37.476  1.00  0.00    -0.237 OA
ATOM     92  O   UNL A   1      49.493  28.481  38.328  1.00  0.00    -0.744 OA
ENDBRANCH  88  89
ENDBRANCH  60  83
BRANCH  72  93
ATOM     93  C   UNL A   1      39.990  33.654  37.331  1.00  0.00    -0.014 A 
ATOM     94  C   UNL A   1      40.618  34.903  37.486  1.00  0.00     0.010 A 
ATOM     95  C   UNL A   1      39.046  33.239  38.289  1.00  0.00     0.010 A 
ATOM     96  C   UNL A   1      40.331  35.705  38.594  1.00  0.00     0.020 A 
ATOM     97  C   UNL A   1      38.736  34.051  39.384  1.00  0.00     0.020 A 
ATOM     98  C   UNL A   1      39.391  35.274  39.536  1.00  0.00     0.054 A 
BRANCH  98  99
ATOM     99  S   UNL A   1      39.006  36.353  40.942  1.00  0.00     0.124 S 
ATOM    100  O   UNL A   1      40.335  36.692  41.439  1.00  0.00    -0.237 OA
ATOM    101  O   UNL A   1      38.271  37.448  40.314  1.00  0.00    -0.237 OA
ATOM    102  O   UNL A   1      38.209  35.502  41.824  1.00  0.00    -0.744 OA
ENDBRANCH  98  99
ENDBRANCH  72  93
ENDBRANCH  46  47
ENDBRANCH  39  41
ENDBRANCH  38  39
ENDBRANCH  37  38
ENDBRANCH  36  37
ENDBRANCH  35  36
ENDBRANCH  34  35
ENDBRANCH  33  34
ENDBRANCH   1  33
TORSDOF 27
ENDMDL
MODEL 2
REMARK VINA RESULT:      -8.9      3.860      7.922
REMARK SMILES CCCCCCNC(=O)Oc1cccc(-c2ccc([C@@H](C)C(=O)OCCOCCOC(=O)c3ccc(-c4c5nc(c(-c6ccc(S(=O)(=O)[O-])cc6)c6ccc([nH]6)c(-c6ccc(S(=O)(=O)[O-])cc6)c6nc(c(-c7ccc(S(=O)(=O)[O-])cc7)c7ccc4[nH]7)C=C6)C=C5)cc3)cc2C(F)(F)F)c1
REMARK SMILES IDX 24 1 22 2 23 3 20 4 21 5 19 6 16 7 17 8 94 9 18 10 93 11
REMARK SMILES IDX 15 12 11 13 12 14 99 15 13 16 14 17 10 18 8 19 7 20 9 22
REMARK SMILES IDX 6 23 5 24 4 25 3 26 2 27 1 28 95 29 96 30 97 31 98 32 25 33
REMARK SMILES IDX 26 34 27 35 28 36 29 37 30 38 31 39 32 40 33 41 34 42 92 43
REMARK SMILES IDX 35 44 91 45 36 46 37 47 38 48 85 49 39 50 90 51 84 52 86 53
REMARK SMILES IDX 40 54 89 55 83 56 82 57 41 59 71 60 52 61 70 62 53 63 56 64
REMARK SMILES IDX 69 65 87 66 54 67 55 68 68 70 88 71 57 72 42 73 43 74 51 75
REMARK SMILES IDX 44 76 50 77 45 78 46 79 47 80 48 81 49 82 72 83 73 84 81 85
REMARK SMILES IDX 74 86 80 87 75 88 76 89 77 90 78 91 79 92 58 93 59 94 67 95
REMARK SMILES IDX 60 96 66 97 61 98 62 99 63 100 64 101 65 102
REMARK H PARENT 7 21 86 58 56 69
REMARK Flexibility Score: inf
ROOT
ATOM      1  O   UNL A   1      40.437  21.373  27.525  1.00  0.00    -0.463 OA
ENDROOT
BRANCH   1   2
ATOM      2  C   UNL A   1      39.629  21.484  26.440  1.00  0.00     0.313 C 
ATOM      3  O   UNL A   1      39.381  20.569  25.660  1.00  0.00    -0.252 OA
BRANCH   2   4
ATOM      4  C   UNL A   1      39.057  22.877  26.238  1.00  0.00     0.126 C 
ATOM      5  C   UNL A   1      39.543  23.792  27.358  1.00  0.00     0.025 C 
BRANCH   4   6
ATOM      6  C   UNL A   1      37.556  23.017  26.000  1.00  0.00    -0.033 A 
ATOM      7  C   UNL A   1      34.790  23.189  25.276  1.00  0.00    -0.006 A 
ATOM      8  C   UNL A   1      35.542  24.327  25.635  1.00  0.00     0.009 A 
ATOM      9  C   UNL A   1      35.437  21.936  25.315  1.00  0.00     0.064 A 
ATOM     10  C   UNL A   1      36.899  24.248  25.979  1.00  0.00     0.005 A 
ATOM     11  C   UNL A   1      36.800  21.873  25.698  1.00  0.00     0.018 A 
BRANCH   7  12
ATOM     12  C   UNL A   1      33.404  23.372  24.797  1.00  0.00    -0.014 A 
ATOM     13  C   UNL A   1      31.782  24.228  23.204  1.00  0.00     0.133 A 
ATOM     14  C   UNL A   1      30.727  23.865  24.037  1.00  0.00     0.047 A 
ATOM     15  C   UNL A   1      33.111  23.974  23.562  1.00  0.00     0.056 A 
ATOM     16  C   UNL A   1      30.998  23.230  25.243  1.00  0.00     0.004 A 
ATOM     17  C   UNL A   1      32.324  22.993  25.620  1.00  0.00     0.009 A 
BRANCH  13  18
ATOM     18  O   UNL A   1      31.442  25.005  22.079  1.00  0.00    -0.410 OA
BRANCH  18  19
ATOM     19  C   UNL A   1      32.297  25.996  21.627  1.00  0.00     0.412 C 
ATOM     20  N   UNL A   1      31.833  27.260  21.869  1.00  0.00    -0.321 N 
ATOM     21  H   UNL A   1      32.387  28.001  21.535  1.00  0.00     0.167 HD
ATOM     22  O   UNL A   1      33.371  25.816  21.060  1.00  0.00    -0.224 OA
BRANCH  20  23
ATOM     23  C   UNL A   1      30.614  27.625  22.565  1.00  0.00     0.119 C 
BRANCH  23  24
ATOM     24  C   UNL A   1      30.747  27.459  24.081  1.00  0.00     0.021 C 
BRANCH  24  25
ATOM     25  C   UNL A   1      31.527  28.575  24.788  1.00  0.00     0.002 C 
BRANCH  25  26
ATOM     26  C   UNL A   1      31.746  28.379  26.292  1.00  0.00    -0.000 C 
BRANCH  26  27
ATOM     27  C   UNL A   1      32.076  29.649  27.080  1.00  0.00    -0.003 C 
ATOM     28  C   UNL A   1      31.626  30.924  26.381  1.00  0.00     0.004 C 
ENDBRANCH  26  27
ENDBRANCH  25  26
ENDBRANCH  24  25
ENDBRANCH  23  24
ENDBRANCH  20  23
ENDBRANCH  18  19
ENDBRANCH  13  18
ENDBRANCH   7  12
BRANCH   9  29
ATOM     29  C   UNL A   1      34.764  20.624  24.965  1.00  0.00     0.417 C 
ATOM     30  F   UNL A   1      33.862  20.237  25.918  1.00  0.00    -0.166 F 
ATOM     31  F   UNL A   1      34.044  20.713  23.810  1.00  0.00    -0.166 F 
ATOM     32  F   UNL A   1      35.586  19.552  24.819  1.00  0.00    -0.166 F 
ENDBRANCH   9  29
ENDBRANCH   4   6
ENDBRANCH   2   4
ENDBRANCH   1   2
BRANCH   1  33
ATOM     33  C   UNL A   1      41.812  21.044  27.254  1.00  0.00     0.261 C 
BRANCH  33  34
ATOM     34  C   UNL A   1      42.668  22.303  27.097  1.00  0.00     0.202 C 
BRANCH  34  35
ATOM     35  O   UNL A   1      43.989  22.114  26.591  1.00  0.00    -0.374 OA
BRANCH  35  36
ATOM     36  C   UNL A   1      44.131  21.378  25.376  1.00  0.00     0.202 C 
BRANCH  36  37
ATOM     37  C   UNL A   1      44.965  22.019  24.260  1.00  0.00     0.261 C 
BRANCH  37  38
ATOM     38  O   UNL A   1      44.791  23.444  24.184  1.00  0.00    -0.460 OA
BRANCH  38  39
ATOM     39  C   UNL A   1      45.905  24.163  24.471  1.00  0.00     0.338 C 
ATOM     40  O   UNL A   1      46.967  24.146  23.870  1.00  0.00    -0.246 OA
BRANCH  39  41
ATOM     41  C   UNL A   1      45.609  25.160  25.519  1.00  0.00     0.060 A 
ATOM     42  C   UNL A   1      46.703  25.750  26.167  1.00  0.00     0.016 A 
ATOM     43  C   UNL A   1      44.305  25.454  25.919  1.00  0.00     0.016 A 
ATOM     44  C   UNL A   1      46.499  26.593  27.256  1.00  0.00     0.010 A 
ATOM     45  C   UNL A   1      44.103  26.297  27.019  1.00  0.00     0.010 A 
ATOM     46  C   UNL A   1      45.199  26.839  27.716  1.00  0.00    -0.014 A 
BRANCH  46  47
ATOM     47  C   UNL A   1      45.009  27.538  29.011  1.00  0.00     0.031 A 
ATOM     48  C   UNL A   1      45.100  26.746  30.290  1.00  0.00     0.074 A 
ATOM     49  C   UNL A   1      44.811  28.868  29.056  1.00  0.00     0.049 A 
ATOM     50  N   UNL A   1      44.969  27.153  31.526  1.00  0.00    -0.248 NA
ATOM     51  C   UNL A   1      45.378  25.307  30.155  1.00  0.00     0.031 C 
ATOM     52  C   UNL A   1      44.756  29.755  27.895  1.00  0.00     0.029 A 
ATOM     53  N   UNL A   1      44.624  29.706  30.128  1.00  0.00    -0.354 N 
ATOM     54  C   UNL A   1      45.142  26.021  32.316  1.00  0.00     0.074 A 
ATOM     55  C   UNL A   1      45.358  24.907  31.418  1.00  0.00     0.031 C 
ATOM     56  C   UNL A   1      44.544  31.013  28.317  1.00  0.00     0.029 A 
ATOM     57  C   UNL A   1      44.418  31.018  29.773  1.00  0.00     0.049 A 
ATOM     58  H   UNL A   1      44.636  29.397  31.062  1.00  0.00     0.167 HD
ATOM     59  C   UNL A   1      45.127  25.919  33.667  1.00  0.00     0.031 A 
ATOM     60  C   UNL A   1      44.138  32.096  30.533  1.00  0.00     0.031 A 
ATOM     61  C   UNL A   1      44.901  27.024  34.559  1.00  0.00     0.049 A 
ATOM     62  C   UNL A   1      44.049  31.942  32.029  1.00  0.00     0.074 A 
ATOM     63  C   UNL A   1      44.881  27.023  35.943  1.00  0.00     0.029 A 
ATOM     64  N   UNL A   1      44.646  28.327  34.158  1.00  0.00    -0.354 N 
ATOM     65  N   UNL A   1      44.236  30.869  32.761  1.00  0.00    -0.248 NA
ATOM     66  C   UNL A   1      43.715  33.147  32.802  1.00  0.00     0.031 C 
ATOM     67  C   UNL A   1      44.557  28.313  36.378  1.00  0.00     0.029 A 
ATOM     68  C   UNL A   1      44.437  29.130  35.266  1.00  0.00     0.049 A 
ATOM     69  H   UNL A   1      44.618  28.635  33.223  1.00  0.00     0.167 HD
ATOM     70  C   UNL A   1      44.066  31.277  34.081  1.00  0.00     0.074 A 
ATOM     71  C   UNL A   1      43.777  32.695  34.047  1.00  0.00     0.031 C 
ATOM     72  C   UNL A   1      44.145  30.542  35.219  1.00  0.00     0.031 A 
BRANCH  59  73
ATOM     73  C   UNL A   1      45.328  24.550  34.263  1.00  0.00    -0.014 A 
ATOM     74  C   UNL A   1      44.249  23.666  34.444  1.00  0.00     0.010 A 
ATOM     75  C   UNL A   1      46.624  24.127  34.610  1.00  0.00     0.010 A 
ATOM     76  C   UNL A   1      44.458  22.399  34.996  1.00  0.00     0.020 A 
ATOM     77  C   UNL A   1      46.841  22.851  35.138  1.00  0.00     0.020 A 
ATOM     78  C   UNL A   1      45.752  22.000  35.341  1.00  0.00     0.054 A 
BRANCH  78  79
ATOM     79  S   UNL A   1      45.998  20.341  36.033  1.00  0.00     0.124 S 
ATOM     80  O   UNL A   1      45.695  20.555  37.446  1.00  0.00    -0.237 OA
ATOM     81  O   UNL A   1      45.024  19.539  35.297  1.00  0.00    -0.237 OA
ATOM     82  O   UNL A   1      47.398  20.044  35.735  1.00  0.00    -0.744 OA
ENDBRANCH  78  79
ENDBRANCH  59  73
BRANCH  60  83
ATOM     83  C   UNL A   1      43.897  33.416  29.890  1.00  0.00    -0.014 A 
ATOM     84  C   UNL A   1      44.948  34.331  29.704  1.00  0.00     0.010 A 
ATOM     85  C   UNL A   1      42.603  33.766  29.462  1.00  0.00     0.010 A 
ATOM     86  C   UNL A   1      44.707  35.576  29.115  1.00  0.00     0.020 A 
ATOM     87  C   UNL A   1      42.363  34.998  28.848  1.00  0.00     0.020 A 
ATOM     88  C   UNL A   1      43.415  35.901  28.689  1.00  0.00     0.054 A 
BRANCH  88  89
ATOM     89  S   UNL A   1      43.135  37.501  27.881  1.00  0.00     0.124 S 
ATOM     90  O   UNL A   1      43.016  38.402  29.022  1.00  0.00    -0.237 OA
ATOM     91  O   UNL A   1      44.340  37.660  27.069  1.00  0.00    -0.237 OA
ATOM     92  O   UNL A   1      41.906  37.287  27.118  1.00  0.00    -0.744 OA
ENDBRANCH  88  89
ENDBRANCH  60  83
BRANCH  72  93
ATOM     93  C   UNL A   1      43.942  31.260  36.527  1.00  0.00    -0.014 A 
ATOM     94  C   UNL A   1      42.667  31.364  37.113  1.00  0.00     0.010 A 
ATOM     95  C   UNL A   1      45.053  31.790  37.209  1.00  0.00     0.010 A 
ATOM     96  C   UNL A   1      42.504  32.013  38.339  1.00  0.00     0.020 A 
ATOM     97  C   UNL A   1      44.897  32.416  38.449  1.00  0.00     0.020 A 
ATOM     98  C   UNL A   1      43.621  32.535  39.000  1.00  0.00     0.054 A 
BRANCH  98  99
ATOM     99  S   UNL A   1      43.388  33.336  40.611  1.00  0.00     0.124 S 
ATOM    100  O   UNL A   1      42.232  32.619  41.143  1.00  0.00    -0.237 OA
ATOM    101  O   UNL A   1      44.656  33.072  41.287  1.00  0.00    -0.237 OA
ATOM    102  O   UNL A   1      43.150  34.737  40.271  1.00  0.00    -0.744 OA
ENDBRANCH  98  99
ENDBRANCH  72  93
ENDBRANCH  46  47
ENDBRANCH  39  41
ENDBRANCH  38  39
ENDBRANCH  37  38
ENDBRANCH  36  37
ENDBRANCH  35  36
ENDBRANCH  34  35
ENDBRANCH  33  34
ENDBRANCH   1  33
TORSDOF 27
ENDMDL
MODEL 3
REMARK VINA RESULT:      -8.8      4.592     10.558
REMARK SMILES CCCCCCNC(=O)Oc1cccc(-c2ccc([C@@H](C)C(=O)OCCOCCOC(=O)c3ccc(-c4c5nc(c(-c6ccc(S(=O)(=O)[O-])cc6)c6ccc([nH]6)c(-c6ccc(S(=O)(=O)[O-])cc6)c6nc(c(-c7ccc(S(=O)(=O)[O-])cc7)c7ccc4[nH]7)C=C6)C=C5)cc3)cc2C(F)(F)F)c1
REMARK SMILES IDX 24 1 22 2 23 3 20 4 21 5 19 6 16 7 17 8 94 9 18 10 93 11
REMARK SMILES IDX 15 12 11 13 12 14 99 15 13 16 14 17 10 18 8 19 7 20 9 22
REMARK SMILES IDX 6 23 5 24 4 25 3 26 2 27 1 28 95 29 96 30 97 31 98 32 25 33
REMARK SMILES IDX 26 34 27 35 28 36 29 37 30 38 31 39 32 40 33 41 34 42 92 43
REMARK SMILES IDX 35 44 91 45 36 46 37 47 38 48 85 49 39 50 90 51 84 52 86 53
REMARK SMILES IDX 40 54 89 55 83 56 82 57 41 59 71 60 52 61 70 62 53 63 56 64
REMARK SMILES IDX 69 65 87 66 54 67 55 68 68 70 88 71 57 72 42 73 43 74 51 75
REMARK SMILES IDX 44 76 50 77 45 78 46 79 47 80 48 81 49 82 72 83 73 84 81 85
REMARK SMILES IDX 74 86 80 87 75 88 76 89 77 90 78 91 79 92 58 93 59 94 67 95
REMARK SMILES IDX 60 96 66 97 61 98 62 99 63 100 64 101 65 102
REMARK H PARENT 7 21 86 58 56 69
REMARK Flexibility Score: inf
ROOT
ATOM      1  O   UNL A   1      33.826  33.938  29.769  1.00  0.00    -0.463 OA
ENDROOT
BRANCH   1   2
ATOM      2  C   UNL A   1      34.612  33.353  28.829  1.00  0.00     0.313 C 
ATOM      3  O   UNL A   1      35.035  33.919  27.825  1.00  0.00    -0.252 OA
BRANCH   2   4
ATOM      4  C   UNL A   1      34.914  31.889  29.103  1.00  0.00     0.126 C 
ATOM      5  C   UNL A   1      36.294  31.768  29.744  1.00  0.00     0.025 C 
BRANCH   4   6
ATOM      6  C   UNL A   1      34.724  30.885  27.970  1.00  0.00    -0.033 A 
ATOM      7  C   UNL A   1      34.147  28.882  26.004  1.00  0.00    -0.006 A 
ATOM      8  C   UNL A   1      35.381  28.929  26.686  1.00  0.00     0.009 A 
ATOM      9  C   UNL A   1      33.199  29.886  26.295  1.00  0.00     0.064 A 
ATOM     10  C   UNL A   1      35.662  29.901  27.657  1.00  0.00     0.005 A 
ATOM     11  C   UNL A   1      33.515  30.880  27.255  1.00  0.00     0.018 A 
BRANCH   7  12
ATOM     12  C   UNL A   1      33.876  27.749  25.095  1.00  0.00    -0.014 A 
ATOM     13  C   UNL A   1      33.554  25.382  24.657  1.00  0.00     0.133 A 
ATOM     14  C   UNL A   1      33.559  25.605  23.282  1.00  0.00     0.047 A 
ATOM     15  C   UNL A   1      33.693  26.439  25.565  1.00  0.00     0.056 A 
ATOM     16  C   UNL A   1      33.696  26.901  22.803  1.00  0.00     0.004 A 
ATOM     17  C   UNL A   1      33.860  27.960  23.701  1.00  0.00     0.009 A 
BRANCH  13  18
ATOM     18  O   UNL A   1      33.571  24.034  25.066  1.00  0.00    -0.410 OA
BRANCH  18  19
ATOM     19  C   UNL A   1      33.259  23.692  26.371  1.00  0.00     0.412 C 
ATOM     20  N   UNL A   1      31.918  23.531  26.580  1.00  0.00    -0.321 N 
ATOM     21  H   UNL A   1      31.641  23.323  27.501  1.00  0.00     0.167 HD
ATOM     22  O   UNL A   1      34.064  23.539  27.285  1.00  0.00    -0.224 OA
BRANCH  20  23
ATOM     23  C   UNL A   1      30.860  23.632  25.593  1.00  0.00     0.119 C 
BRANCH  23  24
ATOM     24  C   UNL A   1      30.196  25.011  25.602  1.00  0.00     0.021 C 
BRANCH  24  25
ATOM     25  C   UNL A   1      29.920  25.605  24.216  1.00  0.00     0.002 C 
BRANCH  25  26
ATOM     26  C   UNL A   1      30.209  27.103  24.068  1.00  0.00    -0.000 C 
BRANCH  26  27
ATOM     27  C   UNL A   1      30.070  27.663  22.651  1.00  0.00    -0.003 C 
ATOM     28  C   UNL A   1      29.177  28.893  22.575  1.00  0.00     0.004 C 
ENDBRANCH  26  27
ENDBRANCH  25  26
ENDBRANCH  24  25
ENDBRANCH  23  24
ENDBRANCH  20  23
ENDBRANCH  18  19
ENDBRANCH  13  18
ENDBRANCH   7  12
BRANCH   9  29
ATOM     29  C   UNL A   1      31.834  29.976  25.643  1.00  0.00     0.417 C 
ATOM     30  F   UNL A   1      31.012  28.951  26.025  1.00  0.00    -0.166 F 
ATOM     31  F   UNL A   1      31.172  31.113  26.000  1.00  0.00    -0.166 F 
ATOM     32  F   UNL A   1      31.817  29.937  24.285  1.00  0.00    -0.166 F 
ENDBRANCH   9  29
ENDBRANCH   4   6
ENDBRANCH   2   4
ENDBRANCH   1   2
BRANCH   1  33
ATOM     33  C   UNL A   1      32.941  34.969  29.297  1.00  0.00     0.261 C 
BRANCH  33  34
ATOM     34  C   UNL A   1      33.246  36.314  29.960  1.00  0.00     0.202 C 
BRANCH  34  35
ATOM     35  O   UNL A   1      32.448  36.663  31.091  1.00  0.00    -0.374 OA
BRANCH  35  36
ATOM     36  C   UNL A   1      32.898  36.228  32.374  1.00  0.00     0.202 C 
BRANCH  36  37
ATOM     37  C   UNL A   1      34.357  36.525  32.743  1.00  0.00     0.261 C 
BRANCH  37  38
ATOM     38  O   UNL A   1      34.880  35.611  33.723  1.00  0.00    -0.460 OA
BRANCH  38  39
ATOM     39  C   UNL A   1      35.762  34.704  33.233  1.00  0.00     0.338 C 
ATOM     40  O   UNL A   1      35.856  34.319  32.080  1.00  0.00    -0.246 OA
BRANCH  39  41
ATOM     41  C   UNL A   1      36.769  34.371  34.259  1.00  0.00     0.060 A 
ATOM     42  C   UNL A   1      38.076  34.829  34.045  1.00  0.00     0.016 A 
ATOM     43  C   UNL A   1      36.471  33.566  35.360  1.00  0.00     0.016 A 
ATOM     44  C   UNL A   1      39.103  34.436  34.899  1.00  0.00     0.010 A 
ATOM     45  C   UNL A   1      37.508  33.167  36.213  1.00  0.00     0.010 A 
ATOM     46  C   UNL A   1      38.834  33.569  35.965  1.00  0.00    -0.014 A 
BRANCH  46  47
ATOM     47  C   UNL A   1      39.966  32.971  36.717  1.00  0.00     0.031 A 
ATOM     48  C   UNL A   1      40.264  33.469  38.107  1.00  0.00     0.074 A 
ATOM     49  C   UNL A   1      40.686  31.963  36.194  1.00  0.00     0.049 A 
ATOM     50  N   UNL A   1      41.199  33.089  38.938  1.00  0.00    -0.248 NA
ATOM     51  C   UNL A   1      39.390  34.534  38.627  1.00  0.00     0.031 C 
ATOM     52  C   UNL A   1      40.465  31.356  34.882  1.00  0.00     0.029 A 
ATOM     53  N   UNL A   1      41.752  31.267  36.709  1.00  0.00    -0.354 N 
ATOM     54  C   UNL A   1      41.032  33.871  40.077  1.00  0.00     0.074 A 
ATOM     55  C   UNL A   1      39.925  34.765  39.817  1.00  0.00     0.031 C 
ATOM     56  C   UNL A   1      41.371  30.381  34.694  1.00  0.00     0.029 A 
ATOM     57  C   UNL A   1      42.255  30.315  35.856  1.00  0.00     0.049 A 
ATOM     58  H   UNL A   1      42.122  31.436  37.606  1.00  0.00     0.167 HD
ATOM     59  C   UNL A   1      41.733  33.843  41.236  1.00  0.00     0.031 A 
ATOM     60  C   UNL A   1      43.319  29.497  35.987  1.00  0.00     0.031 A 
ATOM     61  C   UNL A   1      42.841  32.961  41.490  1.00  0.00     0.049 A 
ATOM     62  C   UNL A   1      44.132  29.540  37.255  1.00  0.00     0.074 A 
ATOM     63  C   UNL A   1      43.606  32.849  42.638  1.00  0.00     0.029 A 
ATOM     64  N   UNL A   1      43.350  32.047  40.581  1.00  0.00    -0.354 N 
ATOM     65  N   UNL A   1      43.948  30.269  38.329  1.00  0.00    -0.248 NA
ATOM     66  C   UNL A   1      45.295  28.644  37.328  1.00  0.00     0.031 C 
ATOM     67  C   UNL A   1      44.614  31.907  42.402  1.00  0.00     0.029 A 
ATOM     68  C   UNL A   1      44.438  31.389  41.130  1.00  0.00     0.049 A 
ATOM     69  H   UNL A   1      42.992  31.889  39.677  1.00  0.00     0.167 HD
ATOM     70  C   UNL A   1      44.957  29.903  39.214  1.00  0.00     0.074 A 
ATOM     71  C   UNL A   1      45.738  28.876  38.556  1.00  0.00     0.031 C 
ATOM     72  C   UNL A   1      45.212  30.372  40.462  1.00  0.00     0.031 A 
BRANCH  59  73
ATOM     73  C   UNL A   1      41.342  34.825  42.309  1.00  0.00    -0.014 A 
ATOM     74  C   UNL A   1      40.378  34.501  43.281  1.00  0.00     0.010 A 
ATOM     75  C   UNL A   1      41.979  36.079  42.369  1.00  0.00     0.010 A 
ATOM     76  C   UNL A   1      40.032  35.427  44.269  1.00  0.00     0.020 A 
ATOM     77  C   UNL A   1      41.655  36.997  43.372  1.00  0.00     0.020 A 
ATOM     78  C   UNL A   1      40.671  36.669  44.308  1.00  0.00     0.054 A 
BRANCH  78  79
ATOM     79  S   UNL A   1      40.220  37.842  45.616  1.00  0.00     0.124 S 
ATOM     80  O   UNL A   1      38.763  37.858  45.518  1.00  0.00    -0.237 OA
ATOM     81  O   UNL A   1      40.762  37.208  46.815  1.00  0.00    -0.237 OA
ATOM     82  O   UNL A   1      40.883  39.081  45.216  1.00  0.00    -0.744 OA
ENDBRANCH  78  79
ENDBRANCH  59  73
BRANCH  60  83
ATOM     83  C   UNL A   1      43.694  28.582  34.875  1.00  0.00    -0.014 A 
ATOM     84  C   UNL A   1      43.129  27.299  34.774  1.00  0.00     0.010 A 
ATOM     85  C   UNL A   1      44.628  28.994  33.907  1.00  0.00     0.010 A 
ATOM     86  C   UNL A   1      43.502  26.440  33.736  1.00  0.00     0.020 A 
ATOM     87  C   UNL A   1      44.983  28.150  32.852  1.00  0.00     0.020 A 
ATOM     88  C   UNL A   1      44.426  26.872  32.780  1.00  0.00     0.054 A 
BRANCH  88  89
ATOM     89  S   UNL A   1      44.858  25.761  31.412  1.00  0.00     0.124 S 
ATOM     90  O   UNL A   1      44.881  24.460  32.071  1.00  0.00    -0.237 OA
ATOM     91  O   UNL A   1      43.759  25.977  30.472  1.00  0.00    -0.237 OA
ATOM     92  O   UNL A   1      46.155  26.261  30.963  1.00  0.00    -0.744 OA
ENDBRANCH  88  89
ENDBRANCH  60  83
BRANCH  72  93
ATOM     93  C   UNL A   1      46.368  29.764  41.212  1.00  0.00    -0.014 A 
ATOM     94  C   UNL A   1      46.204  28.600  41.985  1.00  0.00     0.010 A 
ATOM     95  C   UNL A   1      47.649  30.333  41.095  1.00  0.00     0.010 A 
ATOM     96  C   UNL A   1      47.295  28.038  42.654  1.00  0.00     0.020 A 
ATOM     97  C   UNL A   1      48.747  29.757  41.740  1.00  0.00     0.020 A 
ATOM     98  C   UNL A   1      48.560  28.620  42.527  1.00  0.00     0.054 A 
BRANCH  98  99
ATOM     99  S   UNL A   1      49.967  27.846  43.370  1.00  0.00     0.124 S 
ATOM    100  O   UNL A   1      50.632  27.147  42.274  1.00  0.00    -0.237 OA
ATOM    101  O   UNL A   1      50.688  28.995  43.912  1.00  0.00    -0.237 OA
ATOM    102  O   UNL A   1      49.340  26.984  44.370  1.00  0.00    -0.744 OA
ENDBRANCH  98  99
ENDBRANCH  72  93
ENDBRANCH  46  47
ENDBRANCH  39  41
ENDBRANCH  38  39
ENDBRANCH  37  38
ENDBRANCH  36  37
ENDBRANCH  35  36
ENDBRANCH  34  35
ENDBRANCH  33  34
ENDBRANCH   1  33
TORSDOF 27
ENDMDL
