MODEL 1
REMARK VINA RESULT:      -7.9      0.000      0.000
REMARK SMILES CC[C@H](C(=O)OCCOCCOC(=O)c1ccc(-c2c3nc(c(-c4ccc(S(=O)(=O)[O-])cc4)c4ccc([nH]4)c(-c4ccc(S(=O)(=O)[O-])cc4)c4nc(c(-c5ccc(S(=O)(=O)[O-])cc5)c5ccc2[nH]5)C=C4)C=C3)cc1)n1cnc2scc(-c3cccc([N+](=O)[O-])c3)c2c1=O
REMARK SMILES IDX 9 1 8 2 7 3 6 4 4 5 5 6 3 7 2 8 1 9 75 10 76 11 92 12 77 13
REMARK SMILES IDX 91 14 93 15 78 16 81 17 79 18 80 19 82 20 83 21 90 22 84 23
REMARK SMILES IDX 86 24 85 25 87 26 88 27 89 28 10 29 11 30 12 31 13 32 14 33
REMARK SMILES IDX 15 34 16 35 74 36 17 37 73 38 18 39 19 40 20 41 67 42 21 43
REMARK SMILES IDX 72 44 66 45 68 46 22 47 71 48 65 49 64 50 23 52 53 53 34 54
REMARK SMILES IDX 52 55 35 56 38 57 51 58 69 59 36 60 37 61 50 63 70 64 39 65
REMARK SMILES IDX 24 66 25 67 33 68 26 69 32 70 27 71 28 72 29 73 30 74 31 75
REMARK SMILES IDX 54 76 55 77 63 78 56 79 62 80 57 81 58 82 59 83 60 84 61 85
REMARK SMILES IDX 40 86 41 87 49 88 42 89 48 90 43 91 44 92 45 93 46 94 47 95
REMARK H PARENT 68 51 38 62
REMARK Flexibility Score: inf
ROOT
ATOM      1  O   UNL A   1      43.540  18.765  25.110  1.00  0.00    -0.374 OA
ENDROOT
BRANCH   1   2
ATOM      2  C   UNL A   1      42.712  19.231  26.171  1.00  0.00     0.202 C 
BRANCH   2   3
ATOM      3  C   UNL A   1      42.168  20.657  26.057  1.00  0.00     0.261 C 
BRANCH   3   4
ATOM      4  O   UNL A   1      42.524  21.499  27.169  1.00  0.00    -0.462 OA
BRANCH   4   5
ATOM      5  C   UNL A   1      41.491  22.139  27.769  1.00  0.00     0.329 C 
ATOM      6  O   UNL A   1      40.365  21.664  27.899  1.00  0.00    -0.250 OA
BRANCH   5   7
ATOM      7  C   UNL A   1      41.797  23.595  28.168  1.00  0.00     0.201 C 
BRANCH   7   8
ATOM      8  C   UNL A   1      43.265  23.898  28.531  1.00  0.00     0.034 C 
ATOM      9  C   UNL A   1      43.593  24.777  29.738  1.00  0.00     0.007 C 
ENDBRANCH   7   8
BRANCH   7  10
ATOM     10  N   UNL A   1      41.095  24.389  27.163  1.00  0.00    -0.284 N 
ATOM     11  C   UNL A   1      41.680  24.518  25.912  1.00  0.00     0.204 A 
ATOM     12  C   UNL A   1      40.178  25.343  27.551  1.00  0.00     0.263 A 
ATOM     13  N   UNL A   1      41.770  25.633  25.258  1.00  0.00    -0.227 NA
ATOM     14  C   UNL A   1      40.546  26.666  27.102  1.00  0.00     0.085 A 
ATOM     15  O   UNL A   1      39.141  25.074  28.144  1.00  0.00    -0.268 OA
ATOM     16  C   UNL A   1      41.344  26.708  25.975  1.00  0.00     0.131 A 
ATOM     17  C   UNL A   1      40.308  27.954  27.678  1.00  0.00     0.008 A 
ATOM     18  S   UNL A   1      41.862  28.288  25.626  1.00  0.00    -0.123 S 
ATOM     19  C   UNL A   1      41.015  28.917  26.972  1.00  0.00     0.076 A 
BRANCH  17  20
ATOM     20  C   UNL A   1      39.517  28.329  28.852  1.00  0.00    -0.010 A 
ATOM     21  C   UNL A   1      39.773  27.778  30.117  1.00  0.00     0.009 A 
ATOM     22  C   UNL A   1      38.409  29.168  28.705  1.00  0.00     0.094 A 
ATOM     23  C   UNL A   1      38.935  28.039  31.209  1.00  0.00     0.008 A 
ATOM     24  C   UNL A   1      37.534  29.356  29.781  1.00  0.00     0.270 A 
ATOM     25  C   UNL A   1      37.790  28.814  31.040  1.00  0.00     0.085 A 
BRANCH  24  26
ATOM     26  N   UNL A   1      36.285  30.056  29.527  1.00  0.00     0.062 N 
ATOM     27  O   UNL A   1      35.872  30.814  30.407  1.00  0.00    -0.258 OA
ATOM     28  O   UNL A   1      35.722  29.832  28.444  1.00  0.00    -0.258 OA
ENDBRANCH  24  26
ENDBRANCH  17  20
ENDBRANCH   7  10
ENDBRANCH   5   7
ENDBRANCH   4   5
ENDBRANCH   3   4
ENDBRANCH   2   3
ENDBRANCH   1   2
BRANCH   1  29
ATOM     29  C   UNL A   1      44.907  18.478  25.389  1.00  0.00     0.202 C 
BRANCH  29  30
ATOM     30  C   UNL A   1      45.969  19.434  24.837  1.00  0.00     0.261 C 
BRANCH  30  31
ATOM     31  O   UNL A   1      46.002  20.707  25.509  1.00  0.00    -0.460 OA
BRANCH  31  32
ATOM     32  C   UNL A   1      45.428  21.715  24.803  1.00  0.00     0.338 C 
ATOM     33  O   UNL A   1      44.787  21.607  23.769  1.00  0.00    -0.246 OA
BRANCH  32  34
ATOM     34  C   UNL A   1      45.548  23.010  25.499  1.00  0.00     0.060 A 
ATOM     35  C   UNL A   1      45.106  24.150  24.815  1.00  0.00     0.016 A 
ATOM     36  C   UNL A   1      46.241  23.133  26.705  1.00  0.00     0.016 A 
ATOM     37  C   UNL A   1      45.420  25.421  25.295  1.00  0.00     0.010 A 
ATOM     38  C   UNL A   1      46.564  24.413  27.180  1.00  0.00     0.010 A 
ATOM     39  C   UNL A   1      46.198  25.560  26.452  1.00  0.00    -0.014 A 
BRANCH  39  40
ATOM     40  C   UNL A   1      46.752  26.891  26.804  1.00  0.00     0.031 A 
ATOM     41  C   UNL A   1      48.130  27.269  26.335  1.00  0.00     0.074 A 
ATOM     42  C   UNL A   1      46.028  27.791  27.491  1.00  0.00     0.049 A 
ATOM     43  N   UNL A   1      48.788  28.383  26.529  1.00  0.00    -0.248 NA
ATOM     44  C   UNL A   1      48.851  26.273  25.528  1.00  0.00     0.031 C 
ATOM     45  C   UNL A   1      44.651  27.601  27.935  1.00  0.00     0.029 A 
ATOM     46  N   UNL A   1      46.357  29.052  27.926  1.00  0.00    -0.354 N 
ATOM     47  C   UNL A   1      49.990  28.236  25.853  1.00  0.00     0.074 A 
ATOM     48  C   UNL A   1      49.988  26.907  25.275  1.00  0.00     0.031 C 
ATOM     49  C   UNL A   1      44.267  28.703  28.598  1.00  0.00     0.029 A 
ATOM     50  C   UNL A   1      45.365  29.654  28.659  1.00  0.00     0.049 A 
ATOM     51  H   UNL A   1      47.221  29.483  27.732  1.00  0.00     0.167 HD
ATOM     52  C   UNL A   1      50.997  29.129  25.706  1.00  0.00     0.031 A 
ATOM     53  C   UNL A   1      45.326  30.823  29.326  1.00  0.00     0.031 A 
ATOM     54  C   UNL A   1      51.022  30.444  26.290  1.00  0.00     0.049 A 
ATOM     55  C   UNL A   1      46.507  31.741  29.271  1.00  0.00     0.074 A 
ATOM     56  C   UNL A   1      52.004  31.415  26.179  1.00  0.00     0.029 A 
ATOM     57  N   UNL A   1      50.031  30.969  27.102  1.00  0.00    -0.354 N 
ATOM     58  N   UNL A   1      47.633  31.584  28.620  1.00  0.00    -0.248 NA
ATOM     59  C   UNL A   1      46.408  32.997  30.025  1.00  0.00     0.031 C 
ATOM     60  C   UNL A   1      51.623  32.514  26.959  1.00  0.00     0.029 A 
ATOM     61  C   UNL A   1      50.389  32.240  27.525  1.00  0.00     0.049 A 
ATOM     62  H   UNL A   1      49.195  30.509  27.342  1.00  0.00     0.167 HD
ATOM     63  C   UNL A   1      48.368  32.737  28.862  1.00  0.00     0.074 A 
ATOM     64  C   UNL A   1      47.562  33.579  29.722  1.00  0.00     0.031 C 
ATOM     65  C   UNL A   1      49.595  33.067  28.395  1.00  0.00     0.031 A 
BRANCH  52  66
ATOM     66  C   UNL A   1      52.175  28.689  24.886  1.00  0.00    -0.014 A 
ATOM     67  C   UNL A   1      53.285  28.078  25.495  1.00  0.00     0.010 A 
ATOM     68  C   UNL A   1      52.169  28.879  23.494  1.00  0.00     0.010 A 
ATOM     69  C   UNL A   1      54.389  27.697  24.728  1.00  0.00     0.020 A 
ATOM     70  C   UNL A   1      53.263  28.485  22.721  1.00  0.00     0.020 A 
ATOM     71  C   UNL A   1      54.375  27.914  23.347  1.00  0.00     0.054 A 
BRANCH  71  72
ATOM     72  S   UNL A   1      55.817  27.414  22.366  1.00  0.00     0.124 S 
ATOM     73  O   UNL A   1      55.193  26.659  21.282  1.00  0.00    -0.237 OA
ATOM     74  O   UNL A   1      56.407  28.694  21.981  1.00  0.00    -0.237 OA
ATOM     75  O   UNL A   1      56.612  26.623  23.301  1.00  0.00    -0.744 OA
ENDBRANCH  71  72
ENDBRANCH  52  66
BRANCH  53  76
ATOM     76  C   UNL A   1      44.132  31.169  30.143  1.00  0.00    -0.014 A 
ATOM     77  C   UNL A   1      44.072  30.855  31.511  1.00  0.00     0.010 A 
ATOM     78  C   UNL A   1      43.048  31.838  29.543  1.00  0.00     0.010 A 
ATOM     79  C   UNL A   1      42.945  31.200  32.266  1.00  0.00     0.020 A 
ATOM     80  C   UNL A   1      41.928  32.196  30.297  1.00  0.00     0.020 A 
ATOM     81  C   UNL A   1      41.879  31.868  31.653  1.00  0.00     0.054 A 
BRANCH  81  82
ATOM     82  S   UNL A   1      40.444  32.358  32.652  1.00  0.00     0.124 S 
ATOM     83  O   UNL A   1      40.541  31.445  33.787  1.00  0.00    -0.237 OA
ATOM     84  O   UNL A   1      40.713  33.763  32.950  1.00  0.00    -0.237 OA
ATOM     85  O   UNL A   1      39.310  32.125  31.759  1.00  0.00    -0.744 OA
ENDBRANCH  81  82
ENDBRANCH  53  76
BRANCH  65  86
ATOM     86  C   UNL A   1      50.132  34.413  28.788  1.00  0.00    -0.014 A 
ATOM     87  C   UNL A   1      49.892  35.548  27.993  1.00  0.00     0.010 A 
ATOM     88  C   UNL A   1      50.871  34.547  29.976  1.00  0.00     0.010 A 
ATOM     89  C   UNL A   1      50.409  36.791  28.366  1.00  0.00     0.020 A 
ATOM     90  C   UNL A   1      51.374  35.792  30.361  1.00  0.00     0.020 A 
ATOM     91  C   UNL A   1      51.152  36.904  29.546  1.00  0.00     0.054 A 
BRANCH  91  92
ATOM     92  S   UNL A   1      51.788  38.532  30.033  1.00  0.00     0.124 S 
ATOM     93  O   UNL A   1      52.815  38.177  31.007  1.00  0.00    -0.237 OA
ATOM     94  O   UNL A   1      52.281  39.079  28.771  1.00  0.00    -0.237 OA
ATOM     95  O   UNL A   1      50.613  39.208  30.579  1.00  0.00    -0.744 OA
ENDBRANCH  91  92
ENDBRANCH  65  86
ENDBRANCH  39  40
ENDBRANCH  32  34
ENDBRANCH  31  32
ENDBRANCH  30  31
ENDBRANCH  29  30
ENDBRANCH   1  29
TORSDOF 21
ENDMDL
MODEL 2
REMARK VINA RESULT:      -7.8      7.922     11.932
REMARK SMILES CC[C@H](C(=O)OCCOCCOC(=O)c1ccc(-c2c3nc(c(-c4ccc(S(=O)(=O)[O-])cc4)c4ccc([nH]4)c(-c4ccc(S(=O)(=O)[O-])cc4)c4nc(c(-c5ccc(S(=O)(=O)[O-])cc5)c5ccc2[nH]5)C=C4)C=C3)cc1)n1cnc2scc(-c3cccc([N+](=O)[O-])c3)c2c1=O
REMARK SMILES IDX 9 1 8 2 7 3 6 4 4 5 5 6 3 7 2 8 1 9 75 10 76 11 92 12 77 13
REMARK SMILES IDX 91 14 93 15 78 16 81 17 79 18 80 19 82 20 83 21 90 22 84 23
REMARK SMILES IDX 86 24 85 25 87 26 88 27 89 28 10 29 11 30 12 31 13 32 14 33
REMARK SMILES IDX 15 34 16 35 74 36 17 37 73 38 18 39 19 40 20 41 67 42 21 43
REMARK SMILES IDX 72 44 66 45 68 46 22 47 71 48 65 49 64 50 23 52 53 53 34 54
REMARK SMILES IDX 52 55 35 56 38 57 51 58 69 59 36 60 37 61 50 63 70 64 39 65
REMARK SMILES IDX 24 66 25 67 33 68 26 69 32 70 27 71 28 72 29 73 30 74 31 75
REMARK SMILES IDX 54 76 55 77 63 78 56 79 62 80 57 81 58 82 59 83 60 84 61 85
REMARK SMILES IDX 40 86 41 87 49 88 42 89 48 90 43 91 44 92 45 93 46 94 47 95
REMARK H PARENT 68 51 38 62
REMARK Flexibility Score: inf
ROOT
ATOM      1  O   UNL A   1      40.839  20.494  25.802  1.00  0.00    -0.374 OA
ENDROOT
BRANCH   1   2
ATOM      2  C   UNL A   1      39.891  19.439  25.934  1.00  0.00     0.202 C 
BRANCH   2   3
ATOM      3  C   UNL A   1      38.534  19.630  25.252  1.00  0.00     0.261 C 
BRANCH   3   4
ATOM      4  O   UNL A   1      37.884  20.866  25.601  1.00  0.00    -0.462 OA
BRANCH   4   5
ATOM      5  C   UNL A   1      36.580  20.960  25.245  1.00  0.00     0.329 C 
ATOM      6  O   UNL A   1      35.844  19.993  25.055  1.00  0.00    -0.250 OA
BRANCH   5   7
ATOM      7  C   UNL A   1      36.106  22.397  24.956  1.00  0.00     0.201 C 
BRANCH   7   8
ATOM      8  C   UNL A   1      35.700  22.690  23.498  1.00  0.00     0.034 C 
ATOM      9  C   UNL A   1      36.760  23.072  22.465  1.00  0.00     0.007 C 
ENDBRANCH   7   8
BRANCH   7  10
ATOM     10  N   UNL A   1      35.199  22.696  26.061  1.00  0.00    -0.284 N 
ATOM     11  C   UNL A   1      34.666  21.630  26.771  1.00  0.00     0.204 A 
ATOM     12  C   UNL A   1      34.529  23.900  26.100  1.00  0.00     0.263 A 
ATOM     13  N   UNL A   1      33.421  21.530  27.115  1.00  0.00    -0.227 NA
ATOM     14  C   UNL A   1      33.095  23.725  26.095  1.00  0.00     0.085 A 
ATOM     15  O   UNL A   1      35.096  24.981  26.200  1.00  0.00    -0.268 OA
ATOM     16  C   UNL A   1      32.644  22.521  26.599  1.00  0.00     0.131 A 
ATOM     17  C   UNL A   1      32.049  24.547  25.567  1.00  0.00     0.008 A 
ATOM     18  S   UNL A   1      30.967  22.339  26.396  1.00  0.00    -0.123 S 
ATOM     19  C   UNL A   1      30.841  23.869  25.644  1.00  0.00     0.076 A 
BRANCH  17  20
ATOM     20  C   UNL A   1      32.113  25.880  24.963  1.00  0.00    -0.010 A 
ATOM     21  C   UNL A   1      31.263  26.916  25.378  1.00  0.00     0.009 A 
ATOM     22  C   UNL A   1      32.956  26.110  23.872  1.00  0.00     0.094 A 
ATOM     23  C   UNL A   1      31.236  28.149  24.712  1.00  0.00     0.008 A 
ATOM     24  C   UNL A   1      32.863  27.313  23.165  1.00  0.00     0.270 A 
ATOM     25  C   UNL A   1      32.023  28.346  23.580  1.00  0.00     0.085 A 
BRANCH  24  26
ATOM     26  N   UNL A   1      33.598  27.426  21.914  1.00  0.00     0.062 N 
ATOM     27  O   UNL A   1      33.619  26.436  21.180  1.00  0.00    -0.258 OA
ATOM     28  O   UNL A   1      34.155  28.510  21.683  1.00  0.00    -0.258 OA
ENDBRANCH  24  26
ENDBRANCH  17  20
ENDBRANCH   7  10
ENDBRANCH   5   7
ENDBRANCH   4   5
ENDBRANCH   3   4
ENDBRANCH   2   3
ENDBRANCH   1   2
BRANCH   1  29
ATOM     29  C   UNL A   1      40.951  21.444  26.857  1.00  0.00     0.202 C 
BRANCH  29  30
ATOM     30  C   UNL A   1      40.697  22.918  26.526  1.00  0.00     0.261 C 
BRANCH  30  31
ATOM     31  O   UNL A   1      41.534  23.826  27.266  1.00  0.00    -0.460 OA
BRANCH  31  32
ATOM     32  C   UNL A   1      41.669  25.046  26.685  1.00  0.00     0.338 C 
ATOM     33  O   UNL A   1      42.041  25.271  25.544  1.00  0.00    -0.246 OA
BRANCH  32  34
ATOM     34  C   UNL A   1      41.181  26.128  27.561  1.00  0.00     0.060 A 
ATOM     35  C   UNL A   1      41.949  27.297  27.625  1.00  0.00     0.016 A 
ATOM     36  C   UNL A   1      40.108  25.937  28.434  1.00  0.00     0.016 A 
ATOM     37  C   UNL A   1      41.696  28.248  28.613  1.00  0.00     0.010 A 
ATOM     38  C   UNL A   1      39.862  26.891  29.433  1.00  0.00     0.010 A 
ATOM     39  C   UNL A   1      40.685  28.025  29.557  1.00  0.00    -0.014 A 
BRANCH  39  40
ATOM     40  C   UNL A   1      40.598  28.898  30.754  1.00  0.00     0.031 A 
ATOM     41  C   UNL A   1      39.604  30.027  30.780  1.00  0.00     0.074 A 
ATOM     42  C   UNL A   1      41.352  28.669  31.843  1.00  0.00     0.049 A 
ATOM     43  N   UNL A   1      39.369  30.894  31.731  1.00  0.00    -0.248 NA
ATOM     44  C   UNL A   1      38.756  30.189  29.590  1.00  0.00     0.031 C 
ATOM     45  C   UNL A   1      42.293  27.565  31.998  1.00  0.00     0.029 A 
ATOM     46  N   UNL A   1      41.435  29.359  33.029  1.00  0.00    -0.354 N 
ATOM     47  C   UNL A   1      38.331  31.690  31.269  1.00  0.00     0.074 A 
ATOM     48  C   UNL A   1      38.009  31.230  29.934  1.00  0.00     0.031 C 
ATOM     49  C   UNL A   1      42.870  27.670  33.205  1.00  0.00     0.029 A 
ATOM     50  C   UNL A   1      42.376  28.854  33.891  1.00  0.00     0.049 A 
ATOM     51  H   UNL A   1      40.873  30.140  33.241  1.00  0.00     0.167 HD
ATOM     52  C   UNL A   1      37.689  32.701  31.902  1.00  0.00     0.031 A 
ATOM     53  C   UNL A   1      42.820  29.284  35.087  1.00  0.00     0.031 A 
ATOM     54  C   UNL A   1      38.011  33.183  33.219  1.00  0.00     0.049 A 
ATOM     55  C   UNL A   1      42.194  30.492  35.712  1.00  0.00     0.074 A 
ATOM     56  C   UNL A   1      37.399  34.197  33.936  1.00  0.00     0.029 A 
ATOM     57  N   UNL A   1      39.036  32.696  34.013  1.00  0.00    -0.354 N 
ATOM     58  N   UNL A   1      41.210  31.229  35.259  1.00  0.00    -0.248 NA
ATOM     59  C   UNL A   1      42.726  30.918  37.013  1.00  0.00     0.031 C 
ATOM     60  C   UNL A   1      38.083  34.351  35.149  1.00  0.00     0.029 A 
ATOM     61  C   UNL A   1      39.096  33.408  35.200  1.00  0.00     0.049 A 
ATOM     62  H   UNL A   1      39.634  31.953  33.769  1.00  0.00     0.167 HD
ATOM     63  C   UNL A   1      40.984  32.190  36.235  1.00  0.00     0.074 A 
ATOM     64  C   UNL A   1      41.936  31.944  37.299  1.00  0.00     0.031 C 
ATOM     65  C   UNL A   1      40.055  33.175  36.248  1.00  0.00     0.031 A 
BRANCH  52  66
ATOM     66  C   UNL A   1      36.575  33.368  31.149  1.00  0.00    -0.014 A 
ATOM     67  C   UNL A   1      36.807  33.951  29.891  1.00  0.00     0.010 A 
ATOM     68  C   UNL A   1      35.283  33.406  31.700  1.00  0.00     0.010 A 
ATOM     69  C   UNL A   1      35.771  34.595  29.211  1.00  0.00     0.020 A 
ATOM     70  C   UNL A   1      34.241  34.035  31.016  1.00  0.00     0.020 A 
ATOM     71  C   UNL A   1      34.497  34.643  29.784  1.00  0.00     0.054 A 
BRANCH  71  72
ATOM     72  S   UNL A   1      33.163  35.484  28.886  1.00  0.00     0.124 S 
ATOM     73  O   UNL A   1      32.363  36.027  29.982  1.00  0.00    -0.237 OA
ATOM     74  O   UNL A   1      33.883  36.470  28.085  1.00  0.00    -0.237 OA
ATOM     75  O   UNL A   1      32.530  34.411  28.125  1.00  0.00    -0.744 OA
ENDBRANCH  71  72
ENDBRANCH  52  66
BRANCH  53  76
ATOM     76  C   UNL A   1      43.952  28.584  35.751  1.00  0.00    -0.014 A 
ATOM     77  C   UNL A   1      45.283  28.952  35.496  1.00  0.00     0.010 A 
ATOM     78  C   UNL A   1      43.689  27.547  36.665  1.00  0.00     0.010 A 
ATOM     79  C   UNL A   1      46.334  28.290  36.140  1.00  0.00     0.020 A 
ATOM     80  C   UNL A   1      44.735  26.893  37.321  1.00  0.00     0.020 A 
ATOM     81  C   UNL A   1      46.054  27.263  37.048  1.00  0.00     0.054 A 
BRANCH  81  82
ATOM     82  S   UNL A   1      47.421  26.446  37.919  1.00  0.00     0.124 S 
ATOM     83  O   UNL A   1      47.693  25.305  37.049  1.00  0.00    -0.237 OA
ATOM     84  O   UNL A   1      48.458  27.476  37.949  1.00  0.00    -0.237 OA
ATOM     85  O   UNL A   1      46.846  26.113  39.222  1.00  0.00    -0.744 OA
ENDBRANCH  81  82
ENDBRANCH  53  76
BRANCH  65  86
ATOM     86  C   UNL A   1      40.009  34.050  37.467  1.00  0.00    -0.014 A 
ATOM     87  C   UNL A   1      40.808  35.203  37.560  1.00  0.00     0.010 A 
ATOM     88  C   UNL A   1      39.144  33.723  38.526  1.00  0.00     0.010 A 
ATOM     89  C   UNL A   1      40.763  36.000  38.707  1.00  0.00     0.020 A 
ATOM     90  C   UNL A   1      39.084  34.527  39.666  1.00  0.00     0.020 A 
ATOM     91  C   UNL A   1      39.905  35.653  39.755  1.00  0.00     0.054 A 
BRANCH  91  92
ATOM     92  S   UNL A   1      39.835  36.718  41.223  1.00  0.00     0.124 S 
ATOM     93  O   UNL A   1      39.455  35.770  42.266  1.00  0.00    -0.237 OA
ATOM     94  O   UNL A   1      41.197  37.239  41.312  1.00  0.00    -0.237 OA
ATOM     95  O   UNL A   1      38.819  37.710  40.878  1.00  0.00    -0.744 OA
ENDBRANCH  91  92
ENDBRANCH  65  86
ENDBRANCH  39  40
ENDBRANCH  32  34
ENDBRANCH  31  32
ENDBRANCH  30  31
ENDBRANCH  29  30
ENDBRANCH   1  29
TORSDOF 21
ENDMDL
MODEL 3
REMARK VINA RESULT:      -7.6      6.675     13.914
REMARK SMILES CC[C@H](C(=O)OCCOCCOC(=O)c1ccc(-c2c3nc(c(-c4ccc(S(=O)(=O)[O-])cc4)c4ccc([nH]4)c(-c4ccc(S(=O)(=O)[O-])cc4)c4nc(c(-c5ccc(S(=O)(=O)[O-])cc5)c5ccc2[nH]5)C=C4)C=C3)cc1)n1cnc2scc(-c3cccc([N+](=O)[O-])c3)c2c1=O
REMARK SMILES IDX 9 1 8 2 7 3 6 4 4 5 5 6 3 7 2 8 1 9 75 10 76 11 92 12 77 13
REMARK SMILES IDX 91 14 93 15 78 16 81 17 79 18 80 19 82 20 83 21 90 22 84 23
REMARK SMILES IDX 86 24 85 25 87 26 88 27 89 28 10 29 11 30 12 31 13 32 14 33
REMARK SMILES IDX 15 34 16 35 74 36 17 37 73 38 18 39 19 40 20 41 67 42 21 43
REMARK SMILES IDX 72 44 66 45 68 46 22 47 71 48 65 49 64 50 23 52 53 53 34 54
REMARK SMILES IDX 52 55 35 56 38 57 51 58 69 59 36 60 37 61 50 63 70 64 39 65
REMARK SMILES IDX 24 66 25 67 33 68 26 69 32 70 27 71 28 72 29 73 30 74 31 75
REMARK SMILES IDX 54 76 55 77 63 78 56 79 62 80 57 81 58 82 59 83 60 84 61 85
REMARK SMILES IDX 40 86 41 87 49 88 42 89 48 90 43 91 44 92 45 93 46 94 47 95
REMARK H PARENT 68 51 38 62
REMARK Flexibility Score: inf
ROOT
ATOM      1  O   UNL A   1      49.299  40.078  28.843  1.00  0.00    -0.374 OA
ENDROOT
BRANCH   1   2
ATOM      2  C   UNL A   1      48.200  40.769  28.257  1.00  0.00     0.202 C 
BRANCH   2   3
ATOM      3  C   UNL A   1      47.876  40.453  26.795  1.00  0.00     0.261 C 
BRANCH   3   4
ATOM      4  O   UNL A   1      46.532  40.798  26.416  1.00  0.00    -0.462 OA
BRANCH   4   5
ATOM      5  C   UNL A   1      46.269  40.744  25.088  1.00  0.00     0.329 C 
ATOM      6  O   UNL A   1      46.650  39.844  24.343  1.00  0.00    -0.250 OA
BRANCH   5   7
ATOM      7  C   UNL A   1      45.554  41.992  24.535  1.00  0.00     0.201 C 
BRANCH   7   8
ATOM      8  C   UNL A   1      45.105  43.030  25.584  1.00  0.00     0.034 C 
ATOM      9  C   UNL A   1      44.830  44.475  25.168  1.00  0.00     0.007 C 
ENDBRANCH   7   8
BRANCH   7  10
ATOM     10  N   UNL A   1      46.373  42.389  23.392  1.00  0.00    -0.284 N 
ATOM     11  C   UNL A   1      47.588  43.008  23.648  1.00  0.00     0.204 A 
ATOM     12  C   UNL A   1      45.791  42.588  22.159  1.00  0.00     0.263 A 
ATOM     13  N   UNL A   1      48.017  44.061  23.026  1.00  0.00    -0.227 NA
ATOM     14  C   UNL A   1      45.984  43.936  21.677  1.00  0.00     0.085 A 
ATOM     15  O   UNL A   1      45.240  41.696  21.525  1.00  0.00    -0.268 OA
ATOM     16  C   UNL A   1      47.098  44.587  22.171  1.00  0.00     0.131 A 
ATOM     17  C   UNL A   1      45.167  44.762  20.842  1.00  0.00     0.008 A 
ATOM     18  S   UNL A   1      47.147  46.214  21.683  1.00  0.00    -0.123 S 
ATOM     19  C   UNL A   1      45.689  46.048  20.807  1.00  0.00     0.076 A 
BRANCH  17  20
ATOM     20  C   UNL A   1      43.927  44.447  20.129  1.00  0.00    -0.010 A 
ATOM     21  C   UNL A   1      42.909  43.688  20.728  1.00  0.00     0.009 A 
ATOM     22  C   UNL A   1      43.785  44.806  18.786  1.00  0.00     0.094 A 
ATOM     23  C   UNL A   1      41.782  43.279  20.001  1.00  0.00     0.008 A 
ATOM     24  C   UNL A   1      42.698  44.323  18.050  1.00  0.00     0.270 A 
ATOM     25  C   UNL A   1      41.682  43.574  18.644  1.00  0.00     0.085 A 
BRANCH  24  26
ATOM     26  N   UNL A   1      42.702  44.538  16.611  1.00  0.00     0.062 N 
ATOM     27  O   UNL A   1      41.963  45.421  16.170  1.00  0.00    -0.258 OA
ATOM     28  O   UNL A   1      43.444  43.811  15.934  1.00  0.00    -0.258 OA
ENDBRANCH  24  26
ENDBRANCH  17  20
ENDBRANCH   7  10
ENDBRANCH   5   7
ENDBRANCH   4   5
ENDBRANCH   3   4
ENDBRANCH   2   3
ENDBRANCH   1   2
BRANCH   1  29
ATOM     29  C   UNL A   1      49.256  39.788  30.237  1.00  0.00     0.202 C 
BRANCH  29  30
ATOM     30  C   UNL A   1      48.212  38.782  30.730  1.00  0.00     0.261 C 
BRANCH  30  31
ATOM     31  O   UNL A   1      48.353  37.474  30.144  1.00  0.00    -0.460 OA
BRANCH  31  32
ATOM     32  C   UNL A   1      47.374  37.162  29.256  1.00  0.00     0.338 C 
ATOM     33  O   UNL A   1      46.615  37.944  28.704  1.00  0.00    -0.246 OA
BRANCH  32  34
ATOM     34  C   UNL A   1      47.389  35.730  28.903  1.00  0.00     0.060 A 
ATOM     35  C   UNL A   1      46.791  35.361  27.691  1.00  0.00     0.016 A 
ATOM     36  C   UNL A   1      47.806  34.755  29.812  1.00  0.00     0.016 A 
ATOM     37  C   UNL A   1      46.539  34.018  27.414  1.00  0.00     0.010 A 
ATOM     38  C   UNL A   1      47.542  33.405  29.535  1.00  0.00     0.010 A 
ATOM     39  C   UNL A   1      46.864  33.036  28.359  1.00  0.00    -0.014 A 
BRANCH  39  40
ATOM     40  C   UNL A   1      46.355  31.653  28.180  1.00  0.00     0.031 A 
ATOM     41  C   UNL A   1      47.265  30.592  27.625  1.00  0.00     0.074 A 
ATOM     42  C   UNL A   1      45.110  31.313  28.555  1.00  0.00     0.049 A 
ATOM     43  N   UNL A   1      47.013  29.328  27.401  1.00  0.00    -0.248 NA
ATOM     44  C   UNL A   1      48.638  31.003  27.297  1.00  0.00     0.031 C 
ATOM     45  C   UNL A   1      44.147  32.208  29.186  1.00  0.00     0.029 A 
ATOM     46  N   UNL A   1      44.449  30.111  28.460  1.00  0.00    -0.354 N 
ATOM     47  C   UNL A   1      48.198  28.784  26.929  1.00  0.00     0.074 A 
ATOM     48  C   UNL A   1      49.160  29.865  26.859  1.00  0.00     0.031 C 
ATOM     49  C   UNL A   1      43.013  31.523  29.401  1.00  0.00     0.029 A 
ATOM     50  C   UNL A   1      43.150  30.166  28.897  1.00  0.00     0.049 A 
ATOM     51  H   UNL A   1      44.867  29.290  28.113  1.00  0.00     0.167 HD
ATOM     52  C   UNL A   1      48.472  27.499  26.600  1.00  0.00     0.031 A 
ATOM     53  C   UNL A   1      42.161  29.252  28.888  1.00  0.00     0.031 A 
ATOM     54  C   UNL A   1      47.523  26.418  26.645  1.00  0.00     0.049 A 
ATOM     55  C   UNL A   1      42.442  27.869  28.388  1.00  0.00     0.074 A 
ATOM     56  C   UNL A   1      47.726  25.083  26.338  1.00  0.00     0.029 A 
ATOM     57  N   UNL A   1      46.192  26.547  27.007  1.00  0.00    -0.354 N 
ATOM     58  N   UNL A   1      43.573  27.374  27.949  1.00  0.00    -0.248 NA
ATOM     59  C   UNL A   1      41.322  26.919  28.394  1.00  0.00     0.031 C 
ATOM     60  C   UNL A   1      46.504  24.411  26.476  1.00  0.00     0.029 A 
ATOM     61  C   UNL A   1      45.553  25.322  26.903  1.00  0.00     0.049 A 
ATOM     62  H   UNL A   1      45.764  27.384  27.297  1.00  0.00     0.167 HD
ATOM     63  C   UNL A   1      43.308  26.044  27.654  1.00  0.00     0.074 A 
ATOM     64  C   UNL A   1      41.911  25.813  27.959  1.00  0.00     0.031 C 
ATOM     65  C   UNL A   1      44.159  25.099  27.188  1.00  0.00     0.031 A 
BRANCH  52  66
ATOM     66  C   UNL A   1      49.870  27.203  26.139  1.00  0.00    -0.014 A 
ATOM     67  C   UNL A   1      50.199  27.246  24.773  1.00  0.00     0.010 A 
ATOM     68  C   UNL A   1      50.865  26.889  27.080  1.00  0.00     0.010 A 
ATOM     69  C   UNL A   1      51.495  26.942  24.351  1.00  0.00     0.020 A 
ATOM     70  C   UNL A   1      52.166  26.600  26.663  1.00  0.00     0.020 A 
ATOM     71  C   UNL A   1      52.468  26.609  25.298  1.00  0.00     0.054 A 
BRANCH  71  72
ATOM     72  S   UNL A   1      54.146  26.217  24.732  1.00  0.00     0.124 S 
ATOM     73  O   UNL A   1      54.958  26.711  25.842  1.00  0.00    -0.237 OA
ATOM     74  O   UNL A   1      54.106  24.764  24.581  1.00  0.00    -0.237 OA
ATOM     75  O   UNL A   1      54.272  26.965  23.484  1.00  0.00    -0.744 OA
ENDBRANCH  71  72
ENDBRANCH  52  66
BRANCH  53  76
ATOM     76  C   UNL A   1      40.794  29.636  29.331  1.00  0.00    -0.014 A 
ATOM     77  C   UNL A   1      39.759  29.837  28.404  1.00  0.00     0.010 A 
ATOM     78  C   UNL A   1      40.524  29.786  30.705  1.00  0.00     0.010 A 
ATOM     79  C   UNL A   1      38.476  30.186  28.841  1.00  0.00     0.020 A 
ATOM     80  C   UNL A   1      39.242  30.120  31.146  1.00  0.00     0.020 A 
ATOM     81  C   UNL A   1      38.226  30.327  30.210  1.00  0.00     0.054 A 
BRANCH  81  82
ATOM     82  S   UNL A   1      36.547  30.728  30.772  1.00  0.00     0.124 S 
ATOM     83  O   UNL A   1      36.790  31.854  31.669  1.00  0.00    -0.237 OA
ATOM     84  O   UNL A   1      35.850  31.053  29.529  1.00  0.00    -0.237 OA
ATOM     85  O   UNL A   1      36.101  29.497  31.424  1.00  0.00    -0.744 OA
ENDBRANCH  81  82
ENDBRANCH  53  76
BRANCH  65  86
ATOM     86  C   UNL A   1      43.603  23.717  27.001  1.00  0.00    -0.014 A 
ATOM     87  C   UNL A   1      43.160  22.961  28.101  1.00  0.00     0.010 A 
ATOM     88  C   UNL A   1      43.508  23.174  25.708  1.00  0.00     0.010 A 
ATOM     89  C   UNL A   1      42.657  21.671  27.911  1.00  0.00     0.020 A 
ATOM     90  C   UNL A   1      42.989  21.893  25.513  1.00  0.00     0.020 A 
ATOM     91  C   UNL A   1      42.580  21.143  26.618  1.00  0.00     0.054 A 
BRANCH  91  92
ATOM     92  S   UNL A   1      41.893  19.480  26.387  1.00  0.00     0.124 S 
ATOM     93  O   UNL A   1      42.452  19.098  25.094  1.00  0.00    -0.237 OA
ATOM     94  O   UNL A   1      42.416  18.748  27.539  1.00  0.00    -0.237 OA
ATOM     95  O   UNL A   1      40.448  19.701  26.404  1.00  0.00    -0.744 OA
ENDBRANCH  91  92
ENDBRANCH  65  86
ENDBRANCH  39  40
ENDBRANCH  32  34
ENDBRANCH  31  32
ENDBRANCH  30  31
ENDBRANCH  29  30
ENDBRANCH   1  29
TORSDOF 21
ENDMDL
