MODEL 1
REMARK VINA RESULT:     -12.0      0.000      0.000
REMARK SMILES CC(=O)Nc1cnc(N2CC=C(c3ccccc3C)CC2)c(C(=O)OCCOCCOC(=O)c2ccc(-c3c4nc(c(-c5ccc(S(=O)(=O)[O-])cc5)c5ccc([nH]5)c(-c5ccc(S(=O)(=O)[O-])cc5)c5nc(c(-c6ccc(S(=O)(=O)[O-])cc6)c6ccc3[nH]6)C=C5)C=C4)cc2)c1
REMARK SMILES IDX 29 1 28 2 27 3 26 4 25 5 23 6 24 7 22 8 5 9 6 10 94 11 7 12
REMARK SMILES IDX 8 13 4 14 1 15 2 16 3 17 9 19 10 20 21 21 11 22 20 23 12 24
REMARK SMILES IDX 13 25 14 26 18 27 15 28 17 29 19 30 16 31 30 32 31 33 32 34
REMARK SMILES IDX 33 35 34 36 35 37 93 38 36 39 92 40 37 41 38 42 39 43 86 44
REMARK SMILES IDX 40 45 91 46 85 47 87 48 41 49 90 50 84 51 83 52 42 54 72 55
REMARK SMILES IDX 53 56 71 57 54 58 57 59 70 60 88 61 55 62 56 63 69 65 89 66
REMARK SMILES IDX 58 67 43 68 44 69 52 70 45 71 51 72 46 73 47 74 48 75 49 76
REMARK SMILES IDX 50 77 73 78 74 79 82 80 75 81 81 82 76 83 77 84 78 85 79 86
REMARK SMILES IDX 80 87 59 88 60 89 68 90 61 91 67 92 62 93 63 94 64 95 65 96
REMARK SMILES IDX 66 97
REMARK H PARENT 4 18 87 53 57 64
REMARK Flexibility Score: inf
ROOT
ATOM      1  C   UNL A   1      33.245  27.904  25.398  1.00  0.00     0.202 C 
ENDROOT
BRANCH   1   2
ATOM      2  O   UNL A   1      32.715  28.833  24.483  1.00  0.00    -0.374 OA
BRANCH   2   3
ATOM      3  C   UNL A   1      33.559  29.133  23.375  1.00  0.00     0.202 C 
BRANCH   3   4
ATOM      4  C   UNL A   1      34.042  27.810  22.883  1.00  0.00     0.261 C 
BRANCH   4   5
ATOM      5  O   UNL A   1      33.154  27.321  21.856  1.00  0.00    -0.460 OA
BRANCH   5   6
ATOM      6  C   UNL A   1      32.670  26.045  21.824  1.00  0.00     0.342 C 
ATOM      7  O   UNL A   1      33.036  25.126  21.133  1.00  0.00    -0.246 OA
BRANCH   6   8
ATOM      8  C   UNL A   1      31.587  25.979  22.828  1.00  0.00     0.104 A 
ATOM      9  C   UNL A   1      29.417  26.900  23.426  1.00  0.00     0.060 A 
ATOM     10  C   UNL A   1      29.538  26.177  24.598  1.00  0.00     0.139 A 
ATOM     11  C   UNL A   1      30.472  26.786  22.557  1.00  0.00     0.047 A 
ATOM     12  N   UNL A   1      30.578  25.340  24.883  1.00  0.00    -0.236 NA
ATOM     13  C   UNL A   1      31.622  25.233  24.008  1.00  0.00     0.143 A 
BRANCH   9  14
ATOM     14  N   UNL A   1      28.352  27.779  23.168  1.00  0.00    -0.325 N 
ATOM     15  C   UNL A   1      29.601  29.963  23.099  1.00  0.00     0.114 C 
ATOM     16  C   UNL A   1      28.322  29.153  23.184  1.00  0.00     0.221 C 
ATOM     17  O   UNL A   1      27.228  29.722  23.209  1.00  0.00    -0.275 OA
ATOM     18  H   UNL A   1      27.497  27.345  22.942  1.00  0.00     0.169 HD
ENDBRANCH   9  14
BRANCH  13  19
ATOM     19  N   UNL A   1      32.679  24.470  24.459  1.00  0.00    -0.352 N 
ATOM     20  C   UNL A   1      32.920  24.401  25.898  1.00  0.00     0.146 C 
ATOM     21  C   UNL A   1      33.148  23.330  23.682  1.00  0.00     0.123 C 
ATOM     22  C   UNL A   1      34.327  23.903  26.166  1.00  0.00    -0.002 C 
ATOM     23  C   UNL A   1      34.669  23.213  23.808  1.00  0.00     0.057 C 
ATOM     24  C   UNL A   1      35.151  23.388  25.228  1.00  0.00    -0.041 C 
BRANCH  24  25
ATOM     25  C   UNL A   1      36.543  22.982  25.540  1.00  0.00    -0.020 A 
ATOM     26  C   UNL A   1      37.446  23.957  26.001  1.00  0.00     0.008 A 
ATOM     27  C   UNL A   1      37.000  21.651  25.407  1.00  0.00    -0.044 A 
ATOM     28  C   UNL A   1      38.761  23.625  26.340  1.00  0.00     0.001 A 
ATOM     29  C   UNL A   1      38.323  21.330  25.770  1.00  0.00     0.004 A 
ATOM     30  C   UNL A   1      36.127  20.534  24.904  1.00  0.00     0.045 C 
ATOM     31  C   UNL A   1      39.198  22.310  26.230  1.00  0.00     0.000 A 
ENDBRANCH  24  25
ENDBRANCH  13  19
ENDBRANCH   6   8
ENDBRANCH   5   6
ENDBRANCH   4   5
ENDBRANCH   3   4
ENDBRANCH   2   3
ENDBRANCH   1   2
BRANCH   1  32
ATOM     32  C   UNL A   1      32.652  28.035  26.800  1.00  0.00     0.261 C 
BRANCH  32  33
ATOM     33  O   UNL A   1      33.669  28.464  27.733  1.00  0.00    -0.460 OA
BRANCH  33  34
ATOM     34  C   UNL A   1      33.995  29.791  27.703  1.00  0.00     0.338 C 
ATOM     35  O   UNL A   1      33.188  30.676  27.483  1.00  0.00    -0.246 OA
BRANCH  34  36
ATOM     36  C   UNL A   1      35.423  29.999  28.085  1.00  0.00     0.060 A 
ATOM     37  C   UNL A   1      36.451  30.008  27.126  1.00  0.00     0.016 A 
ATOM     38  C   UNL A   1      35.750  30.052  29.433  1.00  0.00     0.016 A 
ATOM     39  C   UNL A   1      37.803  29.917  27.522  1.00  0.00     0.010 A 
ATOM     40  C   UNL A   1      37.068  29.897  29.814  1.00  0.00     0.010 A 
ATOM     41  C   UNL A   1      38.110  29.789  28.873  1.00  0.00    -0.014 A 
BRANCH  41  42
ATOM     42  C   UNL A   1      39.427  29.474  29.462  1.00  0.00     0.031 A 
ATOM     43  C   UNL A   1      39.997  28.129  29.193  1.00  0.00     0.074 A 
ATOM     44  C   UNL A   1      40.254  30.448  29.931  1.00  0.00     0.049 A 
ATOM     45  N   UNL A   1      41.086  27.685  29.715  1.00  0.00    -0.248 NA
ATOM     46  C   UNL A   1      39.369  27.141  28.313  1.00  0.00     0.031 C 
ATOM     47  C   UNL A   1      41.721  30.449  29.976  1.00  0.00     0.029 A 
ATOM     48  N   UNL A   1      39.953  31.709  30.451  1.00  0.00    -0.354 N 
ATOM     49  C   UNL A   1      41.496  26.609  28.963  1.00  0.00     0.074 A 
ATOM     50  C   UNL A   1      40.335  26.225  28.203  1.00  0.00     0.031 C 
ATOM     51  C   UNL A   1      42.155  31.469  30.741  1.00  0.00     0.029 A 
ATOM     52  C   UNL A   1      40.979  32.092  31.324  1.00  0.00     0.049 A 
ATOM     53  H   UNL A   1      39.153  32.242  30.238  1.00  0.00     0.167 HD
ATOM     54  C   UNL A   1      42.820  26.287  28.964  1.00  0.00     0.031 A 
ATOM     55  C   UNL A   1      40.720  32.324  32.639  1.00  0.00     0.031 A 
ATOM     56  C   UNL A   1      43.556  27.098  29.946  1.00  0.00     0.049 A 
ATOM     57  C   UNL A   1      41.451  31.282  33.433  1.00  0.00     0.074 A 
ATOM     58  C   UNL A   1      44.473  28.129  29.834  1.00  0.00     0.029 A 
ATOM     59  N   UNL A   1      43.132  27.094  31.276  1.00  0.00    -0.354 N 
ATOM     60  N   UNL A   1      41.770  30.123  32.921  1.00  0.00    -0.248 NA
ATOM     61  C   UNL A   1      42.007  31.482  34.765  1.00  0.00     0.031 C 
ATOM     62  C   UNL A   1      44.510  28.813  31.086  1.00  0.00     0.029 A 
ATOM     63  C   UNL A   1      43.640  28.181  31.962  1.00  0.00     0.049 A 
ATOM     64  H   UNL A   1      42.548  26.408  31.673  1.00  0.00     0.167 HD
ATOM     65  C   UNL A   1      42.660  29.505  33.736  1.00  0.00     0.074 A 
ATOM     66  C   UNL A   1      42.724  30.352  34.917  1.00  0.00     0.031 C 
ATOM     67  C   UNL A   1      43.332  28.378  33.375  1.00  0.00     0.031 A 
BRANCH  54  68
ATOM     68  C   UNL A   1      43.503  25.407  27.931  1.00  0.00    -0.014 A 
ATOM     69  C   UNL A   1      44.031  25.998  26.764  1.00  0.00     0.010 A 
ATOM     70  C   UNL A   1      43.621  24.004  28.010  1.00  0.00     0.010 A 
ATOM     71  C   UNL A   1      44.621  25.239  25.738  1.00  0.00     0.020 A 
ATOM     72  C   UNL A   1      44.211  23.231  26.997  1.00  0.00     0.020 A 
ATOM     73  C   UNL A   1      44.709  23.856  25.862  1.00  0.00     0.054 A 
BRANCH  73  74
ATOM     74  S   UNL A   1      45.495  22.893  24.545  1.00  0.00     0.124 S 
ATOM     75  O   UNL A   1      46.329  23.892  23.882  1.00  0.00    -0.237 OA
ATOM     76  O   UNL A   1      46.215  21.867  25.294  1.00  0.00    -0.237 OA
ATOM     77  O   UNL A   1      44.369  22.405  23.751  1.00  0.00    -0.744 OA
ENDBRANCH  73  74
ENDBRANCH  54  68
BRANCH  55  78
ATOM     78  C   UNL A   1      39.365  32.924  32.862  1.00  0.00    -0.014 A 
ATOM     79  C   UNL A   1      39.080  34.117  32.152  1.00  0.00     0.010 A 
ATOM     80  C   UNL A   1      38.280  32.127  33.275  1.00  0.00     0.010 A 
ATOM     81  C   UNL A   1      37.779  34.410  31.719  1.00  0.00     0.020 A 
ATOM     82  C   UNL A   1      36.973  32.417  32.834  1.00  0.00     0.020 A 
ATOM     83  C   UNL A   1      36.742  33.525  32.012  1.00  0.00     0.054 A 
BRANCH  83  84
ATOM     84  S   UNL A   1      35.179  33.689  31.083  1.00  0.00     0.124 S 
ATOM     85  O   UNL A   1      34.450  32.490  31.481  1.00  0.00    -0.237 OA
ATOM     86  O   UNL A   1      34.639  34.952  31.592  1.00  0.00    -0.237 OA
ATOM     87  O   UNL A   1      35.613  33.733  29.691  1.00  0.00    -0.744 OA
ENDBRANCH  83  84
ENDBRANCH  55  78
BRANCH  67  88
ATOM     88  C   UNL A   1      43.836  27.395  34.384  1.00  0.00    -0.014 A 
ATOM     89  C   UNL A   1      42.983  26.499  35.047  1.00  0.00     0.010 A 
ATOM     90  C   UNL A   1      45.226  27.226  34.554  1.00  0.00     0.010 A 
ATOM     91  C   UNL A   1      43.486  25.545  35.926  1.00  0.00     0.020 A 
ATOM     92  C   UNL A   1      45.743  26.234  35.384  1.00  0.00     0.020 A 
ATOM     93  C   UNL A   1      44.864  25.427  36.096  1.00  0.00     0.054 A 
BRANCH  93  94
ATOM     94  S   UNL A   1      45.491  24.186  37.244  1.00  0.00     0.124 S 
ATOM     95  O   UNL A   1      44.681  24.450  38.431  1.00  0.00    -0.237 OA
ATOM     96  O   UNL A   1      45.201  22.932  36.553  1.00  0.00    -0.237 OA
ATOM     97  O   UNL A   1      46.909  24.513  37.365  1.00  0.00    -0.744 OA
ENDBRANCH  93  94
ENDBRANCH  67  88
ENDBRANCH  41  42
ENDBRANCH  34  36
ENDBRANCH  33  34
ENDBRANCH  32  33
ENDBRANCH   1  32
TORSDOF 20
ENDMDL
MODEL 2
REMARK VINA RESULT:     -11.9      1.498      4.676
REMARK SMILES CC(=O)Nc1cnc(N2CC=C(c3ccccc3C)CC2)c(C(=O)OCCOCCOC(=O)c2ccc(-c3c4nc(c(-c5ccc(S(=O)(=O)[O-])cc5)c5ccc([nH]5)c(-c5ccc(S(=O)(=O)[O-])cc5)c5nc(c(-c6ccc(S(=O)(=O)[O-])cc6)c6ccc3[nH]6)C=C5)C=C4)cc2)c1
REMARK SMILES IDX 29 1 28 2 27 3 26 4 25 5 23 6 24 7 22 8 5 9 6 10 94 11 7 12
REMARK SMILES IDX 8 13 4 14 1 15 2 16 3 17 9 19 10 20 21 21 11 22 20 23 12 24
REMARK SMILES IDX 13 25 14 26 18 27 15 28 17 29 19 30 16 31 30 32 31 33 32 34
REMARK SMILES IDX 33 35 34 36 35 37 93 38 36 39 92 40 37 41 38 42 39 43 86 44
REMARK SMILES IDX 40 45 91 46 85 47 87 48 41 49 90 50 84 51 83 52 42 54 72 55
REMARK SMILES IDX 53 56 71 57 54 58 57 59 70 60 88 61 55 62 56 63 69 65 89 66
REMARK SMILES IDX 58 67 43 68 44 69 52 70 45 71 51 72 46 73 47 74 48 75 49 76
REMARK SMILES IDX 50 77 73 78 74 79 82 80 75 81 81 82 76 83 77 84 78 85 79 86
REMARK SMILES IDX 80 87 59 88 60 89 68 90 61 91 67 92 62 93 63 94 64 95 65 96
REMARK SMILES IDX 66 97
REMARK H PARENT 4 18 87 53 57 64
REMARK Flexibility Score: inf
ROOT
ATOM      1  C   UNL A   1      31.449  27.210  26.630  1.00  0.00     0.202 C 
ENDROOT
BRANCH   1   2
ATOM      2  O   UNL A   1      31.120  25.877  26.943  1.00  0.00    -0.374 OA
BRANCH   2   3
ATOM      3  C   UNL A   1      32.025  24.900  26.433  1.00  0.00     0.202 C 
BRANCH   3   4
ATOM      4  C   UNL A   1      31.213  24.063  25.503  1.00  0.00     0.261 C 
BRANCH   4   5
ATOM      5  O   UNL A   1      31.930  22.850  25.192  1.00  0.00    -0.460 OA
BRANCH   5   6
ATOM      6  C   UNL A   1      32.297  22.496  23.925  1.00  0.00     0.342 C 
ATOM      7  O   UNL A   1      31.616  21.992  23.066  1.00  0.00    -0.246 OA
BRANCH   6   8
ATOM      8  C   UNL A   1      33.722  22.863  23.780  1.00  0.00     0.104 A 
ATOM      9  C   UNL A   1      35.991  22.088  24.186  1.00  0.00     0.060 A 
ATOM     10  C   UNL A   1      36.393  23.348  23.782  1.00  0.00     0.139 A 
ATOM     11  C   UNL A   1      34.636  21.878  24.183  1.00  0.00     0.047 A 
ATOM     12  N   UNL A   1      35.546  24.319  23.332  1.00  0.00    -0.236 NA
ATOM     13  C   UNL A   1      34.198  24.097  23.332  1.00  0.00     0.143 A 
BRANCH   9  14
ATOM     14  N   UNL A   1      36.878  21.114  24.673  1.00  0.00    -0.325 N 
ATOM     15  C   UNL A   1      38.396  22.567  26.060  1.00  0.00     0.114 C 
ATOM     16  C   UNL A   1      38.061  21.266  25.358  1.00  0.00     0.221 C 
ATOM     17  O   UNL A   1      38.825  20.300  25.443  1.00  0.00    -0.275 OA
ATOM     18  H   UNL A   1      36.614  20.182  24.497  1.00  0.00     0.169 HD
ENDBRANCH   9  14
BRANCH  13  19
ATOM     19  N   UNL A   1      33.431  25.192  22.992  1.00  0.00    -0.352 N 
ATOM     20  C   UNL A   1      33.730  26.472  23.630  1.00  0.00     0.146 C 
ATOM     21  C   UNL A   1      32.797  25.269  21.683  1.00  0.00     0.123 C 
ATOM     22  C   UNL A   1      32.553  27.416  23.476  1.00  0.00    -0.002 C 
ATOM     23  C   UNL A   1      31.436  25.956  21.810  1.00  0.00     0.057 C 
ATOM     24  C   UNL A   1      31.486  27.189  22.680  1.00  0.00    -0.041 C 
BRANCH  24  25
ATOM     25  C   UNL A   1      30.332  28.120  22.626  1.00  0.00    -0.020 A 
ATOM     26  C   UNL A   1      30.491  29.358  21.977  1.00  0.00     0.008 A 
ATOM     27  C   UNL A   1      29.071  27.810  23.186  1.00  0.00    -0.044 A 
ATOM     28  C   UNL A   1      29.428  30.261  21.868  1.00  0.00     0.001 A 
ATOM     29  C   UNL A   1      28.007  28.723  23.051  1.00  0.00     0.004 A 
ATOM     30  C   UNL A   1      28.797  26.525  23.918  1.00  0.00     0.045 C 
ATOM     31  C   UNL A   1      28.184  29.941  22.400  1.00  0.00     0.000 A 
ENDBRANCH  24  25
ENDBRANCH  13  19
ENDBRANCH   6   8
ENDBRANCH   5   6
ENDBRANCH   4   5
ENDBRANCH   3   4
ENDBRANCH   2   3
ENDBRANCH   1   2
BRANCH   1  32
ATOM     32  C   UNL A   1      32.065  27.968  27.805  1.00  0.00     0.261 C 
BRANCH  32  33
ATOM     33  O   UNL A   1      33.443  28.297  27.518  1.00  0.00    -0.460 OA
BRANCH  33  34
ATOM     34  C   UNL A   1      33.754  29.628  27.498  1.00  0.00     0.338 C 
ATOM     35  O   UNL A   1      32.945  30.503  27.248  1.00  0.00    -0.246 OA
BRANCH  34  36
ATOM     36  C   UNL A   1      35.164  29.853  27.932  1.00  0.00     0.060 A 
ATOM     37  C   UNL A   1      36.198  30.069  27.004  1.00  0.00     0.016 A 
ATOM     38  C   UNL A   1      35.478  29.712  29.277  1.00  0.00     0.016 A 
ATOM     39  C   UNL A   1      37.549  29.993  27.404  1.00  0.00     0.010 A 
ATOM     40  C   UNL A   1      36.799  29.573  29.651  1.00  0.00     0.010 A 
ATOM     41  C   UNL A   1      37.853  29.673  28.723  1.00  0.00    -0.014 A 
BRANCH  41  42
ATOM     42  C   UNL A   1      39.181  29.344  29.278  1.00  0.00     0.031 A 
ATOM     43  C   UNL A   1      39.721  27.986  29.009  1.00  0.00     0.074 A 
ATOM     44  C   UNL A   1      40.037  30.309  29.710  1.00  0.00     0.049 A 
ATOM     45  N   UNL A   1      40.818  27.531  29.506  1.00  0.00    -0.248 NA
ATOM     46  C   UNL A   1      39.053  26.998  28.161  1.00  0.00     0.031 C 
ATOM     47  C   UNL A   1      41.505  30.287  29.713  1.00  0.00     0.029 A 
ATOM     48  N   UNL A   1      39.772  31.582  30.222  1.00  0.00    -0.354 N 
ATOM     49  C   UNL A   1      41.189  26.440  28.756  1.00  0.00     0.074 A 
ATOM     50  C   UNL A   1      40.000  26.065  28.035  1.00  0.00     0.031 C 
ATOM     51  C   UNL A   1      41.977  31.309  30.452  1.00  0.00     0.029 A 
ATOM     52  C   UNL A   1      40.829  31.959  31.060  1.00  0.00     0.049 A 
ATOM     53  H   UNL A   1      38.974  32.125  30.026  1.00  0.00     0.167 HD
ATOM     54  C   UNL A   1      42.507  26.095  28.723  1.00  0.00     0.031 A 
ATOM     55  C   UNL A   1      40.612  32.211  32.379  1.00  0.00     0.031 A 
ATOM     56  C   UNL A   1      43.284  26.906  29.673  1.00  0.00     0.049 A 
ATOM     57  C   UNL A   1      41.349  31.167  33.164  1.00  0.00     0.074 A 
ATOM     58  C   UNL A   1      44.214  27.920  29.521  1.00  0.00     0.029 A 
ATOM     59  N   UNL A   1      42.899  26.926  31.014  1.00  0.00    -0.354 N 
ATOM     60  N   UNL A   1      41.634  29.997  32.659  1.00  0.00    -0.248 NA
ATOM     61  C   UNL A   1      41.946  31.375  34.477  1.00  0.00     0.031 C 
ATOM     62  C   UNL A   1      44.298  28.620  30.762  1.00  0.00     0.029 A 
ATOM     63  C   UNL A   1      43.444  28.013  31.672  1.00  0.00     0.049 A 
ATOM     64  H   UNL A   1      42.316  26.255  31.437  1.00  0.00     0.167 HD
ATOM     65  C   UNL A   1      42.537  29.374  33.455  1.00  0.00     0.074 A 
ATOM     66  C   UNL A   1      42.649  30.235  34.623  1.00  0.00     0.031 C 
ATOM     67  C   UNL A   1      43.181  28.233  33.090  1.00  0.00     0.031 A 
BRANCH  54  68
ATOM     68  C   UNL A   1      43.145  25.192  27.682  1.00  0.00    -0.014 A 
ATOM     69  C   UNL A   1      42.720  23.851  27.579  1.00  0.00     0.010 A 
ATOM     70  C   UNL A   1      44.190  25.567  26.812  1.00  0.00     0.010 A 
ATOM     71  C   UNL A   1      43.308  22.942  26.683  1.00  0.00     0.020 A 
ATOM     72  C   UNL A   1      44.785  24.673  25.907  1.00  0.00     0.020 A 
ATOM     73  C   UNL A   1      44.339  23.361  25.848  1.00  0.00     0.054 A 
BRANCH  73  74
ATOM     74  S   UNL A   1      45.069  22.186  24.679  1.00  0.00     0.124 S 
ATOM     75  O   UNL A   1      46.320  21.824  25.339  1.00  0.00    -0.237 OA
ATOM     76  O   UNL A   1      44.059  21.135  24.619  1.00  0.00    -0.237 OA
ATOM     77  O   UNL A   1      45.223  22.967  23.452  1.00  0.00    -0.744 OA
ENDBRANCH  73  74
ENDBRANCH  54  68
BRANCH  55  78
ATOM     78  C   UNL A   1      39.273  32.836  32.633  1.00  0.00    -0.014 A 
ATOM     79  C   UNL A   1      39.016  34.063  31.973  1.00  0.00     0.010 A 
ATOM     80  C   UNL A   1      38.170  32.051  33.020  1.00  0.00     0.010 A 
ATOM     81  C   UNL A   1      37.721  34.406  31.559  1.00  0.00     0.020 A 
ATOM     82  C   UNL A   1      36.870  32.391  32.598  1.00  0.00     0.020 A 
ATOM     83  C   UNL A   1      36.662  33.537  31.822  1.00  0.00     0.054 A 
BRANCH  83  84
ATOM     84  S   UNL A   1      35.100  33.778  30.909  1.00  0.00     0.124 S 
ATOM     85  O   UNL A   1      34.403  32.518  31.143  1.00  0.00    -0.237 OA
ATOM     86  O   UNL A   1      34.523  34.949  31.573  1.00  0.00    -0.237 OA
ATOM     87  O   UNL A   1      35.540  34.014  29.539  1.00  0.00    -0.744 OA
ENDBRANCH  83  84
ENDBRANCH  55  78
BRANCH  67  88
ATOM     88  C   UNL A   1      43.697  27.254  34.097  1.00  0.00    -0.014 A 
ATOM     89  C   UNL A   1      42.845  26.549  34.961  1.00  0.00     0.010 A 
ATOM     90  C   UNL A   1      45.058  26.883  34.067  1.00  0.00     0.010 A 
ATOM     91  C   UNL A   1      43.345  25.590  35.838  1.00  0.00     0.020 A 
ATOM     92  C   UNL A   1      45.557  25.881  34.896  1.00  0.00     0.020 A 
ATOM     93  C   UNL A   1      44.701  25.271  35.806  1.00  0.00     0.054 A 
BRANCH  93  94
ATOM     94  S   UNL A   1      45.324  24.028  36.954  1.00  0.00     0.124 S 
ATOM     95  O   UNL A   1      44.907  22.791  36.301  1.00  0.00    -0.237 OA
ATOM     96  O   UNL A   1      46.762  24.284  36.957  1.00  0.00    -0.237 OA
ATOM     97  O   UNL A   1      44.638  24.340  38.206  1.00  0.00    -0.744 OA
ENDBRANCH  93  94
ENDBRANCH  67  88
ENDBRANCH  41  42
ENDBRANCH  34  36
ENDBRANCH  33  34
ENDBRANCH  32  33
ENDBRANCH   1  32
TORSDOF 20
ENDMDL
MODEL 3
REMARK VINA RESULT:     -11.5      3.808      9.748
REMARK SMILES CC(=O)Nc1cnc(N2CC=C(c3ccccc3C)CC2)c(C(=O)OCCOCCOC(=O)c2ccc(-c3c4nc(c(-c5ccc(S(=O)(=O)[O-])cc5)c5ccc([nH]5)c(-c5ccc(S(=O)(=O)[O-])cc5)c5nc(c(-c6ccc(S(=O)(=O)[O-])cc6)c6ccc3[nH]6)C=C5)C=C4)cc2)c1
REMARK SMILES IDX 29 1 28 2 27 3 26 4 25 5 23 6 24 7 22 8 5 9 6 10 94 11 7 12
REMARK SMILES IDX 8 13 4 14 1 15 2 16 3 17 9 19 10 20 21 21 11 22 20 23 12 24
REMARK SMILES IDX 13 25 14 26 18 27 15 28 17 29 19 30 16 31 30 32 31 33 32 34
REMARK SMILES IDX 33 35 34 36 35 37 93 38 36 39 92 40 37 41 38 42 39 43 86 44
REMARK SMILES IDX 40 45 91 46 85 47 87 48 41 49 90 50 84 51 83 52 42 54 72 55
REMARK SMILES IDX 53 56 71 57 54 58 57 59 70 60 88 61 55 62 56 63 69 65 89 66
REMARK SMILES IDX 58 67 43 68 44 69 52 70 45 71 51 72 46 73 47 74 48 75 49 76
REMARK SMILES IDX 50 77 73 78 74 79 82 80 75 81 81 82 76 83 77 84 78 85 79 86
REMARK SMILES IDX 80 87 59 88 60 89 68 90 61 91 67 92 62 93 63 94 64 95 65 96
REMARK SMILES IDX 66 97
REMARK H PARENT 4 18 87 53 57 64
REMARK Flexibility Score: inf
ROOT
ATOM      1  C   UNL A   1      39.607  21.833  26.444  1.00  0.00     0.202 C 
ENDROOT
BRANCH   1   2
ATOM      2  O   UNL A   1      38.328  22.245  26.023  1.00  0.00    -0.374 OA
BRANCH   2   3
ATOM      3  C   UNL A   1      37.751  21.449  24.991  1.00  0.00     0.202 C 
BRANCH   3   4
ATOM      4  C   UNL A   1      37.155  22.424  24.032  1.00  0.00     0.261 C 
BRANCH   4   5
ATOM      5  O   UNL A   1      35.734  22.200  23.933  1.00  0.00    -0.460 OA
BRANCH   5   6
ATOM      6  C   UNL A   1      34.854  22.489  24.938  1.00  0.00     0.342 C 
ATOM      7  O   UNL A   1      34.837  23.458  25.656  1.00  0.00    -0.246 OA
BRANCH   6   8
ATOM      8  C   UNL A   1      33.886  21.374  24.985  1.00  0.00     0.104 A 
ATOM      9  C   UNL A   1      33.697  18.953  25.123  1.00  0.00     0.060 A 
ATOM     10  C   UNL A   1      32.342  19.141  24.924  1.00  0.00     0.139 A 
ATOM     11  C   UNL A   1      34.451  20.099  25.139  1.00  0.00     0.047 A 
ATOM     12  N   UNL A   1      31.741  20.362  24.821  1.00  0.00    -0.236 NA
ATOM     13  C   UNL A   1      32.502  21.497  24.841  1.00  0.00     0.143 A 
BRANCH   9  14
ATOM     14  N   UNL A   1      34.297  17.685  25.197  1.00  0.00    -0.325 N 
ATOM     15  C   UNL A   1      34.007  16.929  22.814  1.00  0.00     0.114 C 
ATOM     16  C   UNL A   1      34.318  16.666  24.274  1.00  0.00     0.221 C 
ATOM     17  O   UNL A   1      34.653  15.538  24.644  1.00  0.00    -0.275 OA
ATOM     18  H   UNL A   1      34.775  17.497  26.037  1.00  0.00     0.169 HD
ENDBRANCH   9  14
BRANCH  13  19
ATOM     19  N   UNL A   1      31.810  22.663  24.588  1.00  0.00    -0.352 N 
ATOM     20  C   UNL A   1      31.539  23.020  23.197  1.00  0.00     0.146 C 
ATOM     21  C   UNL A   1      30.874  23.191  25.572  1.00  0.00     0.123 C 
ATOM     22  C   UNL A   1      31.177  24.490  23.100  1.00  0.00    -0.002 C 
ATOM     23  C   UNL A   1      30.922  24.721  25.557  1.00  0.00     0.057 C 
ATOM     24  C   UNL A   1      30.923  25.289  24.158  1.00  0.00    -0.041 C 
BRANCH  24  25
ATOM     25  C   UNL A   1      30.642  26.738  24.002  1.00  0.00    -0.020 A 
ATOM     26  C   UNL A   1      29.459  27.131  23.350  1.00  0.00     0.008 A 
ATOM     27  C   UNL A   1      31.506  27.743  24.493  1.00  0.00    -0.044 A 
ATOM     28  C   UNL A   1      29.127  28.482  23.203  1.00  0.00     0.001 A 
ATOM     29  C   UNL A   1      31.148  29.098  24.352  1.00  0.00     0.004 A 
ATOM     30  C   UNL A   1      32.805  27.436  25.187  1.00  0.00     0.045 C 
ATOM     31  C   UNL A   1      29.969  29.465  23.709  1.00  0.00     0.000 A 
ENDBRANCH  24  25
ENDBRANCH  13  19
ENDBRANCH   6   8
ENDBRANCH   5   6
ENDBRANCH   4   5
ENDBRANCH   3   4
ENDBRANCH   2   3
ENDBRANCH   1   2
BRANCH   1  32
ATOM     32  C   UNL A   1      40.355  22.908  27.232  1.00  0.00     0.261 C 
BRANCH  32  33
ATOM     33  O   UNL A   1      39.654  24.169  27.144  1.00  0.00    -0.460 OA
BRANCH  33  34
ATOM     34  C   UNL A   1      40.346  25.207  26.585  1.00  0.00     0.338 C 
ATOM     35  O   UNL A   1      40.969  25.114  25.542  1.00  0.00    -0.246 OA
BRANCH  34  36
ATOM     36  C   UNL A   1      40.134  26.467  27.355  1.00  0.00     0.060 A 
ATOM     37  C   UNL A   1      40.855  27.640  27.067  1.00  0.00     0.016 A 
ATOM     38  C   UNL A   1      39.303  26.437  28.467  1.00  0.00     0.016 A 
ATOM     39  C   UNL A   1      40.857  28.722  27.972  1.00  0.00     0.010 A 
ATOM     40  C   UNL A   1      39.360  27.470  29.380  1.00  0.00     0.010 A 
ATOM     41  C   UNL A   1      40.162  28.609  29.172  1.00  0.00    -0.014 A 
BRANCH  41  42
ATOM     42  C   UNL A   1      40.214  29.531  30.323  1.00  0.00     0.031 A 
ATOM     43  C   UNL A   1      39.483  30.819  30.206  1.00  0.00     0.074 A 
ATOM     44  C   UNL A   1      40.600  29.114  31.560  1.00  0.00     0.049 A 
ATOM     45  N   UNL A   1      39.517  31.755  31.089  1.00  0.00    -0.248 NA
ATOM     46  C   UNL A   1      38.651  31.181  29.057  1.00  0.00     0.031 C 
ATOM     47  C   UNL A   1      40.174  29.630  32.866  1.00  0.00     0.029 A 
ATOM     48  N   UNL A   1      41.457  28.075  31.931  1.00  0.00    -0.354 N 
ATOM     49  C   UNL A   1      38.452  32.591  30.845  1.00  0.00     0.074 A 
ATOM     50  C   UNL A   1      38.037  32.279  29.502  1.00  0.00     0.031 C 
ATOM     51  C   UNL A   1      40.968  29.136  33.835  1.00  0.00     0.029 A 
ATOM     52  C   UNL A   1      42.019  28.379  33.177  1.00  0.00     0.049 A 
ATOM     53  H   UNL A   1      41.636  27.263  31.404  1.00  0.00     0.167 HD
ATOM     54  C   UNL A   1      37.958  33.328  31.880  1.00  0.00     0.031 A 
ATOM     55  C   UNL A   1      43.365  28.524  33.313  1.00  0.00     0.031 A 
ATOM     56  C   UNL A   1      38.810  33.193  33.072  1.00  0.00     0.049 A 
ATOM     57  C   UNL A   1      43.630  29.954  33.682  1.00  0.00     0.074 A 
ATOM     58  C   UNL A   1      38.645  32.563  34.294  1.00  0.00     0.029 A 
ATOM     59  N   UNL A   1      40.169  33.493  32.967  1.00  0.00    -0.354 N 
ATOM     60  N   UNL A   1      42.797  30.912  33.372  1.00  0.00    -0.248 NA
ATOM     61  C   UNL A   1      44.724  30.410  34.530  1.00  0.00     0.031 C 
ATOM     62  C   UNL A   1      39.940  32.390  34.869  1.00  0.00     0.029 A 
ATOM     63  C   UNL A   1      40.883  32.940  34.013  1.00  0.00     0.049 A 
ATOM     64  H   UNL A   1      40.567  34.028  32.242  1.00  0.00     0.167 HD
ATOM     65  C   UNL A   1      43.125  32.030  34.065  1.00  0.00     0.074 A 
ATOM     66  C   UNL A   1      44.382  31.699  34.719  1.00  0.00     0.031 C 
ATOM     67  C   UNL A   1      42.326  33.130  34.112  1.00  0.00     0.031 A 
BRANCH  54  68
ATOM     68  C   UNL A   1      36.593  33.991  31.903  1.00  0.00    -0.014 A 
ATOM     69  C   UNL A   1      36.354  35.047  32.808  1.00  0.00     0.010 A 
ATOM     70  C   UNL A   1      35.490  33.608  31.112  1.00  0.00     0.010 A 
ATOM     71  C   UNL A   1      35.098  35.666  32.927  1.00  0.00     0.020 A 
ATOM     72  C   UNL A   1      34.229  34.218  31.215  1.00  0.00     0.020 A 
ATOM     73  C   UNL A   1      34.040  35.247  32.126  1.00  0.00     0.054 A 
BRANCH  73  74
ATOM     74  S   UNL A   1      32.434  36.071  32.271  1.00  0.00     0.124 S 
ATOM     75  O   UNL A   1      32.241  36.620  30.933  1.00  0.00    -0.237 OA
ATOM     76  O   UNL A   1      31.549  34.969  32.636  1.00  0.00    -0.237 OA
ATOM     77  O   UNL A   1      32.648  37.067  33.321  1.00  0.00    -0.744 OA
ENDBRANCH  73  74
ENDBRANCH  54  68
BRANCH  55  78
ATOM     78  C   UNL A   1      44.137  27.607  32.413  1.00  0.00    -0.014 A 
ATOM     79  C   UNL A   1      44.215  26.250  32.813  1.00  0.00     0.010 A 
ATOM     80  C   UNL A   1      44.297  27.902  31.045  1.00  0.00     0.010 A 
ATOM     81  C   UNL A   1      44.272  25.217  31.867  1.00  0.00     0.020 A 
ATOM     82  C   UNL A   1      44.346  26.864  30.093  1.00  0.00     0.020 A 
ATOM     83  C   UNL A   1      44.276  25.530  30.508  1.00  0.00     0.054 A 
BRANCH  83  84
ATOM     84  S   UNL A   1      43.907  24.198  29.315  1.00  0.00     0.124 S 
ATOM     85  O   UNL A   1      45.234  23.676  29.008  1.00  0.00    -0.237 OA
ATOM     86  O   UNL A   1      43.045  23.306  30.093  1.00  0.00    -0.237 OA
ATOM     87  O   UNL A   1      43.232  24.895  28.226  1.00  0.00    -0.744 OA
ENDBRANCH  83  84
ENDBRANCH  55  78
BRANCH  67  88
ATOM     88  C   UNL A   1      42.875  34.502  34.349  1.00  0.00    -0.014 A 
ATOM     89  C   UNL A   1      42.885  35.487  33.349  1.00  0.00     0.010 A 
ATOM     90  C   UNL A   1      43.228  34.890  35.658  1.00  0.00     0.010 A 
ATOM     91  C   UNL A   1      43.333  36.777  33.616  1.00  0.00     0.020 A 
ATOM     92  C   UNL A   1      43.618  36.195  35.950  1.00  0.00     0.020 A 
ATOM     93  C   UNL A   1      43.707  37.118  34.914  1.00  0.00     0.054 A 
BRANCH  93  94
ATOM     94  S   UNL A   1      44.288  38.795  35.234  1.00  0.00     0.124 S 
ATOM     95  O   UNL A   1      43.425  39.577  34.353  1.00  0.00    -0.237 OA
ATOM     96  O   UNL A   1      44.037  38.956  36.665  1.00  0.00    -0.237 OA
ATOM     97  O   UNL A   1      45.698  38.750  34.855  1.00  0.00    -0.744 OA
ENDBRANCH  93  94
ENDBRANCH  67  88
ENDBRANCH  41  42
ENDBRANCH  34  36
ENDBRANCH  33  34
ENDBRANCH  32  33
ENDBRANCH   1  32
TORSDOF 20
ENDMDL
