MODEL 1
REMARK VINA RESULT:      -9.9      0.000      0.000
REMARK SMILES COc1ccc(C2=NO[C@](C)(C(=O)OCCOCCOC(=O)c3ccc(-c4c5nc(c(-c6ccc(S(=O)(=O)[O-])cc6)c6ccc([nH]6)c(-c6ccc(S(=O)(=O)[O-])cc6)c6nc(c(-c7ccc(S(=O)(=O)[O-])cc7)c7ccc4[nH]7)C=C6)C=C5)cc3)C2)c(OC)c1OC
REMARK SMILES IDX 18 1 17 2 16 3 15 4 14 5 12 6 13 7 10 8 7 9 8 10 83 11 9 12
REMARK SMILES IDX 11 13 6 14 3 15 4 16 87 17 5 18 84 19 2 20 1 21 88 22 89 23
REMARK SMILES IDX 85 24 86 25 19 26 20 27 21 28 22 29 23 30 24 31 82 32 25 33
REMARK SMILES IDX 81 34 26 35 27 36 28 37 75 38 29 39 80 40 74 41 76 42 30 43
REMARK SMILES IDX 79 44 73 45 72 46 31 48 61 49 42 50 60 51 43 52 46 53 59 54
REMARK SMILES IDX 77 55 44 56 45 57 58 59 78 60 47 61 32 62 33 63 41 64 34 65
REMARK SMILES IDX 40 66 35 67 36 68 37 69 38 70 39 71 62 72 63 73 71 74 64 75
REMARK SMILES IDX 70 76 65 77 66 78 67 79 68 80 69 81 48 82 49 83 57 84 50 85
REMARK SMILES IDX 56 86 51 87 52 88 53 89 54 90 55 91
REMARK H PARENT 76 47 46 58
REMARK Flexibility Score: inf
ROOT
ATOM      1  C   UNL A   1      34.117  30.764  27.584  1.00  0.00     0.202 C 
ENDROOT
BRANCH   1   2
ATOM      2  O   UNL A   1      33.358  30.507  26.404  1.00  0.00    -0.374 OA
BRANCH   2   3
ATOM      3  C   UNL A   1      31.936  30.545  26.503  1.00  0.00     0.202 C 
BRANCH   3   4
ATOM      4  C   UNL A   1      31.144  30.317  25.213  1.00  0.00     0.261 C 
BRANCH   4   5
ATOM      5  O   UNL A   1      31.847  29.484  24.272  1.00  0.00    -0.460 OA
BRANCH   5   6
ATOM      6  C   UNL A   1      31.532  28.157  24.325  1.00  0.00     0.353 C 
ATOM      7  O   UNL A   1      30.383  27.725  24.316  1.00  0.00    -0.247 OA
BRANCH   6   8
ATOM      8  C   UNL A   1      32.768  27.265  24.435  1.00  0.00     0.236 C 
ATOM      9  C   UNL A   1      33.479  25.175  25.007  1.00  0.00     0.096 C 
ATOM     10  N   UNL A   1      33.641  25.886  26.076  1.00  0.00    -0.089 NA
ATOM     11  C   UNL A   1      32.657  25.831  23.941  1.00  0.00     0.124 C 
ATOM     12  O   UNL A   1      33.002  27.126  25.852  1.00  0.00    -0.377 OA
ATOM     13  C   UNL A   1      33.948  28.015  23.817  1.00  0.00     0.073 C 
BRANCH   9  14
ATOM     14  C   UNL A   1      34.104  23.841  24.836  1.00  0.00     0.046 A 
ATOM     15  C   UNL A   1      35.505  21.430  24.861  1.00  0.00     0.164 A 
ATOM     16  C   UNL A   1      36.125  22.597  24.401  1.00  0.00     0.051 A 
ATOM     17  C   UNL A   1      34.168  21.445  25.309  1.00  0.00     0.203 A 
ATOM     18  C   UNL A   1      35.428  23.803  24.390  1.00  0.00     0.018 A 
ATOM     19  C   UNL A   1      33.449  22.665  25.275  1.00  0.00     0.173 A 
BRANCH  15  20
ATOM     20  O   UNL A   1      36.274  20.300  24.991  1.00  0.00    -0.493 OA
ATOM     21  C   UNL A   1      37.670  20.576  24.867  1.00  0.00     0.278 C 
ENDBRANCH  15  20
BRANCH  17  22
ATOM     22  O   UNL A   1      33.539  20.360  25.864  1.00  0.00    -0.490 OA
ATOM     23  C   UNL A   1      32.680  19.572  25.052  1.00  0.00     0.278 C 
ENDBRANCH  17  22
BRANCH  19  24
ATOM     24  O   UNL A   1      32.126  22.853  25.594  1.00  0.00    -0.492 OA
ATOM     25  C   UNL A   1      31.711  22.899  26.949  1.00  0.00     0.278 C 
ENDBRANCH  19  24
ENDBRANCH   9  14
ENDBRANCH   6   8
ENDBRANCH   5   6
ENDBRANCH   4   5
ENDBRANCH   3   4
ENDBRANCH   2   3
ENDBRANCH   1   2
BRANCH   1  26
ATOM     26  C   UNL A   1      35.178  29.724  27.970  1.00  0.00     0.261 C 
BRANCH  26  27
ATOM     27  O   UNL A   1      36.365  30.320  28.524  1.00  0.00    -0.460 OA
BRANCH  27  28
ATOM     28  C   UNL A   1      36.973  29.583  29.484  1.00  0.00     0.338 C 
ATOM     29  O   UNL A   1      36.497  29.232  30.558  1.00  0.00    -0.246 OA
BRANCH  28  30
ATOM     30  C   UNL A   1      38.276  29.082  29.004  1.00  0.00     0.060 A 
ATOM     31  C   UNL A   1      39.096  28.416  29.924  1.00  0.00     0.016 A 
ATOM     32  C   UNL A   1      38.727  29.340  27.709  1.00  0.00     0.016 A 
ATOM     33  C   UNL A   1      40.396  28.055  29.571  1.00  0.00     0.010 A 
ATOM     34  C   UNL A   1      40.036  28.987  27.359  1.00  0.00     0.010 A 
ATOM     35  C   UNL A   1      40.888  28.381  28.301  1.00  0.00    -0.014 A 
BRANCH  35  36
ATOM     36  C   UNL A   1      42.339  28.256  28.015  1.00  0.00     0.031 A 
ATOM     37  C   UNL A   1      43.230  29.441  28.280  1.00  0.00     0.074 A 
ATOM     38  C   UNL A   1      42.862  27.110  27.542  1.00  0.00     0.049 A 
ATOM     39  N   UNL A   1      44.500  29.599  28.015  1.00  0.00    -0.248 NA
ATOM     40  C   UNL A   1      42.602  30.605  28.931  1.00  0.00     0.031 C 
ATOM     41  C   UNL A   1      42.118  25.874  27.301  1.00  0.00     0.029 A 
ATOM     42  N   UNL A   1      44.148  26.806  27.168  1.00  0.00    -0.354 N 
ATOM     43  C   UNL A   1      44.823  30.876  28.456  1.00  0.00     0.074 A 
ATOM     44  C   UNL A   1      43.611  31.463  28.983  1.00  0.00     0.031 C 
ATOM     45  C   UNL A   1      42.959  24.950  26.801  1.00  0.00     0.029 A 
ATOM     46  C   UNL A   1      44.289  25.540  26.652  1.00  0.00     0.049 A 
ATOM     47  H   UNL A   1      44.899  27.437  27.261  1.00  0.00     0.167 HD
ATOM     48  C   UNL A   1      46.021  31.505  28.428  1.00  0.00     0.031 A 
ATOM     49  C   UNL A   1      45.359  24.937  26.098  1.00  0.00     0.031 A 
ATOM     50  C   UNL A   1      47.225  30.924  27.899  1.00  0.00     0.049 A 
ATOM     51  C   UNL A   1      46.665  25.687  26.006  1.00  0.00     0.074 A 
ATOM     52  C   UNL A   1      48.486  31.488  27.811  1.00  0.00     0.029 A 
ATOM     53  N   UNL A   1      47.319  29.646  27.372  1.00  0.00    -0.354 N 
ATOM     54  N   UNL A   1      46.950  26.900  26.416  1.00  0.00    -0.248 NA
ATOM     55  C   UNL A   1      47.795  24.983  25.381  1.00  0.00     0.031 C 
ATOM     56  C   UNL A   1      49.335  30.565  27.193  1.00  0.00     0.029 A 
ATOM     57  C   UNL A   1      48.614  29.406  26.949  1.00  0.00     0.049 A 
ATOM     58  H   UNL A   1      46.576  29.004  27.308  1.00  0.00     0.167 HD
ATOM     59  C   UNL A   1      48.301  27.086  26.136  1.00  0.00     0.074 A 
ATOM     60  C   UNL A   1      48.777  25.865  25.525  1.00  0.00     0.031 C 
ATOM     61  C   UNL A   1      49.078  28.173  26.368  1.00  0.00     0.031 A 
BRANCH  48  62
ATOM     62  C   UNL A   1      46.089  32.907  28.971  1.00  0.00    -0.014 A 
ATOM     63  C   UNL A   1      46.596  33.162  30.257  1.00  0.00     0.010 A 
ATOM     64  C   UNL A   1      45.702  33.988  28.158  1.00  0.00     0.010 A 
ATOM     65  C   UNL A   1      46.693  34.473  30.730  1.00  0.00     0.020 A 
ATOM     66  C   UNL A   1      45.820  35.302  28.619  1.00  0.00     0.020 A 
ATOM     67  C   UNL A   1      46.306  35.535  29.907  1.00  0.00     0.054 A 
BRANCH  67  68
ATOM     68  S   UNL A   1      46.487  37.230  30.530  1.00  0.00     0.124 S 
ATOM     69  O   UNL A   1      46.130  37.072  31.937  1.00  0.00    -0.237 OA
ATOM     70  O   UNL A   1      47.895  37.518  30.267  1.00  0.00    -0.237 OA
ATOM     71  O   UNL A   1      45.536  37.996  29.729  1.00  0.00    -0.744 OA
ENDBRANCH  67  68
ENDBRANCH  48  62
BRANCH  49  72
ATOM     72  C   UNL A   1      45.243  23.561  25.542  1.00  0.00    -0.014 A 
ATOM     73  C   UNL A   1      44.701  23.341  24.263  1.00  0.00     0.010 A 
ATOM     74  C   UNL A   1      45.639  22.453  26.315  1.00  0.00     0.010 A 
ATOM     75  C   UNL A   1      44.525  22.040  23.782  1.00  0.00     0.020 A 
ATOM     76  C   UNL A   1      45.491  21.153  25.826  1.00  0.00     0.020 A 
ATOM     77  C   UNL A   1      44.916  20.954  24.570  1.00  0.00     0.054 A 
BRANCH  77  78
ATOM     78  S   UNL A   1      44.693  19.273  23.925  1.00  0.00     0.124 S 
ATOM     79  O   UNL A   1      44.521  19.518  22.496  1.00  0.00    -0.237 OA
ATOM     80  O   UNL A   1      45.940  18.616  24.311  1.00  0.00    -0.237 OA
ATOM     81  O   UNL A   1      43.504  18.795  24.627  1.00  0.00    -0.744 OA
ENDBRANCH  77  78
ENDBRANCH  49  72
BRANCH  61  82
ATOM     82  C   UNL A   1      50.541  28.075  26.027  1.00  0.00    -0.014 A 
ATOM     83  C   UNL A   1      51.503  27.770  27.004  1.00  0.00     0.010 A 
ATOM     84  C   UNL A   1      50.944  28.210  24.685  1.00  0.00     0.010 A 
ATOM     85  C   UNL A   1      52.847  27.622  26.648  1.00  0.00     0.020 A 
ATOM     86  C   UNL A   1      52.281  28.039  24.321  1.00  0.00     0.020 A 
ATOM     87  C   UNL A   1      53.227  27.755  25.308  1.00  0.00     0.054 A 
BRANCH  87  88
ATOM     88  S   UNL A   1      54.966  27.494  24.861  1.00  0.00     0.124 S 
ATOM     89  O   UNL A   1      55.490  26.833  26.052  1.00  0.00    -0.237 OA
ATOM     90  O   UNL A   1      54.868  26.656  23.668  1.00  0.00    -0.237 OA
ATOM     91  O   UNL A   1      55.469  28.845  24.626  1.00  0.00    -0.744 OA
ENDBRANCH  87  88
ENDBRANCH  61  82
ENDBRANCH  35  36
ENDBRANCH  28  30
ENDBRANCH  27  28
ENDBRANCH  26  27
ENDBRANCH   1  26
TORSDOF 21
ENDMDL
MODEL 2
REMARK VINA RESULT:      -9.6      6.582     12.155
REMARK SMILES COc1ccc(C2=NO[C@](C)(C(=O)OCCOCCOC(=O)c3ccc(-c4c5nc(c(-c6ccc(S(=O)(=O)[O-])cc6)c6ccc([nH]6)c(-c6ccc(S(=O)(=O)[O-])cc6)c6nc(c(-c7ccc(S(=O)(=O)[O-])cc7)c7ccc4[nH]7)C=C6)C=C5)cc3)C2)c(OC)c1OC
REMARK SMILES IDX 18 1 17 2 16 3 15 4 14 5 12 6 13 7 10 8 7 9 8 10 83 11 9 12
REMARK SMILES IDX 11 13 6 14 3 15 4 16 87 17 5 18 84 19 2 20 1 21 88 22 89 23
REMARK SMILES IDX 85 24 86 25 19 26 20 27 21 28 22 29 23 30 24 31 82 32 25 33
REMARK SMILES IDX 81 34 26 35 27 36 28 37 75 38 29 39 80 40 74 41 76 42 30 43
REMARK SMILES IDX 79 44 73 45 72 46 31 48 61 49 42 50 60 51 43 52 46 53 59 54
REMARK SMILES IDX 77 55 44 56 45 57 58 59 78 60 47 61 32 62 33 63 41 64 34 65
REMARK SMILES IDX 40 66 35 67 36 68 37 69 38 70 39 71 62 72 63 73 71 74 64 75
REMARK SMILES IDX 70 76 65 77 66 78 67 79 68 80 69 81 48 82 49 83 57 84 50 85
REMARK SMILES IDX 56 86 51 87 52 88 53 89 54 90 55 91
REMARK H PARENT 76 47 46 58
REMARK Flexibility Score: inf
ROOT
ATOM      1  C   UNL A   1      38.779  22.127  25.783  1.00  0.00     0.202 C 
ENDROOT
BRANCH   1   2
ATOM      2  O   UNL A   1      37.706  22.993  26.150  1.00  0.00    -0.374 OA
BRANCH   2   3
ATOM      3  C   UNL A   1      36.373  22.514  25.983  1.00  0.00     0.202 C 
BRANCH   3   4
ATOM      4  C   UNL A   1      36.187  21.266  25.117  1.00  0.00     0.261 C 
BRANCH   4   5
ATOM      5  O   UNL A   1      35.074  21.383  24.210  1.00  0.00    -0.460 OA
BRANCH   5   6
ATOM      6  C   UNL A   1      33.850  21.477  24.805  1.00  0.00     0.353 C 
ATOM      7  O   UNL A   1      33.423  20.669  25.625  1.00  0.00    -0.247 OA
BRANCH   6   8
ATOM      8  C   UNL A   1      33.048  22.680  24.310  1.00  0.00     0.236 C 
ATOM      9  C   UNL A   1      32.009  24.596  24.983  1.00  0.00     0.096 C 
ATOM     10  N   UNL A   1      31.074  23.700  24.957  1.00  0.00    -0.089 NA
ATOM     11  C   UNL A   1      33.398  24.049  24.876  1.00  0.00     0.124 C 
ATOM     12  O   UNL A   1      31.702  22.448  24.774  1.00  0.00    -0.377 OA
ATOM     13  C   UNL A   1      33.050  22.653  22.783  1.00  0.00     0.073 C 
BRANCH   9  14
ATOM     14  C   UNL A   1      31.717  26.047  25.060  1.00  0.00     0.046 A 
ATOM     15  C   UNL A   1      31.585  28.825  25.276  1.00  0.00     0.164 A 
ATOM     16  C   UNL A   1      31.701  28.036  26.426  1.00  0.00     0.051 A 
ATOM     17  C   UNL A   1      31.524  28.237  23.995  1.00  0.00     0.203 A 
ATOM     18  C   UNL A   1      31.769  26.649  26.321  1.00  0.00     0.018 A 
ATOM     19  C   UNL A   1      31.568  26.826  23.887  1.00  0.00     0.173 A 
BRANCH  15  20
ATOM     20  O   UNL A   1      31.668  30.188  25.418  1.00  0.00    -0.493 OA
ATOM     21  C   UNL A   1      31.968  30.577  26.760  1.00  0.00     0.278 C 
ENDBRANCH  15  20
BRANCH  17  22
ATOM     22  O   UNL A   1      31.512  28.958  22.828  1.00  0.00    -0.490 OA
ATOM     23  C   UNL A   1      30.266  29.382  22.292  1.00  0.00     0.278 C 
ENDBRANCH  17  22
BRANCH  19  24
ATOM     24  O   UNL A   1      31.442  26.082  22.739  1.00  0.00    -0.492 OA
ATOM     25  C   UNL A   1      32.441  26.133  21.734  1.00  0.00     0.278 C 
ENDBRANCH  19  24
ENDBRANCH   9  14
ENDBRANCH   6   8
ENDBRANCH   5   6
ENDBRANCH   4   5
ENDBRANCH   3   4
ENDBRANCH   2   3
ENDBRANCH   1   2
BRANCH   1  26
ATOM     26  C   UNL A   1      39.832  21.827  26.859  1.00  0.00     0.261 C 
BRANCH  26  27
ATOM     27  O   UNL A   1      40.074  22.951  27.726  1.00  0.00    -0.460 OA
BRANCH  27  28
ATOM     28  C   UNL A   1      41.060  23.782  27.312  1.00  0.00     0.338 C 
ATOM     29  O   UNL A   1      41.867  23.579  26.413  1.00  0.00    -0.246 OA
BRANCH  28  30
ATOM     30  C   UNL A   1      40.947  25.092  27.982  1.00  0.00     0.060 A 
ATOM     31  C   UNL A   1      42.118  25.666  28.494  1.00  0.00     0.016 A 
ATOM     32  C   UNL A   1      39.709  25.704  28.188  1.00  0.00     0.016 A 
ATOM     33  C   UNL A   1      42.052  26.825  29.266  1.00  0.00     0.010 A 
ATOM     34  C   UNL A   1      39.643  26.862  28.973  1.00  0.00     0.010 A 
ATOM     35  C   UNL A   1      40.807  27.403  29.548  1.00  0.00    -0.014 A 
BRANCH  35  36
ATOM     36  C   UNL A   1      40.700  28.458  30.586  1.00  0.00     0.031 A 
ATOM     37  C   UNL A   1      41.619  28.393  31.777  1.00  0.00     0.074 A 
ATOM     38  C   UNL A   1      39.814  29.464  30.472  1.00  0.00     0.049 A 
ATOM     39  N   UNL A   1      41.640  29.140  32.850  1.00  0.00    -0.248 NA
ATOM     40  C   UNL A   1      42.654  27.343  31.754  1.00  0.00     0.031 C 
ATOM     41  C   UNL A   1      38.911  29.674  29.340  1.00  0.00     0.029 A 
ATOM     42  N   UNL A   1      39.522  30.495  31.330  1.00  0.00    -0.354 N 
ATOM     43  C   UNL A   1      42.678  28.648  33.632  1.00  0.00     0.074 A 
ATOM     44  C   UNL A   1      43.249  27.524  32.924  1.00  0.00     0.031 C 
ATOM     45  C   UNL A   1      38.151  30.758  29.584  1.00  0.00     0.029 A 
ATOM     46  C   UNL A   1      38.489  31.295  30.902  1.00  0.00     0.049 A 
ATOM     47  H   UNL A   1      40.008  30.648  32.173  1.00  0.00     0.167 HD
ATOM     48  C   UNL A   1      43.121  29.095  34.831  1.00  0.00     0.031 A 
ATOM     49  C   UNL A   1      37.867  32.321  31.516  1.00  0.00     0.031 A 
ATOM     50  C   UNL A   1      42.550  30.209  35.537  1.00  0.00     0.049 A 
ATOM     51  C   UNL A   1      38.326  32.751  32.887  1.00  0.00     0.074 A 
ATOM     52  C   UNL A   1      42.918  30.728  36.767  1.00  0.00     0.029 A 
ATOM     53  N   UNL A   1      41.495  30.979  35.076  1.00  0.00    -0.354 N 
ATOM     54  N   UNL A   1      39.301  32.267  33.619  1.00  0.00    -0.248 NA
ATOM     55  C   UNL A   1      37.604  33.869  33.512  1.00  0.00     0.031 C 
ATOM     56  C   UNL A   1      42.058  31.788  37.068  1.00  0.00     0.029 A 
ATOM     57  C   UNL A   1      41.192  31.964  36.000  1.00  0.00     0.049 A 
ATOM     58  H   UNL A   1      41.030  30.847  34.219  1.00  0.00     0.167 HD
ATOM     59  C   UNL A   1      39.335  33.048  34.770  1.00  0.00     0.074 A 
ATOM     60  C   UNL A   1      38.286  34.036  34.638  1.00  0.00     0.031 C 
ATOM     61  C   UNL A   1      40.162  32.957  35.839  1.00  0.00     0.031 A 
BRANCH  48  62
ATOM     62  C   UNL A   1      44.272  28.364  35.469  1.00  0.00    -0.014 A 
ATOM     63  C   UNL A   1      45.600  28.766  35.243  1.00  0.00     0.010 A 
ATOM     64  C   UNL A   1      44.017  27.304  36.358  1.00  0.00     0.010 A 
ATOM     65  C   UNL A   1      46.654  28.106  35.877  1.00  0.00     0.020 A 
ATOM     66  C   UNL A   1      45.068  26.656  37.012  1.00  0.00     0.020 A 
ATOM     67  C   UNL A   1      46.382  27.055  36.759  1.00  0.00     0.054 A 
BRANCH  67  68
ATOM     68  S   UNL A   1      47.768  26.246  37.605  1.00  0.00     0.124 S 
ATOM     69  O   UNL A   1      48.641  27.380  37.901  1.00  0.00    -0.237 OA
ATOM     70  O   UNL A   1      47.123  25.631  38.762  1.00  0.00    -0.237 OA
ATOM     71  O   UNL A   1      48.283  25.310  36.609  1.00  0.00    -0.744 OA
ENDBRANCH  67  68
ENDBRANCH  48  62
BRANCH  49  72
ATOM     72  C   UNL A   1      36.711  32.997  30.865  1.00  0.00    -0.014 A 
ATOM     73  C   UNL A   1      36.910  33.975  29.875  1.00  0.00     0.010 A 
ATOM     74  C   UNL A   1      35.398  32.691  31.267  1.00  0.00     0.010 A 
ATOM     75  C   UNL A   1      35.821  34.658  29.325  1.00  0.00     0.020 A 
ATOM     76  C   UNL A   1      34.305  33.352  30.699  1.00  0.00     0.020 A 
ATOM     77  C   UNL A   1      34.526  34.346  29.745  1.00  0.00     0.054 A 
BRANCH  77  78
ATOM     78  S   UNL A   1      33.124  35.233  29.012  1.00  0.00     0.124 S 
ATOM     79  O   UNL A   1      33.786  36.363  28.367  1.00  0.00    -0.237 OA
ATOM     80  O   UNL A   1      32.551  34.235  28.112  1.00  0.00    -0.237 OA
ATOM     81  O   UNL A   1      32.292  35.568  30.166  1.00  0.00    -0.744 OA
ENDBRANCH  77  78
ENDBRANCH  49  72
BRANCH  61  82
ATOM     82  C   UNL A   1      40.022  33.990  36.926  1.00  0.00    -0.014 A 
ATOM     83  C   UNL A   1      40.617  35.258  36.814  1.00  0.00     0.010 A 
ATOM     84  C   UNL A   1      39.208  33.709  38.040  1.00  0.00     0.010 A 
ATOM     85  C   UNL A   1      40.417  36.220  37.808  1.00  0.00     0.020 A 
ATOM     86  C   UNL A   1      38.986  34.676  39.022  1.00  0.00     0.020 A 
ATOM     87  C   UNL A   1      39.600  35.924  38.905  1.00  0.00     0.054 A 
BRANCH  87  88
ATOM     88  S   UNL A   1      39.304  37.210  40.149  1.00  0.00     0.124 S 
ATOM     89  O   UNL A   1      38.431  38.133  39.430  1.00  0.00    -0.237 OA
ATOM     90  O   UNL A   1      38.673  36.466  41.236  1.00  0.00    -0.237 OA
ATOM     91  O   UNL A   1      40.640  37.720  40.446  1.00  0.00    -0.744 OA
ENDBRANCH  87  88
ENDBRANCH  61  82
ENDBRANCH  35  36
ENDBRANCH  28  30
ENDBRANCH  27  28
ENDBRANCH  26  27
ENDBRANCH   1  26
TORSDOF 21
ENDMDL
MODEL 3
REMARK VINA RESULT:      -9.4      6.532     11.900
REMARK SMILES COc1ccc(C2=NO[C@](C)(C(=O)OCCOCCOC(=O)c3ccc(-c4c5nc(c(-c6ccc(S(=O)(=O)[O-])cc6)c6ccc([nH]6)c(-c6ccc(S(=O)(=O)[O-])cc6)c6nc(c(-c7ccc(S(=O)(=O)[O-])cc7)c7ccc4[nH]7)C=C6)C=C5)cc3)C2)c(OC)c1OC
REMARK SMILES IDX 18 1 17 2 16 3 15 4 14 5 12 6 13 7 10 8 7 9 8 10 83 11 9 12
REMARK SMILES IDX 11 13 6 14 3 15 4 16 87 17 5 18 84 19 2 20 1 21 88 22 89 23
REMARK SMILES IDX 85 24 86 25 19 26 20 27 21 28 22 29 23 30 24 31 82 32 25 33
REMARK SMILES IDX 81 34 26 35 27 36 28 37 75 38 29 39 80 40 74 41 76 42 30 43
REMARK SMILES IDX 79 44 73 45 72 46 31 48 61 49 42 50 60 51 43 52 46 53 59 54
REMARK SMILES IDX 77 55 44 56 45 57 58 59 78 60 47 61 32 62 33 63 41 64 34 65
REMARK SMILES IDX 40 66 35 67 36 68 37 69 38 70 39 71 62 72 63 73 71 74 64 75
REMARK SMILES IDX 70 76 65 77 66 78 67 79 68 80 69 81 48 82 49 83 57 84 50 85
REMARK SMILES IDX 56 86 51 87 52 88 53 89 54 90 55 91
REMARK H PARENT 76 47 46 58
REMARK Flexibility Score: inf
ROOT
ATOM      1  C   UNL A   1      42.953  22.717  25.746  1.00  0.00     0.202 C 
ENDROOT
BRANCH   1   2
ATOM      2  O   UNL A   1      42.290  21.514  25.358  1.00  0.00    -0.374 OA
BRANCH   2   3
ATOM      3  C   UNL A   1      41.548  20.809  26.350  1.00  0.00     0.202 C 
BRANCH   3   4
ATOM      4  C   UNL A   1      40.117  20.402  25.990  1.00  0.00     0.261 C 
BRANCH   4   5
ATOM      5  O   UNL A   1      39.169  21.466  26.206  1.00  0.00    -0.460 OA
BRANCH   5   6
ATOM      6  C   UNL A   1      38.033  21.389  25.455  1.00  0.00     0.353 C 
ATOM      7  O   UNL A   1      37.620  20.354  24.940  1.00  0.00    -0.247 OA
BRANCH   6   8
ATOM      8  C   UNL A   1      37.347  22.745  25.292  1.00  0.00     0.236 C 
ATOM      9  C   UNL A   1      35.423  23.758  24.602  1.00  0.00     0.096 C 
ATOM     10  N   UNL A   1      36.209  23.799  23.574  1.00  0.00    -0.089 NA
ATOM     11  C   UNL A   1      35.887  22.858  25.704  1.00  0.00     0.124 C 
ATOM     12  O   UNL A   1      37.323  22.982  23.869  1.00  0.00    -0.377 OA
ATOM     13  C   UNL A   1      38.231  23.804  25.949  1.00  0.00     0.073 C 
BRANCH   9  14
ATOM     14  C   UNL A   1      34.193  24.579  24.695  1.00  0.00     0.046 A 
ATOM     15  C   UNL A   1      32.119  26.444  24.730  1.00  0.00     0.164 A 
ATOM     16  C   UNL A   1      33.089  26.454  25.738  1.00  0.00     0.051 A 
ATOM     17  C   UNL A   1      32.163  25.493  23.689  1.00  0.00     0.203 A 
ATOM     18  C   UNL A   1      34.127  25.526  25.722  1.00  0.00     0.018 A 
ATOM     19  C   UNL A   1      33.203  24.531  23.684  1.00  0.00     0.173 A 
BRANCH  15  20
ATOM     20  O   UNL A   1      31.202  27.465  24.706  1.00  0.00    -0.493 OA
ATOM     21  C   UNL A   1      31.798  28.736  24.976  1.00  0.00     0.278 C 
ENDBRANCH  15  20
BRANCH  17  22
ATOM     22  O   UNL A   1      31.302  25.494  22.621  1.00  0.00    -0.490 OA
ATOM     23  C   UNL A   1      31.699  26.135  21.417  1.00  0.00     0.278 C 
ENDBRANCH  17  22
BRANCH  19  24
ATOM     24  O   UNL A   1      33.359  23.489  22.803  1.00  0.00    -0.492 OA
ATOM     25  C   UNL A   1      32.571  22.318  22.925  1.00  0.00     0.278 C 
ENDBRANCH  19  24
ENDBRANCH   9  14
ENDBRANCH   6   8
ENDBRANCH   5   6
ENDBRANCH   4   5
ENDBRANCH   3   4
ENDBRANCH   2   3
ENDBRANCH   1   2
BRANCH   1  26
ATOM     26  C   UNL A   1      42.166  23.690  26.634  1.00  0.00     0.261 C 
BRANCH  26  27
ATOM     27  O   UNL A   1      42.683  25.032  26.580  1.00  0.00    -0.460 OA
BRANCH  27  28
ATOM     28  C   UNL A   1      41.824  25.949  26.073  1.00  0.00     0.338 C 
ATOM     29  O   UNL A   1      41.374  25.986  24.934  1.00  0.00    -0.246 OA
BRANCH  28  30
ATOM     30  C   UNL A   1      41.336  26.846  27.138  1.00  0.00     0.060 A 
ATOM     31  C   UNL A   1      41.999  28.067  27.316  1.00  0.00     0.016 A 
ATOM     32  C   UNL A   1      40.312  26.462  28.006  1.00  0.00     0.016 A 
ATOM     33  C   UNL A   1      41.682  28.886  28.399  1.00  0.00     0.010 A 
ATOM     34  C   UNL A   1      40.002  27.280  29.099  1.00  0.00     0.010 A 
ATOM     35  C   UNL A   1      40.713  28.473  29.323  1.00  0.00    -0.014 A 
BRANCH  35  36
ATOM     36  C   UNL A   1      40.568  29.191  30.614  1.00  0.00     0.031 A 
ATOM     37  C   UNL A   1      39.521  30.268  30.725  1.00  0.00     0.074 A 
ATOM     38  C   UNL A   1      41.340  28.888  31.673  1.00  0.00     0.049 A 
ATOM     39  N   UNL A   1      39.280  31.092  31.711  1.00  0.00    -0.248 NA
ATOM     40  C   UNL A   1      38.624  30.438  29.567  1.00  0.00     0.031 C 
ATOM     41  C   UNL A   1      42.346  27.828  31.713  1.00  0.00     0.029 A 
ATOM     42  N   UNL A   1      41.402  29.457  32.921  1.00  0.00    -0.354 N 
ATOM     43  C   UNL A   1      38.216  31.882  31.294  1.00  0.00     0.074 A 
ATOM     44  C   UNL A   1      37.871  31.457  29.955  1.00  0.00     0.031 C 
ATOM     45  C   UNL A   1      42.940  27.835  32.921  1.00  0.00     0.029 A 
ATOM     46  C   UNL A   1      42.382  28.923  33.724  1.00  0.00     0.049 A 
ATOM     47  H   UNL A   1      40.800  30.180  33.214  1.00  0.00     0.167 HD
ATOM     48  C   UNL A   1      37.579  32.870  31.965  1.00  0.00     0.031 A 
ATOM     49  C   UNL A   1      42.800  29.288  34.952  1.00  0.00     0.031 A 
ATOM     50  C   UNL A   1      37.926  33.295  33.293  1.00  0.00     0.049 A 
ATOM     51  C   UNL A   1      42.127  30.445  35.649  1.00  0.00     0.074 A 
ATOM     52  C   UNL A   1      37.350  34.300  34.052  1.00  0.00     0.029 A 
ATOM     53  N   UNL A   1      38.935  32.739  34.063  1.00  0.00    -0.354 N 
ATOM     54  N   UNL A   1      41.130  31.190  35.234  1.00  0.00    -0.248 NA
ATOM     55  C   UNL A   1      42.633  30.805  36.982  1.00  0.00     0.031 C 
ATOM     56  C   UNL A   1      38.039  34.378  35.267  1.00  0.00     0.029 A 
ATOM     57  C   UNL A   1      39.005  33.384  35.285  1.00  0.00     0.049 A 
ATOM     58  H   UNL A   1      39.515  31.995  33.782  1.00  0.00     0.167 HD
ATOM     59  C   UNL A   1      40.864  32.078  36.272  1.00  0.00     0.074 A 
ATOM     60  C   UNL A   1      41.800  31.778  37.333  1.00  0.00     0.031 C 
ATOM     61  C   UNL A   1      39.926  33.053  36.341  1.00  0.00     0.031 A 
BRANCH  48  62
ATOM     62  C   UNL A   1      36.450  33.577  31.265  1.00  0.00    -0.014 A 
ATOM     63  C   UNL A   1      35.184  33.690  31.866  1.00  0.00     0.010 A 
ATOM     64  C   UNL A   1      36.677  34.191  30.020  1.00  0.00     0.010 A 
ATOM     65  C   UNL A   1      34.158  34.387  31.223  1.00  0.00     0.020 A 
ATOM     66  C   UNL A   1      35.660  34.909  29.385  1.00  0.00     0.020 A 
ATOM     67  C   UNL A   1      34.403  34.993  29.987  1.00  0.00     0.054 A 
BRANCH  67  68
ATOM     68  S   UNL A   1      33.066  35.931  29.197  1.00  0.00     0.124 S 
ATOM     69  O   UNL A   1      33.807  36.796  28.282  1.00  0.00    -0.237 OA
ATOM     70  O   UNL A   1      32.269  34.883  28.565  1.00  0.00    -0.237 OA
ATOM     71  O   UNL A   1      32.418  36.617  30.312  1.00  0.00    -0.744 OA
ENDBRANCH  67  68
ENDBRANCH  48  62
BRANCH  49  72
ATOM     72  C   UNL A   1      43.943  28.585  35.597  1.00  0.00    -0.014 A 
ATOM     73  C   UNL A   1      43.724  27.561  36.535  1.00  0.00     0.010 A 
ATOM     74  C   UNL A   1      45.264  28.969  35.302  1.00  0.00     0.010 A 
ATOM     75  C   UNL A   1      44.801  26.959  37.193  1.00  0.00     0.020 A 
ATOM     76  C   UNL A   1      46.345  28.350  35.935  1.00  0.00     0.020 A 
ATOM     77  C   UNL A   1      46.106  27.363  36.892  1.00  0.00     0.054 A 
BRANCH  77  78
ATOM     78  S   UNL A   1      47.493  26.562  37.744  1.00  0.00     0.124 S 
ATOM     79  O   UNL A   1      48.561  26.675  36.755  1.00  0.00    -0.237 OA
ATOM     80  O   UNL A   1      47.647  27.385  38.942  1.00  0.00    -0.237 OA
ATOM     81  O   UNL A   1      47.004  25.207  37.989  1.00  0.00    -0.744 OA
ENDBRANCH  77  78
ENDBRANCH  49  72
BRANCH  61  82
ATOM     82  C   UNL A   1      39.810  33.827  37.627  1.00  0.00    -0.014 A 
ATOM     83  C   UNL A   1      40.380  35.103  37.770  1.00  0.00     0.010 A 
ATOM     84  C   UNL A   1      39.041  33.297  38.681  1.00  0.00     0.010 A 
ATOM     85  C   UNL A   1      40.202  35.826  38.953  1.00  0.00     0.020 A 
ATOM     86  C   UNL A   1      38.840  34.027  39.854  1.00  0.00     0.020 A 
ATOM     87  C   UNL A   1      39.430  35.284  39.987  1.00  0.00     0.054 A 
BRANCH  87  88
ATOM     88  S   UNL A   1      39.160  36.269  41.486  1.00  0.00     0.124 S 
ATOM     89  O   UNL A   1      40.360  35.974  42.264  1.00  0.00    -0.237 OA
ATOM     90  O   UNL A   1      39.068  37.630  40.963  1.00  0.00    -0.237 OA
ATOM     91  O   UNL A   1      37.916  35.733  42.033  1.00  0.00    -0.744 OA
ENDBRANCH  87  88
ENDBRANCH  61  82
ENDBRANCH  35  36
ENDBRANCH  28  30
ENDBRANCH  27  28
ENDBRANCH  26  27
ENDBRANCH   1  26
TORSDOF 21
ENDMDL
