MODEL 1
REMARK VINA RESULT:     -10.3      0.000      0.000
REMARK SMILES C[C@@H](C(=O)OCCOCCOC(=O)c1ccc(-c2c3nc(c(-c4ccc(S(=O)(=O)[O-])cc4)c4ccc([nH]4)c(-c4ccc(S(=O)(=O)[O-])cc4)c4nc(c(-c5ccc(S(=O)(=O)[O-])cc5)c5ccc2[nH]5)C=C4)C=C3)cc1)c1ccc(O[C@H]2CCCC2=O)cc1F
REMARK SMILES IDX 8 1 7 2 6 3 5 4 3 5 4 6 2 7 1 8 74 9 75 10 86 11 76 12 85 13
REMARK SMILES IDX 87 14 77 15 78 16 79 17 80 18 83 19 81 20 82 21 84 22 9 23
REMARK SMILES IDX 10 24 11 25 12 26 13 27 14 28 15 29 73 30 16 31 72 32 17 33
REMARK SMILES IDX 18 34 19 35 66 36 20 37 71 38 65 39 67 40 21 41 70 42 64 43
REMARK SMILES IDX 63 44 22 46 52 47 33 48 51 49 34 50 37 51 50 52 68 53 35 54
REMARK SMILES IDX 36 55 49 57 69 58 38 59 23 60 24 61 32 62 25 63 31 64 26 65
REMARK SMILES IDX 27 66 28 67 29 68 30 69 53 70 54 71 62 72 55 73 61 74 56 75
REMARK SMILES IDX 57 76 58 77 59 78 60 79 39 80 40 81 48 82 41 83 47 84 42 85
REMARK SMILES IDX 43 86 44 87 45 88 46 89
REMARK H PARENT 67 45 37 56
REMARK Flexibility Score: inf
ROOT
ATOM      1  O   UNL A   1      38.323  21.849  26.134  1.00  0.00    -0.374 OA
ENDROOT
BRANCH   1   2
ATOM      2  C   UNL A   1      37.603  21.905  24.903  1.00  0.00     0.202 C 
BRANCH   2   3
ATOM      3  C   UNL A   1      36.901  23.228  24.585  1.00  0.00     0.261 C 
BRANCH   3   4
ATOM      4  O   UNL A   1      35.495  23.031  24.362  1.00  0.00    -0.463 OA
BRANCH   4   5
ATOM      5  C   UNL A   1      34.666  23.887  25.020  1.00  0.00     0.313 C 
ATOM      6  O   UNL A   1      35.057  24.858  25.659  1.00  0.00    -0.252 OA
BRANCH   5   7
ATOM      7  C   UNL A   1      33.176  23.531  24.857  1.00  0.00     0.129 C 
ATOM      8  C   UNL A   1      32.296  24.206  25.919  1.00  0.00     0.025 C 
BRANCH   7   9
ATOM      9  C   UNL A   1      32.954  22.026  24.652  1.00  0.00     0.002 A 
ATOM     10  C   UNL A   1      32.513  21.563  23.401  1.00  0.00     0.011 A 
ATOM     11  C   UNL A   1      33.100  21.056  25.652  1.00  0.00     0.130 A 
ATOM     12  C   UNL A   1      32.263  20.206  23.168  1.00  0.00     0.047 A 
ATOM     13  C   UNL A   1      32.825  19.696  25.430  1.00  0.00     0.086 A 
ATOM     14  F   UNL A   1      33.509  21.391  26.883  1.00  0.00    -0.207 F 
ATOM     15  C   UNL A   1      32.407  19.261  24.182  1.00  0.00     0.123 A 
BRANCH  15  16
ATOM     16  O   UNL A   1      32.110  17.992  23.793  1.00  0.00    -0.483 OA
BRANCH  16  17
ATOM     17  C   UNL A   1      33.018  16.928  23.901  1.00  0.00     0.239 C 
ATOM     18  C   UNL A   1      34.477  17.324  23.633  1.00  0.00     0.054 C 
ATOM     19  C   UNL A   1      33.110  15.982  25.095  1.00  0.00     0.173 C 
ATOM     20  C   UNL A   1      35.314  16.746  24.772  1.00  0.00     0.012 C 
ATOM     21  C   UNL A   1      34.533  15.577  25.356  1.00  0.00     0.080 C 
ATOM     22  O   UNL A   1      32.155  15.539  25.719  1.00  0.00    -0.296 OA
ENDBRANCH  16  17
ENDBRANCH  15  16
ENDBRANCH   7   9
ENDBRANCH   5   7
ENDBRANCH   4   5
ENDBRANCH   3   4
ENDBRANCH   2   3
ENDBRANCH   1   2
BRANCH   1  23
ATOM     23  C   UNL A   1      39.676  22.313  26.131  1.00  0.00     0.202 C 
BRANCH  23  24
ATOM     24  C   UNL A   1      40.039  23.410  27.140  1.00  0.00     0.261 C 
BRANCH  24  25
ATOM     25  O   UNL A   1      39.336  24.645  26.901  1.00  0.00    -0.460 OA
BRANCH  25  26
ATOM     26  C   UNL A   1      40.130  25.738  26.797  1.00  0.00     0.338 C 
ATOM     27  O   UNL A   1      40.864  26.029  25.861  1.00  0.00    -0.246 OA
BRANCH  26  28
ATOM     28  C   UNL A   1      39.870  26.674  27.907  1.00  0.00     0.060 A 
ATOM     29  C   UNL A   1      40.512  27.919  27.866  1.00  0.00     0.016 A 
ATOM     30  C   UNL A   1      39.096  26.312  29.011  1.00  0.00     0.016 A 
ATOM     31  C   UNL A   1      40.423  28.788  28.951  1.00  0.00     0.010 A 
ATOM     32  C   UNL A   1      39.016  27.184  30.105  1.00  0.00     0.010 A 
ATOM     33  C   UNL A   1      39.708  28.409  30.095  1.00  0.00    -0.014 A 
BRANCH  33  34
ATOM     34  C   UNL A   1      39.814  29.232  31.327  1.00  0.00     0.031 A 
ATOM     35  C   UNL A   1      40.955  28.981  32.277  1.00  0.00     0.074 A 
ATOM     36  C   UNL A   1      38.935  30.219  31.576  1.00  0.00     0.049 A 
ATOM     37  N   UNL A   1      41.237  29.578  33.407  1.00  0.00    -0.248 NA
ATOM     38  C   UNL A   1      41.904  27.920  31.902  1.00  0.00     0.031 C 
ATOM     39  C   UNL A   1      37.815  30.591  30.712  1.00  0.00     0.029 A 
ATOM     40  N   UNL A   1      38.849  31.090  32.633  1.00  0.00    -0.354 N 
ATOM     41  C   UNL A   1      42.393  28.965  33.879  1.00  0.00     0.074 A 
ATOM     42  C   UNL A   1      42.743  27.932  32.929  1.00  0.00     0.031 C 
ATOM     43  C   UNL A   1      37.147  31.610  31.281  1.00  0.00     0.029 A 
ATOM     44  C   UNL A   1      37.775  31.943  32.558  1.00  0.00     0.049 A 
ATOM     45  H   UNL A   1      39.497  31.101  33.375  1.00  0.00     0.167 HD
ATOM     46  C   UNL A   1      43.104  29.242  34.999  1.00  0.00     0.031 A 
ATOM     47  C   UNL A   1      37.337  32.875  33.428  1.00  0.00     0.031 A 
ATOM     48  C   UNL A   1      42.747  30.258  35.953  1.00  0.00     0.049 A 
ATOM     49  C   UNL A   1      38.102  33.117  34.703  1.00  0.00     0.074 A 
ATOM     50  C   UNL A   1      43.406  30.614  37.118  1.00  0.00     0.029 A 
ATOM     51  N   UNL A   1      41.631  31.075  35.860  1.00  0.00    -0.354 N 
ATOM     52  N   UNL A   1      39.202  32.540  35.125  1.00  0.00    -0.248 NA
ATOM     53  C   UNL A   1      37.570  34.140  35.613  1.00  0.00     0.031 C 
ATOM     54  C   UNL A   1      42.660  31.614  37.752  1.00  0.00     0.029 A 
ATOM     55  C   UNL A   1      41.569  31.919  36.955  1.00  0.00     0.049 A 
ATOM     56  H   UNL A   1      40.979  31.058  35.122  1.00  0.00     0.167 HD
ATOM     57  C   UNL A   1      39.507  33.148  36.339  1.00  0.00     0.074 A 
ATOM     58  C   UNL A   1      38.482  34.145  36.576  1.00  0.00     0.031 C 
ATOM     59  C   UNL A   1      40.543  32.905  37.180  1.00  0.00     0.031 A 
BRANCH  46  60
ATOM     60  C   UNL A   1      44.326  28.407  35.266  1.00  0.00    -0.014 A 
ATOM     61  C   UNL A   1      45.595  28.807  34.808  1.00  0.00     0.010 A 
ATOM     62  C   UNL A   1      44.211  27.219  36.010  1.00  0.00     0.010 A 
ATOM     63  C   UNL A   1      46.719  28.015  35.056  1.00  0.00     0.020 A 
ATOM     64  C   UNL A   1      45.336  26.436  36.282  1.00  0.00     0.020 A 
ATOM     65  C   UNL A   1      46.581  26.830  35.787  1.00  0.00     0.054 A 
BRANCH  65  66
ATOM     66  S   UNL A   1      48.058  25.827  36.107  1.00  0.00     0.124 S 
ATOM     67  O   UNL A   1      48.544  26.399  37.360  1.00  0.00    -0.237 OA
ATOM     68  O   UNL A   1      47.515  24.474  36.205  1.00  0.00    -0.237 OA
ATOM     69  O   UNL A   1      48.903  26.072  34.941  1.00  0.00    -0.744 OA
ENDBRANCH  65  66
ENDBRANCH  46  60
BRANCH  47  70
ATOM     70  C   UNL A   1      36.092  33.635  33.133  1.00  0.00    -0.014 A 
ATOM     71  C   UNL A   1      34.828  33.065  33.357  1.00  0.00     0.010 A 
ATOM     72  C   UNL A   1      36.172  34.946  32.626  1.00  0.00     0.010 A 
ATOM     73  C   UNL A   1      33.665  33.786  33.068  1.00  0.00     0.020 A 
ATOM     74  C   UNL A   1      35.012  35.679  32.361  1.00  0.00     0.020 A 
ATOM     75  C   UNL A   1      33.765  35.089  32.574  1.00  0.00     0.054 A 
BRANCH  75  76
ATOM     76  S   UNL A   1      32.245  36.030  32.262  1.00  0.00     0.124 S 
ATOM     77  O   UNL A   1      31.211  35.047  32.569  1.00  0.00    -0.237 OA
ATOM     78  O   UNL A   1      32.361  37.142  33.202  1.00  0.00    -0.237 OA
ATOM     79  O   UNL A   1      32.357  36.402  30.853  1.00  0.00    -0.744 OA
ENDBRANCH  75  76
ENDBRANCH  47  70
BRANCH  59  80
ATOM     80  C   UNL A   1      40.643  33.749  38.423  1.00  0.00    -0.014 A 
ATOM     81  C   UNL A   1      41.188  35.043  38.384  1.00  0.00     0.010 A 
ATOM     82  C   UNL A   1      40.128  33.257  39.638  1.00  0.00     0.010 A 
ATOM     83  C   UNL A   1      41.245  35.821  39.545  1.00  0.00     0.020 A 
ATOM     84  C   UNL A   1      40.161  34.042  40.794  1.00  0.00     0.020 A 
ATOM     85  C   UNL A   1      40.731  35.315  40.743  1.00  0.00     0.054 A 
BRANCH  85  86
ATOM     86  S   UNL A   1      40.775  36.360  42.225  1.00  0.00     0.124 S 
ATOM     87  O   UNL A   1      40.628  35.376  43.294  1.00  0.00    -0.237 OA
ATOM     88  O   UNL A   1      42.087  36.996  42.133  1.00  0.00    -0.237 OA
ATOM     89  O   UNL A   1      39.640  37.261  42.048  1.00  0.00    -0.744 OA
ENDBRANCH  85  86
ENDBRANCH  59  80
ENDBRANCH  33  34
ENDBRANCH  26  28
ENDBRANCH  25  26
ENDBRANCH  24  25
ENDBRANCH  23  24
ENDBRANCH   1  23
TORSDOF 20
ENDMDL
MODEL 2
REMARK VINA RESULT:     -10.3      6.689     11.553
REMARK SMILES C[C@@H](C(=O)OCCOCCOC(=O)c1ccc(-c2c3nc(c(-c4ccc(S(=O)(=O)[O-])cc4)c4ccc([nH]4)c(-c4ccc(S(=O)(=O)[O-])cc4)c4nc(c(-c5ccc(S(=O)(=O)[O-])cc5)c5ccc2[nH]5)C=C4)C=C3)cc1)c1ccc(O[C@H]2CCCC2=O)cc1F
REMARK SMILES IDX 8 1 7 2 6 3 5 4 3 5 4 6 2 7 1 8 74 9 75 10 86 11 76 12 85 13
REMARK SMILES IDX 87 14 77 15 78 16 79 17 80 18 83 19 81 20 82 21 84 22 9 23
REMARK SMILES IDX 10 24 11 25 12 26 13 27 14 28 15 29 73 30 16 31 72 32 17 33
REMARK SMILES IDX 18 34 19 35 66 36 20 37 71 38 65 39 67 40 21 41 70 42 64 43
REMARK SMILES IDX 63 44 22 46 52 47 33 48 51 49 34 50 37 51 50 52 68 53 35 54
REMARK SMILES IDX 36 55 49 57 69 58 38 59 23 60 24 61 32 62 25 63 31 64 26 65
REMARK SMILES IDX 27 66 28 67 29 68 30 69 53 70 54 71 62 72 55 73 61 74 56 75
REMARK SMILES IDX 57 76 58 77 59 78 60 79 39 80 40 81 48 82 41 83 47 84 42 85
REMARK SMILES IDX 43 86 44 87 45 88 46 89
REMARK H PARENT 67 45 37 56
REMARK Flexibility Score: inf
ROOT
ATOM      1  O   UNL A   1      39.360  22.355  26.366  1.00  0.00    -0.374 OA
ENDROOT
BRANCH   1   2
ATOM      2  C   UNL A   1      38.562  23.531  26.502  1.00  0.00     0.202 C 
BRANCH   2   3
ATOM      3  C   UNL A   1      37.080  23.393  26.142  1.00  0.00     0.261 C 
BRANCH   3   4
ATOM      4  O   UNL A   1      36.739  24.212  25.013  1.00  0.00    -0.463 OA
BRANCH   4   5
ATOM      5  C   UNL A   1      36.250  23.551  23.928  1.00  0.00     0.313 C 
ATOM      6  O   UNL A   1      36.922  22.806  23.224  1.00  0.00    -0.252 OA
BRANCH   5   7
ATOM      7  C   UNL A   1      34.750  23.809  23.689  1.00  0.00     0.129 C 
ATOM      8  C   UNL A   1      34.258  25.085  24.390  1.00  0.00     0.025 C 
BRANCH   7   9
ATOM      9  C   UNL A   1      33.899  22.550  23.904  1.00  0.00     0.002 A 
ATOM     10  C   UNL A   1      34.175  21.714  25.000  1.00  0.00     0.011 A 
ATOM     11  C   UNL A   1      32.881  22.120  23.043  1.00  0.00     0.130 A 
ATOM     12  C   UNL A   1      33.452  20.538  25.225  1.00  0.00     0.047 A 
ATOM     13  C   UNL A   1      32.171  20.926  23.250  1.00  0.00     0.086 A 
ATOM     14  F   UNL A   1      32.542  22.839  21.964  1.00  0.00    -0.207 F 
ATOM     15  C   UNL A   1      32.450  20.127  24.348  1.00  0.00     0.123 A 
BRANCH  15  16
ATOM     16  O   UNL A   1      31.859  18.955  24.704  1.00  0.00    -0.483 OA
BRANCH  16  17
ATOM     17  C   UNL A   1      32.294  17.707  24.234  1.00  0.00     0.239 C 
ATOM     18  C   UNL A   1      32.859  17.741  22.807  1.00  0.00     0.054 C 
ATOM     19  C   UNL A   1      33.250  16.782  24.984  1.00  0.00     0.173 C 
ATOM     20  C   UNL A   1      34.192  16.994  22.836  1.00  0.00     0.012 C 
ATOM     21  C   UNL A   1      34.155  16.053  24.032  1.00  0.00     0.080 C 
ATOM     22  O   UNL A   1      33.240  16.587  26.192  1.00  0.00    -0.296 OA
ENDBRANCH  16  17
ENDBRANCH  15  16
ENDBRANCH   7   9
ENDBRANCH   5   7
ENDBRANCH   4   5
ENDBRANCH   3   4
ENDBRANCH   2   3
ENDBRANCH   1   2
BRANCH   1  23
ATOM     23  C   UNL A   1      38.794  21.249  25.658  1.00  0.00     0.202 C 
BRANCH  23  24
ATOM     24  C   UNL A   1      39.489  19.890  25.816  1.00  0.00     0.261 C 
BRANCH  24  25
ATOM     25  O   UNL A   1      40.560  19.918  26.779  1.00  0.00    -0.460 OA
BRANCH  25  26
ATOM     26  C   UNL A   1      41.795  19.713  26.259  1.00  0.00     0.338 C 
ATOM     27  O   UNL A   1      42.161  18.757  25.588  1.00  0.00    -0.246 OA
BRANCH  26  28
ATOM     28  C   UNL A   1      42.641  20.906  26.447  1.00  0.00     0.060 A 
ATOM     29  C   UNL A   1      42.678  21.477  27.726  1.00  0.00     0.016 A 
ATOM     30  C   UNL A   1      43.307  21.514  25.380  1.00  0.00     0.016 A 
ATOM     31  C   UNL A   1      43.340  22.685  27.935  1.00  0.00     0.010 A 
ATOM     32  C   UNL A   1      43.965  22.733  25.591  1.00  0.00     0.010 A 
ATOM     33  C   UNL A   1      43.953  23.342  26.859  1.00  0.00    -0.014 A 
BRANCH  33  34
ATOM     34  C   UNL A   1      44.448  24.730  27.041  1.00  0.00     0.031 A 
ATOM     35  C   UNL A   1      43.476  25.804  27.452  1.00  0.00     0.074 A 
ATOM     36  C   UNL A   1      45.751  25.024  26.885  1.00  0.00     0.049 A 
ATOM     37  N   UNL A   1      43.691  27.077  27.663  1.00  0.00    -0.248 NA
ATOM     38  C   UNL A   1      42.079  25.386  27.655  1.00  0.00     0.031 C 
ATOM     39  C   UNL A   1      46.799  24.066  26.534  1.00  0.00     0.029 A 
ATOM     40  N   UNL A   1      46.414  26.220  27.005  1.00  0.00    -0.354 N 
ATOM     41  C   UNL A   1      42.459  27.614  28.021  1.00  0.00     0.074 A 
ATOM     42  C   UNL A   1      41.496  26.535  27.970  1.00  0.00     0.031 C 
ATOM     43  C   UNL A   1      47.974  24.715  26.457  1.00  0.00     0.029 A 
ATOM     44  C   UNL A   1      47.757  26.136  26.726  1.00  0.00     0.049 A 
ATOM     45  H   UNL A   1      45.970  27.059  27.266  1.00  0.00     0.167 HD
ATOM     46  C   UNL A   1      42.156  28.888  28.368  1.00  0.00     0.031 A 
ATOM     47  C   UNL A   1      48.702  27.096  26.676  1.00  0.00     0.031 A 
ATOM     48  C   UNL A   1      43.109  29.965  28.403  1.00  0.00     0.049 A 
ATOM     49  C   UNL A   1      48.328  28.520  26.995  1.00  0.00     0.074 A 
ATOM     50  C   UNL A   1      42.898  31.291  28.744  1.00  0.00     0.029 A 
ATOM     51  N   UNL A   1      44.451  29.846  28.077  1.00  0.00    -0.354 N 
ATOM     52  N   UNL A   1      47.162  29.006  27.349  1.00  0.00    -0.248 NA
ATOM     53  C   UNL A   1      49.400  29.522  26.917  1.00  0.00     0.031 C 
ATOM     54  C   UNL A   1      44.103  31.981  28.577  1.00  0.00     0.029 A 
ATOM     55  C   UNL A   1      45.076  31.076  28.187  1.00  0.00     0.049 A 
ATOM     56  H   UNL A   1      44.894  29.009  27.808  1.00  0.00     0.167 HD
ATOM     57  C   UNL A   1      47.367  30.367  27.558  1.00  0.00     0.074 A 
ATOM     58  C   UNL A   1      48.770  30.622  27.304  1.00  0.00     0.031 C 
ATOM     59  C   UNL A   1      46.473  31.317  27.929  1.00  0.00     0.031 A 
BRANCH  46  60
ATOM     60  C   UNL A   1      40.722  29.190  28.709  1.00  0.00    -0.014 A 
ATOM     61  C   UNL A   1      40.310  29.350  30.045  1.00  0.00     0.010 A 
ATOM     62  C   UNL A   1      39.777  29.343  27.679  1.00  0.00     0.010 A 
ATOM     63  C   UNL A   1      38.972  29.620  30.346  1.00  0.00     0.020 A 
ATOM     64  C   UNL A   1      38.443  29.639  27.973  1.00  0.00     0.020 A 
ATOM     65  C   UNL A   1      38.045  29.757  29.306  1.00  0.00     0.054 A 
BRANCH  65  66
ATOM     66  S   UNL A   1      36.318  30.121  29.723  1.00  0.00     0.124 S 
ATOM     67  O   UNL A   1      35.608  29.565  28.574  1.00  0.00    -0.237 OA
ATOM     68  O   UNL A   1      36.132  29.405  30.982  1.00  0.00    -0.237 OA
ATOM     69  O   UNL A   1      36.287  31.578  29.828  1.00  0.00    -0.744 OA
ENDBRANCH  65  66
ENDBRANCH  46  60
BRANCH  47  70
ATOM     70  C   UNL A   1      50.094  26.745  26.284  1.00  0.00    -0.014 A 
ATOM     71  C   UNL A   1      50.493  26.778  24.937  1.00  0.00     0.010 A 
ATOM     72  C   UNL A   1      51.031  26.377  27.267  1.00  0.00     0.010 A 
ATOM     73  C   UNL A   1      51.802  26.439  24.579  1.00  0.00     0.020 A 
ATOM     74  C   UNL A   1      52.346  26.063  26.916  1.00  0.00     0.020 A 
ATOM     75  C   UNL A   1      52.721  26.086  25.571  1.00  0.00     0.054 A 
BRANCH  75  76
ATOM     76  S   UNL A   1      54.429  25.705  25.092  1.00  0.00     0.124 S 
ATOM     77  O   UNL A   1      54.502  26.273  23.751  1.00  0.00    -0.237 OA
ATOM     78  O   UNL A   1      55.207  26.398  26.117  1.00  0.00    -0.237 OA
ATOM     79  O   UNL A   1      54.486  24.247  25.160  1.00  0.00    -0.744 OA
ENDBRANCH  75  76
ENDBRANCH  47  70
BRANCH  59  80
ATOM     80  C   UNL A   1      46.987  32.721  28.114  1.00  0.00    -0.014 A 
ATOM     81  C   UNL A   1      46.898  33.672  27.084  1.00  0.00     0.010 A 
ATOM     82  C   UNL A   1      47.516  33.107  29.361  1.00  0.00     0.010 A 
ATOM     83  C   UNL A   1      47.354  34.978  27.287  1.00  0.00     0.020 A 
ATOM     84  C   UNL A   1      47.950  34.418  29.575  1.00  0.00     0.020 A 
ATOM     85  C   UNL A   1      47.878  35.342  28.531  1.00  0.00     0.054 A 
BRANCH  85  86
ATOM     86  S   UNL A   1      48.424  37.054  28.785  1.00  0.00     0.124 S 
ATOM     87  O   UNL A   1      47.551  37.493  29.870  1.00  0.00    -0.237 OA
ATOM     88  O   UNL A   1      49.832  36.895  29.136  1.00  0.00    -0.237 OA
ATOM     89  O   UNL A   1      48.179  37.691  27.492  1.00  0.00    -0.744 OA
ENDBRANCH  85  86
ENDBRANCH  59  80
ENDBRANCH  33  34
ENDBRANCH  26  28
ENDBRANCH  25  26
ENDBRANCH  24  25
ENDBRANCH  23  24
ENDBRANCH   1  23
TORSDOF 20
ENDMDL
MODEL 3
REMARK VINA RESULT:     -10.2      7.570     13.409
REMARK SMILES C[C@@H](C(=O)OCCOCCOC(=O)c1ccc(-c2c3nc(c(-c4ccc(S(=O)(=O)[O-])cc4)c4ccc([nH]4)c(-c4ccc(S(=O)(=O)[O-])cc4)c4nc(c(-c5ccc(S(=O)(=O)[O-])cc5)c5ccc2[nH]5)C=C4)C=C3)cc1)c1ccc(O[C@H]2CCCC2=O)cc1F
REMARK SMILES IDX 8 1 7 2 6 3 5 4 3 5 4 6 2 7 1 8 74 9 75 10 86 11 76 12 85 13
REMARK SMILES IDX 87 14 77 15 78 16 79 17 80 18 83 19 81 20 82 21 84 22 9 23
REMARK SMILES IDX 10 24 11 25 12 26 13 27 14 28 15 29 73 30 16 31 72 32 17 33
REMARK SMILES IDX 18 34 19 35 66 36 20 37 71 38 65 39 67 40 21 41 70 42 64 43
REMARK SMILES IDX 63 44 22 46 52 47 33 48 51 49 34 50 37 51 50 52 68 53 35 54
REMARK SMILES IDX 36 55 49 57 69 58 38 59 23 60 24 61 32 62 25 63 31 64 26 65
REMARK SMILES IDX 27 66 28 67 29 68 30 69 53 70 54 71 62 72 55 73 61 74 56 75
REMARK SMILES IDX 57 76 58 77 59 78 60 79 39 80 40 81 48 82 41 83 47 84 42 85
REMARK SMILES IDX 43 86 44 87 45 88 46 89
REMARK H PARENT 67 45 37 56
REMARK Flexibility Score: inf
ROOT
ATOM      1  O   UNL A   1      34.564  31.995  27.654  1.00  0.00    -0.374 OA
ENDROOT
BRANCH   1   2
ATOM      2  C   UNL A   1      34.228  30.803  26.944  1.00  0.00     0.202 C 
BRANCH   2   3
ATOM      3  C   UNL A   1      33.136  29.926  27.563  1.00  0.00     0.261 C 
BRANCH   3   4
ATOM      4  O   UNL A   1      33.348  28.539  27.260  1.00  0.00    -0.463 OA
BRANCH   4   5
ATOM      5  C   UNL A   1      32.223  27.782  27.134  1.00  0.00     0.313 C 
ATOM      6  O   UNL A   1      31.326  27.751  27.970  1.00  0.00    -0.252 OA
BRANCH   5   7
ATOM      7  C   UNL A   1      32.173  26.989  25.815  1.00  0.00     0.129 C 
ATOM      8  C   UNL A   1      33.569  26.570  25.332  1.00  0.00     0.025 C 
BRANCH   7   9
ATOM      9  C   UNL A   1      31.267  27.652  24.768  1.00  0.00     0.002 A 
ATOM     10  C   UNL A   1      30.061  27.025  24.409  1.00  0.00     0.011 A 
ATOM     11  C   UNL A   1      31.577  28.831  24.078  1.00  0.00     0.130 A 
ATOM     12  C   UNL A   1      29.214  27.569  23.437  1.00  0.00     0.047 A 
ATOM     13  C   UNL A   1      30.742  29.366  23.084  1.00  0.00     0.086 A 
ATOM     14  F   UNL A   1      32.706  29.505  24.340  1.00  0.00    -0.207 F 
ATOM     15  C   UNL A   1      29.549  28.738  22.759  1.00  0.00     0.123 A 
BRANCH  15  16
ATOM     16  O   UNL A   1      28.625  29.121  21.837  1.00  0.00    -0.483 OA
BRANCH  16  17
ATOM     17  C   UNL A   1      27.918  30.329  21.922  1.00  0.00     0.239 C 
ATOM     18  C   UNL A   1      27.795  30.881  23.349  1.00  0.00     0.054 C 
ATOM     19  C   UNL A   1      28.207  31.566  21.076  1.00  0.00     0.173 C 
ATOM     20  C   UNL A   1      28.189  32.355  23.294  1.00  0.00     0.012 C 
ATOM     21  C   UNL A   1      27.976  32.825  21.862  1.00  0.00     0.080 C 
ATOM     22  O   UNL A   1      28.509  31.554  19.890  1.00  0.00    -0.296 OA
ENDBRANCH  16  17
ENDBRANCH  15  16
ENDBRANCH   7   9
ENDBRANCH   5   7
ENDBRANCH   4   5
ENDBRANCH   3   4
ENDBRANCH   2   3
ENDBRANCH   1   2
BRANCH   1  23
ATOM     23  C   UNL A   1      34.663  31.911  29.078  1.00  0.00     0.202 C 
BRANCH  23  24
ATOM     24  C   UNL A   1      36.007  31.449  29.658  1.00  0.00     0.261 C 
BRANCH  24  25
ATOM     25  O   UNL A   1      36.361  30.112  29.253  1.00  0.00    -0.460 OA
BRANCH  25  26
ATOM     26  C   UNL A   1      37.100  29.424  30.157  1.00  0.00     0.338 C 
ATOM     27  O   UNL A   1      36.745  29.050  31.267  1.00  0.00    -0.246 OA
BRANCH  26  28
ATOM     28  C   UNL A   1      38.381  28.999  29.561  1.00  0.00     0.060 A 
ATOM     29  C   UNL A   1      39.319  28.396  30.410  1.00  0.00     0.016 A 
ATOM     30  C   UNL A   1      38.701  29.269  28.229  1.00  0.00     0.016 A 
ATOM     31  C   UNL A   1      40.599  28.104  29.943  1.00  0.00     0.010 A 
ATOM     32  C   UNL A   1      39.992  28.983  27.765  1.00  0.00     0.010 A 
ATOM     33  C   UNL A   1      40.957  28.435  28.630  1.00  0.00    -0.014 A 
BRANCH  33  34
ATOM     34  C   UNL A   1      42.380  28.338  28.217  1.00  0.00     0.031 A 
ATOM     35  C   UNL A   1      43.286  29.520  28.438  1.00  0.00     0.074 A 
ATOM     36  C   UNL A   1      42.872  27.201  27.693  1.00  0.00     0.049 A 
ATOM     37  N   UNL A   1      44.556  29.654  28.152  1.00  0.00    -0.248 NA
ATOM     38  C   UNL A   1      42.682  30.706  29.067  1.00  0.00     0.031 C 
ATOM     39  C   UNL A   1      42.109  25.973  27.471  1.00  0.00     0.029 A 
ATOM     40  N   UNL A   1      44.136  26.897  27.253  1.00  0.00    -0.354 N 
ATOM     41  C   UNL A   1      44.903  30.936  28.563  1.00  0.00     0.074 A 
ATOM     42  C   UNL A   1      43.704  31.550  29.091  1.00  0.00     0.031 C 
ATOM     43  C   UNL A   1      42.920  25.050  26.926  1.00  0.00     0.029 A 
ATOM     44  C   UNL A   1      44.249  25.629  26.736  1.00  0.00     0.049 A 
ATOM     45  H   UNL A   1      44.890  27.528  27.303  1.00  0.00     0.167 HD
ATOM     46  C   UNL A   1      46.111  31.547  28.513  1.00  0.00     0.031 A 
ATOM     47  C   UNL A   1      45.299  25.010  26.160  1.00  0.00     0.031 A 
ATOM     48  C   UNL A   1      47.300  30.944  27.973  1.00  0.00     0.049 A 
ATOM     49  C   UNL A   1      46.616  25.734  26.049  1.00  0.00     0.074 A 
ATOM     50  C   UNL A   1      48.573  31.482  27.880  1.00  0.00     0.029 A 
ATOM     51  N   UNL A   1      47.364  29.672  27.425  1.00  0.00    -0.354 N 
ATOM     52  N   UNL A   1      46.930  26.940  26.459  1.00  0.00    -0.248 NA
ATOM     53  C   UNL A   1      47.720  25.009  25.405  1.00  0.00     0.031 C 
ATOM     54  C   UNL A   1      49.394  30.553  27.232  1.00  0.00     0.029 A 
ATOM     55  C   UNL A   1      48.647  29.415  26.973  1.00  0.00     0.049 A 
ATOM     56  H   UNL A   1      46.609  29.043  27.368  1.00  0.00     0.167 HD
ATOM     57  C   UNL A   1      48.275  27.109  26.143  1.00  0.00     0.074 A 
ATOM     58  C   UNL A   1      48.716  25.877  25.521  1.00  0.00     0.031 C 
ATOM     59  C   UNL A   1      49.072  28.186  26.353  1.00  0.00     0.031 A 
BRANCH  46  60
ATOM     60  C   UNL A   1      46.196  32.957  29.032  1.00  0.00    -0.014 A 
ATOM     61  C   UNL A   1      46.492  33.218  30.383  1.00  0.00     0.010 A 
ATOM     62  C   UNL A   1      46.006  34.037  28.152  1.00  0.00     0.010 A 
ATOM     63  C   UNL A   1      46.557  34.533  30.851  1.00  0.00     0.020 A 
ATOM     64  C   UNL A   1      46.096  35.354  28.611  1.00  0.00     0.020 A 
ATOM     65  C   UNL A   1      46.353  35.593  29.962  1.00  0.00     0.054 A 
BRANCH  65  66
ATOM     66  S   UNL A   1      46.457  37.290  30.593  1.00  0.00     0.124 S 
ATOM     67  O   UNL A   1      45.353  37.940  29.892  1.00  0.00    -0.237 OA
ATOM     68  O   UNL A   1      46.269  37.113  32.031  1.00  0.00    -0.237 OA
ATOM     69  O   UNL A   1      47.792  37.728  30.192  1.00  0.00    -0.744 OA
ENDBRANCH  65  66
ENDBRANCH  46  60
BRANCH  47  70
ATOM     70  C   UNL A   1      45.141  23.632  25.619  1.00  0.00    -0.014 A 
ATOM     71  C   UNL A   1      44.644  23.420  24.323  1.00  0.00     0.010 A 
ATOM     72  C   UNL A   1      45.495  22.522  26.408  1.00  0.00     0.010 A 
ATOM     73  C   UNL A   1      44.492  22.120  23.828  1.00  0.00     0.020 A 
ATOM     74  C   UNL A   1      45.370  21.224  25.908  1.00  0.00     0.020 A 
ATOM     75  C   UNL A   1      44.858  21.031  24.623  1.00  0.00     0.054 A 
BRANCH  75  76
ATOM     76  S   UNL A   1      44.708  19.356  23.942  1.00  0.00     0.124 S 
ATOM     77  O   UNL A   1      44.492  19.623  22.524  1.00  0.00    -0.237 OA
ATOM     78  O   UNL A   1      45.997  18.758  24.285  1.00  0.00    -0.237 OA
ATOM     79  O   UNL A   1      43.563  18.798  24.656  1.00  0.00    -0.744 OA
ENDBRANCH  75  76
ENDBRANCH  47  70
BRANCH  59  80
ATOM     80  C   UNL A   1      50.515  28.075  25.934  1.00  0.00    -0.014 A 
ATOM     81  C   UNL A   1      50.921  28.388  24.626  1.00  0.00     0.010 A 
ATOM     82  C   UNL A   1      51.487  27.707  26.884  1.00  0.00     0.010 A 
ATOM     83  C   UNL A   1      52.269  28.307  24.266  1.00  0.00     0.020 A 
ATOM     84  C   UNL A   1      52.838  27.649  26.535  1.00  0.00     0.020 A 
ATOM     85  C   UNL A   1      53.219  27.937  25.223  1.00  0.00     0.054 A 
BRANCH  85  86
ATOM     86  S   UNL A   1      54.969  27.882  24.744  1.00  0.00     0.124 S 
ATOM     87  O   UNL A   1      55.543  27.040  25.790  1.00  0.00    -0.237 OA
ATOM     88  O   UNL A   1      54.920  27.285  23.412  1.00  0.00    -0.237 OA
ATOM     89  O   UNL A   1      55.381  29.283  24.776  1.00  0.00    -0.744 OA
ENDBRANCH  85  86
ENDBRANCH  59  80
ENDBRANCH  33  34
ENDBRANCH  26  28
ENDBRANCH  25  26
ENDBRANCH  24  25
ENDBRANCH  23  24
ENDBRANCH   1  23
TORSDOF 20
ENDMDL
