MODEL 1
REMARK VINA RESULT:      -8.9      0.000      0.000
REMARK SMILES COc1ncccc1CS(=O)(=O)[C@@H](C)CC(=O)OCCOCCOC(=O)c1ccc(-c2c3nc(c(-c4ccc(S(=O)(=O)[O-])cc4)c4ccc([nH]4)c(-c4ccc(S(=O)(=O)[O-])cc4)c4nc(c(-c5ccc(S(=O)(=O)[O-])cc5)c5ccc2[nH]5)C=C4)C=C3)cc1
REMARK SMILES IDX 20 1 19 2 18 3 16 4 17 5 15 6 13 7 14 8 10 9 11 10 12 11
REMARK SMILES IDX 9 12 8 13 3 14 4 15 5 16 7 17 6 18 2 19 1 20 21 21 22 22
REMARK SMILES IDX 23 23 24 24 25 25 26 26 27 27 28 28 86 29 29 30 85 31 30 32
REMARK SMILES IDX 31 33 32 34 79 35 33 36 84 37 78 38 80 39 34 40 83 41 77 42
REMARK SMILES IDX 76 43 35 45 65 46 46 47 64 48 47 49 50 50 63 51 81 52 48 53
REMARK SMILES IDX 49 54 62 56 82 57 51 58 36 59 37 60 45 61 38 62 44 63 39 64
REMARK SMILES IDX 40 65 41 66 42 67 43 68 66 69 67 70 75 71 68 72 74 73 69 74
REMARK SMILES IDX 70 75 71 76 72 77 73 78 52 79 53 80 61 81 54 82 60 83 55 84
REMARK SMILES IDX 56 85 57 86 58 87 59 88
REMARK H PARENT 80 44 50 55
REMARK Flexibility Score: inf
ROOT
ATOM      1  C   UNL A   1      34.708  30.712  27.319  1.00  0.00     0.202 C 
ENDROOT
BRANCH   1   2
ATOM      2  C   UNL A   1      34.026  29.417  26.877  1.00  0.00     0.261 C 
BRANCH   2   3
ATOM      3  O   UNL A   1      32.590  29.558  26.968  1.00  0.00    -0.463 OA
BRANCH   3   4
ATOM      4  C   UNL A   1      31.916  29.545  25.809  1.00  0.00     0.307 C 
ATOM      5  O   UNL A   1      31.338  30.510  25.319  1.00  0.00    -0.252 OA
BRANCH   4   6
ATOM      6  C   UNL A   1      31.885  28.203  25.113  1.00  0.00     0.142 C 
BRANCH   6   7
ATOM      7  C   UNL A   1      30.852  27.107  25.361  1.00  0.00     0.117 C 
ATOM      8  C   UNL A   1      31.014  26.627  26.812  1.00  0.00     0.025 C 
BRANCH   7   9
ATOM      9  S   UNL A   1      30.693  25.686  24.257  1.00  0.00     0.157 S 
ATOM     10  O   UNL A   1      29.411  25.810  23.595  1.00  0.00    -0.228 OA
ATOM     11  O   UNL A   1      30.876  24.516  25.108  1.00  0.00    -0.228 OA
BRANCH   9  12
ATOM     12  C   UNL A   1      32.017  25.558  23.035  1.00  0.00     0.178 C 
BRANCH  12  13
ATOM     13  C   UNL A   1      33.196  24.787  23.523  1.00  0.00     0.029 A 
ATOM     14  C   UNL A   1      33.649  23.619  22.913  1.00  0.00     0.217 A 
ATOM     15  N   UNL A   1      34.793  22.993  23.266  1.00  0.00    -0.222 NA
ATOM     16  C   UNL A   1      35.485  23.503  24.308  1.00  0.00     0.115 A 
ATOM     17  C   UNL A   1      33.876  25.209  24.672  1.00  0.00     0.012 A 
ATOM     18  C   UNL A   1      35.049  24.574  25.063  1.00  0.00     0.021 A 
BRANCH  14  19
ATOM     19  O   UNL A   1      32.767  22.852  22.197  1.00  0.00    -0.481 OA
ATOM     20  C   UNL A   1      32.490  21.593  22.785  1.00  0.00     0.280 C 
ENDBRANCH  14  19
ENDBRANCH  12  13
ENDBRANCH   9  12
ENDBRANCH   7   9
ENDBRANCH   6   7
ENDBRANCH   4   6
ENDBRANCH   3   4
ENDBRANCH   2   3
ENDBRANCH   1   2
BRANCH   1  21
ATOM     21  O   UNL A   1      34.038  31.418  28.367  1.00  0.00    -0.374 OA
BRANCH  21  22
ATOM     22  C   UNL A   1      34.506  32.736  28.644  1.00  0.00     0.202 C 
BRANCH  22  23
ATOM     23  C   UNL A   1      35.329  32.911  29.925  1.00  0.00     0.261 C 
BRANCH  23  24
ATOM     24  O   UNL A   1      35.862  31.667  30.404  1.00  0.00    -0.460 OA
BRANCH  24  25
ATOM     25  C   UNL A   1      36.994  31.779  31.134  1.00  0.00     0.338 C 
ATOM     26  O   UNL A   1      37.113  32.362  32.206  1.00  0.00    -0.246 OA
BRANCH  25  27
ATOM     27  C   UNL A   1      38.081  30.958  30.560  1.00  0.00     0.060 A 
ATOM     28  C   UNL A   1      39.049  30.470  31.448  1.00  0.00     0.016 A 
ATOM     29  C   UNL A   1      38.209  30.726  29.189  1.00  0.00     0.016 A 
ATOM     30  C   UNL A   1      40.188  29.831  30.964  1.00  0.00     0.010 A 
ATOM     31  C   UNL A   1      39.354  30.078  28.704  1.00  0.00     0.010 A 
ATOM     32  C   UNL A   1      40.375  29.674  29.585  1.00  0.00    -0.014 A 
BRANCH  32  33
ATOM     33  C   UNL A   1      41.702  29.233  29.077  1.00  0.00     0.031 A 
ATOM     34  C   UNL A   1      42.841  30.220  29.045  1.00  0.00     0.074 A 
ATOM     35  C   UNL A   1      41.919  27.956  28.710  1.00  0.00     0.049 A 
ATOM     36  N   UNL A   1      44.083  30.038  28.677  1.00  0.00    -0.248 NA
ATOM     37  C   UNL A   1      42.542  31.592  29.489  1.00  0.00     0.031 C 
ATOM     38  C   UNL A   1      40.921  26.890  28.742  1.00  0.00     0.029 A 
ATOM     39  N   UNL A   1      43.050  27.336  28.242  1.00  0.00    -0.354 N 
ATOM     40  C   UNL A   1      44.712  31.267  28.842  1.00  0.00     0.074 A 
ATOM     41  C   UNL A   1      43.705  32.197  29.303  1.00  0.00     0.031 C 
ATOM     42  C   UNL A   1      41.477  25.750  28.303  1.00  0.00     0.029 A 
ATOM     43  C   UNL A   1      42.868  26.006  27.940  1.00  0.00     0.049 A 
ATOM     44  H   UNL A   1      43.912  27.800  28.132  1.00  0.00     0.167 HD
ATOM     45  C   UNL A   1      46.013  31.589  28.642  1.00  0.00     0.031 A 
ATOM     46  C   UNL A   1      43.718  25.097  27.422  1.00  0.00     0.031 A 
ATOM     47  C   UNL A   1      47.013  30.666  28.174  1.00  0.00     0.049 A 
ATOM     48  C   UNL A   1      45.141  25.499  27.137  1.00  0.00     0.074 A 
ATOM     49  C   UNL A   1      48.361  30.895  27.961  1.00  0.00     0.029 A 
ATOM     50  N   UNL A   1      46.776  29.342  27.838  1.00  0.00    -0.354 N 
ATOM     51  N   UNL A   1      45.726  26.656  27.335  1.00  0.00    -0.248 NA
ATOM     52  C   UNL A   1      46.023  24.466  26.575  1.00  0.00     0.031 C 
ATOM     53  C   UNL A   1      48.924  29.730  27.430  1.00  0.00     0.029 A 
ATOM     54  C   UNL A   1      47.945  28.751  27.386  1.00  0.00     0.049 A 
ATOM     55  H   UNL A   1      45.905  28.887  27.909  1.00  0.00     0.167 HD
ATOM     56  C   UNL A   1      47.052  26.481  26.951  1.00  0.00     0.074 A 
ATOM     57  C   UNL A   1      47.185  25.104  26.524  1.00  0.00     0.031 C 
ATOM     58  C   UNL A   1      48.069  27.380  26.958  1.00  0.00     0.031 A 
BRANCH  45  59
ATOM     59  C   UNL A   1      46.425  33.017  28.900  1.00  0.00    -0.014 A 
ATOM     60  C   UNL A   1      46.356  33.993  27.890  1.00  0.00     0.010 A 
ATOM     61  C   UNL A   1      46.847  33.396  30.188  1.00  0.00     0.010 A 
ATOM     62  C   UNL A   1      46.737  35.313  28.152  1.00  0.00     0.020 A 
ATOM     63  C   UNL A   1      47.199  34.720  30.462  1.00  0.00     0.020 A 
ATOM     64  C   UNL A   1      47.158  35.667  29.438  1.00  0.00     0.054 A 
BRANCH  64  65
ATOM     65  S   UNL A   1      47.625  37.390  29.755  1.00  0.00     0.124 S 
ATOM     66  O   UNL A   1      48.570  37.249  30.859  1.00  0.00    -0.237 OA
ATOM     67  O   UNL A   1      48.206  37.805  28.481  1.00  0.00    -0.237 OA
ATOM     68  O   UNL A   1      46.360  38.036  30.098  1.00  0.00    -0.744 OA
ENDBRANCH  64  65
ENDBRANCH  45  59
BRANCH  46  69
ATOM     69  C   UNL A   1      43.242  23.716  27.131  1.00  0.00    -0.014 A 
ATOM     70  C   UNL A   1      42.926  23.319  25.820  1.00  0.00     0.010 A 
ATOM     71  C   UNL A   1      43.105  22.784  28.178  1.00  0.00     0.010 A 
ATOM     72  C   UNL A   1      42.463  22.024  25.564  1.00  0.00     0.020 A 
ATOM     73  C   UNL A   1      42.671  21.480  27.921  1.00  0.00     0.020 A 
ATOM     74  C   UNL A   1      42.342  21.112  26.616  1.00  0.00     0.054 A 
BRANCH  74  75
ATOM     75  S   UNL A   1      41.780  19.425  26.253  1.00  0.00     0.124 S 
ATOM     76  O   UNL A   1      42.525  19.112  25.037  1.00  0.00    -0.237 OA
ATOM     77  O   UNL A   1      42.187  18.694  27.450  1.00  0.00    -0.237 OA
ATOM     78  O   UNL A   1      40.336  19.573  26.081  1.00  0.00    -0.744 OA
ENDBRANCH  74  75
ENDBRANCH  46  69
BRANCH  58  79
ATOM     79  C   UNL A   1      49.430  26.900  26.523  1.00  0.00    -0.014 A 
ATOM     80  C   UNL A   1      50.320  26.297  27.430  1.00  0.00     0.010 A 
ATOM     81  C   UNL A   1      49.801  27.002  25.169  1.00  0.00     0.010 A 
ATOM     82  C   UNL A   1      51.567  25.837  26.997  1.00  0.00     0.020 A 
ATOM     83  C   UNL A   1      51.033  26.515  24.727  1.00  0.00     0.020 A 
ATOM     84  C   UNL A   1      51.915  25.947  25.648  1.00  0.00     0.054 A 
BRANCH  84  85
ATOM     85  S   UNL A   1      53.522  25.302  25.105  1.00  0.00     0.124 S 
ATOM     86  O   UNL A   1      53.359  23.866  25.313  1.00  0.00    -0.237 OA
ATOM     87  O   UNL A   1      53.583  25.732  23.710  1.00  0.00    -0.237 OA
ATOM     88  O   UNL A   1      54.478  25.957  25.994  1.00  0.00    -0.744 OA
ENDBRANCH  84  85
ENDBRANCH  58  79
ENDBRANCH  32  33
ENDBRANCH  25  27
ENDBRANCH  24  25
ENDBRANCH  23  24
ENDBRANCH  22  23
ENDBRANCH  21  22
ENDBRANCH   1  21
TORSDOF 22
ENDMDL
MODEL 2
REMARK VINA RESULT:      -8.8      2.735      8.849
REMARK SMILES COc1ncccc1CS(=O)(=O)[C@@H](C)CC(=O)OCCOCCOC(=O)c1ccc(-c2c3nc(c(-c4ccc(S(=O)(=O)[O-])cc4)c4ccc([nH]4)c(-c4ccc(S(=O)(=O)[O-])cc4)c4nc(c(-c5ccc(S(=O)(=O)[O-])cc5)c5ccc2[nH]5)C=C4)C=C3)cc1
REMARK SMILES IDX 20 1 19 2 18 3 16 4 17 5 15 6 13 7 14 8 10 9 11 10 12 11
REMARK SMILES IDX 9 12 8 13 3 14 4 15 5 16 7 17 6 18 2 19 1 20 21 21 22 22
REMARK SMILES IDX 23 23 24 24 25 25 26 26 27 27 28 28 86 29 29 30 85 31 30 32
REMARK SMILES IDX 31 33 32 34 79 35 33 36 84 37 78 38 80 39 34 40 83 41 77 42
REMARK SMILES IDX 76 43 35 45 65 46 46 47 64 48 47 49 50 50 63 51 81 52 48 53
REMARK SMILES IDX 49 54 62 56 82 57 51 58 36 59 37 60 45 61 38 62 44 63 39 64
REMARK SMILES IDX 40 65 41 66 42 67 43 68 66 69 67 70 75 71 68 72 74 73 69 74
REMARK SMILES IDX 70 75 71 76 72 77 73 78 52 79 53 80 61 81 54 82 60 83 55 84
REMARK SMILES IDX 56 85 57 86 58 87 59 88
REMARK H PARENT 80 44 50 55
REMARK Flexibility Score: inf
ROOT
ATOM      1  C   UNL A   1      34.462  21.227  26.425  1.00  0.00     0.202 C 
ENDROOT
BRANCH   1   2
ATOM      2  C   UNL A   1      34.095  22.710  26.482  1.00  0.00     0.261 C 
BRANCH   2   3
ATOM      3  O   UNL A   1      32.964  22.907  27.360  1.00  0.00    -0.463 OA
BRANCH   3   4
ATOM      4  C   UNL A   1      31.812  23.268  26.776  1.00  0.00     0.307 C 
ATOM      5  O   UNL A   1      30.756  23.470  27.366  1.00  0.00    -0.252 OA
BRANCH   4   6
ATOM      6  C   UNL A   1      31.882  23.397  25.272  1.00  0.00     0.142 C 
BRANCH   6   7
ATOM      7  C   UNL A   1      31.742  24.702  24.493  1.00  0.00     0.117 C 
ATOM      8  C   UNL A   1      30.412  24.652  23.725  1.00  0.00     0.025 C 
BRANCH   7   9
ATOM      9  S   UNL A   1      33.055  25.307  23.410  1.00  0.00     0.157 S 
ATOM     10  O   UNL A   1      32.757  24.824  22.078  1.00  0.00    -0.228 OA
ATOM     11  O   UNL A   1      34.297  24.836  24.011  1.00  0.00    -0.228 OA
BRANCH   9  12
ATOM     12  C   UNL A   1      33.222  27.106  23.398  1.00  0.00     0.178 C 
BRANCH  12  13
ATOM     13  C   UNL A   1      32.997  27.727  24.735  1.00  0.00     0.029 A 
ATOM     14  C   UNL A   1      31.729  27.986  25.252  1.00  0.00     0.217 A 
ATOM     15  N   UNL A   1      31.516  28.420  26.512  1.00  0.00    -0.222 NA
ATOM     16  C   UNL A   1      32.603  28.675  27.274  1.00  0.00     0.115 A 
ATOM     17  C   UNL A   1      34.093  28.121  25.513  1.00  0.00     0.012 A 
ATOM     18  C   UNL A   1      33.900  28.582  26.809  1.00  0.00     0.021 A 
BRANCH  14  19
ATOM     19  O   UNL A   1      30.680  28.174  24.390  1.00  0.00    -0.481 OA
ATOM     20  C   UNL A   1      30.577  29.496  23.890  1.00  0.00     0.280 C 
ENDBRANCH  14  19
ENDBRANCH  12  13
ENDBRANCH   9  12
ENDBRANCH   7   9
ENDBRANCH   6   7
ENDBRANCH   4   6
ENDBRANCH   3   4
ENDBRANCH   2   3
ENDBRANCH   1   2
BRANCH   1  21
ATOM     21  O   UNL A   1      34.986  20.785  25.170  1.00  0.00    -0.374 OA
BRANCH  21  22
ATOM     22  C   UNL A   1      36.022  21.582  24.599  1.00  0.00     0.202 C 
BRANCH  22  23
ATOM     23  C   UNL A   1      37.428  21.385  25.174  1.00  0.00     0.261 C 
BRANCH  23  24
ATOM     24  O   UNL A   1      37.805  22.446  26.066  1.00  0.00    -0.460 OA
BRANCH  24  25
ATOM     25  C   UNL A   1      39.135  22.557  26.285  1.00  0.00     0.338 C 
ATOM     26  O   UNL A   1      39.991  21.729  25.994  1.00  0.00    -0.246 OA
BRANCH  25  27
ATOM     27  C   UNL A   1      39.480  23.902  26.791  1.00  0.00     0.060 A 
ATOM     28  C   UNL A   1      39.982  24.823  25.863  1.00  0.00     0.016 A 
ATOM     29  C   UNL A   1      39.395  24.245  28.143  1.00  0.00     0.016 A 
ATOM     30  C   UNL A   1      40.481  26.051  26.291  1.00  0.00     0.010 A 
ATOM     31  C   UNL A   1      39.895  25.484  28.571  1.00  0.00     0.010 A 
ATOM     32  C   UNL A   1      40.489  26.371  27.654  1.00  0.00    -0.014 A 
BRANCH  32  33
ATOM     33  C   UNL A   1      41.258  27.558  28.118  1.00  0.00     0.031 A 
ATOM     34  C   UNL A   1      40.516  28.730  28.706  1.00  0.00     0.074 A 
ATOM     35  C   UNL A   1      42.604  27.574  28.081  1.00  0.00     0.049 A 
ATOM     36  N   UNL A   1      40.989  29.844  29.203  1.00  0.00    -0.248 NA
ATOM     37  C   UNL A   1      39.047  28.634  28.743  1.00  0.00     0.031 C 
ATOM     38  C   UNL A   1      43.445  26.487  27.587  1.00  0.00     0.029 A 
ATOM     39  N   UNL A   1      43.501  28.536  28.471  1.00  0.00    -0.354 N 
ATOM     40  C   UNL A   1      39.882  30.580  29.609  1.00  0.00     0.074 A 
ATOM     41  C   UNL A   1      38.710  29.806  29.261  1.00  0.00     0.031 C 
ATOM     42  C   UNL A   1      44.735  26.844  27.692  1.00  0.00     0.029 A 
ATOM     43  C   UNL A   1      44.814  28.194  28.245  1.00  0.00     0.049 A 
ATOM     44  H   UNL A   1      43.231  29.392  28.876  1.00  0.00     0.167 HD
ATOM     45  C   UNL A   1      39.842  31.785  30.227  1.00  0.00     0.031 A 
ATOM     46  C   UNL A   1      45.952  28.886  28.448  1.00  0.00     0.031 A 
ATOM     47  C   UNL A   1      41.007  32.561  30.563  1.00  0.00     0.049 A 
ATOM     48  C   UNL A   1      45.878  30.257  29.068  1.00  0.00     0.074 A 
ATOM     49  C   UNL A   1      41.068  33.784  31.209  1.00  0.00     0.029 A 
ATOM     50  N   UNL A   1      42.313  32.197  30.275  1.00  0.00    -0.354 N 
ATOM     51  N   UNL A   1      44.824  30.920  29.479  1.00  0.00    -0.248 NA
ATOM     52  C   UNL A   1      47.150  30.965  29.268  1.00  0.00     0.031 C 
ATOM     53  C   UNL A   1      42.404  34.191  31.249  1.00  0.00     0.029 A 
ATOM     54  C   UNL A   1      43.185  33.187  30.699  1.00  0.00     0.049 A 
ATOM     55  H   UNL A   1      42.583  31.358  29.834  1.00  0.00     0.167 HD
ATOM     56  C   UNL A   1      45.309  32.109  30.014  1.00  0.00     0.074 A 
ATOM     57  C   UNL A   1      46.750  32.067  29.889  1.00  0.00     0.031 C 
ATOM     58  C   UNL A   1      44.620  33.140  30.566  1.00  0.00     0.031 A 
BRANCH  45  59
ATOM     59  C   UNL A   1      38.485  32.357  30.553  1.00  0.00    -0.014 A 
ATOM     60  C   UNL A   1      37.890  32.161  31.812  1.00  0.00     0.010 A 
ATOM     61  C   UNL A   1      37.815  33.141  29.596  1.00  0.00     0.010 A 
ATOM     62  C   UNL A   1      36.634  32.706  32.096  1.00  0.00     0.020 A 
ATOM     63  C   UNL A   1      36.573  33.714  29.886  1.00  0.00     0.020 A 
ATOM     64  C   UNL A   1      35.983  33.478  31.128  1.00  0.00     0.054 A 
BRANCH  64  65
ATOM     65  S   UNL A   1      34.365  34.191  31.531  1.00  0.00     0.124 S 
ATOM     66  O   UNL A   1      33.780  34.380  30.207  1.00  0.00    -0.237 OA
ATOM     67  O   UNL A   1      33.748  33.147  32.346  1.00  0.00    -0.237 OA
ATOM     68  O   UNL A   1      34.695  35.421  32.247  1.00  0.00    -0.744 OA
ENDBRANCH  64  65
ENDBRANCH  45  59
BRANCH  46  69
ATOM     69  C   UNL A   1      47.262  28.297  28.053  1.00  0.00    -0.014 A 
ATOM     70  C   UNL A   1      47.997  27.499  28.946  1.00  0.00     0.010 A 
ATOM     71  C   UNL A   1      47.780  28.534  26.765  1.00  0.00     0.010 A 
ATOM     72  C   UNL A   1      49.234  26.966  28.569  1.00  0.00     0.020 A 
ATOM     73  C   UNL A   1      49.002  27.979  26.374  1.00  0.00     0.020 A 
ATOM     74  C   UNL A   1      49.727  27.208  27.283  1.00  0.00     0.054 A 
BRANCH  74  75
ATOM     75  S   UNL A   1      51.314  26.471  26.801  1.00  0.00     0.124 S 
ATOM     76  O   UNL A   1      51.472  26.957  25.434  1.00  0.00    -0.237 OA
ATOM     77  O   UNL A   1      52.234  27.037  27.784  1.00  0.00    -0.237 OA
ATOM     78  O   UNL A   1      51.080  25.034  26.931  1.00  0.00    -0.744 OA
ENDBRANCH  74  75
ENDBRANCH  46  69
BRANCH  58  79
ATOM     79  C   UNL A   1      45.414  34.300  31.111  1.00  0.00    -0.014 A 
ATOM     80  C   UNL A   1      45.886  35.326  30.273  1.00  0.00     0.010 A 
ATOM     81  C   UNL A   1      45.643  34.392  32.497  1.00  0.00     0.010 A 
ATOM     82  C   UNL A   1      46.599  36.403  30.806  1.00  0.00     0.020 A 
ATOM     83  C   UNL A   1      46.327  35.483  33.037  1.00  0.00     0.020 A 
ATOM     84  C   UNL A   1      46.814  36.476  32.186  1.00  0.00     0.054 A 
BRANCH  84  85
ATOM     85  S   UNL A   1      47.703  37.908  32.857  1.00  0.00     0.124 S 
ATOM     86  O   UNL A   1      47.053  38.091  34.151  1.00  0.00    -0.237 OA
ATOM     87  O   UNL A   1      49.083  37.431  32.907  1.00  0.00    -0.237 OA
ATOM     88  O   UNL A   1      47.451  38.964  31.878  1.00  0.00    -0.744 OA
ENDBRANCH  84  85
ENDBRANCH  58  79
ENDBRANCH  32  33
ENDBRANCH  25  27
ENDBRANCH  24  25
ENDBRANCH  23  24
ENDBRANCH  22  23
ENDBRANCH  21  22
ENDBRANCH   1  21
TORSDOF 22
ENDMDL
MODEL 3
REMARK VINA RESULT:      -8.8      2.997      9.667
REMARK SMILES COc1ncccc1CS(=O)(=O)[C@@H](C)CC(=O)OCCOCCOC(=O)c1ccc(-c2c3nc(c(-c4ccc(S(=O)(=O)[O-])cc4)c4ccc([nH]4)c(-c4ccc(S(=O)(=O)[O-])cc4)c4nc(c(-c5ccc(S(=O)(=O)[O-])cc5)c5ccc2[nH]5)C=C4)C=C3)cc1
REMARK SMILES IDX 20 1 19 2 18 3 16 4 17 5 15 6 13 7 14 8 10 9 11 10 12 11
REMARK SMILES IDX 9 12 8 13 3 14 4 15 5 16 7 17 6 18 2 19 1 20 21 21 22 22
REMARK SMILES IDX 23 23 24 24 25 25 26 26 27 27 28 28 86 29 29 30 85 31 30 32
REMARK SMILES IDX 31 33 32 34 79 35 33 36 84 37 78 38 80 39 34 40 83 41 77 42
REMARK SMILES IDX 76 43 35 45 65 46 46 47 64 48 47 49 50 50 63 51 81 52 48 53
REMARK SMILES IDX 49 54 62 56 82 57 51 58 36 59 37 60 45 61 38 62 44 63 39 64
REMARK SMILES IDX 40 65 41 66 42 67 43 68 66 69 67 70 75 71 68 72 74 73 69 74
REMARK SMILES IDX 70 75 71 76 72 77 73 78 52 79 53 80 61 81 54 82 60 83 55 84
REMARK SMILES IDX 56 85 57 86 58 87 59 88
REMARK H PARENT 80 44 50 55
REMARK Flexibility Score: inf
ROOT
ATOM      1  C   UNL A   1      34.913  20.258  25.097  1.00  0.00     0.202 C 
ENDROOT
BRANCH   1   2
ATOM      2  C   UNL A   1      33.642  20.700  25.823  1.00  0.00     0.261 C 
BRANCH   2   3
ATOM      3  O   UNL A   1      32.481  20.400  25.016  1.00  0.00    -0.463 OA
BRANCH   3   4
ATOM      4  C   UNL A   1      32.328  21.125  23.898  1.00  0.00     0.307 C 
ATOM      5  O   UNL A   1      32.171  20.662  22.773  1.00  0.00    -0.252 OA
BRANCH   4   6
ATOM      6  C   UNL A   1      32.385  22.621  24.106  1.00  0.00     0.142 C 
BRANCH   6   7
ATOM      7  C   UNL A   1      31.231  23.485  24.606  1.00  0.00     0.117 C 
ATOM      8  C   UNL A   1      30.464  24.002  23.378  1.00  0.00     0.025 C 
BRANCH   7   9
ATOM      9  S   UNL A   1      31.493  24.833  25.779  1.00  0.00     0.157 S 
ATOM     10  O   UNL A   1      32.911  25.124  25.776  1.00  0.00    -0.228 OA
ATOM     11  O   UNL A   1      30.926  24.363  27.038  1.00  0.00    -0.228 OA
BRANCH   9  12
ATOM     12  C   UNL A   1      30.549  26.327  25.398  1.00  0.00     0.178 C 
BRANCH  12  13
ATOM     13  C   UNL A   1      31.272  27.584  25.744  1.00  0.00     0.029 A 
ATOM     14  C   UNL A   1      31.732  28.487  24.788  1.00  0.00     0.217 A 
ATOM     15  N   UNL A   1      32.265  29.689  25.097  1.00  0.00    -0.222 NA
ATOM     16  C   UNL A   1      32.411  29.985  26.407  1.00  0.00     0.115 A 
ATOM     17  C   UNL A   1      31.555  27.878  27.084  1.00  0.00     0.012 A 
ATOM     18  C   UNL A   1      32.113  29.103  27.427  1.00  0.00     0.021 A 
BRANCH  14  19
ATOM     19  O   UNL A   1      32.012  28.038  23.523  1.00  0.00    -0.481 OA
ATOM     20  C   UNL A   1      33.130  28.669  22.924  1.00  0.00     0.280 C 
ENDBRANCH  14  19
ENDBRANCH  12  13
ENDBRANCH   9  12
ENDBRANCH   7   9
ENDBRANCH   6   7
ENDBRANCH   4   6
ENDBRANCH   3   4
ENDBRANCH   2   3
ENDBRANCH   1   2
BRANCH   1  21
ATOM     21  O   UNL A   1      35.734  21.327  24.618  1.00  0.00    -0.374 OA
BRANCH  21  22
ATOM     22  C   UNL A   1      37.107  21.018  24.389  1.00  0.00     0.202 C 
BRANCH  22  23
ATOM     23  C   UNL A   1      38.056  21.213  25.576  1.00  0.00     0.261 C 
BRANCH  23  24
ATOM     24  O   UNL A   1      38.740  22.475  25.525  1.00  0.00    -0.460 OA
BRANCH  24  25
ATOM     25  C   UNL A   1      38.120  23.483  26.177  1.00  0.00     0.338 C 
ATOM     26  O   UNL A   1      36.919  23.571  26.406  1.00  0.00    -0.246 OA
BRANCH  25  27
ATOM     27  C   UNL A   1      39.101  24.431  26.746  1.00  0.00     0.060 A 
ATOM     28  C   UNL A   1      39.016  24.689  28.121  1.00  0.00     0.016 A 
ATOM     29  C   UNL A   1      40.034  25.115  25.962  1.00  0.00     0.016 A 
ATOM     30  C   UNL A   1      39.795  25.690  28.698  1.00  0.00     0.010 A 
ATOM     31  C   UNL A   1      40.820  26.119  26.547  1.00  0.00     0.010 A 
ATOM     32  C   UNL A   1      40.667  26.447  27.906  1.00  0.00    -0.014 A 
BRANCH  32  33
ATOM     33  C   UNL A   1      41.287  27.672  28.478  1.00  0.00     0.031 A 
ATOM     34  C   UNL A   1      42.790  27.795  28.495  1.00  0.00     0.074 A 
ATOM     35  C   UNL A   1      40.532  28.697  28.918  1.00  0.00     0.049 A 
ATOM     36  N   UNL A   1      43.534  28.788  28.910  1.00  0.00    -0.248 NA
ATOM     37  C   UNL A   1      43.554  26.651  27.971  1.00  0.00     0.031 C 
ATOM     38  C   UNL A   1      39.072  28.730  28.909  1.00  0.00     0.029 A 
ATOM     39  N   UNL A   1      40.888  29.910  29.453  1.00  0.00    -0.354 N 
ATOM     40  C   UNL A   1      44.850  28.389  28.702  1.00  0.00     0.074 A 
ATOM     41  C   UNL A   1      44.803  27.048  28.162  1.00  0.00     0.031 C 
ATOM     42  C   UNL A   1      38.653  29.897  29.424  1.00  0.00     0.029 A 
ATOM     43  C   UNL A   1      39.815  30.690  29.817  1.00  0.00     0.049 A 
ATOM     44  H   UNL A   1      41.824  30.195  29.565  1.00  0.00     0.167 HD
ATOM     45  C   UNL A   1      45.993  29.081  28.926  1.00  0.00     0.031 A 
ATOM     46  C   UNL A   1      39.768  31.900  30.408  1.00  0.00     0.031 A 
ATOM     47  C   UNL A   1      46.040  30.412  29.473  1.00  0.00     0.049 A 
ATOM     48  C   UNL A   1      41.055  32.619  30.716  1.00  0.00     0.074 A 
ATOM     49  C   UNL A   1      47.150  31.202  29.716  1.00  0.00     0.029 A 
ATOM     50  N   UNL A   1      44.933  31.147  29.869  1.00  0.00    -0.354 N 
ATOM     51  N   UNL A   1      42.288  32.241  30.477  1.00  0.00    -0.248 NA
ATOM     52  C   UNL A   1      40.942  33.936  31.359  1.00  0.00     0.031 C 
ATOM     53  C   UNL A   1      46.719  32.386  30.323  1.00  0.00     0.029 A 
ATOM     54  C   UNL A   1      45.335  32.366  30.387  1.00  0.00     0.049 A 
ATOM     55  H   UNL A   1      43.997  30.846  29.794  1.00  0.00     0.167 HD
ATOM     56  C   UNL A   1      43.095  33.288  30.911  1.00  0.00     0.074 A 
ATOM     57  C   UNL A   1      42.211  34.318  31.413  1.00  0.00     0.031 C 
ATOM     58  C   UNL A   1      44.449  33.387  30.890  1.00  0.00     0.031 A 
BRANCH  45  59
ATOM     59  C   UNL A   1      47.297  28.394  28.607  1.00  0.00    -0.014 A 
ATOM     60  C   UNL A   1      47.922  28.552  27.357  1.00  0.00     0.010 A 
ATOM     61  C   UNL A   1      47.929  27.613  29.592  1.00  0.00     0.010 A 
ATOM     62  C   UNL A   1      49.135  27.911  27.084  1.00  0.00     0.020 A 
ATOM     63  C   UNL A   1      49.156  26.996  29.335  1.00  0.00     0.020 A 
ATOM     64  C   UNL A   1      49.743  27.135  28.076  1.00  0.00     0.054 A 
BRANCH  64  65
ATOM     65  S   UNL A   1      51.327  26.334  27.703  1.00  0.00     0.124 S 
ATOM     66  O   UNL A   1      50.897  25.014  27.250  1.00  0.00    -0.237 OA
ATOM     67  O   UNL A   1      51.888  27.200  26.670  1.00  0.00    -0.237 OA
ATOM     68  O   UNL A   1      52.036  26.353  28.980  1.00  0.00    -0.744 OA
ENDBRANCH  64  65
ENDBRANCH  45  59
BRANCH  46  69
ATOM     69  C   UNL A   1      38.452  32.507  30.755  1.00  0.00    -0.014 A 
ATOM     70  C   UNL A   1      37.852  32.272  32.004  1.00  0.00     0.010 A 
ATOM     71  C   UNL A   1      37.791  33.333  29.825  1.00  0.00     0.010 A 
ATOM     72  C   UNL A   1      36.607  32.833  32.310  1.00  0.00     0.020 A 
ATOM     73  C   UNL A   1      36.562  33.920  30.139  1.00  0.00     0.020 A 
ATOM     74  C   UNL A   1      35.972  33.656  31.376  1.00  0.00     0.054 A 
BRANCH  74  75
ATOM     75  S   UNL A   1      34.379  34.408  31.812  1.00  0.00     0.124 S 
ATOM     76  O   UNL A   1      34.794  35.675  32.408  1.00  0.00    -0.237 OA
ATOM     77  O   UNL A   1      33.713  34.507  30.516  1.00  0.00    -0.237 OA
ATOM     78  O   UNL A   1      33.786  33.446  32.739  1.00  0.00    -0.744 OA
ENDBRANCH  74  75
ENDBRANCH  46  69
BRANCH  58  79
ATOM     79  C   UNL A   1      45.064  34.668  31.392  1.00  0.00    -0.014 A 
ATOM     80  C   UNL A   1      45.256  35.773  30.543  1.00  0.00     0.010 A 
ATOM     81  C   UNL A   1      45.404  34.787  32.753  1.00  0.00     0.010 A 
ATOM     82  C   UNL A   1      45.806  36.959  31.037  1.00  0.00     0.020 A 
ATOM     83  C   UNL A   1      45.923  35.982  33.257  1.00  0.00     0.020 A 
ATOM     84  C   UNL A   1      46.135  37.056  32.393  1.00  0.00     0.054 A 
BRANCH  84  85
ATOM     85  S   UNL A   1      46.805  38.622  33.018  1.00  0.00     0.124 S 
ATOM     86  O   UNL A   1      45.623  39.479  33.021  1.00  0.00    -0.237 OA
ATOM     87  O   UNL A   1      47.314  38.248  34.335  1.00  0.00    -0.237 OA
ATOM     88  O   UNL A   1      47.830  38.977  32.039  1.00  0.00    -0.744 OA
ENDBRANCH  84  85
ENDBRANCH  58  79
ENDBRANCH  32  33
ENDBRANCH  25  27
ENDBRANCH  24  25
ENDBRANCH  23  24
ENDBRANCH  22  23
ENDBRANCH  21  22
ENDBRANCH   1  21
TORSDOF 22
ENDMDL
