MODEL 1
REMARK VINA RESULT:     -13.6      0.000      0.000
REMARK SMILES Cc1ccccc1[C@H]1[NH2+][C@@H](C(=O)OCCOCCOC(=O)c2ccc(-c3c4nc(c(-c5ccc(S(=O)(=O)[O-])cc5)c5ccc([nH]5)c(-c5ccc(S(=O)(=O)[O-])cc5)c5nc(c(-c6ccc(S(=O)(=O)[O-])cc6)c6ccc3[nH]6)C=C5)C=C4)cc2)CC2=c3ccccc3=N[C@@H]21
REMARK SMILES IDX 17 1 16 2 15 3 14 4 13 5 11 6 12 7 10 8 8 9 9 10 91 11 83 14
REMARK SMILES IDX 90 15 82 16 84 17 89 18 85 19 88 20 86 21 87 22 7 23 1 24
REMARK SMILES IDX 2 25 3 26 4 27 6 28 5 29 18 30 19 31 20 32 21 33 22 34 23 35
REMARK SMILES IDX 81 36 24 37 80 38 25 39 26 40 27 41 74 42 28 43 79 44 73 45
REMARK SMILES IDX 75 46 29 47 78 48 72 49 71 50 30 52 60 53 41 54 59 55 42 56
REMARK SMILES IDX 45 57 58 58 76 59 43 60 44 61 57 63 77 64 46 65 31 66 32 67
REMARK SMILES IDX 40 68 33 69 39 70 34 71 35 72 36 73 37 74 38 75 61 76 62 77
REMARK SMILES IDX 70 78 63 79 69 80 64 81 65 82 66 83 67 84 68 85 47 86 48 87
REMARK SMILES IDX 56 88 49 89 55 90 50 91 51 92 52 93 53 94 54 95
REMARK H PARENT 9 12 9 13 75 51 45 62
REMARK Flexibility Score: inf
ROOT
ATOM      1  C   UNL A   1      34.212  34.435  29.720  1.00  0.00     0.202 C 
ENDROOT
BRANCH   1   2
ATOM      2  O   UNL A   1      33.672  33.273  29.068  1.00  0.00    -0.374 OA
BRANCH   2   3
ATOM      3  C   UNL A   1      34.434  32.578  28.018  1.00  0.00     0.202 C 
BRANCH   3   4
ATOM      4  C   UNL A   1      34.456  31.066  27.728  1.00  0.00     0.261 C 
BRANCH   4   5
ATOM      5  O   UNL A   1      33.165  30.453  27.647  1.00  0.00    -0.459 OA
BRANCH   5   6
ATOM      6  C   UNL A   1      32.989  29.223  27.128  1.00  0.00     0.365 C 
ATOM      7  O   UNL A   1      33.866  28.372  27.283  1.00  0.00    -0.245 OA
BRANCH   6   8
ATOM      8  C   UNL A   1      31.791  28.984  26.191  1.00  0.00     0.298 C 
ATOM      9  C   UNL A   1      31.033  26.820  24.976  1.00  0.00     0.243 C 
ATOM     10  N   UNL A   1      31.350  27.583  26.193  1.00  0.00    -0.326 N 
ATOM     11  C   UNL A   1      31.010  27.648  23.579  1.00  0.00     0.196 C 
ATOM     12  H   UNL A   1      32.088  27.060  26.664  1.00  0.00     0.347 HD
ATOM     13  H   UNL A   1      30.425  27.671  26.613  1.00  0.00     0.347 HD
ATOM     14  C   UNL A   1      31.108  29.125  23.889  1.00  0.00    -0.024 C 
ATOM     15  N   UNL A   1      29.698  27.573  22.846  1.00  0.00    -0.270 NA
ATOM     16  C   UNL A   1      32.158  29.562  24.823  1.00  0.00     0.111 C 
ATOM     17  C   UNL A   1      30.006  29.794  23.575  1.00  0.00     0.002 A 
ATOM     18  C   UNL A   1      29.220  28.781  22.876  1.00  0.00     0.066 A 
ATOM     19  C   UNL A   1      29.451  31.039  24.005  1.00  0.00     0.010 A 
ATOM     20  C   UNL A   1      27.923  29.266  22.338  1.00  0.00     0.028 A 
ATOM     21  C   UNL A   1      28.181  31.317  23.670  1.00  0.00     0.001 A 
ATOM     22  C   UNL A   1      27.440  30.446  22.772  1.00  0.00     0.002 A 
BRANCH   9  23
ATOM     23  C   UNL A   1      31.429  25.223  25.104  1.00  0.00     0.015 A 
ATOM     24  C   UNL A   1      29.980  22.961  26.958  1.00  0.00     0.045 C 
ATOM     25  C   UNL A   1      30.879  23.565  25.862  1.00  0.00    -0.042 A 
ATOM     26  C   UNL A   1      31.947  22.075  25.571  1.00  0.00     0.004 A 
ATOM     27  C   UNL A   1      33.426  22.179  24.617  1.00  0.00     0.000 A 
ATOM     28  C   UNL A   1      33.064  25.246  24.298  1.00  0.00     0.010 A 
ATOM     29  C   UNL A   1      34.020  23.748  24.059  1.00  0.00     0.001 A 
ENDBRANCH   9  23
ENDBRANCH   6   8
ENDBRANCH   5   6
ENDBRANCH   4   5
ENDBRANCH   3   4
ENDBRANCH   2   3
ENDBRANCH   1   2
BRANCH   1  30
ATOM     30  C   UNL A   1      34.607  34.603  31.304  1.00  0.00     0.261 C 
BRANCH  30  31
ATOM     31  O   UNL A   1      36.079  34.479  32.041  1.00  0.00    -0.460 OA
BRANCH  31  32
ATOM     32  C   UNL A   1      37.582  33.788  32.050  1.00  0.00     0.338 C 
ATOM     33  O   UNL A   1      38.150  34.663  32.773  1.00  0.00    -0.246 OA
BRANCH  32  34
ATOM     34  C   UNL A   1      38.155  31.931  31.160  1.00  0.00     0.060 A 
ATOM     35  C   UNL A   1      37.992  30.490  31.581  1.00  0.00     0.016 A 
ATOM     36  C   UNL A   1      38.997  31.707  29.918  1.00  0.00     0.016 A 
ATOM     37  C   UNL A   1      38.890  29.423  31.323  1.00  0.00     0.010 A 
ATOM     38  C   UNL A   1      39.998  30.767  29.772  1.00  0.00     0.010 A 
ATOM     39  C   UNL A   1      40.030  29.691  30.608  1.00  0.00    -0.014 A 
BRANCH  39  40
ATOM     40  C   UNL A   1      41.327  29.064  30.805  1.00  0.00     0.031 A 
ATOM     41  C   UNL A   1      41.655  27.816  30.087  1.00  0.00     0.074 A 
ATOM     42  C   UNL A   1      42.260  29.788  31.473  1.00  0.00     0.049 A 
ATOM     43  N   UNL A   1      42.628  27.053  30.428  1.00  0.00    -0.248 NA
ATOM     44  C   UNL A   1      40.894  27.271  28.956  1.00  0.00     0.031 C 
ATOM     45  C   UNL A   1      43.708  29.589  31.564  1.00  0.00     0.029 A 
ATOM     46  N   UNL A   1      42.051  30.875  32.331  1.00  0.00    -0.354 N 
ATOM     47  C   UNL A   1      42.818  26.147  29.411  1.00  0.00     0.074 A 
ATOM     48  C   UNL A   1      41.626  26.209  28.615  1.00  0.00     0.031 C 
ATOM     49  C   UNL A   1      44.169  30.261  32.638  1.00  0.00     0.029 A 
ATOM     50  C   UNL A   1      43.010  30.810  33.337  1.00  0.00     0.049 A 
ATOM     51  H   UNL A   1      41.350  31.561  32.241  1.00  0.00     0.167 HD
ATOM     52  C   UNL A   1      44.041  25.572  29.273  1.00  0.00     0.031 A 
ATOM     53  C   UNL A   1      42.648  30.539  34.624  1.00  0.00     0.031 A 
ATOM     54  C   UNL A   1      44.888  25.907  30.419  1.00  0.00     0.049 A 
ATOM     55  C   UNL A   1      43.204  29.187  35.018  1.00  0.00     0.074 A 
ATOM     56  C   UNL A   1      45.976  26.742  30.587  1.00  0.00     0.029 A 
ATOM     57  N   UNL A   1      44.406  25.631  31.698  1.00  0.00    -0.354 N 
ATOM     58  N   UNL A   1      43.491  28.256  34.143  1.00  0.00    -0.248 NA
ATOM     59  C   UNL A   1      43.600  28.816  36.372  1.00  0.00     0.031 C 
ATOM     60  C   UNL A   1      46.068  27.054  31.982  1.00  0.00     0.029 A 
ATOM     61  C   UNL A   1      45.065  26.374  32.658  1.00  0.00     0.049 A 
ATOM     62  H   UNL A   1      43.686  24.987  31.892  1.00  0.00     0.167 HD
ATOM     63  C   UNL A   1      44.185  27.249  34.748  1.00  0.00     0.074 A 
ATOM     64  C   UNL A   1      44.197  27.628  36.153  1.00  0.00     0.031 C 
ATOM     65  C   UNL A   1      44.722  26.192  34.068  1.00  0.00     0.031 A 
BRANCH  52  66
ATOM     66  C   UNL A   1      44.527  24.884  28.016  1.00  0.00    -0.014 A 
ATOM     67  C   UNL A   1      43.717  23.909  27.404  1.00  0.00     0.010 A 
ATOM     68  C   UNL A   1      45.797  25.087  27.430  1.00  0.00     0.010 A 
ATOM     69  C   UNL A   1      44.137  23.203  26.262  1.00  0.00     0.020 A 
ATOM     70  C   UNL A   1      46.216  24.415  26.272  1.00  0.00     0.020 A 
ATOM     71  C   UNL A   1      45.381  23.471  25.693  1.00  0.00     0.054 A 
BRANCH  71  72
ATOM     72  S   UNL A   1      45.895  22.585  24.200  1.00  0.00     0.124 S 
ATOM     73  O   UNL A   1      44.631  22.406  23.492  1.00  0.00    -0.237 OA
ATOM     74  O   UNL A   1      46.836  23.518  23.589  1.00  0.00    -0.237 OA
ATOM     75  O   UNL A   1      46.493  21.354  24.715  1.00  0.00    -0.744 OA
ENDBRANCH  71  72
ENDBRANCH  52  66
BRANCH  53  76
ATOM     76  C   UNL A   1      41.404  31.227  35.102  1.00  0.00    -0.014 A 
ATOM     77  C   UNL A   1      40.246  30.428  35.190  1.00  0.00     0.010 A 
ATOM     78  C   UNL A   1      41.365  32.474  35.750  1.00  0.00     0.010 A 
ATOM     79  C   UNL A   1      39.119  30.818  35.931  1.00  0.00     0.020 A 
ATOM     80  C   UNL A   1      40.230  32.871  36.504  1.00  0.00     0.020 A 
ATOM     81  C   UNL A   1      39.112  32.036  36.593  1.00  0.00     0.054 A 
BRANCH  81  82
ATOM     82  S   UNL A   1      37.664  32.446  37.629  1.00  0.00     0.124 S 
ATOM     83  O   UNL A   1      38.232  33.384  38.591  1.00  0.00    -0.237 OA
ATOM     84  O   UNL A   1      36.730  33.033  36.676  1.00  0.00    -0.237 OA
ATOM     85  O   UNL A   1      37.265  31.147  38.165  1.00  0.00    -0.744 OA
ENDBRANCH  81  82
ENDBRANCH  53  76
BRANCH  65  86
ATOM     86  C   UNL A   1      44.957  24.834  34.689  1.00  0.00    -0.014 A 
ATOM     87  C   UNL A   1      44.012  23.798  34.663  1.00  0.00     0.010 A 
ATOM     88  C   UNL A   1      46.258  24.501  35.144  1.00  0.00     0.010 A 
ATOM     89  C   UNL A   1      44.329  22.514  35.110  1.00  0.00     0.020 A 
ATOM     90  C   UNL A   1      46.606  23.205  35.519  1.00  0.00     0.020 A 
ATOM     91  C   UNL A   1      45.627  22.223  35.526  1.00  0.00     0.054 A 
BRANCH  91  92
ATOM     92  S   UNL A   1      46.019  20.538  36.034  1.00  0.00     0.124 S 
ATOM     93  O   UNL A   1      45.112  19.760  35.194  1.00  0.00    -0.237 OA
ATOM     94  O   UNL A   1      47.437  20.426  35.701  1.00  0.00    -0.237 OA
ATOM     95  O   UNL A   1      45.716  20.526  37.462  1.00  0.00    -0.744 OA
ENDBRANCH  91  92
ENDBRANCH  65  86
ENDBRANCH  39  40
ENDBRANCH  32  34
ENDBRANCH  31  32
ENDBRANCH  30  31
ENDBRANCH   1  30
TORSDOF 18
ENDMDL
MODEL 2
REMARK VINA RESULT:     -12.8      3.815      5.801
REMARK SMILES Cc1ccccc1[C@H]1[NH2+][C@@H](C(=O)OCCOCCOC(=O)c2ccc(-c3c4nc(c(-c5ccc(S(=O)(=O)[O-])cc5)c5ccc([nH]5)c(-c5ccc(S(=O)(=O)[O-])cc5)c5nc(c(-c6ccc(S(=O)(=O)[O-])cc6)c6ccc3[nH]6)C=C5)C=C4)cc2)CC2=c3ccccc3=N[C@@H]21
REMARK SMILES IDX 17 1 16 2 15 3 14 4 13 5 11 6 12 7 10 8 8 9 9 10 91 11 83 14
REMARK SMILES IDX 90 15 82 16 84 17 89 18 85 19 88 20 86 21 87 22 7 23 1 24
REMARK SMILES IDX 2 25 3 26 4 27 6 28 5 29 18 30 19 31 20 32 21 33 22 34 23 35
REMARK SMILES IDX 81 36 24 37 80 38 25 39 26 40 27 41 74 42 28 43 79 44 73 45
REMARK SMILES IDX 75 46 29 47 78 48 72 49 71 50 30 52 60 53 41 54 59 55 42 56
REMARK SMILES IDX 45 57 58 58 76 59 43 60 44 61 57 63 77 64 46 65 31 66 32 67
REMARK SMILES IDX 40 68 33 69 39 70 34 71 35 72 36 73 37 74 38 75 61 76 62 77
REMARK SMILES IDX 70 78 63 79 69 80 64 81 65 82 66 83 67 84 68 85 47 86 48 87
REMARK SMILES IDX 56 88 49 89 55 90 50 91 51 92 52 93 53 94 54 95
REMARK H PARENT 9 12 9 13 75 51 45 62
REMARK Flexibility Score: inf
ROOT
ATOM      1  C   UNL A   1      36.676  33.818  29.816  1.00  0.00     0.202 C 
ENDROOT
BRANCH   1   2
ATOM      2  O   UNL A   1      35.283  33.537  29.598  1.00  0.00    -0.374 OA
BRANCH   2   3
ATOM      3  C   UNL A   1      34.846  32.207  29.146  1.00  0.00     0.202 C 
BRANCH   3   4
ATOM      4  C   UNL A   1      34.392  31.807  27.730  1.00  0.00     0.261 C 
BRANCH   4   5
ATOM      5  O   UNL A   1      33.266  30.924  27.689  1.00  0.00    -0.459 OA
BRANCH   5   6
ATOM      6  C   UNL A   1      33.336  29.702  27.125  1.00  0.00     0.365 C 
ATOM      7  O   UNL A   1      34.386  29.063  27.199  1.00  0.00    -0.245 OA
BRANCH   6   8
ATOM      8  C   UNL A   1      32.168  29.233  26.238  1.00  0.00     0.298 C 
ATOM      9  C   UNL A   1      31.668  26.889  25.246  1.00  0.00     0.243 C 
ATOM     10  N   UNL A   1      31.899  27.797  26.380  1.00  0.00    -0.326 N 
ATOM     11  C   UNL A   1      31.532  27.572  23.779  1.00  0.00     0.196 C 
ATOM     12  H   UNL A   1      32.700  27.413  26.883  1.00  0.00     0.347 HD
ATOM     13  H   UNL A   1      30.974  27.812  26.809  1.00  0.00     0.347 HD
ATOM     14  C   UNL A   1      31.453  29.073  23.948  1.00  0.00    -0.024 C 
ATOM     15  N   UNL A   1      30.233  27.271  23.082  1.00  0.00    -0.270 NA
ATOM     16  C   UNL A   1      32.450  29.719  24.816  1.00  0.00     0.111 C 
ATOM     17  C   UNL A   1      30.276  29.572  23.595  1.00  0.00     0.002 A 
ATOM     18  C   UNL A   1      29.612  28.410  23.008  1.00  0.00     0.066 A 
ATOM     19  C   UNL A   1      29.577  30.777  23.917  1.00  0.00     0.010 A 
ATOM     20  C   UNL A   1      28.262  28.682  22.453  1.00  0.00     0.028 A 
ATOM     21  C   UNL A   1      28.280  30.867  23.583  1.00  0.00     0.001 A 
ATOM     22  C   UNL A   1      27.643  29.832  22.785  1.00  0.00     0.002 A 
BRANCH   9  23
ATOM     23  C   UNL A   1      32.255  25.370  25.515  1.00  0.00     0.015 A 
ATOM     24  C   UNL A   1      35.368  24.396  25.393  1.00  0.00     0.045 C 
ATOM     25  C   UNL A   1      33.858  24.359  25.699  1.00  0.00    -0.042 A 
ATOM     26  C   UNL A   1      33.709  22.530  25.981  1.00  0.00     0.004 A 
ATOM     27  C   UNL A   1      32.135  21.744  26.085  1.00  0.00     0.000 A 
ATOM     28  C   UNL A   1      30.699  24.423  25.455  1.00  0.00     0.010 A 
ATOM     29  C   UNL A   1      30.657  22.654  25.747  1.00  0.00     0.001 A 
ENDBRANCH   9  23
ENDBRANCH   6   8
ENDBRANCH   5   6
ENDBRANCH   4   5
ENDBRANCH   3   4
ENDBRANCH   2   3
ENDBRANCH   1   2
BRANCH   1  30
ATOM     30  C   UNL A   1      37.848  32.770  30.287  1.00  0.00     0.261 C 
BRANCH  30  31
ATOM     31  O   UNL A   1      38.460  32.480  31.792  1.00  0.00    -0.460 OA
BRANCH  31  32
ATOM     32  C   UNL A   1      39.260  31.438  32.797  1.00  0.00     0.338 C 
ATOM     33  O   UNL A   1      39.030  32.059  33.879  1.00  0.00    -0.246 OA
BRANCH  32  34
ATOM     34  C   UNL A   1      40.218  29.604  32.258  1.00  0.00     0.060 A 
ATOM     35  C   UNL A   1      41.545  28.985  32.626  1.00  0.00     0.016 A 
ATOM     36  C   UNL A   1      39.766  28.574  31.241  1.00  0.00     0.016 A 
ATOM     37  C   UNL A   1      42.358  28.165  31.801  1.00  0.00     0.010 A 
ATOM     38  C   UNL A   1      40.570  27.929  30.323  1.00  0.00     0.010 A 
ATOM     39  C   UNL A   1      41.916  27.875  30.536  1.00  0.00    -0.014 A 
BRANCH  39  40
ATOM     40  C   UNL A   1      42.750  27.713  29.357  1.00  0.00     0.031 A 
ATOM     41  C   UNL A   1      43.350  26.397  29.058  1.00  0.00     0.074 A 
ATOM     42  C   UNL A   1      42.750  28.735  28.464  1.00  0.00     0.049 A 
ATOM     43  N   UNL A   1      44.322  26.247  28.233  1.00  0.00    -0.248 NA
ATOM     44  C   UNL A   1      42.963  25.132  29.693  1.00  0.00     0.031 C 
ATOM     45  C   UNL A   1      43.216  28.762  27.076  1.00  0.00     0.029 A 
ATOM     46  N   UNL A   1      42.382  30.068  28.685  1.00  0.00    -0.354 N 
ATOM     47  C   UNL A   1      44.451  24.900  27.989  1.00  0.00     0.074 A 
ATOM     48  C   UNL A   1      43.715  24.248  29.034  1.00  0.00     0.031 C 
ATOM     49  C   UNL A   1      43.418  30.045  26.713  1.00  0.00     0.029 A 
ATOM     50  C   UNL A   1      43.205  30.870  27.900  1.00  0.00     0.049 A 
ATOM     51  H   UNL A   1      41.669  30.381  29.288  1.00  0.00     0.167 HD
ATOM     52  C   UNL A   1      45.031  24.504  26.826  1.00  0.00     0.031 A 
ATOM     53  C   UNL A   1      44.125  31.693  28.479  1.00  0.00     0.031 A 
ATOM     54  C   UNL A   1      45.608  25.657  26.131  1.00  0.00     0.049 A 
ATOM     55  C   UNL A   1      45.515  31.199  28.134  1.00  0.00     0.074 A 
ATOM     56  C   UNL A   1      45.249  26.363  24.999  1.00  0.00     0.029 A 
ATOM     57  N   UNL A   1      46.506  26.464  26.827  1.00  0.00    -0.354 N 
ATOM     58  N   UNL A   1      45.766  29.953  27.818  1.00  0.00    -0.248 NA
ATOM     59  C   UNL A   1      46.687  32.055  27.988  1.00  0.00     0.031 C 
ATOM     60  C   UNL A   1      45.859  27.655  25.086  1.00  0.00     0.029 A 
ATOM     61  C   UNL A   1      46.619  27.712  26.246  1.00  0.00     0.049 A 
ATOM     62  H   UNL A   1      46.998  26.181  27.632  1.00  0.00     0.167 HD
ATOM     63  C   UNL A   1      47.037  29.846  27.334  1.00  0.00     0.074 A 
ATOM     64  C   UNL A   1      47.587  31.183  27.494  1.00  0.00     0.031 C 
ATOM     65  C   UNL A   1      47.547  28.689  26.815  1.00  0.00     0.031 A 
BRANCH  52  66
ATOM     66  C   UNL A   1      44.899  23.119  26.232  1.00  0.00    -0.014 A 
ATOM     67  C   UNL A   1      46.044  22.466  25.739  1.00  0.00     0.010 A 
ATOM     68  C   UNL A   1      43.675  22.435  26.054  1.00  0.00     0.010 A 
ATOM     69  C   UNL A   1      45.975  21.199  25.132  1.00  0.00     0.020 A 
ATOM     70  C   UNL A   1      43.594  21.157  25.482  1.00  0.00     0.020 A 
ATOM     71  C   UNL A   1      44.750  20.544  25.020  1.00  0.00     0.054 A 
BRANCH  71  72
ATOM     72  S   UNL A   1      44.678  18.895  24.275  1.00  0.00     0.124 S 
ATOM     73  O   UNL A   1      46.000  18.356  24.581  1.00  0.00    -0.237 OA
ATOM     74  O   UNL A   1      43.562  18.278  24.984  1.00  0.00    -0.237 OA
ATOM     75  O   UNL A   1      44.435  19.165  22.858  1.00  0.00    -0.744 OA
ENDBRANCH  71  72
ENDBRANCH  52  66
BRANCH  53  76
ATOM     76  C   UNL A   1      43.657  32.425  29.701  1.00  0.00    -0.014 A 
ATOM     77  C   UNL A   1      43.970  31.831  30.941  1.00  0.00     0.010 A 
ATOM     78  C   UNL A   1      43.228  33.764  29.731  1.00  0.00     0.010 A 
ATOM     79  C   UNL A   1      43.915  32.542  32.150  1.00  0.00     0.020 A 
ATOM     80  C   UNL A   1      43.175  34.489  30.950  1.00  0.00     0.020 A 
ATOM     81  C   UNL A   1      43.524  33.872  32.155  1.00  0.00     0.054 A 
BRANCH  81  82
ATOM     82  S   UNL A   1      43.573  34.779  33.741  1.00  0.00     0.124 S 
ATOM     83  O   UNL A   1      44.853  35.473  33.656  1.00  0.00    -0.237 OA
ATOM     84  O   UNL A   1      42.400  35.642  33.666  1.00  0.00    -0.237 OA
ATOM     85  O   UNL A   1      43.492  33.710  34.733  1.00  0.00    -0.744 OA
ENDBRANCH  81  82
ENDBRANCH  53  76
BRANCH  65  86
ATOM     86  C   UNL A   1      49.020  28.352  26.821  1.00  0.00    -0.014 A 
ATOM     87  C   UNL A   1      49.804  28.331  27.983  1.00  0.00     0.010 A 
ATOM     88  C   UNL A   1      49.613  27.831  25.642  1.00  0.00     0.010 A 
ATOM     89  C   UNL A   1      51.120  27.863  27.965  1.00  0.00     0.020 A 
ATOM     90  C   UNL A   1      50.897  27.291  25.630  1.00  0.00     0.020 A 
ATOM     91  C   UNL A   1      51.655  27.338  26.790  1.00  0.00     0.054 A 
BRANCH  91  92
ATOM     92  S   UNL A   1      53.334  26.682  26.818  1.00  0.00     0.124 S 
ATOM     93  O   UNL A   1      53.100  25.263  26.564  1.00  0.00    -0.237 OA
ATOM     94  O   UNL A   1      53.981  27.416  25.733  1.00  0.00    -0.237 OA
ATOM     95  O   UNL A   1      53.813  27.010  28.158  1.00  0.00    -0.744 OA
ENDBRANCH  91  92
ENDBRANCH  65  86
ENDBRANCH  39  40
ENDBRANCH  32  34
ENDBRANCH  31  32
ENDBRANCH  30  31
ENDBRANCH   1  30
TORSDOF 18
ENDMDL
MODEL 3
REMARK VINA RESULT:     -12.6      4.983     11.676
REMARK SMILES Cc1ccccc1[C@H]1[NH2+][C@@H](C(=O)OCCOCCOC(=O)c2ccc(-c3c4nc(c(-c5ccc(S(=O)(=O)[O-])cc5)c5ccc([nH]5)c(-c5ccc(S(=O)(=O)[O-])cc5)c5nc(c(-c6ccc(S(=O)(=O)[O-])cc6)c6ccc3[nH]6)C=C5)C=C4)cc2)CC2=c3ccccc3=N[C@@H]21
REMARK SMILES IDX 17 1 16 2 15 3 14 4 13 5 11 6 12 7 10 8 8 9 9 10 91 11 83 14
REMARK SMILES IDX 90 15 82 16 84 17 89 18 85 19 88 20 86 21 87 22 7 23 1 24
REMARK SMILES IDX 2 25 3 26 4 27 6 28 5 29 18 30 19 31 20 32 21 33 22 34 23 35
REMARK SMILES IDX 81 36 24 37 80 38 25 39 26 40 27 41 74 42 28 43 79 44 73 45
REMARK SMILES IDX 75 46 29 47 78 48 72 49 71 50 30 52 60 53 41 54 59 55 42 56
REMARK SMILES IDX 45 57 58 58 76 59 43 60 44 61 57 63 77 64 46 65 31 66 32 67
REMARK SMILES IDX 40 68 33 69 39 70 34 71 35 72 36 73 37 74 38 75 61 76 62 77
REMARK SMILES IDX 70 78 63 79 69 80 64 81 65 82 66 83 67 84 68 85 47 86 48 87
REMARK SMILES IDX 56 88 49 89 55 90 50 91 51 92 52 93 53 94 54 95
REMARK H PARENT 9 12 9 13 75 51 45 62
REMARK Flexibility Score: inf
ROOT
ATOM      1  C   UNL A   1      47.663  32.875  32.061  1.00  0.00     0.202 C 
ENDROOT
BRANCH   1   2
ATOM      2  O   UNL A   1      46.307  32.857  32.541  1.00  0.00    -0.374 OA
BRANCH   2   3
ATOM      3  C   UNL A   1      45.607  34.111  32.862  1.00  0.00     0.202 C 
BRANCH   3   4
ATOM      4  C   UNL A   1      45.313  34.683  34.261  1.00  0.00     0.261 C 
BRANCH   4   5
ATOM      5  O   UNL A   1      43.928  34.918  34.533  1.00  0.00    -0.459 OA
BRANCH   5   6
ATOM      6  C   UNL A   1      43.190  34.067  35.272  1.00  0.00     0.365 C 
ATOM      7  O   UNL A   1      43.083  34.258  36.484  1.00  0.00    -0.245 OA
BRANCH   6   8
ATOM      8  C   UNL A   1      42.672  32.777  34.611  1.00  0.00     0.298 C 
ATOM      9  C   UNL A   1      40.255  31.852  34.431  1.00  0.00     0.243 C 
ATOM     10  N   UNL A   1      41.271  32.888  34.188  1.00  0.00    -0.326 N 
ATOM     11  C   UNL A   1      40.779  30.444  35.047  1.00  0.00     0.196 C 
ATOM     12  H   UNL A   1      40.914  33.735  34.630  1.00  0.00     0.347 HD
ATOM     13  H   UNL A   1      41.368  32.831  33.174  1.00  0.00     0.347 HD
ATOM     14  C   UNL A   1      42.292  30.438  35.025  1.00  0.00    -0.024 C 
ATOM     15  N   UNL A   1      40.454  29.246  34.196  1.00  0.00    -0.270 NA
ATOM     16  C   UNL A   1      42.990  31.618  35.559  1.00  0.00     0.111 C 
ATOM     17  C   UNL A   1      42.794  29.537  34.191  1.00  0.00     0.002 A 
ATOM     18  C   UNL A   1      41.601  28.802  33.778  1.00  0.00     0.066 A 
ATOM     19  C   UNL A   1      44.052  29.400  33.527  1.00  0.00     0.010 A 
ATOM     20  C   UNL A   1      41.863  27.660  32.865  1.00  0.00     0.028 A 
ATOM     21  C   UNL A   1      44.155  28.491  32.544  1.00  0.00     0.001 A 
ATOM     22  C   UNL A   1      43.064  27.572  32.262  1.00  0.00     0.002 A 
BRANCH   9  23
ATOM     23  C   UNL A   1      38.753  32.483  34.698  1.00  0.00     0.015 A 
ATOM     24  C   UNL A   1      37.604  33.768  37.468  1.00  0.00     0.045 C 
ATOM     25  C   UNL A   1      37.688  33.415  35.971  1.00  0.00    -0.042 A 
ATOM     26  C   UNL A   1      35.921  33.777  35.533  1.00  0.00     0.004 A 
ATOM     27  C   UNL A   1      35.241  33.284  33.983  1.00  0.00     0.000 A 
ATOM     28  C   UNL A   1      37.892  31.864  33.214  1.00  0.00     0.010 A 
ATOM     29  C   UNL A   1      36.180  32.275  32.876  1.00  0.00     0.001 A 
ENDBRANCH   9  23
ENDBRANCH   6   8
ENDBRANCH   5   6
ENDBRANCH   4   5
ENDBRANCH   3   4
ENDBRANCH   2   3
ENDBRANCH   1   2
BRANCH   1  30
ATOM     30  C   UNL A   1      48.413  34.067  31.219  1.00  0.00     0.261 C 
BRANCH  30  31
ATOM     31  O   UNL A   1      47.997  34.765  29.782  1.00  0.00    -0.460 OA
BRANCH  31  32
ATOM     32  C   UNL A   1      47.753  34.574  28.156  1.00  0.00     0.338 C 
ATOM     33  O   UNL A   1      48.608  35.429  27.771  1.00  0.00    -0.246 OA
BRANCH  32  34
ATOM     34  C   UNL A   1      46.444  33.180  27.202  1.00  0.00     0.060 A 
ATOM     35  C   UNL A   1      45.169  33.337  26.407  1.00  0.00     0.016 A 
ATOM     36  C   UNL A   1      46.488  31.665  27.255  1.00  0.00     0.016 A 
ATOM     37  C   UNL A   1      44.075  32.436  26.369  1.00  0.00     0.010 A 
ATOM     38  C   UNL A   1      45.403  30.824  27.406  1.00  0.00     0.010 A 
ATOM     39  C   UNL A   1      44.155  31.285  27.111  1.00  0.00    -0.014 A 
BRANCH  39  40
ATOM     40  C   UNL A   1      43.047  30.625  27.781  1.00  0.00     0.031 A 
ATOM     41  C   UNL A   1      42.436  29.423  27.178  1.00  0.00     0.074 A 
ATOM     42  C   UNL A   1      42.778  31.020  29.051  1.00  0.00     0.049 A 
ATOM     43  N   UNL A   1      41.288  28.973  27.534  1.00  0.00    -0.248 NA
ATOM     44  C   UNL A   1      43.020  28.644  26.080  1.00  0.00     0.031 C 
ATOM     45  C   UNL A   1      41.965  30.369  30.080  1.00  0.00     0.029 A 
ATOM     46  N   UNL A   1      43.145  32.221  29.672  1.00  0.00    -0.354 N 
ATOM     47  C   UNL A   1      41.147  27.722  26.982  1.00  0.00     0.074 A 
ATOM     48  C   UNL A   1      42.152  27.636  25.962  1.00  0.00     0.031 C 
ATOM     49  C   UNL A   1      41.631  31.285  31.011  1.00  0.00     0.029 A 
ATOM     50  C   UNL A   1      42.118  32.579  30.540  1.00  0.00     0.049 A 
ATOM     51  H   UNL A   1      43.979  32.722  29.521  1.00  0.00     0.167 HD
ATOM     52  C   UNL A   1      40.297  26.843  27.574  1.00  0.00     0.031 A 
ATOM     53  C   UNL A   1      41.353  33.680  30.291  1.00  0.00     0.031 A 
ATOM     54  C   UNL A   1      39.519  27.518  28.616  1.00  0.00     0.049 A 
ATOM     55  C   UNL A   1      39.940  33.238  29.975  1.00  0.00     0.074 A 
ATOM     56  C   UNL A   1      39.545  27.481  29.997  1.00  0.00     0.029 A 
ATOM     57  N   UNL A   1      38.806  28.664  28.269  1.00  0.00    -0.354 N 
ATOM     58  N   UNL A   1      39.658  32.048  29.505  1.00  0.00    -0.248 NA
ATOM     59  C   UNL A   1      38.741  34.015  30.270  1.00  0.00     0.031 C 
ATOM     60  C   UNL A   1      38.934  28.686  30.471  1.00  0.00     0.029 A 
ATOM     61  C   UNL A   1      38.502  29.426  29.379  1.00  0.00     0.049 A 
ATOM     62  H   UNL A   1      38.552  28.901  27.347  1.00  0.00     0.167 HD
ATOM     63  C   UNL A   1      38.309  31.845  29.537  1.00  0.00     0.074 A 
ATOM     64  C   UNL A   1      37.774  33.120  29.990  1.00  0.00     0.031 C 
ATOM     65  C   UNL A   1      37.722  30.653  29.218  1.00  0.00     0.031 A 
BRANCH  52  66
ATOM     66  C   UNL A   1      40.317  25.347  27.349  1.00  0.00    -0.014 A 
ATOM     67  C   UNL A   1      41.494  24.623  27.614  1.00  0.00     0.010 A 
ATOM     68  C   UNL A   1      39.244  24.603  26.805  1.00  0.00     0.010 A 
ATOM     69  C   UNL A   1      41.586  23.240  27.377  1.00  0.00     0.020 A 
ATOM     70  C   UNL A   1      39.310  23.218  26.596  1.00  0.00     0.020 A 
ATOM     71  C   UNL A   1      40.486  22.541  26.883  1.00  0.00     0.054 A 
BRANCH  71  72
ATOM     72  S   UNL A   1      40.602  20.753  26.621  1.00  0.00     0.124 S 
ATOM     73  O   UNL A   1      41.806  20.634  25.804  1.00  0.00    -0.237 OA
ATOM     74  O   UNL A   1      40.709  20.242  27.984  1.00  0.00    -0.237 OA
ATOM     75  O   UNL A   1      39.354  20.421  25.933  1.00  0.00    -0.744 OA
ENDBRANCH  71  72
ENDBRANCH  52  66
BRANCH  53  76
ATOM     76  C   UNL A   1      42.098  34.886  29.802  1.00  0.00    -0.014 A 
ATOM     77  C   UNL A   1      43.432  35.014  30.242  1.00  0.00     0.010 A 
ATOM     78  C   UNL A   1      41.704  35.704  28.729  1.00  0.00     0.010 A 
ATOM     79  C   UNL A   1      44.351  35.871  29.615  1.00  0.00     0.020 A 
ATOM     80  C   UNL A   1      42.630  36.569  28.088  1.00  0.00     0.020 A 
ATOM     81  C   UNL A   1      43.952  36.643  28.535  1.00  0.00     0.054 A 
BRANCH  81  82
ATOM     82  S   UNL A   1      45.215  37.660  27.690  1.00  0.00     0.124 S 
ATOM     83  O   UNL A   1      45.636  36.782  26.603  1.00  0.00    -0.237 OA
ATOM     84  O   UNL A   1      44.467  38.839  27.273  1.00  0.00    -0.237 OA
ATOM     85  O   UNL A   1      46.204  37.894  28.740  1.00  0.00    -0.744 OA
ENDBRANCH  81  82
ENDBRANCH  53  76
BRANCH  65  86
ATOM     86  C   UNL A   1      36.314  30.535  28.681  1.00  0.00    -0.014 A 
ATOM     87  C   UNL A   1      35.407  31.604  28.647  1.00  0.00     0.010 A 
ATOM     88  C   UNL A   1      35.937  29.356  27.988  1.00  0.00     0.010 A 
ATOM     89  C   UNL A   1      34.174  31.491  28.001  1.00  0.00     0.020 A 
ATOM     90  C   UNL A   1      34.744  29.260  27.275  1.00  0.00     0.020 A 
ATOM     91  C   UNL A   1      33.854  30.323  27.312  1.00  0.00     0.054 A 
BRANCH  91  92
ATOM     92  S   UNL A   1      32.281  30.236  26.434  1.00  0.00     0.124 S 
ATOM     93  O   UNL A   1      32.714  29.843  25.095  1.00  0.00    -0.237 OA
ATOM     94  O   UNL A   1      31.554  29.214  27.184  1.00  0.00    -0.237 OA
ATOM     95  O   UNL A   1      31.744  31.588  26.550  1.00  0.00    -0.744 OA
ENDBRANCH  91  92
ENDBRANCH  65  86
ENDBRANCH  39  40
ENDBRANCH  32  34
ENDBRANCH  31  32
ENDBRANCH  30  31
ENDBRANCH   1  30
TORSDOF 18
ENDMDL
