MODEL 1
REMARK VINA RESULT:     -10.1      0.000      0.000
REMARK SMILES CC[C@@](O)(C(=O)OCCOCCOC(=O)c1ccc(-c2c3nc(c(-c4ccc(S(=O)(=O)[O-])cc4)c4ccc([nH]4)c(-c4ccc(S(=O)(=O)[O-])cc4)c4nc(c(-c5ccc(S(=O)(=O)[O-])cc5)c5ccc2[nH]5)C=C4)C=C3)cc1)[C@H](C)c1cc(F)c(C)cc1F
REMARK SMILES IDX 11 1 10 2 9 3 8 4 7 5 5 6 6 7 3 8 2 9 1 10 4 11 76 13 77 14
REMARK SMILES IDX 78 15 79 16 85 17 80 18 84 19 86 20 81 21 82 22 83 23 12 24
REMARK SMILES IDX 13 25 14 26 15 27 16 28 17 29 75 30 18 31 74 32 19 33 20 34
REMARK SMILES IDX 21 35 68 36 22 37 73 38 67 39 69 40 23 41 72 42 66 43 65 44
REMARK SMILES IDX 24 46 54 47 35 48 53 49 36 50 39 51 52 52 70 53 37 54 38 55
REMARK SMILES IDX 51 57 71 58 40 59 25 60 26 61 34 62 27 63 33 64 28 65 29 66
REMARK SMILES IDX 30 67 31 68 32 69 55 70 56 71 64 72 57 73 63 74 58 75 59 76
REMARK SMILES IDX 60 77 61 78 62 79 41 80 42 81 50 82 43 83 49 84 44 85 45 86
REMARK SMILES IDX 46 87 47 88 48 89
REMARK H PARENT 4 12 69 45 39 56
REMARK Flexibility Score: inf
ROOT
ATOM      1  C   UNL A   1      40.306  21.615  26.742  1.00  0.00     0.202 C 
ENDROOT
BRANCH   1   2
ATOM      2  O   UNL A   1      39.368  21.145  25.779  1.00  0.00    -0.374 OA
BRANCH   2   3
ATOM      3  C   UNL A   1      38.171  21.895  25.585  1.00  0.00     0.202 C 
BRANCH   3   4
ATOM      4  C   UNL A   1      36.931  21.185  25.027  1.00  0.00     0.261 C 
BRANCH   4   5
ATOM      5  O   UNL A   1      35.718  21.547  25.706  1.00  0.00    -0.461 OA
BRANCH   5   6
ATOM      6  C   UNL A   1      34.590  20.916  25.263  1.00  0.00     0.338 C 
ATOM      7  O   UNL A   1      34.617  19.810  24.738  1.00  0.00    -0.249 OA
BRANCH   6   8
ATOM      8  C   UNL A   1      33.286  21.745  25.488  1.00  0.00     0.168 C 
BRANCH   8   9
ATOM      9  C   UNL A   1      32.768  22.389  24.169  1.00  0.00     0.044 C 
ATOM     10  C   UNL A   1      33.847  22.692  23.131  1.00  0.00     0.007 C 
ENDBRANCH   8   9
BRANCH   8  11
ATOM     11  O   UNL A   1      32.266  20.785  25.842  1.00  0.00    -0.378 OA
ATOM     12  H   UNL A   1      31.457  21.254  26.100  1.00  0.00     0.212 HD
ENDBRANCH   8  11
BRANCH   8  13
ATOM     13  C   UNL A   1      33.462  22.825  26.642  1.00  0.00     0.062 C 
ATOM     14  C   UNL A   1      32.975  22.387  28.030  1.00  0.00     0.016 C 
BRANCH  13  15
ATOM     15  C   UNL A   1      32.949  24.231  26.322  1.00  0.00    -0.003 A 
ATOM     16  C   UNL A   1      31.613  24.619  26.495  1.00  0.00     0.046 A 
ATOM     17  C   UNL A   1      33.832  25.191  25.805  1.00  0.00     0.127 A 
ATOM     18  C   UNL A   1      31.168  25.864  26.054  1.00  0.00     0.126 A 
ATOM     19  C   UNL A   1      33.398  26.454  25.401  1.00  0.00     0.046 A 
ATOM     20  F   UNL A   1      35.130  24.888  25.658  1.00  0.00    -0.207 F 
ATOM     21  F   UNL A   1      29.864  26.158  26.153  1.00  0.00    -0.207 F 
ATOM     22  C   UNL A   1      32.047  26.793  25.499  1.00  0.00    -0.012 A 
ATOM     23  C   UNL A   1      31.525  28.084  24.952  1.00  0.00     0.047 C 
ENDBRANCH  13  15
ENDBRANCH   8  13
ENDBRANCH   6   8
ENDBRANCH   5   6
ENDBRANCH   4   5
ENDBRANCH   3   4
ENDBRANCH   2   3
ENDBRANCH   1   2
BRANCH   1  24
ATOM     24  C   UNL A   1      41.649  22.188  26.278  1.00  0.00     0.261 C 
BRANCH  24  25
ATOM     25  O   UNL A   1      42.150  23.210  27.150  1.00  0.00    -0.460 OA
BRANCH  25  26
ATOM     26  C   UNL A   1      42.327  24.411  26.551  1.00  0.00     0.338 C 
ATOM     27  O   UNL A   1      42.680  24.615  25.395  1.00  0.00    -0.246 OA
BRANCH  26  28
ATOM     28  C   UNL A   1      41.814  25.482  27.418  1.00  0.00     0.060 A 
ATOM     29  C   UNL A   1      42.579  26.654  27.505  1.00  0.00     0.016 A 
ATOM     30  C   UNL A   1      40.649  25.329  28.172  1.00  0.00     0.016 A 
ATOM     31  C   UNL A   1      42.211  27.659  28.388  1.00  0.00     0.010 A 
ATOM     32  C   UNL A   1      40.291  26.334  29.074  1.00  0.00     0.010 A 
ATOM     33  C   UNL A   1      41.094  27.481  29.213  1.00  0.00    -0.014 A 
BRANCH  33  34
ATOM     34  C   UNL A   1      40.892  28.411  30.346  1.00  0.00     0.031 A 
ATOM     35  C   UNL A   1      41.796  28.288  31.541  1.00  0.00     0.074 A 
ATOM     36  C   UNL A   1      39.966  29.382  30.282  1.00  0.00     0.049 A 
ATOM     37  N   UNL A   1      41.809  28.989  32.645  1.00  0.00    -0.248 NA
ATOM     38  C   UNL A   1      42.826  27.237  31.483  1.00  0.00     0.031 C 
ATOM     39  C   UNL A   1      39.076  29.628  29.148  1.00  0.00     0.029 A 
ATOM     40  N   UNL A   1      39.625  30.346  31.195  1.00  0.00    -0.354 N 
ATOM     41  C   UNL A   1      42.841  28.462  33.413  1.00  0.00     0.074 A 
ATOM     42  C   UNL A   1      43.411  27.363  32.664  1.00  0.00     0.031 C 
ATOM     43  C   UNL A   1      38.282  30.673  29.436  1.00  0.00     0.029 A 
ATOM     44  C   UNL A   1      38.586  31.147  30.785  1.00  0.00     0.049 A 
ATOM     45  H   UNL A   1      40.080  30.455  32.060  1.00  0.00     0.167 HD
ATOM     46  C   UNL A   1      43.278  28.863  34.630  1.00  0.00     0.031 A 
ATOM     47  C   UNL A   1      37.941  32.134  31.438  1.00  0.00     0.031 A 
ATOM     48  C   UNL A   1      42.690  29.944  35.374  1.00  0.00     0.049 A 
ATOM     49  C   UNL A   1      38.392  32.510  32.824  1.00  0.00     0.074 A 
ATOM     50  C   UNL A   1      43.053  30.431  36.618  1.00  0.00     0.029 A 
ATOM     51  N   UNL A   1      41.611  30.702  34.946  1.00  0.00    -0.354 N 
ATOM     52  N   UNL A   1      39.376  32.011  33.535  1.00  0.00    -0.248 NA
ATOM     53  C   UNL A   1      37.651  33.588  33.493  1.00  0.00     0.031 C 
ATOM     54  C   UNL A   1      42.156  31.446  36.965  1.00  0.00     0.029 A 
ATOM     55  C   UNL A   1      41.276  31.637  35.910  1.00  0.00     0.049 A 
ATOM     56  H   UNL A   1      41.151  30.593  34.083  1.00  0.00     0.167 HD
ATOM     57  C   UNL A   1      39.389  32.732  34.725  1.00  0.00     0.074 A 
ATOM     58  C   UNL A   1      38.325  33.710  34.630  1.00  0.00     0.031 C 
ATOM     59  C   UNL A   1      40.209  32.599  35.797  1.00  0.00     0.031 A 
BRANCH  46  60
ATOM     60  C   UNL A   1      44.419  28.096  35.244  1.00  0.00    -0.014 A 
ATOM     61  C   UNL A   1      44.192  26.954  36.034  1.00  0.00     0.010 A 
ATOM     62  C   UNL A   1      45.743  28.512  35.009  1.00  0.00     0.010 A 
ATOM     63  C   UNL A   1      45.265  26.268  36.611  1.00  0.00     0.020 A 
ATOM     64  C   UNL A   1      46.819  27.812  35.561  1.00  0.00     0.020 A 
ATOM     65  C   UNL A   1      46.573  26.705  36.373  1.00  0.00     0.054 A 
BRANCH  65  66
ATOM     66  S   UNL A   1      47.945  25.786  37.121  1.00  0.00     0.124 S 
ATOM     67  O   UNL A   1      47.260  24.631  37.695  1.00  0.00    -0.237 OA
ATOM     68  O   UNL A   1      48.804  25.501  35.975  1.00  0.00    -0.237 OA
ATOM     69  O   UNL A   1      48.502  26.724  38.093  1.00  0.00    -0.744 OA
ENDBRANCH  65  66
ENDBRANCH  46  60
BRANCH  47  70
ATOM     70  C   UNL A   1      36.785  32.814  30.792  1.00  0.00    -0.014 A 
ATOM     71  C   UNL A   1      35.465  32.520  31.177  1.00  0.00     0.010 A 
ATOM     72  C   UNL A   1      37.005  33.778  29.790  1.00  0.00     0.010 A 
ATOM     73  C   UNL A   1      34.388  33.167  30.562  1.00  0.00     0.020 A 
ATOM     74  C   UNL A   1      35.933  34.446  29.194  1.00  0.00     0.020 A 
ATOM     75  C   UNL A   1      34.629  34.129  29.577  1.00  0.00     0.054 A 
BRANCH  75  76
ATOM     76  S   UNL A   1      33.218  34.995  28.834  1.00  0.00     0.124 S 
ATOM     77  O   UNL A   1      33.866  36.139  28.199  1.00  0.00    -0.237 OA
ATOM     78  O   UNL A   1      32.674  33.988  27.925  1.00  0.00    -0.237 OA
ATOM     79  O   UNL A   1      32.369  35.312  29.980  1.00  0.00    -0.744 OA
ENDBRANCH  75  76
ENDBRANCH  47  70
BRANCH  59  80
ATOM     80  C   UNL A   1      40.011  33.556  36.944  1.00  0.00    -0.014 A 
ATOM     81  C   UNL A   1      40.592  34.836  36.936  1.00  0.00     0.010 A 
ATOM     82  C   UNL A   1      39.179  33.187  38.017  1.00  0.00     0.010 A 
ATOM     83  C   UNL A   1      40.371  35.718  37.998  1.00  0.00     0.020 A 
ATOM     84  C   UNL A   1      38.931  34.076  39.065  1.00  0.00     0.020 A 
ATOM     85  C   UNL A   1      39.541  35.332  39.055  1.00  0.00     0.054 A 
BRANCH  85  86
ATOM     86  S   UNL A   1      39.234  36.510  40.400  1.00  0.00     0.124 S 
ATOM     87  O   UNL A   1      38.817  37.704  39.668  1.00  0.00    -0.237 OA
ATOM     88  O   UNL A   1      38.185  35.849  41.172  1.00  0.00    -0.237 OA
ATOM     89  O   UNL A   1      40.526  36.612  41.074  1.00  0.00    -0.744 OA
ENDBRANCH  85  86
ENDBRANCH  59  80
ENDBRANCH  33  34
ENDBRANCH  26  28
ENDBRANCH  25  26
ENDBRANCH  24  25
ENDBRANCH   1  24
TORSDOF 21
ENDMDL
MODEL 2
REMARK VINA RESULT:     -10.1      3.864     10.138
REMARK SMILES CC[C@@](O)(C(=O)OCCOCCOC(=O)c1ccc(-c2c3nc(c(-c4ccc(S(=O)(=O)[O-])cc4)c4ccc([nH]4)c(-c4ccc(S(=O)(=O)[O-])cc4)c4nc(c(-c5ccc(S(=O)(=O)[O-])cc5)c5ccc2[nH]5)C=C4)C=C3)cc1)[C@H](C)c1cc(F)c(C)cc1F
REMARK SMILES IDX 11 1 10 2 9 3 8 4 7 5 5 6 6 7 3 8 2 9 1 10 4 11 76 13 77 14
REMARK SMILES IDX 78 15 79 16 85 17 80 18 84 19 86 20 81 21 82 22 83 23 12 24
REMARK SMILES IDX 13 25 14 26 15 27 16 28 17 29 75 30 18 31 74 32 19 33 20 34
REMARK SMILES IDX 21 35 68 36 22 37 73 38 67 39 69 40 23 41 72 42 66 43 65 44
REMARK SMILES IDX 24 46 54 47 35 48 53 49 36 50 39 51 52 52 70 53 37 54 38 55
REMARK SMILES IDX 51 57 71 58 40 59 25 60 26 61 34 62 27 63 33 64 28 65 29 66
REMARK SMILES IDX 30 67 31 68 32 69 55 70 56 71 64 72 57 73 63 74 58 75 59 76
REMARK SMILES IDX 60 77 61 78 62 79 41 80 42 81 50 82 43 83 49 84 44 85 45 86
REMARK SMILES IDX 46 87 47 88 48 89
REMARK H PARENT 4 12 69 45 39 56
REMARK Flexibility Score: inf
ROOT
ATOM      1  C   UNL A   1      31.929  29.416  26.196  1.00  0.00     0.202 C 
ENDROOT
BRANCH   1   2
ATOM      2  O   UNL A   1      31.190  29.940  25.097  1.00  0.00    -0.374 OA
BRANCH   2   3
ATOM      3  C   UNL A   1      31.015  29.113  23.950  1.00  0.00     0.202 C 
BRANCH   3   4
ATOM      4  C   UNL A   1      31.025  27.589  24.124  1.00  0.00     0.261 C 
BRANCH   4   5
ATOM      5  O   UNL A   1      31.818  26.911  23.136  1.00  0.00    -0.461 OA
BRANCH   5   6
ATOM      6  C   UNL A   1      32.984  26.369  23.596  1.00  0.00     0.338 C 
ATOM      7  O   UNL A   1      33.882  27.047  24.077  1.00  0.00    -0.249 OA
BRANCH   6   8
ATOM      8  C   UNL A   1      33.051  24.816  23.438  1.00  0.00     0.168 C 
BRANCH   8   9
ATOM      9  C   UNL A   1      31.866  24.263  22.593  1.00  0.00     0.044 C 
ATOM     10  C   UNL A   1      30.636  23.850  23.400  1.00  0.00     0.007 C 
ENDBRANCH   8   9
BRANCH   8  11
ATOM     11  O   UNL A   1      34.219  24.553  22.631  1.00  0.00    -0.378 OA
ATOM     12  H   UNL A   1      34.212  23.626  22.344  1.00  0.00     0.212 HD
ENDBRANCH   8  11
BRANCH   8  13
ATOM     13  C   UNL A   1      33.166  24.083  24.844  1.00  0.00     0.062 C 
ATOM     14  C   UNL A   1      32.651  24.885  26.047  1.00  0.00     0.016 C 
BRANCH  13  15
ATOM     15  C   UNL A   1      34.532  23.469  25.165  1.00  0.00    -0.003 A 
ATOM     16  C   UNL A   1      35.625  24.222  25.617  1.00  0.00     0.046 A 
ATOM     17  C   UNL A   1      34.734  22.093  24.984  1.00  0.00     0.127 A 
ATOM     18  C   UNL A   1      36.883  23.640  25.756  1.00  0.00     0.126 A 
ATOM     19  C   UNL A   1      35.983  21.499  25.164  1.00  0.00     0.046 A 
ATOM     20  F   UNL A   1      33.712  21.317  24.595  1.00  0.00    -0.207 F 
ATOM     21  F   UNL A   1      37.922  24.417  26.099  1.00  0.00    -0.207 F 
ATOM     22  C   UNL A   1      37.083  22.280  25.528  1.00  0.00    -0.012 A 
ATOM     23  C   UNL A   1      38.461  21.702  25.597  1.00  0.00     0.047 C 
ENDBRANCH  13  15
ENDBRANCH   8  13
ENDBRANCH   6   8
ENDBRANCH   5   6
ENDBRANCH   4   5
ENDBRANCH   3   4
ENDBRANCH   2   3
ENDBRANCH   1   2
BRANCH   1  24
ATOM     24  C   UNL A   1      32.577  30.371  27.203  1.00  0.00     0.261 C 
BRANCH  24  25
ATOM     25  O   UNL A   1      33.991  30.513  27.007  1.00  0.00    -0.460 OA
BRANCH  25  26
ATOM     26  C   UNL A   1      34.653  30.995  28.085  1.00  0.00     0.338 C 
ATOM     27  O   UNL A   1      34.224  31.775  28.928  1.00  0.00    -0.246 OA
BRANCH  26  28
ATOM     28  C   UNL A   1      35.924  30.276  28.252  1.00  0.00     0.060 A 
ATOM     29  C   UNL A   1      36.184  29.723  29.514  1.00  0.00     0.016 A 
ATOM     30  C   UNL A   1      36.866  30.191  27.225  1.00  0.00     0.016 A 
ATOM     31  C   UNL A   1      37.410  29.127  29.772  1.00  0.00     0.010 A 
ATOM     32  C   UNL A   1      38.107  29.607  27.493  1.00  0.00     0.010 A 
ATOM     33  C   UNL A   1      38.395  29.112  28.778  1.00  0.00    -0.014 A 
BRANCH  33  34
ATOM     34  C   UNL A   1      39.780  28.753  29.156  1.00  0.00     0.031 A 
ATOM     35  C   UNL A   1      40.591  29.752  29.935  1.00  0.00     0.074 A 
ATOM     36  C   UNL A   1      40.280  27.540  28.865  1.00  0.00     0.049 A 
ATOM     37  N   UNL A   1      41.818  29.659  30.375  1.00  0.00    -0.248 NA
ATOM     38  C   UNL A   1      39.927  31.025  30.265  1.00  0.00     0.031 C 
ATOM     39  C   UNL A   1      39.561  26.476  28.165  1.00  0.00     0.029 A 
ATOM     40  N   UNL A   1      41.512  27.000  29.128  1.00  0.00    -0.354 N 
ATOM     41  C   UNL A   1      42.074  30.859  31.028  1.00  0.00     0.074 A 
ATOM     42  C   UNL A   1      40.888  31.676  30.901  1.00  0.00     0.031 C 
ATOM     43  C   UNL A   1      40.372  25.409  28.047  1.00  0.00     0.029 A 
ATOM     44  C   UNL A   1      41.672  25.729  28.632  1.00  0.00     0.049 A 
ATOM     45  H   UNL A   1      42.215  27.478  29.625  1.00  0.00     0.167 HD
ATOM     46  C   UNL A   1      43.197  31.241  31.682  1.00  0.00     0.031 A 
ATOM     47  C   UNL A   1      42.754  24.927  28.633  1.00  0.00     0.031 A 
ATOM     48  C   UNL A   1      44.378  30.428  31.786  1.00  0.00     0.049 A 
ATOM     49  C   UNL A   1      44.019  25.405  29.296  1.00  0.00     0.074 A 
ATOM     50  C   UNL A   1      45.572  30.720  32.422  1.00  0.00     0.029 A 
ATOM     51  N   UNL A   1      44.518  29.164  31.231  1.00  0.00    -0.354 N 
ATOM     52  N   UNL A   1      44.246  26.537  29.919  1.00  0.00    -0.248 NA
ATOM     53  C   UNL A   1      45.171  24.494  29.262  1.00  0.00     0.031 C 
ATOM     54  C   UNL A   1      46.453  29.656  32.204  1.00  0.00     0.029 A 
ATOM     55  C   UNL A   1      45.786  28.672  31.488  1.00  0.00     0.049 A 
ATOM     56  H   UNL A   1      43.818  28.687  30.731  1.00  0.00     0.167 HD
ATOM     57  C   UNL A   1      45.558  26.465  30.375  1.00  0.00     0.074 A 
ATOM     58  C   UNL A   1      46.068  25.171  29.969  1.00  0.00     0.031 C 
ATOM     59  C   UNL A   1      46.275  27.383  31.070  1.00  0.00     0.031 A 
BRANCH  46  60
ATOM     60  C   UNL A   1      43.207  32.617  32.295  1.00  0.00    -0.014 A 
ATOM     61  C   UNL A   1      43.456  33.763  31.517  1.00  0.00     0.010 A 
ATOM     62  C   UNL A   1      42.943  32.768  33.669  1.00  0.00     0.010 A 
ATOM     63  C   UNL A   1      43.481  35.029  32.109  1.00  0.00     0.020 A 
ATOM     64  C   UNL A   1      42.938  34.034  34.259  1.00  0.00     0.020 A 
ATOM     65  C   UNL A   1      43.224  35.156  33.479  1.00  0.00     0.054 A 
BRANCH  65  66
ATOM     66  S   UNL A   1      43.247  36.812  34.218  1.00  0.00     0.124 S 
ATOM     67  O   UNL A   1      44.365  36.710  35.153  1.00  0.00    -0.237 OA
ATOM     68  O   UNL A   1      43.472  37.676  33.062  1.00  0.00    -0.237 OA
ATOM     69  O   UNL A   1      41.929  36.934  34.836  1.00  0.00    -0.744 OA
ENDBRANCH  65  66
ENDBRANCH  46  60
BRANCH  47  70
ATOM     70  C   UNL A   1      42.691  23.600  27.960  1.00  0.00    -0.014 A 
ATOM     71  C   UNL A   1      42.179  22.474  28.628  1.00  0.00     0.010 A 
ATOM     72  C   UNL A   1      43.137  23.462  26.632  1.00  0.00     0.010 A 
ATOM     73  C   UNL A   1      42.125  21.233  27.985  1.00  0.00     0.020 A 
ATOM     74  C   UNL A   1      43.059  22.230  25.977  1.00  0.00     0.020 A 
ATOM     75  C   UNL A   1      42.563  21.120  26.662  1.00  0.00     0.054 A 
BRANCH  75  76
ATOM     76  S   UNL A   1      42.432  19.513  25.830  1.00  0.00     0.124 S 
ATOM     77  O   UNL A   1      42.796  18.588  26.898  1.00  0.00    -0.237 OA
ATOM     78  O   UNL A   1      41.031  19.486  25.416  1.00  0.00    -0.237 OA
ATOM     79  O   UNL A   1      43.395  19.616  24.735  1.00  0.00    -0.744 OA
ENDBRANCH  75  76
ENDBRANCH  47  70
BRANCH  59  80
ATOM     80  C   UNL A   1      47.680  27.010  31.466  1.00  0.00    -0.014 A 
ATOM     81  C   UNL A   1      48.786  27.406  30.693  1.00  0.00     0.010 A 
ATOM     82  C   UNL A   1      47.897  26.305  32.663  1.00  0.00     0.010 A 
ATOM     83  C   UNL A   1      50.083  27.073  31.095  1.00  0.00     0.020 A 
ATOM     84  C   UNL A   1      49.193  25.997  33.084  1.00  0.00     0.020 A 
ATOM     85  C   UNL A   1      50.277  26.370  32.288  1.00  0.00     0.054 A 
BRANCH  85  86
ATOM     86  S   UNL A   1      51.972  25.989  32.811  1.00  0.00     0.124 S 
ATOM     87  O   UNL A   1      52.453  25.166  31.705  1.00  0.00    -0.237 OA
ATOM     88  O   UNL A   1      52.580  27.314  32.918  1.00  0.00    -0.237 OA
ATOM     89  O   UNL A   1      51.794  25.288  34.080  1.00  0.00    -0.744 OA
ENDBRANCH  85  86
ENDBRANCH  59  80
ENDBRANCH  33  34
ENDBRANCH  26  28
ENDBRANCH  25  26
ENDBRANCH  24  25
ENDBRANCH   1  24
TORSDOF 21
ENDMDL
MODEL 3
REMARK VINA RESULT:      -9.9      4.109     10.269
REMARK SMILES CC[C@@](O)(C(=O)OCCOCCOC(=O)c1ccc(-c2c3nc(c(-c4ccc(S(=O)(=O)[O-])cc4)c4ccc([nH]4)c(-c4ccc(S(=O)(=O)[O-])cc4)c4nc(c(-c5ccc(S(=O)(=O)[O-])cc5)c5ccc2[nH]5)C=C4)C=C3)cc1)[C@H](C)c1cc(F)c(C)cc1F
REMARK SMILES IDX 11 1 10 2 9 3 8 4 7 5 5 6 6 7 3 8 2 9 1 10 4 11 76 13 77 14
REMARK SMILES IDX 78 15 79 16 85 17 80 18 84 19 86 20 81 21 82 22 83 23 12 24
REMARK SMILES IDX 13 25 14 26 15 27 16 28 17 29 75 30 18 31 74 32 19 33 20 34
REMARK SMILES IDX 21 35 68 36 22 37 73 38 67 39 69 40 23 41 72 42 66 43 65 44
REMARK SMILES IDX 24 46 54 47 35 48 53 49 36 50 39 51 52 52 70 53 37 54 38 55
REMARK SMILES IDX 51 57 71 58 40 59 25 60 26 61 34 62 27 63 33 64 28 65 29 66
REMARK SMILES IDX 30 67 31 68 32 69 55 70 56 71 64 72 57 73 63 74 58 75 59 76
REMARK SMILES IDX 60 77 61 78 62 79 41 80 42 81 50 82 43 83 49 84 44 85 45 86
REMARK SMILES IDX 46 87 47 88 48 89
REMARK H PARENT 4 12 69 45 39 56
REMARK Flexibility Score: inf
ROOT
ATOM      1  C   UNL A   1      31.886  29.758  26.319  1.00  0.00     0.202 C 
ENDROOT
BRANCH   1   2
ATOM      2  O   UNL A   1      32.148  29.054  25.109  1.00  0.00    -0.374 OA
BRANCH   2   3
ATOM      3  C   UNL A   1      32.683  27.736  25.200  1.00  0.00     0.202 C 
BRANCH   3   4
ATOM      4  C   UNL A   1      33.172  27.042  23.922  1.00  0.00     0.261 C 
BRANCH   4   5
ATOM      5  O   UNL A   1      33.804  25.776  24.171  1.00  0.00    -0.461 OA
BRANCH   5   6
ATOM      6  C   UNL A   1      33.041  24.678  23.894  1.00  0.00     0.338 C 
ATOM      7  O   UNL A   1      31.914  24.760  23.421  1.00  0.00    -0.249 OA
BRANCH   6   8
ATOM      8  C   UNL A   1      33.744  23.329  24.244  1.00  0.00     0.168 C 
BRANCH   8   9
ATOM      9  C   UNL A   1      34.680  22.842  23.099  1.00  0.00     0.044 C 
ATOM     10  C   UNL A   1      36.174  23.002  23.375  1.00  0.00     0.007 C 
ENDBRANCH   8   9
BRANCH   8  11
ATOM     11  O   UNL A   1      34.641  23.625  25.337  1.00  0.00    -0.378 OA
ATOM     12  H   UNL A   1      35.526  23.287  25.130  1.00  0.00     0.212 HD
ENDBRANCH   8  11
BRANCH   8  13
ATOM     13  C   UNL A   1      32.698  22.208  24.667  1.00  0.00     0.062 C 
ATOM     14  C   UNL A   1      32.251  22.249  26.135  1.00  0.00     0.016 C 
BRANCH  13  15
ATOM     15  C   UNL A   1      33.058  20.775  24.264  1.00  0.00    -0.003 A 
ATOM     16  C   UNL A   1      32.356  20.053  23.289  1.00  0.00     0.046 A 
ATOM     17  C   UNL A   1      34.122  20.121  24.903  1.00  0.00     0.127 A 
ATOM     18  C   UNL A   1      32.632  18.706  23.062  1.00  0.00     0.126 A 
ATOM     19  C   UNL A   1      34.429  18.785  24.647  1.00  0.00     0.046 A 
ATOM     20  F   UNL A   1      34.856  20.779  25.813  1.00  0.00    -0.207 F 
ATOM     21  F   UNL A   1      31.874  18.028  22.188  1.00  0.00    -0.207 F 
ATOM     22  C   UNL A   1      33.663  18.053  23.737  1.00  0.00    -0.012 A 
ATOM     23  C   UNL A   1      33.877  16.586  23.539  1.00  0.00     0.047 C 
ENDBRANCH  13  15
ENDBRANCH   8  13
ENDBRANCH   6   8
ENDBRANCH   5   6
ENDBRANCH   4   5
ENDBRANCH   3   4
ENDBRANCH   2   3
ENDBRANCH   1   2
BRANCH   1  24
ATOM     24  C   UNL A   1      32.962  29.825  27.408  1.00  0.00     0.261 C 
BRANCH  24  25
ATOM     25  O   UNL A   1      34.003  30.764  27.105  1.00  0.00    -0.460 OA
BRANCH  25  26
ATOM     26  C   UNL A   1      34.685  31.203  28.190  1.00  0.00     0.338 C 
ATOM     27  O   UNL A   1      34.279  31.966  29.059  1.00  0.00    -0.246 OA
BRANCH  26  28
ATOM     28  C   UNL A   1      35.944  30.456  28.323  1.00  0.00     0.060 A 
ATOM     29  C   UNL A   1      36.253  29.947  29.592  1.00  0.00     0.016 A 
ATOM     30  C   UNL A   1      36.830  30.303  27.255  1.00  0.00     0.016 A 
ATOM     31  C   UNL A   1      37.475  29.327  29.814  1.00  0.00     0.010 A 
ATOM     32  C   UNL A   1      38.068  29.696  27.485  1.00  0.00     0.010 A 
ATOM     33  C   UNL A   1      38.408  29.245  28.773  1.00  0.00    -0.014 A 
BRANCH  33  34
ATOM     34  C   UNL A   1      39.800  28.863  29.097  1.00  0.00     0.031 A 
ATOM     35  C   UNL A   1      40.667  29.861  29.814  1.00  0.00     0.074 A 
ATOM     36  C   UNL A   1      40.259  27.632  28.813  1.00  0.00     0.049 A 
ATOM     37  N   UNL A   1      41.911  29.749  30.200  1.00  0.00    -0.248 NA
ATOM     38  C   UNL A   1      40.047  31.156  30.143  1.00  0.00     0.031 C 
ATOM     39  C   UNL A   1      39.486  26.569  28.173  1.00  0.00     0.029 A 
ATOM     40  N   UNL A   1      41.490  27.071  29.033  1.00  0.00    -0.354 N 
ATOM     41  C   UNL A   1      42.224  30.958  30.812  1.00  0.00     0.074 A 
ATOM     42  C   UNL A   1      41.051  31.800  30.719  1.00  0.00     0.031 C 
ATOM     43  C   UNL A   1      40.266  25.482  28.043  1.00  0.00     0.029 A 
ATOM     44  C   UNL A   1      41.598  25.785  28.561  1.00  0.00     0.049 A 
ATOM     45  H   UNL A   1      42.225  27.543  29.485  1.00  0.00     0.167 HD
ATOM     46  C   UNL A   1      43.383  31.330  31.404  1.00  0.00     0.031 A 
ATOM     47  C   UNL A   1      42.662  24.958  28.532  1.00  0.00     0.031 A 
ATOM     48  C   UNL A   1      44.550  30.492  31.474  1.00  0.00     0.049 A 
ATOM     49  C   UNL A   1      43.966  25.422  29.125  1.00  0.00     0.074 A 
ATOM     50  C   UNL A   1      45.777  30.771  32.049  1.00  0.00     0.029 A 
ATOM     51  N   UNL A   1      44.636  29.213  30.945  1.00  0.00    -0.354 N 
ATOM     52  N   UNL A   1      44.246  26.563  29.710  1.00  0.00    -0.248 NA
ATOM     53  C   UNL A   1      45.095  24.484  29.062  1.00  0.00     0.031 C 
ATOM     54  C   UNL A   1      46.623  29.682  31.816  1.00  0.00     0.029 A 
ATOM     55  C   UNL A   1      45.903  28.698  31.156  1.00  0.00     0.049 A 
ATOM     56  H   UNL A   1      43.903  28.740  30.488  1.00  0.00     0.167 HD
ATOM     57  C   UNL A   1      45.576  26.471  30.108  1.00  0.00     0.074 A 
ATOM     58  C   UNL A   1      46.038  25.156  29.710  1.00  0.00     0.031 C 
ATOM     59  C   UNL A   1      46.344  27.388  30.747  1.00  0.00     0.031 A 
BRANCH  46  60
ATOM     60  C   UNL A   1      43.452  32.718  31.983  1.00  0.00    -0.014 A 
ATOM     61  C   UNL A   1      43.224  32.952  33.352  1.00  0.00     0.010 A 
ATOM     62  C   UNL A   1      43.770  33.805  31.148  1.00  0.00     0.010 A 
ATOM     63  C   UNL A   1      43.274  34.251  33.866  1.00  0.00     0.020 A 
ATOM     64  C   UNL A   1      43.848  35.101  31.664  1.00  0.00     0.020 A 
ATOM     65  C   UNL A   1      43.583  35.319  33.017  1.00  0.00     0.054 A 
BRANCH  65  66
ATOM     66  S   UNL A   1      43.655  36.991  33.714  1.00  0.00     0.124 S 
ATOM     67  O   UNL A   1      42.364  37.094  34.389  1.00  0.00    -0.237 OA
ATOM     68  O   UNL A   1      44.819  36.923  34.593  1.00  0.00    -0.237 OA
ATOM     69  O   UNL A   1      43.814  37.849  32.542  1.00  0.00    -0.744 OA
ENDBRANCH  65  66
ENDBRANCH  46  60
BRANCH  47  70
ATOM     70  C   UNL A   1      42.539  23.618  27.895  1.00  0.00    -0.014 A 
ATOM     71  C   UNL A   1      42.817  23.437  26.530  1.00  0.00     0.010 A 
ATOM     72  C   UNL A   1      42.151  22.505  28.666  1.00  0.00     0.010 A 
ATOM     73  C   UNL A   1      42.698  22.172  25.944  1.00  0.00     0.020 A 
ATOM     74  C   UNL A   1      42.059  21.235  28.091  1.00  0.00     0.020 A 
ATOM     75  C   UNL A   1      42.322  21.078  26.730  1.00  0.00     0.054 A 
BRANCH  75  76
ATOM     76  S   UNL A   1      42.228  19.438  25.961  1.00  0.00     0.124 S 
ATOM     77  O   UNL A   1      40.799  19.309  25.695  1.00  0.00    -0.237 OA
ATOM     78  O   UNL A   1      43.082  19.592  24.785  1.00  0.00    -0.237 OA
ATOM     79  O   UNL A   1      42.757  18.547  26.992  1.00  0.00    -0.744 OA
ENDBRANCH  75  76
ENDBRANCH  47  70
BRANCH  59  80
ATOM     80  C   UNL A   1      47.757  26.992  31.088  1.00  0.00    -0.014 A 
ATOM     81  C   UNL A   1      48.029  26.057  32.102  1.00  0.00     0.010 A 
ATOM     82  C   UNL A   1      48.823  27.520  30.338  1.00  0.00     0.010 A 
ATOM     83  C   UNL A   1      49.348  25.683  32.381  1.00  0.00     0.020 A 
ATOM     84  C   UNL A   1      50.138  27.126  30.593  1.00  0.00     0.020 A 
ATOM     85  C   UNL A   1      50.393  26.220  31.624  1.00  0.00     0.054 A 
BRANCH  85  86
ATOM     86  S   UNL A   1      52.091  25.685  31.976  1.00  0.00     0.124 S 
ATOM     87  O   UNL A   1      51.880  24.346  32.519  1.00  0.00    -0.237 OA
ATOM     88  O   UNL A   1      52.722  25.736  30.659  1.00  0.00    -0.237 OA
ATOM     89  O   UNL A   1      52.576  26.677  32.932  1.00  0.00    -0.744 OA
ENDBRANCH  85  86
ENDBRANCH  59  80
ENDBRANCH  33  34
ENDBRANCH  26  28
ENDBRANCH  25  26
ENDBRANCH  24  25
ENDBRANCH   1  24
TORSDOF 21
ENDMDL
