MODEL 1
REMARK VINA RESULT:     -11.1      0.000      0.000
REMARK SMILES C[C@@H]1CC[C@H](C)[N@H+]1Cc1cc2c(cc1Cl)C=C(C(=O)OCCOCCOC(=O)c1ccc(-c3c4nc(c(-c5ccc(S(=O)(=O)[O-])cc5)c5ccc([nH]5)c(-c5ccc(S(=O)(=O)[O-])cc5)c5nc(c(-c6ccc(S(=O)(=O)[O-])cc6)c6ccc3[nH]6)C=C5)C=C4)cc1)[C@@H](C(F)(F)F)O2
REMARK SMILES IDX 24 1 23 2 22 3 21 4 20 5 18 6 19 7 17 8 9 9 10 10 14 11
REMARK SMILES IDX 11 12 13 13 15 14 12 15 94 16 16 17 89 18 8 19 7 20 6 21
REMARK SMILES IDX 5 22 4 23 3 24 2 25 1 27 90 28 91 29 92 30 93 31 25 32 26 33
REMARK SMILES IDX 27 34 28 35 29 36 30 37 88 38 31 39 87 40 32 41 33 42 34 43
REMARK SMILES IDX 81 44 35 45 86 46 80 47 82 48 36 49 85 50 79 51 78 52 37 54
REMARK SMILES IDX 67 55 48 56 66 57 49 58 52 59 65 60 83 61 50 62 51 63 64 65
REMARK SMILES IDX 84 66 53 67 38 68 39 69 47 70 40 71 46 72 41 73 42 74 43 75
REMARK SMILES IDX 44 76 45 77 68 78 69 79 77 80 70 81 76 82 71 83 72 84 73 85
REMARK SMILES IDX 74 86 75 87 54 88 55 89 63 90 56 91 62 92 57 93 58 94 59 95
REMARK SMILES IDX 60 96 61 97
REMARK H PARENT 7 26 82 53 52 64
REMARK Flexibility Score: inf
ROOT
ATOM      1  C   UNL A   1      35.366  31.791  27.991  1.00  0.00     0.202 C 
ENDROOT
BRANCH   1   2
ATOM      2  O   UNL A   1      33.984  31.660  27.661  1.00  0.00    -0.374 OA
BRANCH   2   3
ATOM      3  C   UNL A   1      33.571  30.556  26.861  1.00  0.00     0.202 C 
BRANCH   3   4
ATOM      4  C   UNL A   1      32.119  30.515  26.374  1.00  0.00     0.261 C 
BRANCH   4   5
ATOM      5  O   UNL A   1      31.617  29.176  26.269  1.00  0.00    -0.460 OA
BRANCH   5   6
ATOM      6  C   UNL A   1      31.093  28.891  25.056  1.00  0.00     0.338 C 
ATOM      7  O   UNL A   1      30.477  29.654  24.327  1.00  0.00    -0.246 OA
BRANCH   6   8
ATOM      8  C   UNL A   1      31.494  27.541  24.625  1.00  0.00     0.087 C 
ATOM      9  C   UNL A   1      33.433  22.930  24.908  1.00  0.00     0.029 A 
ATOM     10  C   UNL A   1      33.113  23.791  23.829  1.00  0.00     0.058 A 
ATOM     11  C   UNL A   1      33.143  23.377  26.208  1.00  0.00     0.050 A 
ATOM     12  C   UNL A   1      32.484  25.021  24.047  1.00  0.00     0.128 A 
ATOM     13  C   UNL A   1      32.395  24.534  26.410  1.00  0.00     0.033 A 
ATOM     14  Cl  UNL A   1      33.801  22.662  27.639  1.00  0.00    -0.084 Cl
ATOM     15  C   UNL A   1      32.077  25.356  25.334  1.00  0.00     0.019 A 
ATOM     16  O   UNL A   1      32.291  25.849  22.973  1.00  0.00    -0.475 OA
ATOM     17  C   UNL A   1      31.435  26.623  25.594  1.00  0.00     0.027 C 
ATOM     18  C   UNL A   1      32.028  27.267  23.247  1.00  0.00     0.316 C 
BRANCH   9  19
ATOM     19  C   UNL A   1      34.077  21.582  24.619  1.00  0.00     0.301 C 
BRANCH  19  20
ATOM     20  N   UNL A   1      35.535  21.566  24.382  1.00  0.00    -0.327 N 
ATOM     21  C   UNL A   1      36.531  19.328  24.756  1.00  0.00     0.075 C 
ATOM     22  C   UNL A   1      36.320  20.733  25.305  1.00  0.00     0.181 C 
ATOM     23  C   UNL A   1      37.647  21.472  25.479  1.00  0.00     0.071 C 
ATOM     24  C   UNL A   1      37.243  22.922  25.339  1.00  0.00     0.071 C 
ATOM     25  C   UNL A   1      36.174  22.881  24.257  1.00  0.00     0.181 C 
ATOM     26  H   UNL A   1      35.557  21.120  23.464  1.00  0.00     0.348 HD
ATOM     27  C   UNL A   1      36.752  23.047  22.852  1.00  0.00     0.075 C 
ENDBRANCH  19  20
ENDBRANCH   9  19
BRANCH  18  28
ATOM     28  C   UNL A   1      33.277  28.111  22.950  1.00  0.00     0.430 C 
ATOM     29  F   UNL A   1      34.047  27.536  21.997  1.00  0.00    -0.167 F 
ATOM     30  F   UNL A   1      32.939  29.341  22.496  1.00  0.00    -0.167 F 
ATOM     31  F   UNL A   1      34.045  28.280  24.050  1.00  0.00    -0.167 F 
ENDBRANCH  18  28
ENDBRANCH   6   8
ENDBRANCH   5   6
ENDBRANCH   4   5
ENDBRANCH   3   4
ENDBRANCH   2   3
ENDBRANCH   1   2
BRANCH   1  32
ATOM     32  C   UNL A   1      35.913  31.059  29.224  1.00  0.00     0.261 C 
BRANCH  32  33
ATOM     33  O   UNL A   1      36.465  29.768  28.920  1.00  0.00    -0.460 OA
BRANCH  33  34
ATOM     34  C   UNL A   1      37.244  29.238  29.897  1.00  0.00     0.338 C 
ATOM     35  O   UNL A   1      36.883  28.847  30.998  1.00  0.00    -0.246 OA
BRANCH  34  36
ATOM     36  C   UNL A   1      38.596  28.994  29.362  1.00  0.00     0.060 A 
ATOM     37  C   UNL A   1      38.890  29.217  28.017  1.00  0.00     0.016 A 
ATOM     38  C   UNL A   1      39.594  28.569  30.249  1.00  0.00     0.016 A 
ATOM     39  C   UNL A   1      40.198  29.029  27.565  1.00  0.00     0.010 A 
ATOM     40  C   UNL A   1      40.899  28.378  29.794  1.00  0.00     0.010 A 
ATOM     41  C   UNL A   1      41.215  28.623  28.450  1.00  0.00    -0.014 A 
BRANCH  41  42
ATOM     42  C   UNL A   1      42.627  28.564  27.998  1.00  0.00     0.031 A 
ATOM     43  C   UNL A   1      43.551  29.735  28.176  1.00  0.00     0.074 A 
ATOM     44  C   UNL A   1      43.068  27.434  27.410  1.00  0.00     0.049 A 
ATOM     45  N   UNL A   1      44.823  29.820  27.887  1.00  0.00    -0.248 NA
ATOM     46  C   UNL A   1      42.982  30.964  28.753  1.00  0.00     0.031 C 
ATOM     47  C   UNL A   1      42.252  26.241  27.173  1.00  0.00     0.029 A 
ATOM     48  N   UNL A   1      44.306  27.092  26.922  1.00  0.00    -0.354 N 
ATOM     49  C   UNL A   1      45.216  31.097  28.266  1.00  0.00     0.074 A 
ATOM     50  C   UNL A   1      44.034  31.773  28.759  1.00  0.00     0.031 C 
ATOM     51  C   UNL A   1      43.020  25.284  26.632  1.00  0.00     0.029 A 
ATOM     52  C   UNL A   1      44.371  25.804  26.439  1.00  0.00     0.049 A 
ATOM     53  H   UNL A   1      45.073  27.708  26.918  1.00  0.00     0.167 HD
ATOM     54  C   UNL A   1      46.455  31.640  28.228  1.00  0.00     0.031 A 
ATOM     55  C   UNL A   1      45.403  25.114  25.909  1.00  0.00     0.031 A 
ATOM     56  C   UNL A   1      47.623  30.956  27.732  1.00  0.00     0.049 A 
ATOM     57  C   UNL A   1      46.754  25.773  25.819  1.00  0.00     0.074 A 
ATOM     58  C   UNL A   1      48.926  31.421  27.684  1.00  0.00     0.029 A 
ATOM     59  N   UNL A   1      47.638  29.673  27.205  1.00  0.00    -0.354 N 
ATOM     60  N   UNL A   1      47.120  26.957  26.248  1.00  0.00    -0.248 NA
ATOM     61  C   UNL A   1      47.835  25.003  25.187  1.00  0.00     0.031 C 
ATOM     62  C   UNL A   1      49.713  30.456  27.056  1.00  0.00     0.029 A 
ATOM     63  C   UNL A   1      48.923  29.348  26.798  1.00  0.00     0.049 A 
ATOM     64  H   UNL A   1      46.855  29.083  27.131  1.00  0.00     0.167 HD
ATOM     65  C   UNL A   1      48.480  27.056  25.973  1.00  0.00     0.074 A 
ATOM     66  C   UNL A   1      48.875  25.809  25.355  1.00  0.00     0.031 C 
ATOM     67  C   UNL A   1      49.321  28.093  26.209  1.00  0.00     0.031 A 
BRANCH  54  68
ATOM     68  C   UNL A   1      46.662  33.031  28.773  1.00  0.00    -0.014 A 
ATOM     69  C   UNL A   1      46.845  33.225  30.155  1.00  0.00     0.010 A 
ATOM     70  C   UNL A   1      46.463  34.151  27.946  1.00  0.00     0.010 A 
ATOM     71  C   UNL A   1      46.753  34.504  30.710  1.00  0.00     0.020 A 
ATOM     72  C   UNL A   1      46.400  35.436  28.494  1.00  0.00     0.020 A 
ATOM     73  C   UNL A   1      46.510  35.599  29.877  1.00  0.00     0.054 A 
BRANCH  73  74
ATOM     74  S   UNL A   1      46.282  37.235  30.629  1.00  0.00     0.124 S 
ATOM     75  O   UNL A   1      45.241  36.978  31.618  1.00  0.00    -0.237 OA
ATOM     76  O   UNL A   1      47.610  37.521  31.168  1.00  0.00    -0.237 OA
ATOM     77  O   UNL A   1      45.881  38.077  29.504  1.00  0.00    -0.744 OA
ENDBRANCH  73  74
ENDBRANCH  54  68
BRANCH  55  78
ATOM     78  C   UNL A   1      45.206  23.701  25.473  1.00  0.00    -0.014 A 
ATOM     79  C   UNL A   1      45.508  22.631  26.336  1.00  0.00     0.010 A 
ATOM     80  C   UNL A   1      44.744  23.415  24.175  1.00  0.00     0.010 A 
ATOM     81  C   UNL A   1      45.393  21.309  25.900  1.00  0.00     0.020 A 
ATOM     82  C   UNL A   1      44.589  22.092  23.748  1.00  0.00     0.020 A 
ATOM     83  C   UNL A   1      44.938  21.048  24.606  1.00  0.00     0.054 A 
BRANCH  83  84
ATOM     84  S   UNL A   1      44.803  19.323  24.061  1.00  0.00     0.124 S 
ATOM     85  O   UNL A   1      43.777  18.805  24.962  1.00  0.00    -0.237 OA
ATOM     86  O   UNL A   1      44.404  19.461  22.664  1.00  0.00    -0.237 OA
ATOM     87  O   UNL A   1      46.147  18.791  24.273  1.00  0.00    -0.744 OA
ENDBRANCH  83  84
ENDBRANCH  55  78
BRANCH  67  88
ATOM     88  C   UNL A   1      50.773  27.948  25.830  1.00  0.00    -0.014 A 
ATOM     89  C   UNL A   1      51.190  28.290  24.528  1.00  0.00     0.010 A 
ATOM     90  C   UNL A   1      51.689  27.324  26.696  1.00  0.00     0.010 A 
ATOM     91  C   UNL A   1      52.472  27.962  24.081  1.00  0.00     0.020 A 
ATOM     92  C   UNL A   1      52.986  27.028  26.264  1.00  0.00     0.020 A 
ATOM     93  C   UNL A   1      53.357  27.318  24.949  1.00  0.00     0.054 A 
BRANCH  93  94
ATOM     94  S   UNL A   1      54.991  26.835  24.327  1.00  0.00     0.124 S 
ATOM     95  O   UNL A   1      55.161  25.507  24.906  1.00  0.00    -0.237 OA
ATOM     96  O   UNL A   1      54.806  26.873  22.878  1.00  0.00    -0.237 OA
ATOM     97  O   UNL A   1      55.880  27.866  24.861  1.00  0.00    -0.744 OA
ENDBRANCH  93  94
ENDBRANCH  67  88
ENDBRANCH  41  42
ENDBRANCH  34  36
ENDBRANCH  33  34
ENDBRANCH  32  33
ENDBRANCH   1  32
TORSDOF 20
ENDMDL
MODEL 2
REMARK VINA RESULT:     -10.6      6.838     12.058
REMARK SMILES C[C@@H]1CC[C@H](C)[N@H+]1Cc1cc2c(cc1Cl)C=C(C(=O)OCCOCCOC(=O)c1ccc(-c3c4nc(c(-c5ccc(S(=O)(=O)[O-])cc5)c5ccc([nH]5)c(-c5ccc(S(=O)(=O)[O-])cc5)c5nc(c(-c6ccc(S(=O)(=O)[O-])cc6)c6ccc3[nH]6)C=C5)C=C4)cc1)[C@@H](C(F)(F)F)O2
REMARK SMILES IDX 24 1 23 2 22 3 21 4 20 5 18 6 19 7 17 8 9 9 10 10 14 11
REMARK SMILES IDX 11 12 13 13 15 14 12 15 94 16 16 17 89 18 8 19 7 20 6 21
REMARK SMILES IDX 5 22 4 23 3 24 2 25 1 27 90 28 91 29 92 30 93 31 25 32 26 33
REMARK SMILES IDX 27 34 28 35 29 36 30 37 88 38 31 39 87 40 32 41 33 42 34 43
REMARK SMILES IDX 81 44 35 45 86 46 80 47 82 48 36 49 85 50 79 51 78 52 37 54
REMARK SMILES IDX 67 55 48 56 66 57 49 58 52 59 65 60 83 61 50 62 51 63 64 65
REMARK SMILES IDX 84 66 53 67 38 68 39 69 47 70 40 71 46 72 41 73 42 74 43 75
REMARK SMILES IDX 44 76 45 77 68 78 69 79 77 80 70 81 76 82 71 83 72 84 73 85
REMARK SMILES IDX 74 86 75 87 54 88 55 89 63 90 56 91 62 92 57 93 58 94 59 95
REMARK SMILES IDX 60 96 61 97
REMARK H PARENT 7 26 82 53 52 64
REMARK Flexibility Score: inf
ROOT
ATOM      1  C   UNL A   1      40.774  21.883  26.509  1.00  0.00     0.202 C 
ENDROOT
BRANCH   1   2
ATOM      2  O   UNL A   1      39.351  21.790  26.504  1.00  0.00    -0.374 OA
BRANCH   2   3
ATOM      3  C   UNL A   1      38.712  21.093  25.438  1.00  0.00     0.202 C 
BRANCH   3   4
ATOM      4  C   UNL A   1      37.434  21.693  24.842  1.00  0.00     0.261 C 
BRANCH   4   5
ATOM      5  O   UNL A   1      36.321  21.608  25.742  1.00  0.00    -0.460 OA
BRANCH   5   6
ATOM      6  C   UNL A   1      35.174  21.216  25.144  1.00  0.00     0.338 C 
ATOM      7  O   UNL A   1      34.936  20.116  24.668  1.00  0.00    -0.246 OA
BRANCH   6   8
ATOM      8  C   UNL A   1      34.143  22.259  25.270  1.00  0.00     0.087 C 
ATOM      9  C   UNL A   1      32.109  26.838  25.288  1.00  0.00     0.029 A 
ATOM     10  C   UNL A   1      31.712  25.590  25.829  1.00  0.00     0.058 A 
ATOM     11  C   UNL A   1      33.300  26.877  24.543  1.00  0.00     0.050 A 
ATOM     12  C   UNL A   1      32.453  24.428  25.587  1.00  0.00     0.128 A 
ATOM     13  C   UNL A   1      33.955  25.701  24.191  1.00  0.00     0.033 A 
ATOM     14  Cl  UNL A   1      34.137  28.338  24.146  1.00  0.00    -0.084 Cl
ATOM     15  C   UNL A   1      33.538  24.484  24.720  1.00  0.00     0.019 A 
ATOM     16  O   UNL A   1      32.071  23.274  26.219  1.00  0.00    -0.475 OA
ATOM     17  C   UNL A   1      34.329  23.305  24.458  1.00  0.00     0.027 C 
ATOM     18  C   UNL A   1      33.056  22.189  26.305  1.00  0.00     0.316 C 
BRANCH   9  19
ATOM     19  C   UNL A   1      31.249  28.067  25.540  1.00  0.00     0.301 C 
BRANCH  19  20
ATOM     20  N   UNL A   1      30.345  28.495  24.453  1.00  0.00    -0.327 N 
ATOM     21  C   UNL A   1      28.745  26.722  23.794  1.00  0.00     0.075 C 
ATOM     22  C   UNL A   1      30.026  27.468  23.449  1.00  0.00     0.181 C 
ATOM     23  C   UNL A   1      29.893  28.228  22.129  1.00  0.00     0.071 C 
ATOM     24  C   UNL A   1      30.871  29.368  22.300  1.00  0.00     0.071 C 
ATOM     25  C   UNL A   1      30.719  29.739  23.768  1.00  0.00     0.181 C 
ATOM     26  H   UNL A   1      29.499  28.679  24.992  1.00  0.00     0.348 HD
ATOM     27  C   UNL A   1      29.646  30.802  23.999  1.00  0.00     0.075 C 
ENDBRANCH  19  20
ENDBRANCH   9  19
BRANCH  18  28
ATOM     28  C   UNL A   1      33.634  22.101  27.725  1.00  0.00     0.430 C 
ATOM     29  F   UNL A   1      32.681  22.313  28.661  1.00  0.00    -0.167 F 
ATOM     30  F   UNL A   1      34.159  20.876  27.964  1.00  0.00    -0.167 F 
ATOM     31  F   UNL A   1      34.616  23.010  27.926  1.00  0.00    -0.167 F 
ENDBRANCH  18  28
ENDBRANCH   6   8
ENDBRANCH   5   6
ENDBRANCH   4   5
ENDBRANCH   3   4
ENDBRANCH   2   3
ENDBRANCH   1   2
BRANCH   1  32
ATOM     32  C   UNL A   1      41.434  23.266  26.407  1.00  0.00     0.261 C 
BRANCH  32  33
ATOM     33  O   UNL A   1      40.497  24.351  26.501  1.00  0.00    -0.460 OA
BRANCH  33  34
ATOM     34  C   UNL A   1      41.009  25.572  26.205  1.00  0.00     0.338 C 
ATOM     35  O   UNL A   1      41.295  26.004  25.098  1.00  0.00    -0.246 OA
BRANCH  34  36
ATOM     36  C   UNL A   1      40.980  26.416  27.414  1.00  0.00     0.060 A 
ATOM     37  C   UNL A   1      41.859  27.487  27.566  1.00  0.00     0.016 A 
ATOM     38  C   UNL A   1      40.016  26.140  28.393  1.00  0.00     0.016 A 
ATOM     39  C   UNL A   1      41.759  28.296  28.702  1.00  0.00     0.010 A 
ATOM     40  C   UNL A   1      39.920  26.946  29.527  1.00  0.00     0.010 A 
ATOM     41  C   UNL A   1      40.780  28.042  29.682  1.00  0.00    -0.014 A 
BRANCH  41  42
ATOM     42  C   UNL A   1      40.584  28.986  30.810  1.00  0.00     0.031 A 
ATOM     43  C   UNL A   1      39.502  30.026  30.774  1.00  0.00     0.074 A 
ATOM     44  C   UNL A   1      41.408  28.898  31.874  1.00  0.00     0.049 A 
ATOM     45  N   UNL A   1      39.166  30.885  31.702  1.00  0.00    -0.248 NA
ATOM     46  C   UNL A   1      38.691  30.118  29.549  1.00  0.00     0.031 C 
ATOM     47  C   UNL A   1      42.502  27.934  32.007  1.00  0.00     0.029 A 
ATOM     48  N   UNL A   1      41.447  29.609  33.048  1.00  0.00    -0.354 N 
ATOM     49  C   UNL A   1      38.093  31.602  31.188  1.00  0.00     0.074 A 
ATOM     50  C   UNL A   1      37.865  31.115  29.844  1.00  0.00     0.031 C 
ATOM     51  C   UNL A   1      43.072  28.080  33.212  1.00  0.00     0.029 A 
ATOM     52  C   UNL A   1      42.418  29.176  33.923  1.00  0.00     0.049 A 
ATOM     53  H   UNL A   1      40.839  30.357  33.246  1.00  0.00     0.167 HD
ATOM     54  C   UNL A   1      37.354  32.558  31.797  1.00  0.00     0.031 A 
ATOM     55  C   UNL A   1      42.743  29.604  35.161  1.00  0.00     0.031 A 
ATOM     56  C   UNL A   1      37.594  33.035  33.136  1.00  0.00     0.049 A 
ATOM     57  C   UNL A   1      41.942  30.719  35.782  1.00  0.00     0.074 A 
ATOM     58  C   UNL A   1      36.875  33.984  33.844  1.00  0.00     0.029 A 
ATOM     59  N   UNL A   1      38.618  32.609  33.969  1.00  0.00    -0.354 N 
ATOM     60  N   UNL A   1      40.887  31.335  35.307  1.00  0.00    -0.248 NA
ATOM     61  C   UNL A   1      42.365  31.188  37.109  1.00  0.00     0.031 C 
ATOM     62  C   UNL A   1      37.508  34.190  35.069  1.00  0.00     0.029 A 
ATOM     63  C   UNL A   1      38.568  33.302  35.168  1.00  0.00     0.049 A 
ATOM     64  H   UNL A   1      39.281  31.918  33.742  1.00  0.00     0.167 HD
ATOM     65  C   UNL A   1      40.498  32.236  36.293  1.00  0.00     0.074 A 
ATOM     66  C   UNL A   1      41.420  32.074  37.396  1.00  0.00     0.031 C 
ATOM     67  C   UNL A   1      39.470  33.119  36.278  1.00  0.00     0.031 A 
BRANCH  54  68
ATOM     68  C   UNL A   1      36.174  33.148  31.066  1.00  0.00    -0.014 A 
ATOM     69  C   UNL A   1      36.276  33.450  29.695  1.00  0.00     0.010 A 
ATOM     70  C   UNL A   1      35.050  33.594  31.783  1.00  0.00     0.010 A 
ATOM     71  C   UNL A   1      35.313  34.248  29.072  1.00  0.00     0.020 A 
ATOM     72  C   UNL A   1      34.068  34.367  31.155  1.00  0.00     0.020 A 
ATOM     73  C   UNL A   1      34.226  34.719  29.812  1.00  0.00     0.054 A 
BRANCH  73  74
ATOM     74  S   UNL A   1      33.047  35.845  29.015  1.00  0.00     0.124 S 
ATOM     75  O   UNL A   1      32.261  36.322  30.147  1.00  0.00    -0.237 OA
ATOM     76  O   UNL A   1      33.927  36.833  28.394  1.00  0.00    -0.237 OA
ATOM     77  O   UNL A   1      32.332  34.984  28.076  1.00  0.00    -0.744 OA
ENDBRANCH  73  74
ENDBRANCH  54  68
BRANCH  55  78
ATOM     78  C   UNL A   1      43.846  28.939  35.913  1.00  0.00    -0.014 A 
ATOM     79  C   UNL A   1      43.586  27.837  36.750  1.00  0.00     0.010 A 
ATOM     80  C   UNL A   1      45.163  29.424  35.821  1.00  0.00     0.010 A 
ATOM     81  C   UNL A   1      44.607  27.262  37.509  1.00  0.00     0.020 A 
ATOM     82  C   UNL A   1      46.197  28.825  36.548  1.00  0.00     0.020 A 
ATOM     83  C   UNL A   1      45.907  27.763  37.407  1.00  0.00     0.054 A 
BRANCH  83  84
ATOM     84  S   UNL A   1      47.215  27.003  38.408  1.00  0.00     0.124 S 
ATOM     85  O   UNL A   1      46.467  26.538  39.573  1.00  0.00    -0.237 OA
ATOM     86  O   UNL A   1      47.722  25.956  37.526  1.00  0.00    -0.237 OA
ATOM     87  O   UNL A   1      48.140  28.105  38.658  1.00  0.00    -0.744 OA
ENDBRANCH  83  84
ENDBRANCH  55  78
BRANCH  67  88
ATOM     88  C   UNL A   1      39.242  33.985  37.492  1.00  0.00    -0.014 A 
ATOM     89  C   UNL A   1      39.835  35.261  37.557  1.00  0.00     0.010 A 
ATOM     90  C   UNL A   1      38.585  33.480  38.629  1.00  0.00     0.010 A 
ATOM     91  C   UNL A   1      39.827  35.990  38.749  1.00  0.00     0.020 A 
ATOM     92  C   UNL A   1      38.542  34.224  39.812  1.00  0.00     0.020 A 
ATOM     93  C   UNL A   1      39.192  35.458  39.874  1.00  0.00     0.054 A 
BRANCH  93  94
ATOM     94  S   UNL A   1      39.255  36.388  41.431  1.00  0.00     0.124 S 
ATOM     95  O   UNL A   1      39.100  37.765  40.974  1.00  0.00    -0.237 OA
ATOM     96  O   UNL A   1      38.124  35.840  42.176  1.00  0.00    -0.237 OA
ATOM     97  O   UNL A   1      40.570  36.056  41.976  1.00  0.00    -0.744 OA
ENDBRANCH  93  94
ENDBRANCH  67  88
ENDBRANCH  41  42
ENDBRANCH  34  36
ENDBRANCH  33  34
ENDBRANCH  32  33
ENDBRANCH   1  32
TORSDOF 20
ENDMDL
MODEL 3
REMARK VINA RESULT:     -10.5      5.461     14.639
REMARK SMILES C[C@@H]1CC[C@H](C)[N@H+]1Cc1cc2c(cc1Cl)C=C(C(=O)OCCOCCOC(=O)c1ccc(-c3c4nc(c(-c5ccc(S(=O)(=O)[O-])cc5)c5ccc([nH]5)c(-c5ccc(S(=O)(=O)[O-])cc5)c5nc(c(-c6ccc(S(=O)(=O)[O-])cc6)c6ccc3[nH]6)C=C5)C=C4)cc1)[C@@H](C(F)(F)F)O2
REMARK SMILES IDX 24 1 23 2 22 3 21 4 20 5 18 6 19 7 17 8 9 9 10 10 14 11
REMARK SMILES IDX 11 12 13 13 15 14 12 15 94 16 16 17 89 18 8 19 7 20 6 21
REMARK SMILES IDX 5 22 4 23 3 24 2 25 1 27 90 28 91 29 92 30 93 31 25 32 26 33
REMARK SMILES IDX 27 34 28 35 29 36 30 37 88 38 31 39 87 40 32 41 33 42 34 43
REMARK SMILES IDX 81 44 35 45 86 46 80 47 82 48 36 49 85 50 79 51 78 52 37 54
REMARK SMILES IDX 67 55 48 56 66 57 49 58 52 59 65 60 83 61 50 62 51 63 64 65
REMARK SMILES IDX 84 66 53 67 38 68 39 69 47 70 40 71 46 72 41 73 42 74 43 75
REMARK SMILES IDX 44 76 45 77 68 78 69 79 77 80 70 81 76 82 71 83 72 84 73 85
REMARK SMILES IDX 74 86 75 87 54 88 55 89 63 90 56 91 62 92 57 93 58 94 59 95
REMARK SMILES IDX 60 96 61 97
REMARK H PARENT 7 26 82 53 52 64
REMARK Flexibility Score: inf
ROOT
ATOM      1  C   UNL A   1      49.892  24.695  29.123  1.00  0.00     0.202 C 
ENDROOT
BRANCH   1   2
ATOM      2  O   UNL A   1      50.234  24.362  27.779  1.00  0.00    -0.374 OA
BRANCH   2   3
ATOM      3  C   UNL A   1      50.707  25.392  26.916  1.00  0.00     0.202 C 
BRANCH   3   4
ATOM      4  C   UNL A   1      49.940  25.661  25.617  1.00  0.00     0.261 C 
BRANCH   4   5
ATOM      5  O   UNL A   1      48.536  25.400  25.749  1.00  0.00    -0.460 OA
BRANCH   5   6
ATOM      6  C   UNL A   1      47.820  25.736  24.654  1.00  0.00     0.338 C 
ATOM      7  O   UNL A   1      47.837  25.177  23.568  1.00  0.00    -0.246 OA
BRANCH   6   8
ATOM      8  C   UNL A   1      46.860  26.807  24.973  1.00  0.00     0.087 C 
ATOM      9  C   UNL A   1      45.072  31.025  27.002  1.00  0.00     0.029 A 
ATOM     10  C   UNL A   1      44.462  29.875  26.441  1.00  0.00     0.058 A 
ATOM     11  C   UNL A   1      46.475  31.088  26.993  1.00  0.00     0.050 A 
ATOM     12  C   UNL A   1      45.229  28.862  25.855  1.00  0.00     0.128 A 
ATOM     13  C   UNL A   1      47.224  30.150  26.289  1.00  0.00     0.033 A 
ATOM     14  Cl  UNL A   1      47.392  32.195  27.958  1.00  0.00    -0.084 Cl
ATOM     15  C   UNL A   1      46.603  29.037  25.732  1.00  0.00     0.019 A 
ATOM     16  O   UNL A   1      44.587  27.733  25.421  1.00  0.00    -0.475 OA
ATOM     17  C   UNL A   1      47.424  28.007  25.141  1.00  0.00     0.027 C 
ATOM     18  C   UNL A   1      45.401  26.531  25.201  1.00  0.00     0.316 C 
BRANCH   9  19
ATOM     19  C   UNL A   1      44.196  32.120  27.589  1.00  0.00     0.301 C 
BRANCH  19  20
ATOM     20  N   UNL A   1      44.403  33.494  27.088  1.00  0.00    -0.327 N 
ATOM     21  C   UNL A   1      45.420  34.981  28.791  1.00  0.00     0.075 C 
ATOM     22  C   UNL A   1      44.149  34.570  28.059  1.00  0.00     0.181 C 
ATOM     23  C   UNL A   1      43.580  35.725  27.235  1.00  0.00     0.071 C 
ATOM     24  C   UNL A   1      42.839  35.011  26.127  1.00  0.00     0.071 C 
ATOM     25  C   UNL A   1      43.733  33.818  25.823  1.00  0.00     0.181 C 
ATOM     26  H   UNL A   1      45.407  33.465  26.911  1.00  0.00     0.348 HD
ATOM     27  C   UNL A   1      44.775  34.123  24.747  1.00  0.00     0.075 C 
ENDBRANCH  19  20
ENDBRANCH   9  19
BRANCH  18  28
ATOM     28  C   UNL A   1      45.189  25.524  26.342  1.00  0.00     0.430 C 
ATOM     29  F   UNL A   1      43.891  25.474  26.721  1.00  0.00    -0.167 F 
ATOM     30  F   UNL A   1      45.539  24.273  25.961  1.00  0.00    -0.167 F 
ATOM     31  F   UNL A   1      45.923  25.837  27.434  1.00  0.00    -0.167 F 
ENDBRANCH  18  28
ENDBRANCH   6   8
ENDBRANCH   5   6
ENDBRANCH   4   5
ENDBRANCH   3   4
ENDBRANCH   2   3
ENDBRANCH   1   2
BRANCH   1  32
ATOM     32  C   UNL A   1      49.438  26.125  29.446  1.00  0.00     0.261 C 
BRANCH  32  33
ATOM     33  O   UNL A   1      50.409  26.875  30.193  1.00  0.00    -0.460 OA
BRANCH  33  34
ATOM     34  C   UNL A   1      49.973  27.338  31.391  1.00  0.00     0.338 C 
ATOM     35  O   UNL A   1      50.588  27.344  32.449  1.00  0.00    -0.246 OA
BRANCH  34  36
ATOM     36  C   UNL A   1      48.695  28.047  31.202  1.00  0.00     0.060 A 
ATOM     37  C   UNL A   1      48.504  28.916  30.128  1.00  0.00     0.016 A 
ATOM     38  C   UNL A   1      47.656  27.796  32.109  1.00  0.00     0.016 A 
ATOM     39  C   UNL A   1      47.257  29.522  29.954  1.00  0.00     0.010 A 
ATOM     40  C   UNL A   1      46.414  28.406  31.935  1.00  0.00     0.010 A 
ATOM     41  C   UNL A   1      46.199  29.261  30.846  1.00  0.00    -0.014 A 
BRANCH  41  42
ATOM     42  C   UNL A   1      44.840  29.793  30.575  1.00  0.00     0.031 A 
ATOM     43  C   UNL A   1      43.802  28.957  29.884  1.00  0.00     0.074 A 
ATOM     44  C   UNL A   1      44.554  31.054  30.957  1.00  0.00     0.049 A 
ATOM     45  N   UNL A   1      42.555  29.256  29.627  1.00  0.00    -0.248 NA
ATOM     46  C   UNL A   1      44.206  27.619  29.423  1.00  0.00     0.031 C 
ATOM     47  C   UNL A   1      45.493  31.959  31.624  1.00  0.00     0.029 A 
ATOM     48  N   UNL A   1      43.398  31.788  30.861  1.00  0.00    -0.354 N 
ATOM     49  C   UNL A   1      42.017  28.140  28.999  1.00  0.00     0.074 A 
ATOM     50  C   UNL A   1      43.087  27.175  28.865  1.00  0.00     0.031 C 
ATOM     51  C   UNL A   1      44.863  33.105  31.920  1.00  0.00     0.029 A 
ATOM     52  C   UNL A   1      43.490  33.040  31.426  1.00  0.00     0.049 A 
ATOM     53  H   UNL A   1      42.580  31.451  30.429  1.00  0.00     0.167 HD
ATOM     54  C   UNL A   1      40.740  27.936  28.598  1.00  0.00     0.031 A 
ATOM     55  C   UNL A   1      42.573  34.023  31.543  1.00  0.00     0.031 A 
ATOM     56  C   UNL A   1      39.685  28.908  28.737  1.00  0.00     0.049 A 
ATOM     57  C   UNL A   1      41.179  33.788  31.023  1.00  0.00     0.074 A 
ATOM     58  C   UNL A   1      38.352  28.775  28.383  1.00  0.00     0.029 A 
ATOM     59  N   UNL A   1      39.830  30.182  29.266  1.00  0.00    -0.354 N 
ATOM     60  N   UNL A   1      40.672  32.700  30.497  1.00  0.00    -0.248 NA
ATOM     61  C   UNL A   1      40.229  34.905  31.125  1.00  0.00     0.031 C 
ATOM     62  C   UNL A   1      37.711  29.990  28.623  1.00  0.00     0.029 A 
ATOM     63  C   UNL A   1      38.618  30.853  29.215  1.00  0.00     0.049 A 
ATOM     64  H   UNL A   1      40.667  30.553  29.624  1.00  0.00     0.167 HD
ATOM     65  C   UNL A   1      39.336  32.989  30.241  1.00  0.00     0.074 A 
ATOM     66  C   UNL A   1      39.108  34.348  30.684  1.00  0.00     0.031 C 
ATOM     67  C   UNL A   1      38.387  32.198  29.684  1.00  0.00     0.031 A 
BRANCH  54  68
ATOM     68  C   UNL A   1      40.362  26.602  28.006  1.00  0.00    -0.014 A 
ATOM     69  C   UNL A   1      39.843  25.588  28.834  1.00  0.00     0.010 A 
ATOM     70  C   UNL A   1      40.720  26.289  26.683  1.00  0.00     0.010 A 
ATOM     71  C   UNL A   1      39.756  24.272  28.372  1.00  0.00     0.020 A 
ATOM     72  C   UNL A   1      40.607  24.978  26.208  1.00  0.00     0.020 A 
ATOM     73  C   UNL A   1      40.159  23.972  27.068  1.00  0.00     0.054 A 
BRANCH  73  74
ATOM     74  S   UNL A   1      40.145  22.241  26.525  1.00  0.00     0.124 S 
ATOM     75  O   UNL A   1      41.316  22.180  25.657  1.00  0.00    -0.237 OA
ATOM     76  O   UNL A   1      40.255  21.514  27.788  1.00  0.00    -0.237 OA
ATOM     77  O   UNL A   1      38.857  22.104  25.848  1.00  0.00    -0.744 OA
ENDBRANCH  73  74
ENDBRANCH  54  68
BRANCH  55  78
ATOM     78  C   UNL A   1      42.934  35.299  32.227  1.00  0.00    -0.014 A 
ATOM     79  C   UNL A   1      42.548  35.536  33.561  1.00  0.00     0.010 A 
ATOM     80  C   UNL A   1      43.640  36.301  31.537  1.00  0.00     0.010 A 
ATOM     81  C   UNL A   1      42.823  36.760  34.175  1.00  0.00     0.020 A 
ATOM     82  C   UNL A   1      43.953  37.513  32.162  1.00  0.00     0.020 A 
ATOM     83  C   UNL A   1      43.520  37.743  33.469  1.00  0.00     0.054 A 
BRANCH  83  84
ATOM     84  S   UNL A   1      43.859  39.327  34.287  1.00  0.00     0.124 S 
ATOM     85  O   UNL A   1      43.786  38.955  35.698  1.00  0.00    -0.237 OA
ATOM     86  O   UNL A   1      45.191  39.661  33.791  1.00  0.00    -0.237 OA
ATOM     87  O   UNL A   1      42.784  40.195  33.813  1.00  0.00    -0.744 OA
ENDBRANCH  83  84
ENDBRANCH  55  78
BRANCH  67  88
ATOM     88  C   UNL A   1      36.989  32.743  29.527  1.00  0.00    -0.014 A 
ATOM     89  C   UNL A   1      36.557  33.195  28.264  1.00  0.00     0.010 A 
ATOM     90  C   UNL A   1      36.167  32.961  30.646  1.00  0.00     0.010 A 
ATOM     91  C   UNL A   1      35.360  33.904  28.133  1.00  0.00     0.020 A 
ATOM     92  C   UNL A   1      34.950  33.637  30.512  1.00  0.00     0.020 A 
ATOM     93  C   UNL A   1      34.572  34.133  29.263  1.00  0.00     0.054 A 
BRANCH  93  94
ATOM     94  S   UNL A   1      33.058  35.117  29.084  1.00  0.00     0.124 S 
ATOM     95  O   UNL A   1      32.326  34.374  28.064  1.00  0.00    -0.237 OA
ATOM     96  O   UNL A   1      32.487  35.072  30.428  1.00  0.00    -0.237 OA
ATOM     97  O   UNL A   1      33.548  36.429  28.667  1.00  0.00    -0.744 OA
ENDBRANCH  93  94
ENDBRANCH  67  88
ENDBRANCH  41  42
ENDBRANCH  34  36
ENDBRANCH  33  34
ENDBRANCH  32  33
ENDBRANCH   1  32
TORSDOF 20
ENDMDL
