MODEL 1
REMARK VINA RESULT:     -10.1      0.000      0.000
REMARK SMILES C[C@@H](Oc1ccccc1Cl)C(=O)Nc1ccc(C(=O)OCCOCCOC(=O)c2ccc(-c3c4nc(c(-c5ccc(S(=O)(=O)[O-])cc5)c5ccc([nH]5)c(-c5ccc(S(=O)(=O)[O-])cc5)c5nc(c(-c6ccc(S(=O)(=O)[O-])cc6)c6ccc3[nH]6)C=C5)C=C4)cc2)cc1
REMARK SMILES IDX 22 1 21 2 20 3 18 4 19 5 17 6 14 7 15 8 90 9 16 10 89 11
REMARK SMILES IDX 13 12 11 13 12 14 2 16 1 17 3 18 4 19 5 20 9 21 6 22 8 23
REMARK SMILES IDX 10 24 7 25 23 26 24 27 25 28 26 29 27 30 28 31 29 32 30 33
REMARK SMILES IDX 88 34 31 35 87 36 32 37 33 38 34 39 81 40 35 41 86 42 80 43
REMARK SMILES IDX 82 44 36 45 85 46 79 47 78 48 37 50 67 51 48 52 66 53 49 54
REMARK SMILES IDX 52 55 65 56 83 57 50 58 51 59 64 61 84 62 53 63 38 64 39 65
REMARK SMILES IDX 47 66 40 67 46 68 41 69 42 70 43 71 44 72 45 73 68 74 69 75
REMARK SMILES IDX 77 76 70 77 76 78 71 79 72 80 73 81 74 82 75 83 54 84 55 85
REMARK SMILES IDX 63 86 56 87 62 88 57 89 58 90 59 91 60 92 61 93
REMARK H PARENT 13 15 82 49 52 60
REMARK Flexibility Score: inf
ROOT
ATOM      1  C   UNL A   1      40.473  22.381  27.650  1.00  0.00     0.202 C 
ENDROOT
BRANCH   1   2
ATOM      2  C   UNL A   1      39.802  21.838  26.386  1.00  0.00     0.261 C 
BRANCH   2   3
ATOM      3  O   UNL A   1      38.441  22.285  26.318  1.00  0.00    -0.460 OA
BRANCH   3   4
ATOM      4  C   UNL A   1      37.712  21.782  25.294  1.00  0.00     0.338 C 
ATOM      5  O   UNL A   1      37.879  20.709  24.738  1.00  0.00    -0.246 OA
BRANCH   4   6
ATOM      6  C   UNL A   1      36.572  22.681  24.981  1.00  0.00     0.060 A 
ATOM      7  C   UNL A   1      34.650  24.521  24.172  1.00  0.00     0.041 A 
ATOM      8  C   UNL A   1      35.029  23.502  23.302  1.00  0.00     0.027 A 
ATOM      9  C   UNL A   1      35.074  24.503  25.500  1.00  0.00     0.027 A 
ATOM     10  C   UNL A   1      36.011  22.597  23.700  1.00  0.00     0.018 A 
ATOM     11  C   UNL A   1      36.045  23.589  25.906  1.00  0.00     0.018 A 
BRANCH   7  12
ATOM     12  N   UNL A   1      33.923  25.589  23.643  1.00  0.00    -0.323 N 
ATOM     13  C   UNL A   1      32.668  26.008  24.008  1.00  0.00     0.265 C 
ATOM     14  O   UNL A   1      32.232  27.026  23.452  1.00  0.00    -0.270 OA
ATOM     15  H   UNL A   1      34.361  26.102  22.926  1.00  0.00     0.170 HD
BRANCH  13  16
ATOM     16  C   UNL A   1      31.813  25.303  25.102  1.00  0.00     0.259 C 
ATOM     17  C   UNL A   1      31.029  26.360  25.875  1.00  0.00     0.064 C 
BRANCH  16  18
ATOM     18  O   UNL A   1      30.960  24.271  24.606  1.00  0.00    -0.479 OA
BRANCH  18  19
ATOM     19  C   UNL A   1      31.564  23.067  24.373  1.00  0.00     0.139 A 
ATOM     20  C   UNL A   1      31.598  22.565  23.070  1.00  0.00     0.048 A 
ATOM     21  C   UNL A   1      32.002  22.269  25.438  1.00  0.00     0.083 A 
ATOM     22  C   UNL A   1      32.118  21.291  22.827  1.00  0.00     0.004 A 
ATOM     23  C   UNL A   1      32.531  21.001  25.190  1.00  0.00     0.024 A 
ATOM     24  Cl  UNL A   1      31.905  22.797  27.077  1.00  0.00    -0.080 Cl
ATOM     25  C   UNL A   1      32.592  20.515  23.884  1.00  0.00     0.002 A 
ENDBRANCH  18  19
ENDBRANCH  16  18
ENDBRANCH  13  16
ENDBRANCH   7  12
ENDBRANCH   4   6
ENDBRANCH   3   4
ENDBRANCH   2   3
ENDBRANCH   1   2
BRANCH   1  26
ATOM     26  O   UNL A   1      41.826  22.819  27.498  1.00  0.00    -0.374 OA
BRANCH  26  27
ATOM     27  C   UNL A   1      42.398  22.713  26.193  1.00  0.00     0.202 C 
BRANCH  27  28
ATOM     28  C   UNL A   1      42.792  24.027  25.510  1.00  0.00     0.261 C 
BRANCH  28  29
ATOM     29  O   UNL A   1      41.789  25.042  25.677  1.00  0.00    -0.460 OA
BRANCH  29  30
ATOM     30  C   UNL A   1      42.262  26.312  25.654  1.00  0.00     0.338 C 
ATOM     31  O   UNL A   1      42.545  26.973  24.670  1.00  0.00    -0.246 OA
BRANCH  30  32
ATOM     32  C   UNL A   1      42.231  26.884  27.015  1.00  0.00     0.060 A 
ATOM     33  C   UNL A   1      41.281  26.371  27.908  1.00  0.00     0.016 A 
ATOM     34  C   UNL A   1      43.061  27.941  27.392  1.00  0.00     0.016 A 
ATOM     35  C   UNL A   1      41.119  26.951  29.164  1.00  0.00     0.010 A 
ATOM     36  C   UNL A   1      42.892  28.529  28.650  1.00  0.00     0.010 A 
ATOM     37  C   UNL A   1      41.895  28.060  29.526  1.00  0.00    -0.014 A 
BRANCH  37  38
ATOM     38  C   UNL A   1      41.562  28.823  30.753  1.00  0.00     0.031 A 
ATOM     39  C   UNL A   1      40.389  29.765  30.724  1.00  0.00     0.074 A 
ATOM     40  C   UNL A   1      42.280  28.668  31.879  1.00  0.00     0.049 A 
ATOM     41  N   UNL A   1      39.949  30.568  31.658  1.00  0.00    -0.248 NA
ATOM     42  C   UNL A   1      39.607  29.806  29.476  1.00  0.00     0.031 C 
ATOM     43  C   UNL A   1      43.407  27.751  32.045  1.00  0.00     0.029 A 
ATOM     44  N   UNL A   1      42.168  29.289  33.097  1.00  0.00    -0.354 N 
ATOM     45  C   UNL A   1      38.850  31.219  31.109  1.00  0.00     0.074 A 
ATOM     46  C   UNL A   1      38.704  30.734  29.754  1.00  0.00     0.031 C 
ATOM     47  C   UNL A   1      43.890  27.878  33.293  1.00  0.00     0.029 A 
ATOM     48  C   UNL A   1      43.132  28.907  34.000  1.00  0.00     0.049 A 
ATOM     49  H   UNL A   1      41.465  29.946  33.306  1.00  0.00     0.167 HD
ATOM     50  C   UNL A   1      38.035  32.134  31.683  1.00  0.00     0.031 A 
ATOM     51  C   UNL A   1      43.388  29.357  35.245  1.00  0.00     0.031 A 
ATOM     52  C   UNL A   1      38.190  32.623  33.026  1.00  0.00     0.049 A 
ATOM     53  C   UNL A   1      42.514  30.432  35.836  1.00  0.00     0.074 A 
ATOM     54  C   UNL A   1      37.410  33.544  33.703  1.00  0.00     0.029 A 
ATOM     55  N   UNL A   1      39.198  32.236  33.897  1.00  0.00    -0.354 N 
ATOM     56  N   UNL A   1      41.469  31.027  35.310  1.00  0.00    -0.248 NA
ATOM     57  C   UNL A   1      42.850  30.893  37.192  1.00  0.00     0.031 C 
ATOM     58  C   UNL A   1      37.977  33.753  34.964  1.00  0.00     0.029 A 
ATOM     59  C   UNL A   1      39.075  32.916  35.095  1.00  0.00     0.049 A 
ATOM     60  H   UNL A   1      39.897  31.573  33.693  1.00  0.00     0.167 HD
ATOM     61  C   UNL A   1      41.005  31.909  36.282  1.00  0.00     0.074 A 
ATOM     62  C   UNL A   1      41.879  31.765  37.428  1.00  0.00     0.031 C 
ATOM     63  C   UNL A   1      39.949  32.757  36.230  1.00  0.00     0.031 A 
BRANCH  50  64
ATOM     64  C   UNL A   1      36.919  32.695  30.841  1.00  0.00    -0.014 A 
ATOM     65  C   UNL A   1      37.138  33.769  29.961  1.00  0.00     0.010 A 
ATOM     66  C   UNL A   1      35.639  32.115  30.908  1.00  0.00     0.010 A 
ATOM     67  C   UNL A   1      36.088  34.278  29.192  1.00  0.00     0.020 A 
ATOM     68  C   UNL A   1      34.593  32.605  30.122  1.00  0.00     0.020 A 
ATOM     69  C   UNL A   1      34.821  33.696  29.280  1.00  0.00     0.054 A 
BRANCH  69  70
ATOM     70  S   UNL A   1      33.479  34.365  28.260  1.00  0.00     0.124 S 
ATOM     71  O   UNL A   1      32.657  35.049  29.256  1.00  0.00    -0.237 OA
ATOM     72  O   UNL A   1      34.189  35.238  27.329  1.00  0.00    -0.237 OA
ATOM     73  O   UNL A   1      32.874  33.180  27.660  1.00  0.00    -0.744 OA
ENDBRANCH  69  70
ENDBRANCH  50  64
BRANCH  51  74
ATOM     74  C   UNL A   1      44.538  28.804  36.011  1.00  0.00    -0.014 A 
ATOM     75  C   UNL A   1      44.376  27.679  36.838  1.00  0.00     0.010 A 
ATOM     76  C   UNL A   1      45.807  29.404  35.914  1.00  0.00     0.010 A 
ATOM     77  C   UNL A   1      45.460  27.172  37.562  1.00  0.00     0.020 A 
ATOM     78  C   UNL A   1      46.897  28.884  36.615  1.00  0.00     0.020 A 
ATOM     79  C   UNL A   1      46.714  27.777  37.444  1.00  0.00     0.054 A 
BRANCH  79  80
ATOM     80  S   UNL A   1      48.119  27.069  38.350  1.00  0.00     0.124 S 
ATOM     81  O   UNL A   1      49.198  27.990  38.006  1.00  0.00    -0.237 OA
ATOM     82  O   UNL A   1      47.660  27.121  39.736  1.00  0.00    -0.237 OA
ATOM     83  O   UNL A   1      48.240  25.724  37.793  1.00  0.00    -0.744 OA
ENDBRANCH  79  80
ENDBRANCH  51  74
BRANCH  63  84
ATOM     84  C   UNL A   1      39.644  33.570  37.461  1.00  0.00    -0.014 A 
ATOM     85  C   UNL A   1      38.802  33.077  38.472  1.00  0.00     0.010 A 
ATOM     86  C   UNL A   1      40.271  34.817  37.638  1.00  0.00     0.010 A 
ATOM     87  C   UNL A   1      38.576  33.827  39.631  1.00  0.00     0.020 A 
ATOM     88  C   UNL A   1      40.067  35.558  38.805  1.00  0.00     0.020 A 
ATOM     89  C   UNL A   1      39.212  35.062  39.790  1.00  0.00     0.054 A 
BRANCH  89  90
ATOM     90  S   UNL A   1      38.949  35.990  41.327  1.00  0.00     0.124 S 
ATOM     91  O   UNL A   1      40.169  35.696  42.071  1.00  0.00    -0.237 OA
ATOM     92  O   UNL A   1      38.817  37.366  40.853  1.00  0.00    -0.237 OA
ATOM     93  O   UNL A   1      37.726  35.409  41.878  1.00  0.00    -0.744 OA
ENDBRANCH  89  90
ENDBRANCH  63  84
ENDBRANCH  37  38
ENDBRANCH  30  32
ENDBRANCH  29  30
ENDBRANCH  28  29
ENDBRANCH  27  28
ENDBRANCH  26  27
ENDBRANCH   1  26
TORSDOF 21
ENDMDL
MODEL 2
REMARK VINA RESULT:     -10.0      1.409      8.328
REMARK SMILES C[C@@H](Oc1ccccc1Cl)C(=O)Nc1ccc(C(=O)OCCOCCOC(=O)c2ccc(-c3c4nc(c(-c5ccc(S(=O)(=O)[O-])cc5)c5ccc([nH]5)c(-c5ccc(S(=O)(=O)[O-])cc5)c5nc(c(-c6ccc(S(=O)(=O)[O-])cc6)c6ccc3[nH]6)C=C5)C=C4)cc2)cc1
REMARK SMILES IDX 22 1 21 2 20 3 18 4 19 5 17 6 14 7 15 8 90 9 16 10 89 11
REMARK SMILES IDX 13 12 11 13 12 14 2 16 1 17 3 18 4 19 5 20 9 21 6 22 8 23
REMARK SMILES IDX 10 24 7 25 23 26 24 27 25 28 26 29 27 30 28 31 29 32 30 33
REMARK SMILES IDX 88 34 31 35 87 36 32 37 33 38 34 39 81 40 35 41 86 42 80 43
REMARK SMILES IDX 82 44 36 45 85 46 79 47 78 48 37 50 67 51 48 52 66 53 49 54
REMARK SMILES IDX 52 55 65 56 83 57 50 58 51 59 64 61 84 62 53 63 38 64 39 65
REMARK SMILES IDX 47 66 40 67 46 68 41 69 42 70 43 71 44 72 45 73 68 74 69 75
REMARK SMILES IDX 77 76 70 77 76 78 71 79 72 80 73 81 74 82 75 83 54 84 55 85
REMARK SMILES IDX 63 86 56 87 62 88 57 89 58 90 59 91 60 92 61 93
REMARK H PARENT 13 15 82 49 52 60
REMARK Flexibility Score: inf
ROOT
ATOM      1  C   UNL A   1      38.565  22.684  26.166  1.00  0.00     0.202 C 
ENDROOT
BRANCH   1   2
ATOM      2  C   UNL A   1      38.128  21.548  25.239  1.00  0.00     0.261 C 
BRANCH   2   3
ATOM      3  O   UNL A   1      36.911  21.899  24.566  1.00  0.00    -0.460 OA
BRANCH   3   4
ATOM      4  C   UNL A   1      35.816  21.194  24.936  1.00  0.00     0.338 C 
ATOM      5  O   UNL A   1      35.654  19.990  24.833  1.00  0.00    -0.246 OA
BRANCH   4   6
ATOM      6  C   UNL A   1      34.833  22.084  25.606  1.00  0.00     0.060 A 
ATOM      7  C   UNL A   1      32.758  23.619  26.643  1.00  0.00     0.041 A 
ATOM      8  C   UNL A   1      32.790  22.250  26.900  1.00  0.00     0.027 A 
ATOM      9  C   UNL A   1      33.853  24.246  26.050  1.00  0.00     0.027 A 
ATOM     10  C   UNL A   1      33.817  21.480  26.357  1.00  0.00     0.018 A 
ATOM     11  C   UNL A   1      34.890  23.479  25.520  1.00  0.00     0.018 A 
BRANCH   7  12
ATOM     12  N   UNL A   1      31.571  24.302  26.911  1.00  0.00    -0.323 N 
ATOM     13  C   UNL A   1      30.787  24.996  26.022  1.00  0.00     0.265 C 
ATOM     14  O   UNL A   1      29.732  25.476  26.461  1.00  0.00    -0.270 OA
ATOM     15  H   UNL A   1      31.259  24.284  27.844  1.00  0.00     0.170 HD
BRANCH  13  16
ATOM     16  C   UNL A   1      31.137  25.156  24.514  1.00  0.00     0.259 C 
ATOM     17  C   UNL A   1      30.511  24.001  23.736  1.00  0.00     0.064 C 
BRANCH  16  18
ATOM     18  O   UNL A   1      30.778  26.421  23.959  1.00  0.00    -0.479 OA
BRANCH  18  19
ATOM     19  C   UNL A   1      31.823  27.216  23.578  1.00  0.00     0.139 A 
ATOM     20  C   UNL A   1      32.541  26.890  22.426  1.00  0.00     0.048 A 
ATOM     21  C   UNL A   1      32.275  28.250  24.409  1.00  0.00     0.083 A 
ATOM     22  C   UNL A   1      33.674  27.629  22.077  1.00  0.00     0.004 A 
ATOM     23  C   UNL A   1      33.401  28.993  24.052  1.00  0.00     0.024 A 
ATOM     24  Cl  UNL A   1      31.484  28.644  25.891  1.00  0.00    -0.080 Cl
ATOM     25  C   UNL A   1      34.098  28.685  22.884  1.00  0.00     0.002 A 
ENDBRANCH  18  19
ENDBRANCH  16  18
ENDBRANCH  13  16
ENDBRANCH   7  12
ENDBRANCH   4   6
ENDBRANCH   3   4
ENDBRANCH   2   3
ENDBRANCH   1   2
BRANCH   1  26
ATOM     26  O   UNL A   1      39.733  22.434  26.953  1.00  0.00    -0.374 OA
BRANCH  26  27
ATOM     27  C   UNL A   1      40.789  21.701  26.328  1.00  0.00     0.202 C 
BRANCH  27  28
ATOM     28  C   UNL A   1      42.060  22.486  25.991  1.00  0.00     0.261 C 
BRANCH  28  29
ATOM     29  O   UNL A   1      41.842  23.906  26.030  1.00  0.00    -0.460 OA
BRANCH  29  30
ATOM     30  C   UNL A   1      42.868  24.620  26.554  1.00  0.00     0.338 C 
ATOM     31  O   UNL A   1      44.046  24.546  26.250  1.00  0.00    -0.246 OA
BRANCH  30  32
ATOM     32  C   UNL A   1      42.343  25.665  27.456  1.00  0.00     0.060 A 
ATOM     33  C   UNL A   1      43.039  26.880  27.508  1.00  0.00     0.016 A 
ATOM     34  C   UNL A   1      41.240  25.443  28.282  1.00  0.00     0.016 A 
ATOM     35  C   UNL A   1      42.667  27.859  28.428  1.00  0.00     0.010 A 
ATOM     36  C   UNL A   1      40.873  26.422  29.211  1.00  0.00     0.010 A 
ATOM     37  C   UNL A   1      41.608  27.618  29.312  1.00  0.00    -0.014 A 
BRANCH  37  38
ATOM     38  C   UNL A   1      41.368  28.548  30.442  1.00  0.00     0.031 A 
ATOM     39  C   UNL A   1      42.237  28.442  31.666  1.00  0.00     0.074 A 
ATOM     40  C   UNL A   1      40.403  29.482  30.374  1.00  0.00     0.049 A 
ATOM     41  N   UNL A   1      42.172  29.111  32.787  1.00  0.00    -0.248 NA
ATOM     42  C   UNL A   1      43.323  27.448  31.618  1.00  0.00     0.031 C 
ATOM     43  C   UNL A   1      39.530  29.715  29.225  1.00  0.00     0.029 A 
ATOM     44  N   UNL A   1      39.994  30.406  31.301  1.00  0.00    -0.354 N 
ATOM     45  C   UNL A   1      43.198  28.613  33.583  1.00  0.00     0.074 A 
ATOM     46  C   UNL A   1      43.854  27.571  32.825  1.00  0.00     0.031 C 
ATOM     47  C   UNL A   1      38.679  30.713  29.520  1.00  0.00     0.029 A 
ATOM     48  C   UNL A   1      38.923  31.163  30.889  1.00  0.00     0.049 A 
ATOM     49  H   UNL A   1      40.425  30.518  32.179  1.00  0.00     0.167 HD
ATOM     50  C   UNL A   1      43.562  28.994  34.830  1.00  0.00     0.031 A 
ATOM     51  C   UNL A   1      38.207  32.095  31.549  1.00  0.00     0.031 A 
ATOM     52  C   UNL A   1      42.899  30.023  35.586  1.00  0.00     0.049 A 
ATOM     53  C   UNL A   1      38.582  32.448  32.965  1.00  0.00     0.074 A 
ATOM     54  C   UNL A   1      43.199  30.488  36.854  1.00  0.00     0.029 A 
ATOM     55  N   UNL A   1      41.799  30.743  35.144  1.00  0.00    -0.354 N 
ATOM     56  N   UNL A   1      39.564  31.980  33.699  1.00  0.00    -0.248 NA
ATOM     57  C   UNL A   1      37.756  33.460  33.641  1.00  0.00     0.031 C 
ATOM     58  C   UNL A   1      42.248  31.452  37.201  1.00  0.00     0.029 A 
ATOM     59  C   UNL A   1      41.393  31.631  36.124  1.00  0.00     0.049 A 
ATOM     60  H   UNL A   1      41.372  30.638  34.264  1.00  0.00     0.167 HD
ATOM     61  C   UNL A   1      39.492  32.662  34.909  1.00  0.00     0.074 A 
ATOM     62  C   UNL A   1      38.375  33.578  34.807  1.00  0.00     0.031 C 
ATOM     63  C   UNL A   1      40.282  32.543  36.005  1.00  0.00     0.031 A 
BRANCH  50  64
ATOM     64  C   UNL A   1      44.712  28.263  35.471  1.00  0.00    -0.014 A 
ATOM     65  C   UNL A   1      46.035  28.721  35.334  1.00  0.00     0.010 A 
ATOM     66  C   UNL A   1      44.462  27.118  36.249  1.00  0.00     0.010 A 
ATOM     67  C   UNL A   1      47.089  28.025  35.932  1.00  0.00     0.020 A 
ATOM     68  C   UNL A   1      45.511  26.434  36.869  1.00  0.00     0.020 A 
ATOM     69  C   UNL A   1      46.821  26.883  36.692  1.00  0.00     0.054 A 
BRANCH  69  70
ATOM     70  S   UNL A   1      48.205  26.007  37.470  1.00  0.00     0.124 S 
ATOM     71  O   UNL A   1      47.551  24.805  37.982  1.00  0.00    -0.237 OA
ATOM     72  O   UNL A   1      49.120  25.795  36.352  1.00  0.00    -0.237 OA
ATOM     73  O   UNL A   1      48.678  26.940  38.489  1.00  0.00    -0.744 OA
ENDBRANCH  69  70
ENDBRANCH  50  64
BRANCH  51  74
ATOM     74  C   UNL A   1      37.046  32.747  30.884  1.00  0.00    -0.014 A 
ATOM     75  C   UNL A   1      35.749  32.227  31.032  1.00  0.00     0.010 A 
ATOM     76  C   UNL A   1      37.235  33.898  30.099  1.00  0.00     0.010 A 
ATOM     77  C   UNL A   1      34.664  32.840  30.396  1.00  0.00     0.020 A 
ATOM     78  C   UNL A   1      36.151  34.528  29.483  1.00  0.00     0.020 A 
ATOM     79  C   UNL A   1      34.873  33.988  29.627  1.00  0.00     0.054 A 
BRANCH  79  80
ATOM     80  S   UNL A   1      33.444  34.799  28.856  1.00  0.00     0.124 S 
ATOM     81  O   UNL A   1      34.056  35.971  28.239  1.00  0.00    -0.237 OA
ATOM     82  O   UNL A   1      32.960  33.777  27.932  1.00  0.00    -0.237 OA
ATOM     83  O   UNL A   1      32.558  35.075  29.985  1.00  0.00    -0.744 OA
ENDBRANCH  79  80
ENDBRANCH  51  74
BRANCH  63  84
ATOM     84  C   UNL A   1      40.002  33.453  37.172  1.00  0.00    -0.014 A 
ATOM     85  C   UNL A   1      40.554  34.744  37.241  1.00  0.00     0.010 A 
ATOM     86  C   UNL A   1      39.113  33.032  38.178  1.00  0.00     0.010 A 
ATOM     87  C   UNL A   1      40.237  35.590  38.307  1.00  0.00     0.020 A 
ATOM     88  C   UNL A   1      38.774  33.885  39.232  1.00  0.00     0.020 A 
ATOM     89  C   UNL A   1      39.348  35.156  39.295  1.00  0.00     0.054 A 
BRANCH  89  90
ATOM     90  S   UNL A   1      38.907  36.294  40.637  1.00  0.00     0.124 S 
ATOM     91  O   UNL A   1      37.750  35.630  41.231  1.00  0.00    -0.237 OA
ATOM     92  O   UNL A   1      40.115  36.306  41.459  1.00  0.00    -0.237 OA
ATOM     93  O   UNL A   1      38.619  37.550  39.947  1.00  0.00    -0.744 OA
ENDBRANCH  89  90
ENDBRANCH  63  84
ENDBRANCH  37  38
ENDBRANCH  30  32
ENDBRANCH  29  30
ENDBRANCH  28  29
ENDBRANCH  27  28
ENDBRANCH  26  27
ENDBRANCH   1  26
TORSDOF 21
ENDMDL
MODEL 3
REMARK VINA RESULT:      -9.9      2.428      8.592
REMARK SMILES C[C@@H](Oc1ccccc1Cl)C(=O)Nc1ccc(C(=O)OCCOCCOC(=O)c2ccc(-c3c4nc(c(-c5ccc(S(=O)(=O)[O-])cc5)c5ccc([nH]5)c(-c5ccc(S(=O)(=O)[O-])cc5)c5nc(c(-c6ccc(S(=O)(=O)[O-])cc6)c6ccc3[nH]6)C=C5)C=C4)cc2)cc1
REMARK SMILES IDX 22 1 21 2 20 3 18 4 19 5 17 6 14 7 15 8 90 9 16 10 89 11
REMARK SMILES IDX 13 12 11 13 12 14 2 16 1 17 3 18 4 19 5 20 9 21 6 22 8 23
REMARK SMILES IDX 10 24 7 25 23 26 24 27 25 28 26 29 27 30 28 31 29 32 30 33
REMARK SMILES IDX 88 34 31 35 87 36 32 37 33 38 34 39 81 40 35 41 86 42 80 43
REMARK SMILES IDX 82 44 36 45 85 46 79 47 78 48 37 50 67 51 48 52 66 53 49 54
REMARK SMILES IDX 52 55 65 56 83 57 50 58 51 59 64 61 84 62 53 63 38 64 39 65
REMARK SMILES IDX 47 66 40 67 46 68 41 69 42 70 43 71 44 72 45 73 68 74 69 75
REMARK SMILES IDX 77 76 70 77 76 78 71 79 72 80 73 81 74 82 75 83 54 84 55 85
REMARK SMILES IDX 63 86 56 87 62 88 57 89 58 90 59 91 60 92 61 93
REMARK H PARENT 13 15 82 49 52 60
REMARK Flexibility Score: inf
ROOT
ATOM      1  C   UNL A   1      36.211  21.454  24.831  1.00  0.00     0.202 C 
ENDROOT
BRANCH   1   2
ATOM      2  C   UNL A   1      34.873  20.983  25.407  1.00  0.00     0.261 C 
BRANCH   2   3
ATOM      3  O   UNL A   1      34.216  22.066  26.080  1.00  0.00    -0.460 OA
BRANCH   3   4
ATOM      4  C   UNL A   1      32.973  22.362  25.631  1.00  0.00     0.338 C 
ATOM      5  O   UNL A   1      32.069  21.574  25.414  1.00  0.00    -0.246 OA
BRANCH   4   6
ATOM      6  C   UNL A   1      32.800  23.834  25.527  1.00  0.00     0.060 A 
ATOM      7  C   UNL A   1      32.639  26.608  25.635  1.00  0.00     0.041 A 
ATOM      8  C   UNL A   1      33.868  26.004  25.379  1.00  0.00     0.027 A 
ATOM      9  C   UNL A   1      31.471  25.848  25.633  1.00  0.00     0.027 A 
ATOM     10  C   UNL A   1      33.950  24.613  25.352  1.00  0.00     0.018 A 
ATOM     11  C   UNL A   1      31.548  24.457  25.590  1.00  0.00     0.018 A 
BRANCH   7  12
ATOM     12  N   UNL A   1      32.640  27.961  25.979  1.00  0.00    -0.323 N 
ATOM     13  C   UNL A   1      32.442  29.035  25.147  1.00  0.00     0.265 C 
ATOM     14  O   UNL A   1      32.417  30.156  25.675  1.00  0.00    -0.270 OA
ATOM     15  H   UNL A   1      32.802  28.170  26.927  1.00  0.00     0.170 HD
BRANCH  13  16
ATOM     16  C   UNL A   1      32.200  28.901  23.616  1.00  0.00     0.259 C 
ATOM     17  C   UNL A   1      33.493  28.436  22.949  1.00  0.00     0.064 C 
BRANCH  16  18
ATOM     18  O   UNL A   1      31.097  28.065  23.266  1.00  0.00    -0.479 OA
BRANCH  18  19
ATOM     19  C   UNL A   1      29.925  28.716  22.998  1.00  0.00     0.139 A 
ATOM     20  C   UNL A   1      29.966  30.054  22.601  1.00  0.00     0.048 A 
ATOM     21  C   UNL A   1      28.692  28.108  23.268  1.00  0.00     0.083 A 
ATOM     22  C   UNL A   1      28.777  30.766  22.421  1.00  0.00     0.004 A 
ATOM     23  C   UNL A   1      27.505  28.819  23.079  1.00  0.00     0.024 A 
ATOM     24  Cl  UNL A   1      28.578  26.487  23.846  1.00  0.00    -0.080 Cl
ATOM     25  C   UNL A   1      27.549  30.146  22.651  1.00  0.00     0.002 A 
ENDBRANCH  18  19
ENDBRANCH  16  18
ENDBRANCH  13  16
ENDBRANCH   7  12
ENDBRANCH   4   6
ENDBRANCH   3   4
ENDBRANCH   2   3
ENDBRANCH   1   2
BRANCH   1  26
ATOM     26  O   UNL A   1      37.215  21.800  25.788  1.00  0.00    -0.374 OA
BRANCH  26  27
ATOM     27  C   UNL A   1      38.161  22.799  25.401  1.00  0.00     0.202 C 
BRANCH  27  28
ATOM     28  C   UNL A   1      39.173  23.233  26.465  1.00  0.00     0.261 C 
BRANCH  28  29
ATOM     29  O   UNL A   1      38.845  24.514  27.030  1.00  0.00    -0.460 OA
BRANCH  29  30
ATOM     30  C   UNL A   1      39.855  25.418  27.003  1.00  0.00     0.338 C 
ATOM     31  O   UNL A   1      40.723  25.524  26.154  1.00  0.00    -0.246 OA
BRANCH  30  32
ATOM     32  C   UNL A   1      39.669  26.410  28.080  1.00  0.00     0.060 A 
ATOM     33  C   UNL A   1      40.335  27.636  27.949  1.00  0.00     0.016 A 
ATOM     34  C   UNL A   1      38.920  26.128  29.224  1.00  0.00     0.016 A 
ATOM     35  C   UNL A   1      40.299  28.564  28.987  1.00  0.00     0.010 A 
ATOM     36  C   UNL A   1      38.893  27.057  30.269  1.00  0.00     0.010 A 
ATOM     37  C   UNL A   1      39.612  28.262  30.169  1.00  0.00    -0.014 A 
BRANCH  37  38
ATOM     38  C   UNL A   1      39.773  29.135  31.357  1.00  0.00     0.031 A 
ATOM     39  C   UNL A   1      40.930  28.889  32.287  1.00  0.00     0.074 A 
ATOM     40  C   UNL A   1      38.913  30.141  31.596  1.00  0.00     0.049 A 
ATOM     41  N   UNL A   1      41.234  29.491  33.408  1.00  0.00    -0.248 NA
ATOM     42  C   UNL A   1      41.870  27.822  31.901  1.00  0.00     0.031 C 
ATOM     43  C   UNL A   1      37.783  30.509  30.744  1.00  0.00     0.029 A 
ATOM     44  N   UNL A   1      38.856  31.034  32.636  1.00  0.00    -0.354 N 
ATOM     45  C   UNL A   1      42.390  28.869  33.868  1.00  0.00     0.074 A 
ATOM     46  C   UNL A   1      42.719  27.829  32.918  1.00  0.00     0.031 C 
ATOM     47  C   UNL A   1      37.138  31.548  31.302  1.00  0.00     0.029 A 
ATOM     48  C   UNL A   1      37.785  31.893  32.566  1.00  0.00     0.049 A 
ATOM     49  H   UNL A   1      39.519  31.058  33.364  1.00  0.00     0.167 HD
ATOM     50  C   UNL A   1      43.113  29.143  34.979  1.00  0.00     0.031 A 
ATOM     51  C   UNL A   1      37.362  32.832  33.435  1.00  0.00     0.031 A 
ATOM     52  C   UNL A   1      42.775  30.170  35.928  1.00  0.00     0.049 A 
ATOM     53  C   UNL A   1      38.140  33.068  34.704  1.00  0.00     0.074 A 
ATOM     54  C   UNL A   1      43.450  30.532  37.081  1.00  0.00     0.029 A 
ATOM     55  N   UNL A   1      41.665  30.996  35.838  1.00  0.00    -0.354 N 
ATOM     56  N   UNL A   1      39.239  32.483  35.118  1.00  0.00    -0.248 NA
ATOM     57  C   UNL A   1      37.622  34.094  35.622  1.00  0.00     0.031 C 
ATOM     58  C   UNL A   1      42.719  31.540  37.716  1.00  0.00     0.029 A 
ATOM     59  C   UNL A   1      41.622  31.849  36.926  1.00  0.00     0.049 A 
ATOM     60  H   UNL A   1      41.006  30.978  35.107  1.00  0.00     0.167 HD
ATOM     61  C   UNL A   1      39.561  33.092  36.327  1.00  0.00     0.074 A 
ATOM     62  C   UNL A   1      38.544  34.094  36.574  1.00  0.00     0.031 C 
ATOM     63  C   UNL A   1      40.606  32.847  37.155  1.00  0.00     0.031 A 
BRANCH  50  64
ATOM     64  C   UNL A   1      44.324  28.290  35.246  1.00  0.00    -0.014 A 
ATOM     65  C   UNL A   1      45.598  28.668  34.786  1.00  0.00     0.010 A 
ATOM     66  C   UNL A   1      44.191  27.108  35.998  1.00  0.00     0.010 A 
ATOM     67  C   UNL A   1      46.710  27.859  35.041  1.00  0.00     0.020 A 
ATOM     68  C   UNL A   1      45.304  26.310  36.275  1.00  0.00     0.020 A 
ATOM     69  C   UNL A   1      46.555  26.683  35.780  1.00  0.00     0.054 A 
BRANCH  69  70
ATOM     70  S   UNL A   1      48.015  25.660  36.109  1.00  0.00     0.124 S 
ATOM     71  O   UNL A   1      49.105  26.581  35.792  1.00  0.00    -0.237 OA
ATOM     72  O   UNL A   1      47.865  25.331  37.523  1.00  0.00    -0.237 OA
ATOM     73  O   UNL A   1      47.866  24.534  35.191  1.00  0.00    -0.744 OA
ENDBRANCH  69  70
ENDBRANCH  50  64
BRANCH  51  74
ATOM     74  C   UNL A   1      36.126  33.609  33.145  1.00  0.00    -0.014 A 
ATOM     75  C   UNL A   1      36.202  34.909  32.616  1.00  0.00     0.010 A 
ATOM     76  C   UNL A   1      34.861  33.046  33.396  1.00  0.00     0.010 A 
ATOM     77  C   UNL A   1      35.036  35.636  32.355  1.00  0.00     0.020 A 
ATOM     78  C   UNL A   1      33.694  33.759  33.112  1.00  0.00     0.020 A 
ATOM     79  C   UNL A   1      33.789  35.054  32.603  1.00  0.00     0.054 A 
BRANCH  79  80
ATOM     80  S   UNL A   1      32.288  35.994  32.205  1.00  0.00     0.124 S 
ATOM     81  O   UNL A   1      31.235  35.080  32.634  1.00  0.00    -0.237 OA
ATOM     82  O   UNL A   1      32.447  37.201  33.013  1.00  0.00    -0.237 OA
ATOM     83  O   UNL A   1      32.390  36.204  30.763  1.00  0.00    -0.744 OA
ENDBRANCH  79  80
ENDBRANCH  51  74
BRANCH  63  84
ATOM     84  C   UNL A   1      40.738  33.701  38.389  1.00  0.00    -0.014 A 
ATOM     85  C   UNL A   1      40.108  33.346  39.594  1.00  0.00     0.010 A 
ATOM     86  C   UNL A   1      41.566  34.837  38.356  1.00  0.00     0.010 A 
ATOM     87  C   UNL A   1      40.289  34.126  40.740  1.00  0.00     0.020 A 
ATOM     88  C   UNL A   1      41.770  35.605  39.506  1.00  0.00     0.020 A 
ATOM     89  C   UNL A   1      41.120  35.249  40.689  1.00  0.00     0.054 A 
BRANCH  89  90
ATOM     90  S   UNL A   1      41.386  36.211  42.204  1.00  0.00     0.124 S 
ATOM     91  O   UNL A   1      40.024  36.593  42.564  1.00  0.00    -0.237 OA
ATOM     92  O   UNL A   1      42.023  35.242  43.093  1.00  0.00    -0.237 OA
ATOM     93  O   UNL A   1      42.248  37.309  41.771  1.00  0.00    -0.744 OA
ENDBRANCH  89  90
ENDBRANCH  63  84
ENDBRANCH  37  38
ENDBRANCH  30  32
ENDBRANCH  29  30
ENDBRANCH  28  29
ENDBRANCH  27  28
ENDBRANCH  26  27
ENDBRANCH   1  26
TORSDOF 21
ENDMDL
