MODEL 1
REMARK VINA RESULT:      -8.5      0.000      0.000
REMARK SMILES CC(C)(C(=O)OCCOCCOC(=O)c1ccc(-c2c3nc(c(-c4ccc(S(=O)(=O)[O-])cc4)c4ccc([nH]4)c(-c4ccc(S(=O)(=O)[O-])cc4)c4nc(c(-c5ccc(S(=O)(=O)[O-])cc5)c5ccc2[nH]5)C=C4)C=C3)cc1)c1ccc(C(=O)CCCCl)cc1
REMARK SMILES IDX 8 1 7 2 6 3 4 4 5 5 2 6 1 7 3 8 75 9 76 10 86 11 77 12 85 13
REMARK SMILES IDX 78 14 79 15 80 16 81 17 82 18 83 19 84 20 9 21 10 22 11 23
REMARK SMILES IDX 12 24 13 25 14 26 15 27 16 28 74 29 17 30 73 31 18 32 19 33
REMARK SMILES IDX 20 34 67 35 21 36 72 37 66 38 68 39 22 40 71 41 65 42 64 43
REMARK SMILES IDX 23 45 53 46 34 47 52 48 35 49 38 50 51 51 69 52 36 53 37 54
REMARK SMILES IDX 50 56 70 57 39 58 24 59 25 60 33 61 26 62 32 63 27 64 28 65
REMARK SMILES IDX 29 66 30 67 31 68 54 69 55 70 63 71 56 72 62 73 57 74 58 75
REMARK SMILES IDX 59 76 60 77 61 78 40 79 41 80 49 81 42 82 48 83 43 84 44 85
REMARK SMILES IDX 45 86 46 87 47 88
REMARK H PARENT 68 44 38 55
REMARK Flexibility Score: inf
ROOT
ATOM      1  C   UNL A   1      33.269  34.637  28.600  1.00  0.00     0.202 C 
ENDROOT
BRANCH   1   2
ATOM      2  C   UNL A   1      33.040  36.081  29.048  1.00  0.00     0.261 C 
BRANCH   2   3
ATOM      3  O   UNL A   1      32.342  36.123  30.306  1.00  0.00    -0.463 OA
BRANCH   3   4
ATOM      4  C   UNL A   1      32.908  36.915  31.255  1.00  0.00     0.316 C 
ATOM      5  O   UNL A   1      33.412  38.010  31.025  1.00  0.00    -0.251 OA
BRANCH   4   6
ATOM      6  C   UNL A   1      32.858  36.294  32.670  1.00  0.00     0.087 C 
ATOM      7  C   UNL A   1      33.031  37.312  33.823  1.00  0.00     0.028 C 
ATOM      8  C   UNL A   1      31.422  35.741  32.823  1.00  0.00     0.028 C 
BRANCH   6   9
ATOM      9  C   UNL A   1      33.941  35.188  32.721  1.00  0.00    -0.031 A 
ATOM     10  C   UNL A   1      35.317  35.488  32.687  1.00  0.00     0.005 A 
ATOM     11  C   UNL A   1      33.579  33.831  32.653  1.00  0.00     0.005 A 
ATOM     12  C   UNL A   1      36.282  34.476  32.628  1.00  0.00     0.012 A 
ATOM     13  C   UNL A   1      34.538  32.818  32.585  1.00  0.00     0.012 A 
ATOM     14  C   UNL A   1      35.893  33.137  32.607  1.00  0.00     0.018 A 
BRANCH  14  15
ATOM     15  C   UNL A   1      36.947  32.090  32.678  1.00  0.00     0.162 C 
ATOM     16  O   UNL A   1      36.624  30.905  32.732  1.00  0.00    -0.294 OA
BRANCH  15  17
ATOM     17  C   UNL A   1      38.404  32.502  32.566  1.00  0.00     0.082 C 
BRANCH  17  18
ATOM     18  C   UNL A   1      39.201  32.157  33.828  1.00  0.00     0.024 C 
BRANCH  18  19
ATOM     19  C   UNL A   1      39.574  33.329  34.735  1.00  0.00     0.110 C 
ATOM     20  Cl  UNL A   1      38.670  33.300  36.266  1.00  0.00    -0.127 Cl
ENDBRANCH  18  19
ENDBRANCH  17  18
ENDBRANCH  15  17
ENDBRANCH  14  15
ENDBRANCH   6   9
ENDBRANCH   4   6
ENDBRANCH   3   4
ENDBRANCH   2   3
ENDBRANCH   1   2
BRANCH   1  21
ATOM     21  O   UNL A   1      34.369  33.943  29.194  1.00  0.00    -0.374 OA
BRANCH  21  22
ATOM     22  C   UNL A   1      34.412  32.527  29.040  1.00  0.00     0.202 C 
BRANCH  22  23
ATOM     23  C   UNL A   1      35.061  31.979  27.761  1.00  0.00     0.261 C 
BRANCH  23  24
ATOM     24  O   UNL A   1      34.316  30.898  27.175  1.00  0.00    -0.460 OA
BRANCH  24  25
ATOM     25  C   UNL A   1      34.612  29.676  27.679  1.00  0.00     0.338 C 
ATOM     26  O   UNL A   1      33.910  28.672  27.642  1.00  0.00    -0.246 OA
BRANCH  25  27
ATOM     27  C   UNL A   1      36.016  29.636  28.128  1.00  0.00     0.060 A 
ATOM     28  C   UNL A   1      37.005  29.830  27.154  1.00  0.00     0.016 A 
ATOM     29  C   UNL A   1      36.366  29.355  29.450  1.00  0.00     0.016 A 
ATOM     30  C   UNL A   1      38.350  29.701  27.490  1.00  0.00     0.010 A 
ATOM     31  C   UNL A   1      37.717  29.210  29.782  1.00  0.00     0.010 A 
ATOM     32  C   UNL A   1      38.713  29.349  28.796  1.00  0.00    -0.014 A 
BRANCH  32  33
ATOM     33  C   UNL A   1      40.121  28.984  29.080  1.00  0.00     0.031 A 
ATOM     34  C   UNL A   1      41.009  29.987  29.764  1.00  0.00     0.074 A 
ATOM     35  C   UNL A   1      40.586  27.758  28.779  1.00  0.00     0.049 A 
ATOM     36  N   UNL A   1      42.264  29.879  30.111  1.00  0.00    -0.248 NA
ATOM     37  C   UNL A   1      40.398  31.284  30.107  1.00  0.00     0.031 C 
ATOM     38  C   UNL A   1      39.809  26.685  28.159  1.00  0.00     0.029 A 
ATOM     39  N   UNL A   1      41.832  27.210  28.958  1.00  0.00    -0.354 N 
ATOM     40  C   UNL A   1      42.598  31.090  30.707  1.00  0.00     0.074 A 
ATOM     41  C   UNL A   1      41.420  31.929  30.653  1.00  0.00     0.031 C 
ATOM     42  C   UNL A   1      40.598  25.607  28.005  1.00  0.00     0.029 A 
ATOM     43  C   UNL A   1      41.942  25.924  28.485  1.00  0.00     0.049 A 
ATOM     44  H   UNL A   1      42.576  27.692  29.385  1.00  0.00     0.167 HD
ATOM     45  C   UNL A   1      43.777  31.469  31.254  1.00  0.00     0.031 A 
ATOM     46  C   UNL A   1      43.009  25.104  28.427  1.00  0.00     0.031 A 
ATOM     47  C   UNL A   1      44.949  30.636  31.299  1.00  0.00     0.049 A 
ATOM     48  C   UNL A   1      44.331  25.575  28.978  1.00  0.00     0.074 A 
ATOM     49  C   UNL A   1      46.188  30.925  31.844  1.00  0.00     0.029 A 
ATOM     50  N   UNL A   1      45.031  29.356  30.772  1.00  0.00    -0.354 N 
ATOM     51  N   UNL A   1      44.622  26.715  29.560  1.00  0.00    -0.248 NA
ATOM     52  C   UNL A   1      45.465  24.647  28.871  1.00  0.00     0.031 C 
ATOM     53  C   UNL A   1      47.035  29.840  31.597  1.00  0.00     0.029 A 
ATOM     54  C   UNL A   1      46.307  28.852  30.954  1.00  0.00     0.049 A 
ATOM     55  H   UNL A   1      44.291  28.877  30.334  1.00  0.00     0.167 HD
ATOM     56  C   UNL A   1      45.965  26.629  29.912  1.00  0.00     0.074 A 
ATOM     57  C   UNL A   1      46.425  25.321  29.491  1.00  0.00     0.031 C 
ATOM     58  C   UNL A   1      46.748  27.548  30.529  1.00  0.00     0.031 A 
BRANCH  45  59
ATOM     59  C   UNL A   1      43.871  32.860  31.822  1.00  0.00    -0.014 A 
ATOM     60  C   UNL A   1      43.438  33.145  33.130  1.00  0.00     0.010 A 
ATOM     61  C   UNL A   1      44.452  33.885  31.054  1.00  0.00     0.010 A 
ATOM     62  C   UNL A   1      43.563  34.436  33.650  1.00  0.00     0.020 A 
ATOM     63  C   UNL A   1      44.599  35.172  31.578  1.00  0.00     0.020 A 
ATOM     64  C   UNL A   1      44.143  35.442  32.869  1.00  0.00     0.054 A 
BRANCH  64  65
ATOM     65  S   UNL A   1      44.328  37.099  33.583  1.00  0.00     0.124 S 
ATOM     66  O   UNL A   1      45.234  36.846  34.701  1.00  0.00    -0.237 OA
ATOM     67  O   UNL A   1      44.895  37.865  32.477  1.00  0.00    -0.237 OA
ATOM     68  O   UNL A   1      42.965  37.468  33.960  1.00  0.00    -0.744 OA
ENDBRANCH  64  65
ENDBRANCH  45  59
BRANCH  46  69
ATOM     69  C   UNL A   1      42.886  23.759  27.798  1.00  0.00    -0.014 A 
ATOM     70  C   UNL A   1      43.280  23.545  26.466  1.00  0.00     0.010 A 
ATOM     71  C   UNL A   1      42.355  22.684  28.535  1.00  0.00     0.010 A 
ATOM     72  C   UNL A   1      43.124  22.286  25.876  1.00  0.00     0.020 A 
ATOM     73  C   UNL A   1      42.224  21.419  27.958  1.00  0.00     0.020 A 
ATOM     74  C   UNL A   1      42.596  21.231  26.626  1.00  0.00     0.054 A 
BRANCH  74  75
ATOM     75  S   UNL A   1      42.437  19.597  25.854  1.00  0.00     0.124 S 
ATOM     76  O   UNL A   1      41.029  19.577  25.473  1.00  0.00    -0.237 OA
ATOM     77  O   UNL A   1      43.391  19.675  24.751  1.00  0.00    -0.237 OA
ATOM     78  O   UNL A   1      42.811  18.677  26.926  1.00  0.00    -0.744 OA
ENDBRANCH  74  75
ENDBRANCH  46  69
BRANCH  58  79
ATOM     79  C   UNL A   1      48.174  27.162  30.820  1.00  0.00    -0.014 A 
ATOM     80  C   UNL A   1      48.502  26.370  31.936  1.00  0.00     0.010 A 
ATOM     81  C   UNL A   1      49.192  27.551  29.932  1.00  0.00     0.010 A 
ATOM     82  C   UNL A   1      49.828  26.002  32.173  1.00  0.00     0.020 A 
ATOM     83  C   UNL A   1      50.516  27.161  30.151  1.00  0.00     0.020 A 
ATOM     84  C   UNL A   1      50.828  26.400  31.280  1.00  0.00     0.054 A 
BRANCH  84  85
ATOM     85  S   UNL A   1      52.537  25.874  31.588  1.00  0.00     0.124 S 
ATOM     86  O   UNL A   1      53.107  25.896  30.244  1.00  0.00    -0.237 OA
ATOM     87  O   UNL A   1      53.031  26.905  32.498  1.00  0.00    -0.237 OA
ATOM     88  O   UNL A   1      52.389  24.546  32.180  1.00  0.00    -0.744 OA
ENDBRANCH  84  85
ENDBRANCH  58  79
ENDBRANCH  32  33
ENDBRANCH  25  27
ENDBRANCH  24  25
ENDBRANCH  23  24
ENDBRANCH  22  23
ENDBRANCH  21  22
ENDBRANCH   1  21
TORSDOF 22
ENDMDL
MODEL 2
REMARK VINA RESULT:      -8.5      3.477      4.340
REMARK SMILES CC(C)(C(=O)OCCOCCOC(=O)c1ccc(-c2c3nc(c(-c4ccc(S(=O)(=O)[O-])cc4)c4ccc([nH]4)c(-c4ccc(S(=O)(=O)[O-])cc4)c4nc(c(-c5ccc(S(=O)(=O)[O-])cc5)c5ccc2[nH]5)C=C4)C=C3)cc1)c1ccc(C(=O)CCCCl)cc1
REMARK SMILES IDX 8 1 7 2 6 3 4 4 5 5 2 6 1 7 3 8 75 9 76 10 86 11 77 12 85 13
REMARK SMILES IDX 78 14 79 15 80 16 81 17 82 18 83 19 84 20 9 21 10 22 11 23
REMARK SMILES IDX 12 24 13 25 14 26 15 27 16 28 74 29 17 30 73 31 18 32 19 33
REMARK SMILES IDX 20 34 67 35 21 36 72 37 66 38 68 39 22 40 71 41 65 42 64 43
REMARK SMILES IDX 23 45 53 46 34 47 52 48 35 49 38 50 51 51 69 52 36 53 37 54
REMARK SMILES IDX 50 56 70 57 39 58 24 59 25 60 33 61 26 62 32 63 27 64 28 65
REMARK SMILES IDX 29 66 30 67 31 68 54 69 55 70 63 71 56 72 62 73 57 74 58 75
REMARK SMILES IDX 59 76 60 77 61 78 40 79 41 80 49 81 42 82 48 83 43 84 44 85
REMARK SMILES IDX 45 86 46 87 47 88
REMARK H PARENT 68 44 38 55
REMARK Flexibility Score: inf
ROOT
ATOM      1  C   UNL A   1      33.664  33.274  28.393  1.00  0.00     0.202 C 
ENDROOT
BRANCH   1   2
ATOM      2  C   UNL A   1      33.305  34.754  28.524  1.00  0.00     0.261 C 
BRANCH   2   3
ATOM      3  O   UNL A   1      32.753  35.035  29.823  1.00  0.00    -0.463 OA
BRANCH   3   4
ATOM      4  C   UNL A   1      33.119  36.228  30.361  1.00  0.00     0.316 C 
ATOM      5  O   UNL A   1      33.283  37.255  29.708  1.00  0.00    -0.251 OA
BRANCH   4   6
ATOM      6  C   UNL A   1      33.317  36.166  31.893  1.00  0.00     0.087 C 
ATOM      7  C   UNL A   1      33.768  37.500  32.535  1.00  0.00     0.028 C 
ATOM      8  C   UNL A   1      31.912  35.885  32.474  1.00  0.00     0.028 C 
BRANCH   6   9
ATOM      9  C   UNL A   1      34.328  35.028  32.178  1.00  0.00    -0.031 A 
ATOM     10  C   UNL A   1      35.633  35.039  31.648  1.00  0.00     0.005 A 
ATOM     11  C   UNL A   1      33.921  33.866  32.858  1.00  0.00     0.005 A 
ATOM     12  C   UNL A   1      36.501  33.956  31.825  1.00  0.00     0.012 A 
ATOM     13  C   UNL A   1      34.780  32.778  33.030  1.00  0.00     0.012 A 
ATOM     14  C   UNL A   1      36.084  32.834  32.544  1.00  0.00     0.018 A 
BRANCH  14  15
ATOM     15  C   UNL A   1      37.076  31.762  32.824  1.00  0.00     0.162 C 
ATOM     16  O   UNL A   1      36.981  30.682  32.245  1.00  0.00    -0.294 OA
BRANCH  15  17
ATOM     17  C   UNL A   1      38.252  32.065  33.735  1.00  0.00     0.082 C 
BRANCH  17  18
ATOM     18  C   UNL A   1      37.829  32.842  34.986  1.00  0.00     0.024 C 
BRANCH  18  19
ATOM     19  C   UNL A   1      38.323  34.284  35.087  1.00  0.00     0.110 C 
ATOM     20  Cl  UNL A   1      39.566  34.650  33.869  1.00  0.00    -0.127 Cl
ENDBRANCH  18  19
ENDBRANCH  17  18
ENDBRANCH  15  17
ENDBRANCH  14  15
ENDBRANCH   6   9
ENDBRANCH   4   6
ENDBRANCH   3   4
ENDBRANCH   2   3
ENDBRANCH   1   2
BRANCH   1  21
ATOM     21  O   UNL A   1      34.493  32.717  29.416  1.00  0.00    -0.374 OA
BRANCH  21  22
ATOM     22  C   UNL A   1      35.153  31.488  29.129  1.00  0.00     0.202 C 
BRANCH  22  23
ATOM     23  C   UNL A   1      36.610  31.567  28.652  1.00  0.00     0.261 C 
BRANCH  23  24
ATOM     24  O   UNL A   1      37.043  30.375  27.975  1.00  0.00    -0.460 OA
BRANCH  24  25
ATOM     25  C   UNL A   1      37.727  29.505  28.756  1.00  0.00     0.338 C 
ATOM     26  O   UNL A   1      37.255  28.656  29.504  1.00  0.00    -0.246 OA
BRANCH  25  27
ATOM     27  C   UNL A   1      39.167  29.567  28.448  1.00  0.00     0.060 A 
ATOM     28  C   UNL A   1      39.558  29.235  27.143  1.00  0.00     0.016 A 
ATOM     29  C   UNL A   1      40.122  29.877  29.418  1.00  0.00     0.016 A 
ATOM     30  C   UNL A   1      40.909  29.171  26.814  1.00  0.00     0.010 A 
ATOM     31  C   UNL A   1      41.480  29.797  29.089  1.00  0.00     0.010 A 
ATOM     32  C   UNL A   1      41.879  29.410  27.796  1.00  0.00    -0.014 A 
BRANCH  32  33
ATOM     33  C   UNL A   1      43.298  29.108  27.496  1.00  0.00     0.031 A 
ATOM     34  C   UNL A   1      44.324  30.196  27.658  1.00  0.00     0.074 A 
ATOM     35  C   UNL A   1      43.675  27.868  27.134  1.00  0.00     0.049 A 
ATOM     36  N   UNL A   1      45.615  30.152  27.457  1.00  0.00    -0.248 NA
ATOM     37  C   UNL A   1      43.829  31.508  28.112  1.00  0.00     0.031 C 
ATOM     38  C   UNL A   1      42.780  26.719  26.991  1.00  0.00     0.029 A 
ATOM     39  N   UNL A   1      44.915  27.368  26.823  1.00  0.00    -0.354 N 
ATOM     40  C   UNL A   1      46.088  31.426  27.753  1.00  0.00     0.074 A 
ATOM     41  C   UNL A   1      44.942  32.228  28.124  1.00  0.00     0.031 C 
ATOM     42  C   UNL A   1      43.501  25.649  26.614  1.00  0.00     0.029 A 
ATOM     43  C   UNL A   1      44.900  26.042  26.459  1.00  0.00     0.049 A 
ATOM     44  H   UNL A   1      45.737  27.908  26.858  1.00  0.00     0.167 HD
ATOM     45  C   UNL A   1      47.360  31.885  27.723  1.00  0.00     0.031 A 
ATOM     46  C   UNL A   1      45.898  25.245  26.032  1.00  0.00     0.031 A 
ATOM     47  C   UNL A   1      48.496  31.087  27.346  1.00  0.00     0.049 A 
ATOM     48  C   UNL A   1      47.296  25.800  25.938  1.00  0.00     0.074 A 
ATOM     49  C   UNL A   1      49.829  31.458  27.297  1.00  0.00     0.029 A 
ATOM     50  N   UNL A   1      48.435  29.761  26.944  1.00  0.00    -0.354 N 
ATOM     51  N   UNL A   1      47.729  26.999  26.245  1.00  0.00    -0.248 NA
ATOM     52  C   UNL A   1      48.342  24.890  25.448  1.00  0.00     0.031 C 
ATOM     53  C   UNL A   1      50.566  30.372  26.813  1.00  0.00     0.029 A 
ATOM     54  C   UNL A   1      49.701  29.307  26.619  1.00  0.00     0.049 A 
ATOM     55  H   UNL A   1      47.612  29.223  26.898  1.00  0.00     0.167 HD
ATOM     56  C   UNL A   1      49.100  26.980  26.011  1.00  0.00     0.074 A 
ATOM     57  C   UNL A   1      49.427  25.646  25.550  1.00  0.00     0.031 C 
ATOM     58  C   UNL A   1      50.008  27.976  26.163  1.00  0.00     0.031 A 
BRANCH  45  59
ATOM     59  C   UNL A   1      47.593  33.329  28.079  1.00  0.00    -0.014 A 
ATOM     60  C   UNL A   1      47.549  34.339  27.099  1.00  0.00     0.010 A 
ATOM     61  C   UNL A   1      47.804  33.688  29.423  1.00  0.00     0.010 A 
ATOM     62  C   UNL A   1      47.737  35.677  27.455  1.00  0.00     0.020 A 
ATOM     63  C   UNL A   1      47.969  35.027  29.786  1.00  0.00     0.020 A 
ATOM     64  C   UNL A   1      47.946  36.012  28.797  1.00  0.00     0.054 A 
BRANCH  64  65
ATOM     65  S   UNL A   1      48.148  37.761  29.236  1.00  0.00     0.124 S 
ATOM     66  O   UNL A   1      49.415  37.744  29.963  1.00  0.00    -0.237 OA
ATOM     67  O   UNL A   1      48.180  38.418  27.932  1.00  0.00    -0.237 OA
ATOM     68  O   UNL A   1      46.969  38.052  30.049  1.00  0.00    -0.744 OA
ENDBRANCH  64  65
ENDBRANCH  45  59
BRANCH  46  69
ATOM     69  C   UNL A   1      45.611  23.840  25.630  1.00  0.00    -0.014 A 
ATOM     70  C   UNL A   1      45.562  22.809  26.584  1.00  0.00     0.010 A 
ATOM     71  C   UNL A   1      45.399  23.526  24.274  1.00  0.00     0.010 A 
ATOM     72  C   UNL A   1      45.329  21.488  26.188  1.00  0.00     0.020 A 
ATOM     73  C   UNL A   1      45.137  22.212  23.878  1.00  0.00     0.020 A 
ATOM     74  C   UNL A   1      45.119  21.198  24.837  1.00  0.00     0.054 A 
BRANCH  74  75
ATOM     75  S   UNL A   1      44.780  19.484  24.348  1.00  0.00     0.124 S 
ATOM     76  O   UNL A   1      46.078  18.849  24.549  1.00  0.00    -0.237 OA
ATOM     77  O   UNL A   1      43.729  19.091  25.284  1.00  0.00    -0.237 OA
ATOM     78  O   UNL A   1      44.349  19.605  22.957  1.00  0.00    -0.744 OA
ENDBRANCH  74  75
ENDBRANCH  46  69
BRANCH  58  79
ATOM     79  C   UNL A   1      51.449  27.654  25.864  1.00  0.00    -0.014 A 
ATOM     80  C   UNL A   1      52.011  27.929  24.605  1.00  0.00     0.010 A 
ATOM     81  C   UNL A   1      52.264  27.122  26.879  1.00  0.00     0.010 A 
ATOM     82  C   UNL A   1      53.357  27.646  24.357  1.00  0.00     0.020 A 
ATOM     83  C   UNL A   1      53.617  26.864  26.643  1.00  0.00     0.020 A 
ATOM     84  C   UNL A   1      54.152  27.114  25.378  1.00  0.00     0.054 A 
BRANCH  84  85
ATOM     85  S   UNL A   1      55.906  26.795  25.044  1.00  0.00     0.124 S 
ATOM     86  O   UNL A   1      56.526  28.053  25.453  1.00  0.00    -0.237 OA
ATOM     87  O   UNL A   1      56.192  25.646  25.900  1.00  0.00    -0.237 OA
ATOM     88  O   UNL A   1      55.942  26.522  23.609  1.00  0.00    -0.744 OA
ENDBRANCH  84  85
ENDBRANCH  58  79
ENDBRANCH  32  33
ENDBRANCH  25  27
ENDBRANCH  24  25
ENDBRANCH  23  24
ENDBRANCH  22  23
ENDBRANCH  21  22
ENDBRANCH   1  21
TORSDOF 22
ENDMDL
MODEL 3
REMARK VINA RESULT:      -7.8      4.350      6.936
REMARK SMILES CC(C)(C(=O)OCCOCCOC(=O)c1ccc(-c2c3nc(c(-c4ccc(S(=O)(=O)[O-])cc4)c4ccc([nH]4)c(-c4ccc(S(=O)(=O)[O-])cc4)c4nc(c(-c5ccc(S(=O)(=O)[O-])cc5)c5ccc2[nH]5)C=C4)C=C3)cc1)c1ccc(C(=O)CCCCl)cc1
REMARK SMILES IDX 8 1 7 2 6 3 4 4 5 5 2 6 1 7 3 8 75 9 76 10 86 11 77 12 85 13
REMARK SMILES IDX 78 14 79 15 80 16 81 17 82 18 83 19 84 20 9 21 10 22 11 23
REMARK SMILES IDX 12 24 13 25 14 26 15 27 16 28 74 29 17 30 73 31 18 32 19 33
REMARK SMILES IDX 20 34 67 35 21 36 72 37 66 38 68 39 22 40 71 41 65 42 64 43
REMARK SMILES IDX 23 45 53 46 34 47 52 48 35 49 38 50 51 51 69 52 36 53 37 54
REMARK SMILES IDX 50 56 70 57 39 58 24 59 25 60 33 61 26 62 32 63 27 64 28 65
REMARK SMILES IDX 29 66 30 67 31 68 54 69 55 70 63 71 56 72 62 73 57 74 58 75
REMARK SMILES IDX 59 76 60 77 61 78 40 79 41 80 49 81 42 82 48 83 43 84 44 85
REMARK SMILES IDX 45 86 46 87 47 88
REMARK H PARENT 68 44 38 55
REMARK Flexibility Score: inf
ROOT
ATOM      1  C   UNL A   1      32.881  35.818  30.339  1.00  0.00     0.202 C 
ENDROOT
BRANCH   1   2
ATOM      2  C   UNL A   1      33.478  34.994  29.198  1.00  0.00     0.261 C 
BRANCH   2   3
ATOM      3  O   UNL A   1      34.748  34.435  29.580  1.00  0.00    -0.463 OA
BRANCH   3   4
ATOM      4  C   UNL A   1      34.721  33.122  29.930  1.00  0.00     0.316 C 
ATOM      5  O   UNL A   1      33.970  32.654  30.781  1.00  0.00    -0.251 OA
BRANCH   4   6
ATOM      6  C   UNL A   1      35.741  32.265  29.147  1.00  0.00     0.087 C 
ATOM      7  C   UNL A   1      36.810  33.082  28.382  1.00  0.00     0.028 C 
ATOM      8  C   UNL A   1      36.521  31.474  30.223  1.00  0.00     0.028 C 
BRANCH   6   9
ATOM      9  C   UNL A   1      34.933  31.352  28.192  1.00  0.00    -0.031 A 
ATOM     10  C   UNL A   1      33.577  31.594  27.898  1.00  0.00     0.005 A 
ATOM     11  C   UNL A   1      35.493  30.159  27.703  1.00  0.00     0.005 A 
ATOM     12  C   UNL A   1      32.830  30.704  27.118  1.00  0.00     0.012 A 
ATOM     13  C   UNL A   1      34.750  29.262  26.931  1.00  0.00     0.012 A 
ATOM     14  C   UNL A   1      33.426  29.549  26.608  1.00  0.00     0.018 A 
BRANCH  14  15
ATOM     15  C   UNL A   1      32.640  28.697  25.677  1.00  0.00     0.162 C 
ATOM     16  O   UNL A   1      32.749  27.474  25.735  1.00  0.00    -0.294 OA
BRANCH  15  17
ATOM     17  C   UNL A   1      31.632  29.353  24.751  1.00  0.00     0.082 C 
BRANCH  17  18
ATOM     18  C   UNL A   1      31.376  28.519  23.491  1.00  0.00     0.024 C 
BRANCH  18  19
ATOM     19  C   UNL A   1      30.211  28.966  22.608  1.00  0.00     0.110 C 
ATOM     20  Cl  UNL A   1      29.412  30.421  23.246  1.00  0.00    -0.127 Cl
ENDBRANCH  18  19
ENDBRANCH  17  18
ENDBRANCH  15  17
ENDBRANCH  14  15
ENDBRANCH   6   9
ENDBRANCH   4   6
ENDBRANCH   3   4
ENDBRANCH   2   3
ENDBRANCH   1   2
BRANCH   1  21
ATOM     21  O   UNL A   1      33.253  37.197  30.403  1.00  0.00    -0.374 OA
BRANCH  21  22
ATOM     22  C   UNL A   1      33.628  37.717  31.675  1.00  0.00     0.202 C 
BRANCH  22  23
ATOM     23  C   UNL A   1      33.555  36.762  32.875  1.00  0.00     0.261 C 
BRANCH  23  24
ATOM     24  O   UNL A   1      34.803  36.098  33.139  1.00  0.00    -0.460 OA
BRANCH  24  25
ATOM     25  C   UNL A   1      34.693  34.765  33.353  1.00  0.00     0.338 C 
ATOM     26  O   UNL A   1      33.658  34.122  33.486  1.00  0.00    -0.246 OA
BRANCH  25  27
ATOM     27  C   UNL A   1      36.008  34.115  33.208  1.00  0.00     0.060 A 
ATOM     28  C   UNL A   1      36.142  32.820  33.728  1.00  0.00     0.016 A 
ATOM     29  C   UNL A   1      37.102  34.769  32.639  1.00  0.00     0.016 A 
ATOM     30  C   UNL A   1      37.383  32.190  33.718  1.00  0.00     0.010 A 
ATOM     31  C   UNL A   1      38.351  34.140  32.645  1.00  0.00     0.010 A 
ATOM     32  C   UNL A   1      38.504  32.862  33.215  1.00  0.00    -0.014 A 
BRANCH  32  33
ATOM     33  C   UNL A   1      39.850  32.279  33.428  1.00  0.00     0.031 A 
ATOM     34  C   UNL A   1      40.548  32.520  34.739  1.00  0.00     0.074 A 
ATOM     35  C   UNL A   1      40.419  31.504  32.487  1.00  0.00     0.049 A 
ATOM     36  N   UNL A   1      41.720  32.104  35.140  1.00  0.00    -0.248 NA
ATOM     37  C   UNL A   1      39.826  33.335  35.732  1.00  0.00     0.031 C 
ATOM     38  C   UNL A   1      39.820  31.159  31.198  1.00  0.00     0.029 A 
ATOM     39  N   UNL A   1      41.634  30.863  32.476  1.00  0.00    -0.354 N 
ATOM     40  C   UNL A   1      41.882  32.608  36.425  1.00  0.00     0.074 A 
ATOM     41  C   UNL A   1      40.697  33.382  36.730  1.00  0.00     0.031 C 
ATOM     42  C   UNL A   1      40.673  30.373  30.517  1.00  0.00     0.029 A 
ATOM     43  C   UNL A   1      41.888  30.185  31.308  1.00  0.00     0.049 A 
ATOM     44  H   UNL A   1      42.262  30.888  33.233  1.00  0.00     0.167 HD
ATOM     45  C   UNL A   1      42.919  32.439  37.278  1.00  0.00     0.031 A 
ATOM     46  C   UNL A   1      42.984  29.507  30.914  1.00  0.00     0.031 A 
ATOM     47  C   UNL A   1      44.099  31.676  36.969  1.00  0.00     0.049 A 
ATOM     48  C   UNL A   1      44.157  29.393  31.854  1.00  0.00     0.074 A 
ATOM     49  C   UNL A   1      45.201  31.434  37.773  1.00  0.00     0.029 A 
ATOM     50  N   UNL A   1      44.337  31.039  35.761  1.00  0.00    -0.354 N 
ATOM     51  N   UNL A   1      44.282  29.855  33.076  1.00  0.00    -0.248 NA
ATOM     52  C   UNL A   1      45.332  28.659  31.365  1.00  0.00     0.031 C 
ATOM     53  C   UNL A   1      46.128  30.697  37.029  1.00  0.00     0.029 A 
ATOM     54  C   UNL A   1      45.578  30.428  35.785  1.00  0.00     0.049 A 
ATOM     55  H   UNL A   1      43.714  31.023  34.999  1.00  0.00     0.167 HD
ATOM     56  C   UNL A   1      45.538  29.445  33.510  1.00  0.00     0.074 A 
ATOM     57  C   UNL A   1      46.128  28.685  32.426  1.00  0.00     0.031 C 
ATOM     58  C   UNL A   1      46.149  29.675  34.698  1.00  0.00     0.031 A 
BRANCH  45  59
ATOM     59  C   UNL A   1      42.842  33.117  38.619  1.00  0.00    -0.014 A 
ATOM     60  C   UNL A   1      42.301  32.461  39.740  1.00  0.00     0.010 A 
ATOM     61  C   UNL A   1      43.370  34.413  38.773  1.00  0.00     0.010 A 
ATOM     62  C   UNL A   1      42.267  33.098  40.983  1.00  0.00     0.020 A 
ATOM     63  C   UNL A   1      43.359  35.044  40.020  1.00  0.00     0.020 A 
ATOM     64  C   UNL A   1      42.796  34.386  41.115  1.00  0.00     0.054 A 
BRANCH  64  65
ATOM     65  S   UNL A   1      42.774  35.173  42.749  1.00  0.00     0.124 S 
ATOM     66  O   UNL A   1      43.197  36.535  42.433  1.00  0.00    -0.237 OA
ATOM     67  O   UNL A   1      41.380  35.027  43.157  1.00  0.00    -0.237 OA
ATOM     68  O   UNL A   1      43.733  34.389  43.524  1.00  0.00    -0.744 OA
ENDBRANCH  64  65
ENDBRANCH  45  59
BRANCH  46  69
ATOM     69  C   UNL A   1      43.042  28.905  29.553  1.00  0.00    -0.014 A 
ATOM     70  C   UNL A   1      42.779  27.539  29.354  1.00  0.00     0.010 A 
ATOM     71  C   UNL A   1      43.378  29.705  28.444  1.00  0.00     0.010 A 
ATOM     72  C   UNL A   1      42.873  26.979  28.076  1.00  0.00     0.020 A 
ATOM     73  C   UNL A   1      43.445  29.155  27.162  1.00  0.00     0.020 A 
ATOM     74  C   UNL A   1      43.207  27.791  26.988  1.00  0.00     0.054 A 
BRANCH  74  75
ATOM     75  S   UNL A   1      43.287  27.053  25.332  1.00  0.00     0.124 S 
ATOM     76  O   UNL A   1      42.653  25.756  25.547  1.00  0.00    -0.237 OA
ATOM     77  O   UNL A   1      42.526  28.005  24.526  1.00  0.00    -0.237 OA
ATOM     78  O   UNL A   1      44.719  27.012  25.046  1.00  0.00    -0.744 OA
ENDBRANCH  74  75
ENDBRANCH  46  69
BRANCH  58  79
ATOM     79  C   UNL A   1      47.513  29.070  34.907  1.00  0.00    -0.014 A 
ATOM     80  C   UNL A   1      48.684  29.787  34.601  1.00  0.00     0.010 A 
ATOM     81  C   UNL A   1      47.622  27.786  35.472  1.00  0.00     0.010 A 
ATOM     82  C   UNL A   1      49.939  29.216  34.827  1.00  0.00     0.020 A 
ATOM     83  C   UNL A   1      48.876  27.223  35.724  1.00  0.00     0.020 A 
ATOM     84  C   UNL A   1      50.027  27.937  35.386  1.00  0.00     0.054 A 
BRANCH  84  85
ATOM     85  S   UNL A   1      51.668  27.234  35.708  1.00  0.00     0.124 S 
ATOM     86  O   UNL A   1      51.648  26.028  34.886  1.00  0.00    -0.237 OA
ATOM     87  O   UNL A   1      52.566  28.292  35.250  1.00  0.00    -0.237 OA
ATOM     88  O   UNL A   1      51.670  27.005  37.151  1.00  0.00    -0.744 OA
ENDBRANCH  84  85
ENDBRANCH  58  79
ENDBRANCH  32  33
ENDBRANCH  25  27
ENDBRANCH  24  25
ENDBRANCH  23  24
ENDBRANCH  22  23
ENDBRANCH  21  22
ENDBRANCH   1  21
TORSDOF 22
ENDMDL
