MODEL 1
REMARK VINA RESULT:      -9.2      0.000      0.000
REMARK SMILES CS(=O)(=O)c1ccc(C2=NN(c3ccc(C(=O)OCCOCCOC(=O)c4ccc(-c5c6nc(c(-c7ccc(S(=O)(=O)[O-])cc7)c7ccc([nH]7)c(-c7ccc(S(=O)(=O)[O-])cc7)c7nc(c(-c8ccc(S(=O)(=O)[O-])cc8)c8ccc5[nH]8)C=C7)C=C6)cc4)cc3)[C@H](c3ccc(Cl)cc3)C2)cc1
REMARK SMILES IDX 21 1 20 2 19 3 18 4 16 5 17 6 15 7 12 8 13 9 88 10 14 11
REMARK SMILES IDX 87 12 11 13 9 14 10 15 97 16 89 17 8 18 5 19 6 20 99 21 7 22
REMARK SMILES IDX 98 23 2 24 1 25 3 26 4 27 90 28 91 29 96 30 92 31 95 32
REMARK SMILES IDX 93 33 94 34 22 35 23 36 24 37 25 38 26 39 27 40 28 41 86 42
REMARK SMILES IDX 29 43 85 44 30 45 31 46 32 47 79 48 33 49 84 50 78 51 80 52
REMARK SMILES IDX 34 53 83 54 77 55 76 56 35 58 65 59 46 60 64 61 47 62 50 63
REMARK SMILES IDX 63 64 81 65 48 66 49 67 62 69 82 70 51 71 36 72 37 73 45 74
REMARK SMILES IDX 38 75 44 76 39 77 40 78 41 79 42 80 43 81 66 82 67 83 75 84
REMARK SMILES IDX 68 85 74 86 69 87 70 88 71 89 72 90 73 91 52 92 53 93 61 94
REMARK SMILES IDX 54 95 60 96 55 97 56 98 57 99 58 100 59 101
REMARK H PARENT 80 57 50 68
REMARK Flexibility Score: inf
ROOT
ATOM      1  O   UNL A   1      52.910  23.780  33.627  1.00  0.00    -0.374 OA
ENDROOT
BRANCH   1   2
ATOM      2  C   UNL A   1      53.630  23.091  34.652  1.00  0.00     0.202 C 
BRANCH   2   3
ATOM      3  C   UNL A   1      54.181  21.713  34.272  1.00  0.00     0.261 C 
BRANCH   3   4
ATOM      4  O   UNL A   1      53.702  20.708  35.178  1.00  0.00    -0.460 OA
BRANCH   4   5
ATOM      5  C   UNL A   1      52.832  19.814  34.653  1.00  0.00     0.338 C 
ATOM      6  O   UNL A   1      53.102  18.891  33.897  1.00  0.00    -0.246 OA
BRANCH   5   7
ATOM      7  C   UNL A   1      51.469  20.028  35.200  1.00  0.00     0.060 A 
ATOM      8  C   UNL A   1      48.935  20.216  36.393  1.00  0.00     0.060 A 
ATOM      9  C   UNL A   1      50.090  20.341  37.170  1.00  0.00     0.029 A 
ATOM     10  C   UNL A   1      49.065  20.123  35.000  1.00  0.00     0.029 A 
ATOM     11  C   UNL A   1      51.350  20.241  36.580  1.00  0.00     0.018 A 
ATOM     12  C   UNL A   1      50.322  20.018  34.400  1.00  0.00     0.018 A 
BRANCH   8  13
ATOM     13  N   UNL A   1      47.690  20.002  36.983  1.00  0.00    -0.257 N 
ATOM     14  C   UNL A   1      46.428  18.827  38.230  1.00  0.00     0.071 C 
ATOM     15  N   UNL A   1      47.594  19.395  38.191  1.00  0.00    -0.176 NA
ATOM     16  C   UNL A   1      45.653  18.843  36.941  1.00  0.00     0.091 C 
ATOM     17  C   UNL A   1      46.528  19.788  36.107  1.00  0.00     0.144 C 
BRANCH  14  18
ATOM     18  C   UNL A   1      45.891  18.199  39.452  1.00  0.00    -0.002 A 
ATOM     19  C   UNL A   1      44.878  17.115  41.817  1.00  0.00     0.067 A 
ATOM     20  C   UNL A   1      45.651  18.280  41.860  1.00  0.00     0.021 A 
ATOM     21  C   UNL A   1      44.611  16.485  40.597  1.00  0.00     0.021 A 
ATOM     22  C   UNL A   1      46.163  18.815  40.678  1.00  0.00     0.011 A 
ATOM     23  C   UNL A   1      45.114  17.036  39.410  1.00  0.00     0.011 A 
BRANCH  19  24
ATOM     24  S   UNL A   1      44.273  16.499  43.371  1.00  0.00     0.175 S 
ATOM     25  C   UNL A   1      45.516  15.446  44.055  1.00  0.00     0.163 C 
ATOM     26  O   UNL A   1      43.126  15.667  43.061  1.00  0.00    -0.224 OA
ATOM     27  O   UNL A   1      44.155  17.647  44.250  1.00  0.00    -0.224 OA
ENDBRANCH  19  24
ENDBRANCH  14  18
BRANCH  17  28
ATOM     28  C   UNL A   1      45.943  21.131  35.690  1.00  0.00    -0.023 A 
ATOM     29  C   UNL A   1      45.598  21.452  34.369  1.00  0.00     0.007 A 
ATOM     30  C   UNL A   1      45.635  22.070  36.699  1.00  0.00     0.007 A 
ATOM     31  C   UNL A   1      44.963  22.664  34.072  1.00  0.00     0.021 A 
ATOM     32  C   UNL A   1      44.967  23.260  36.408  1.00  0.00     0.021 A 
ATOM     33  C   UNL A   1      44.636  23.554  35.092  1.00  0.00     0.041 A 
ATOM     34  Cl  UNL A   1      43.800  25.009  34.721  1.00  0.00    -0.084 Cl
ENDBRANCH  17  28
ENDBRANCH   8  13
ENDBRANCH   5   7
ENDBRANCH   4   5
ENDBRANCH   3   4
ENDBRANCH   2   3
ENDBRANCH   1   2
BRANCH   1  35
ATOM     35  C   UNL A   1      51.685  23.193  33.187  1.00  0.00     0.202 C 
BRANCH  35  36
ATOM     36  C   UNL A   1      50.393  23.799  33.747  1.00  0.00     0.261 C 
BRANCH  36  37
ATOM     37  O   UNL A   1      50.437  23.950  35.177  1.00  0.00    -0.460 OA
BRANCH  37  38
ATOM     38  C   UNL A   1      50.580  25.226  35.607  1.00  0.00     0.338 C 
ATOM     39  O   UNL A   1      51.581  25.729  36.100  1.00  0.00    -0.246 OA
BRANCH  38  40
ATOM     40  C   UNL A   1      49.394  26.021  35.241  1.00  0.00     0.060 A 
ATOM     41  C   UNL A   1      48.154  25.588  35.726  1.00  0.00     0.016 A 
ATOM     42  C   UNL A   1      49.476  27.126  34.390  1.00  0.00     0.016 A 
ATOM     43  C   UNL A   1      46.985  26.230  35.324  1.00  0.00     0.010 A 
ATOM     44  C   UNL A   1      48.299  27.764  33.982  1.00  0.00     0.010 A 
ATOM     45  C   UNL A   1      47.047  27.298  34.421  1.00  0.00    -0.014 A 
BRANCH  45  46
ATOM     46  C   UNL A   1      45.792  27.843  33.847  1.00  0.00     0.031 A 
ATOM     47  C   UNL A   1      45.281  27.296  32.542  1.00  0.00     0.074 A 
ATOM     48  C   UNL A   1      45.099  28.794  34.498  1.00  0.00     0.049 A 
ATOM     49  N   UNL A   1      44.210  27.627  31.869  1.00  0.00    -0.248 NA
ATOM     50  C   UNL A   1      46.084  26.234  31.913  1.00  0.00     0.031 C 
ATOM     51  C   UNL A   1      45.471  29.380  35.785  1.00  0.00     0.029 A 
ATOM     52  N   UNL A   1      43.933  29.435  34.160  1.00  0.00    -0.354 N 
ATOM     53  C   UNL A   1      44.210  26.822  30.736  1.00  0.00     0.074 A 
ATOM     54  C   UNL A   1      45.404  26.007  30.798  1.00  0.00     0.031 C 
ATOM     55  C   UNL A   1      44.553  30.300  36.127  1.00  0.00     0.029 A 
ATOM     56  C   UNL A   1      43.545  30.389  35.072  1.00  0.00     0.049 A 
ATOM     57  H   UNL A   1      43.423  29.232  33.344  1.00  0.00     0.167 HD
ATOM     58  C   UNL A   1      43.298  26.764  29.735  1.00  0.00     0.031 A 
ATOM     59  C   UNL A   1      42.507  31.248  35.050  1.00  0.00     0.031 A 
ATOM     60  C   UNL A   1      42.119  27.586  29.669  1.00  0.00     0.049 A 
ATOM     61  C   UNL A   1      41.539  31.208  33.896  1.00  0.00     0.074 A 
ATOM     62  C   UNL A   1      41.124  27.585  28.707  1.00  0.00     0.029 A 
ATOM     63  N   UNL A   1      41.781  28.563  30.592  1.00  0.00    -0.354 N 
ATOM     64  N   UNL A   1      41.536  30.417  32.850  1.00  0.00    -0.248 NA
ATOM     65  C   UNL A   1      40.430  32.173  33.926  1.00  0.00     0.031 C 
ATOM     66  C   UNL A   1      40.213  28.600  29.020  1.00  0.00     0.029 A 
ATOM     67  C   UNL A   1      40.608  29.193  30.209  1.00  0.00     0.049 A 
ATOM     68  H   UNL A   1      42.298  28.778  31.401  1.00  0.00     0.167 HD
ATOM     69  C   UNL A   1      40.413  30.772  32.109  1.00  0.00     0.074 A 
ATOM     70  C   UNL A   1      39.755  31.839  32.835  1.00  0.00     0.031 C 
ATOM     71  C   UNL A   1      39.965  30.257  30.937  1.00  0.00     0.031 A 
BRANCH  58  72
ATOM     72  C   UNL A   1      43.562  25.798  28.611  1.00  0.00    -0.014 A 
ATOM     73  C   UNL A   1      43.181  24.447  28.703  1.00  0.00     0.010 A 
ATOM     74  C   UNL A   1      44.171  26.257  27.429  1.00  0.00     0.010 A 
ATOM     75  C   UNL A   1      43.440  23.565  27.650  1.00  0.00     0.020 A 
ATOM     76  C   UNL A   1      44.409  25.385  26.363  1.00  0.00     0.020 A 
ATOM     77  C   UNL A   1      44.057  24.039  26.489  1.00  0.00     0.054 A 
BRANCH  77  78
ATOM     78  S   UNL A   1      44.369  22.877  25.131  1.00  0.00     0.124 S 
ATOM     79  O   UNL A   1      45.222  23.667  24.248  1.00  0.00    -0.237 OA
ATOM     80  O   UNL A   1      45.028  21.762  25.808  1.00  0.00    -0.237 OA
ATOM     81  O   UNL A   1      43.036  22.584  24.610  1.00  0.00    -0.744 OA
ENDBRANCH  77  78
ENDBRANCH  58  72
BRANCH  59  82
ATOM     82  C   UNL A   1      42.337  32.229  36.155  1.00  0.00    -0.014 A 
ATOM     83  C   UNL A   1      41.565  31.913  37.286  1.00  0.00     0.010 A 
ATOM     84  C   UNL A   1      42.963  33.488  36.084  1.00  0.00     0.010 A 
ATOM     85  C   UNL A   1      41.416  32.841  38.322  1.00  0.00     0.020 A 
ATOM     86  C   UNL A   1      42.838  34.407  37.129  1.00  0.00     0.020 A 
ATOM     87  C   UNL A   1      42.056  34.080  38.239  1.00  0.00     0.054 A 
BRANCH  87  88
ATOM     88  S   UNL A   1      41.902  35.242  39.624  1.00  0.00     0.124 S 
ATOM     89  O   UNL A   1      43.258  35.256  40.162  1.00  0.00    -0.237 OA
ATOM     90  O   UNL A   1      41.471  36.470  38.960  1.00  0.00    -0.237 OA
ATOM     91  O   UNL A   1      40.894  34.620  40.480  1.00  0.00    -0.744 OA
ENDBRANCH  87  88
ENDBRANCH  59  82
BRANCH  71  92
ATOM     92  C   UNL A   1      38.686  30.819  30.375  1.00  0.00    -0.014 A 
ATOM     93  C   UNL A   1      38.669  32.040  29.677  1.00  0.00     0.010 A 
ATOM     94  C   UNL A   1      37.492  30.085  30.499  1.00  0.00     0.010 A 
ATOM     95  C   UNL A   1      37.474  32.530  29.141  1.00  0.00     0.020 A 
ATOM     96  C   UNL A   1      36.301  30.558  29.942  1.00  0.00     0.020 A 
ATOM     97  C   UNL A   1      36.298  31.787  29.278  1.00  0.00     0.054 A 
BRANCH  97  98
ATOM     98  S   UNL A   1      34.769  32.424  28.539  1.00  0.00     0.124 S 
ATOM     99  O   UNL A   1      34.086  32.995  29.697  1.00  0.00    -0.237 OA
ATOM    100  O   UNL A   1      35.263  33.392  27.561  1.00  0.00    -0.237 OA
ATOM    101  O   UNL A   1      34.138  31.237  27.967  1.00  0.00    -0.744 OA
ENDBRANCH  97  98
ENDBRANCH  71  92
ENDBRANCH  45  46
ENDBRANCH  38  40
ENDBRANCH  37  38
ENDBRANCH  36  37
ENDBRANCH  35  36
ENDBRANCH   1  35
TORSDOF 21
ENDMDL
MODEL 2
REMARK VINA RESULT:      -9.1      4.354     12.996
REMARK SMILES CS(=O)(=O)c1ccc(C2=NN(c3ccc(C(=O)OCCOCCOC(=O)c4ccc(-c5c6nc(c(-c7ccc(S(=O)(=O)[O-])cc7)c7ccc([nH]7)c(-c7ccc(S(=O)(=O)[O-])cc7)c7nc(c(-c8ccc(S(=O)(=O)[O-])cc8)c8ccc5[nH]8)C=C7)C=C6)cc4)cc3)[C@H](c3ccc(Cl)cc3)C2)cc1
REMARK SMILES IDX 21 1 20 2 19 3 18 4 16 5 17 6 15 7 12 8 13 9 88 10 14 11
REMARK SMILES IDX 87 12 11 13 9 14 10 15 97 16 89 17 8 18 5 19 6 20 99 21 7 22
REMARK SMILES IDX 98 23 2 24 1 25 3 26 4 27 90 28 91 29 96 30 92 31 95 32
REMARK SMILES IDX 93 33 94 34 22 35 23 36 24 37 25 38 26 39 27 40 28 41 86 42
REMARK SMILES IDX 29 43 85 44 30 45 31 46 32 47 79 48 33 49 84 50 78 51 80 52
REMARK SMILES IDX 34 53 83 54 77 55 76 56 35 58 65 59 46 60 64 61 47 62 50 63
REMARK SMILES IDX 63 64 81 65 48 66 49 67 62 69 82 70 51 71 36 72 37 73 45 74
REMARK SMILES IDX 38 75 44 76 39 77 40 78 41 79 42 80 43 81 66 82 67 83 75 84
REMARK SMILES IDX 68 85 74 86 69 87 70 88 71 89 72 90 73 91 52 92 53 93 61 94
REMARK SMILES IDX 54 95 60 96 55 97 56 98 57 99 58 100 59 101
REMARK H PARENT 80 57 50 68
REMARK Flexibility Score: inf
ROOT
ATOM      1  O   UNL A   1      44.982  24.777  24.919  1.00  0.00    -0.374 OA
ENDROOT
BRANCH   1   2
ATOM      2  C   UNL A   1      44.686  26.152  25.171  1.00  0.00     0.202 C 
BRANCH   2   3
ATOM      3  C   UNL A   1      43.711  26.428  26.321  1.00  0.00     0.261 C 
BRANCH   3   4
ATOM      4  O   UNL A   1      42.666  27.316  25.899  1.00  0.00    -0.460 OA
BRANCH   4   5
ATOM      5  C   UNL A   1      41.414  26.807  25.936  1.00  0.00     0.338 C 
ATOM      6  O   UNL A   1      41.010  25.821  25.335  1.00  0.00    -0.246 OA
BRANCH   5   7
ATOM      7  C   UNL A   1      40.574  27.553  26.906  1.00  0.00     0.060 A 
ATOM      8  C   UNL A   1      39.173  29.164  28.728  1.00  0.00     0.060 A 
ATOM      9  C   UNL A   1      39.396  29.609  27.422  1.00  0.00     0.029 A 
ATOM     10  C   UNL A   1      39.549  27.857  29.070  1.00  0.00     0.029 A 
ATOM     11  C   UNL A   1      40.098  28.812  26.518  1.00  0.00     0.018 A 
ATOM     12  C   UNL A   1      40.256  27.054  28.173  1.00  0.00     0.018 A 
BRANCH   8  13
ATOM     13  N   UNL A   1      38.759  30.044  29.728  1.00  0.00    -0.257 N 
ATOM     14  C   UNL A   1      37.700  31.797  30.305  1.00  0.00     0.071 C 
ATOM     15  N   UNL A   1      37.577  30.700  29.622  1.00  0.00    -0.176 NA
ATOM     16  C   UNL A   1      39.082  32.093  30.820  1.00  0.00     0.091 C 
ATOM     17  C   UNL A   1      39.786  30.769  30.492  1.00  0.00     0.144 C 
BRANCH  14  18
ATOM     18  C   UNL A   1      36.564  32.703  30.562  1.00  0.00    -0.002 A 
ATOM     19  C   UNL A   1      34.486  34.485  31.110  1.00  0.00     0.067 A 
ATOM     20  C   UNL A   1      35.572  34.391  31.987  1.00  0.00     0.021 A 
ATOM     21  C   UNL A   1      34.431  33.690  29.961  1.00  0.00     0.021 A 
ATOM     22  C   UNL A   1      36.605  33.494  31.716  1.00  0.00     0.011 A 
ATOM     23  C   UNL A   1      35.479  32.801  29.683  1.00  0.00     0.011 A 
BRANCH  19  24
ATOM     24  S   UNL A   1      33.212  35.648  31.538  1.00  0.00     0.175 S 
ATOM     25  C   UNL A   1      33.954  36.933  32.497  1.00  0.00     0.163 C 
ATOM     26  O   UNL A   1      32.288  34.942  32.405  1.00  0.00    -0.224 OA
ATOM     27  O   UNL A   1      32.768  36.248  30.294  1.00  0.00    -0.224 OA
ENDBRANCH  19  24
ENDBRANCH  14  18
BRANCH  17  28
ATOM     28  C   UNL A   1      40.273  29.907  31.648  1.00  0.00    -0.023 A 
ATOM     29  C   UNL A   1      39.538  28.838  32.183  1.00  0.00     0.007 A 
ATOM     30  C   UNL A   1      41.576  30.126  32.146  1.00  0.00     0.007 A 
ATOM     31  C   UNL A   1      40.091  28.017  33.173  1.00  0.00     0.021 A 
ATOM     32  C   UNL A   1      42.141  29.284  33.104  1.00  0.00     0.021 A 
ATOM     33  C   UNL A   1      41.393  28.232  33.617  1.00  0.00     0.041 A 
ATOM     34  Cl  UNL A   1      42.083  27.179  34.787  1.00  0.00    -0.084 Cl
ENDBRANCH  17  28
ENDBRANCH   8  13
ENDBRANCH   5   7
ENDBRANCH   4   5
ENDBRANCH   3   4
ENDBRANCH   2   3
ENDBRANCH   1   2
BRANCH   1  35
ATOM     35  C   UNL A   1      43.901  23.948  24.489  1.00  0.00     0.202 C 
BRANCH  35  36
ATOM     36  C   UNL A   1      44.107  22.434  24.610  1.00  0.00     0.261 C 
BRANCH  36  37
ATOM     37  O   UNL A   1      44.165  22.000  25.981  1.00  0.00    -0.460 OA
BRANCH  37  38
ATOM     38  C   UNL A   1      43.085  22.335  26.726  1.00  0.00     0.338 C 
ATOM     39  O   UNL A   1      41.940  21.925  26.588  1.00  0.00    -0.246 OA
BRANCH  38  40
ATOM     40  C   UNL A   1      43.498  23.155  27.879  1.00  0.00     0.060 A 
ATOM     41  C   UNL A   1      42.491  23.820  28.590  1.00  0.00     0.016 A 
ATOM     42  C   UNL A   1      44.841  23.328  28.222  1.00  0.00     0.016 A 
ATOM     43  C   UNL A   1      42.827  24.699  29.617  1.00  0.00     0.010 A 
ATOM     44  C   UNL A   1      45.176  24.217  29.250  1.00  0.00     0.010 A 
ATOM     45  C   UNL A   1      44.173  24.931  29.929  1.00  0.00    -0.014 A 
BRANCH  45  46
ATOM     46  C   UNL A   1      44.524  26.011  30.884  1.00  0.00     0.031 A 
ATOM     47  C   UNL A   1      44.873  25.654  32.304  1.00  0.00     0.074 A 
ATOM     48  C   UNL A   1      44.562  27.294  30.482  1.00  0.00     0.049 A 
ATOM     49  N   UNL A   1      45.209  26.437  33.295  1.00  0.00    -0.248 NA
ATOM     50  C   UNL A   1      44.837  24.224  32.651  1.00  0.00     0.031 C 
ATOM     51  C   UNL A   1      44.280  27.764  29.126  1.00  0.00     0.029 A 
ATOM     52  N   UNL A   1      44.855  28.438  31.181  1.00  0.00    -0.354 N 
ATOM     53  C   UNL A   1      45.420  25.601  34.384  1.00  0.00     0.074 A 
ATOM     54  C   UNL A   1      45.145  24.251  33.940  1.00  0.00     0.031 C 
ATOM     55  C   UNL A   1      44.408  29.101  29.092  1.00  0.00     0.029 A 
ATOM     56  C   UNL A   1      44.752  29.584  30.429  1.00  0.00     0.049 A 
ATOM     57  H   UNL A   1      45.114  28.439  32.131  1.00  0.00     0.167 HD
ATOM     58  C   UNL A   1      45.811  25.925  35.641  1.00  0.00     0.031 A 
ATOM     59  C   UNL A   1      44.901  30.877  30.780  1.00  0.00     0.031 A 
ATOM     60  C   UNL A   1      46.070  27.269  36.084  1.00  0.00     0.049 A 
ATOM     61  C   UNL A   1      45.275  31.219  32.199  1.00  0.00     0.074 A 
ATOM     62  C   UNL A   1      46.492  27.696  37.331  1.00  0.00     0.029 A 
ATOM     63  N   UNL A   1      45.921  28.404  35.302  1.00  0.00    -0.354 N 
ATOM     64  N   UNL A   1      45.504  30.413  33.208  1.00  0.00    -0.248 NA
ATOM     65  C   UNL A   1      45.418  32.646  32.522  1.00  0.00     0.031 C 
ATOM     66  C   UNL A   1      46.543  29.095  37.319  1.00  0.00     0.029 A 
ATOM     67  C   UNL A   1      46.213  29.535  36.047  1.00  0.00     0.049 A 
ATOM     68  H   UNL A   1      45.647  28.407  34.357  1.00  0.00     0.167 HD
ATOM     69  C   UNL A   1      45.842  31.233  34.280  1.00  0.00     0.074 A 
ATOM     70  C   UNL A   1      45.801  32.596  33.791  1.00  0.00     0.031 C 
ATOM     71  C   UNL A   1      46.163  30.887  35.552  1.00  0.00     0.031 A 
BRANCH  58  72
ATOM     72  C   UNL A   1      45.948  24.804  36.636  1.00  0.00    -0.014 A 
ATOM     73  C   UNL A   1      47.030  23.907  36.583  1.00  0.00     0.010 A 
ATOM     74  C   UNL A   1      44.995  24.666  37.663  1.00  0.00     0.010 A 
ATOM     75  C   UNL A   1      47.136  22.868  37.513  1.00  0.00     0.020 A 
ATOM     76  C   UNL A   1      45.111  23.645  38.611  1.00  0.00     0.020 A 
ATOM     77  C   UNL A   1      46.172  22.741  38.518  1.00  0.00     0.054 A 
BRANCH  77  78
ATOM     78  S   UNL A   1      46.341  21.395  39.721  1.00  0.00     0.124 S 
ATOM     79  O   UNL A   1      47.716  21.570  40.179  1.00  0.00    -0.237 OA
ATOM     80  O   UNL A   1      45.307  21.712  40.704  1.00  0.00    -0.237 OA
ATOM     81  O   UNL A   1      46.096  20.190  38.932  1.00  0.00    -0.744 OA
ENDBRANCH  77  78
ENDBRANCH  58  72
BRANCH  59  82
ATOM     82  C   UNL A   1      44.683  31.947  29.769  1.00  0.00    -0.014 A 
ATOM     83  C   UNL A   1      43.448  32.608  29.677  1.00  0.00     0.010 A 
ATOM     84  C   UNL A   1      45.725  32.317  28.897  1.00  0.00     0.010 A 
ATOM     85  C   UNL A   1      43.255  33.616  28.726  1.00  0.00     0.020 A 
ATOM     86  C   UNL A   1      45.544  33.341  27.964  1.00  0.00     0.020 A 
ATOM     87  C   UNL A   1      44.305  33.979  27.879  1.00  0.00     0.054 A 
BRANCH  87  88
ATOM     88  S   UNL A   1      44.052  35.333  26.698  1.00  0.00     0.124 S 
ATOM     89  O   UNL A   1      43.175  34.715  25.709  1.00  0.00    -0.237 OA
ATOM     90  O   UNL A   1      43.441  36.367  27.529  1.00  0.00    -0.237 OA
ATOM     91  O   UNL A   1      45.404  35.637  26.233  1.00  0.00    -0.744 OA
ENDBRANCH  87  88
ENDBRANCH  59  82
BRANCH  71  92
ATOM     92  C   UNL A   1      46.523  31.998  36.503  1.00  0.00    -0.014 A 
ATOM     93  C   UNL A   1      47.847  32.461  36.617  1.00  0.00     0.010 A 
ATOM     94  C   UNL A   1      45.511  32.623  37.254  1.00  0.00     0.010 A 
ATOM     95  C   UNL A   1      48.154  33.511  37.488  1.00  0.00     0.020 A 
ATOM     96  C   UNL A   1      45.810  33.691  38.105  1.00  0.00     0.020 A 
ATOM     97  C   UNL A   1      47.134  34.118  38.228  1.00  0.00     0.054 A 
BRANCH  97  98
ATOM     98  S   UNL A   1      47.552  35.504  39.320  1.00  0.00     0.124 S 
ATOM     99  O   UNL A   1      47.785  34.828  40.593  1.00  0.00    -0.237 OA
ATOM    100  O   UNL A   1      48.739  36.070  38.682  1.00  0.00    -0.237 OA
ATOM    101  O   UNL A   1      46.364  36.353  39.274  1.00  0.00    -0.744 OA
ENDBRANCH  97  98
ENDBRANCH  71  92
ENDBRANCH  45  46
ENDBRANCH  38  40
ENDBRANCH  37  38
ENDBRANCH  36  37
ENDBRANCH  35  36
ENDBRANCH   1  35
TORSDOF 21
ENDMDL
MODEL 3
REMARK VINA RESULT:      -8.8      8.883     14.673
REMARK SMILES CS(=O)(=O)c1ccc(C2=NN(c3ccc(C(=O)OCCOCCOC(=O)c4ccc(-c5c6nc(c(-c7ccc(S(=O)(=O)[O-])cc7)c7ccc([nH]7)c(-c7ccc(S(=O)(=O)[O-])cc7)c7nc(c(-c8ccc(S(=O)(=O)[O-])cc8)c8ccc5[nH]8)C=C7)C=C6)cc4)cc3)[C@H](c3ccc(Cl)cc3)C2)cc1
REMARK SMILES IDX 21 1 20 2 19 3 18 4 16 5 17 6 15 7 12 8 13 9 88 10 14 11
REMARK SMILES IDX 87 12 11 13 9 14 10 15 97 16 89 17 8 18 5 19 6 20 99 21 7 22
REMARK SMILES IDX 98 23 2 24 1 25 3 26 4 27 90 28 91 29 96 30 92 31 95 32
REMARK SMILES IDX 93 33 94 34 22 35 23 36 24 37 25 38 26 39 27 40 28 41 86 42
REMARK SMILES IDX 29 43 85 44 30 45 31 46 32 47 79 48 33 49 84 50 78 51 80 52
REMARK SMILES IDX 34 53 83 54 77 55 76 56 35 58 65 59 46 60 64 61 47 62 50 63
REMARK SMILES IDX 63 64 81 65 48 66 49 67 62 69 82 70 51 71 36 72 37 73 45 74
REMARK SMILES IDX 38 75 44 76 39 77 40 78 41 79 42 80 43 81 66 82 67 83 75 84
REMARK SMILES IDX 68 85 74 86 69 87 70 88 71 89 72 90 73 91 52 92 53 93 61 94
REMARK SMILES IDX 54 95 60 96 55 97 56 98 57 99 58 100 59 101
REMARK H PARENT 80 57 50 68
REMARK Flexibility Score: inf
ROOT
ATOM      1  O   UNL A   1      42.388  25.172  25.502  1.00  0.00    -0.374 OA
ENDROOT
BRANCH   1   2
ATOM      2  C   UNL A   1      40.989  25.451  25.579  1.00  0.00     0.202 C 
BRANCH   2   3
ATOM      3  C   UNL A   1      40.345  25.273  26.958  1.00  0.00     0.261 C 
BRANCH   3   4
ATOM      4  O   UNL A   1      38.961  24.915  26.830  1.00  0.00    -0.460 OA
BRANCH   4   5
ATOM      5  C   UNL A   1      38.718  23.626  26.499  1.00  0.00     0.338 C 
ATOM      6  O   UNL A   1      39.475  22.678  26.652  1.00  0.00    -0.246 OA
BRANCH   5   7
ATOM      7  C   UNL A   1      37.329  23.469  25.997  1.00  0.00     0.060 A 
ATOM      8  C   UNL A   1      34.733  23.417  24.932  1.00  0.00     0.060 A 
ATOM      9  C   UNL A   1      35.841  23.476  24.083  1.00  0.00     0.029 A 
ATOM     10  C   UNL A   1      34.945  23.259  26.310  1.00  0.00     0.029 A 
ATOM     11  C   UNL A   1      37.132  23.509  24.611  1.00  0.00     0.018 A 
ATOM     12  C   UNL A   1      36.232  23.295  26.848  1.00  0.00     0.018 A 
BRANCH   8  13
ATOM     13  N   UNL A   1      33.449  23.693  24.462  1.00  0.00    -0.257 N 
ATOM     14  C   UNL A   1      31.826  25.053  24.251  1.00  0.00     0.071 C 
ATOM     15  N   UNL A   1      33.109  24.951  24.085  1.00  0.00    -0.176 NA
ATOM     16  C   UNL A   1      31.165  23.894  24.945  1.00  0.00     0.091 C 
ATOM     17  C   UNL A   1      32.328  22.893  24.977  1.00  0.00     0.144 C 
BRANCH  14  18
ATOM     18  C   UNL A   1      31.058  26.227  23.795  1.00  0.00    -0.002 A 
ATOM     19  C   UNL A   1      29.525  28.426  23.015  1.00  0.00     0.067 A 
ATOM     20  C   UNL A   1      28.912  27.337  23.644  1.00  0.00     0.021 A 
ATOM     21  C   UNL A   1      30.902  28.420  22.770  1.00  0.00     0.021 A 
ATOM     22  C   UNL A   1      29.678  26.236  24.025  1.00  0.00     0.011 A 
ATOM     23  C   UNL A   1      31.671  27.319  23.170  1.00  0.00     0.011 A 
BRANCH  19  24
ATOM     24  S   UNL A   1      28.471  29.782  22.556  1.00  0.00     0.175 S 
ATOM     25  C   UNL A   1      28.955  31.188  23.511  1.00  0.00     0.163 C 
ATOM     26  O   UNL A   1      27.131  29.417  22.974  1.00  0.00    -0.224 OA
ATOM     27  O   UNL A   1      28.771  30.085  21.170  1.00  0.00    -0.224 OA
ENDBRANCH  19  24
ENDBRANCH  14  18
BRANCH  17  28
ATOM     28  C   UNL A   1      32.196  21.610  24.168  1.00  0.00    -0.023 A 
ATOM     29  C   UNL A   1      32.017  21.583  22.777  1.00  0.00     0.007 A 
ATOM     30  C   UNL A   1      32.363  20.377  24.835  1.00  0.00     0.007 A 
ATOM     31  C   UNL A   1      32.013  20.369  22.081  1.00  0.00     0.021 A 
ATOM     32  C   UNL A   1      32.398  19.169  24.137  1.00  0.00     0.021 A 
ATOM     33  C   UNL A   1      32.220  19.170  22.760  1.00  0.00     0.041 A 
ATOM     34  Cl  UNL A   1      32.276  17.692  21.886  1.00  0.00    -0.084 Cl
ENDBRANCH  17  28
ENDBRANCH   8  13
ENDBRANCH   5   7
ENDBRANCH   4   5
ENDBRANCH   3   4
ENDBRANCH   2   3
ENDBRANCH   1   2
BRANCH   1  35
ATOM     35  C   UNL A   1      42.784  23.802  25.578  1.00  0.00     0.202 C 
BRANCH  35  36
ATOM     36  C   UNL A   1      44.111  23.432  24.907  1.00  0.00     0.261 C 
BRANCH  36  37
ATOM     37  O   UNL A   1      45.003  24.556  24.807  1.00  0.00    -0.460 OA
BRANCH  37  38
ATOM     38  C   UNL A   1      45.852  24.698  25.852  1.00  0.00     0.338 C 
ATOM     39  O   UNL A   1      46.795  23.973  26.140  1.00  0.00    -0.246 OA
BRANCH  38  40
ATOM     40  C   UNL A   1      45.602  25.980  26.537  1.00  0.00     0.060 A 
ATOM     41  C   UNL A   1      45.045  27.017  25.779  1.00  0.00     0.016 A 
ATOM     42  C   UNL A   1      45.963  26.190  27.870  1.00  0.00     0.016 A 
ATOM     43  C   UNL A   1      44.890  28.284  26.337  1.00  0.00     0.010 A 
ATOM     44  C   UNL A   1      45.813  27.466  28.426  1.00  0.00     0.010 A 
ATOM     45  C   UNL A   1      45.307  28.526  27.652  1.00  0.00    -0.014 A 
BRANCH  45  46
ATOM     46  C   UNL A   1      45.322  29.917  28.169  1.00  0.00     0.031 A 
ATOM     47  C   UNL A   1      46.506  30.798  27.875  1.00  0.00     0.074 A 
ATOM     48  C   UNL A   1      44.278  30.399  28.866  1.00  0.00     0.049 A 
ATOM     49  N   UNL A   1      46.721  32.038  28.228  1.00  0.00    -0.248 NA
ATOM     50  C   UNL A   1      47.590  30.201  27.078  1.00  0.00     0.031 C 
ATOM     51  C   UNL A   1      43.059  29.657  29.185  1.00  0.00     0.029 A 
ATOM     52  N   UNL A   1      44.079  31.633  29.432  1.00  0.00    -0.354 N 
ATOM     53  C   UNL A   1      47.965  32.371  27.703  1.00  0.00     0.074 A 
ATOM     54  C   UNL A   1      48.469  31.192  27.033  1.00  0.00     0.031 C 
ATOM     55  C   UNL A   1      42.239  30.450  29.896  1.00  0.00     0.029 A 
ATOM     56  C   UNL A   1      42.886  31.743  30.107  1.00  0.00     0.049 A 
ATOM     57  H   UNL A   1      44.728  32.370  29.362  1.00  0.00     0.167 HD
ATOM     58  C   UNL A   1      48.626  33.552  27.770  1.00  0.00     0.031 A 
ATOM     59  C   UNL A   1      42.381  32.764  30.828  1.00  0.00     0.031 A 
ATOM     60  C   UNL A   1      48.129  34.719  28.450  1.00  0.00     0.049 A 
ATOM     61  C   UNL A   1      43.162  34.047  30.941  1.00  0.00     0.074 A 
ATOM     62  C   UNL A   1      48.715  35.968  28.553  1.00  0.00     0.029 A 
ATOM     63  N   UNL A   1      46.934  34.779  29.150  1.00  0.00    -0.354 N 
ATOM     64  N   UNL A   1      44.321  34.356  30.411  1.00  0.00    -0.248 NA
ATOM     65  C   UNL A   1      42.561  35.122  31.745  1.00  0.00     0.031 C 
ATOM     66  C   UNL A   1      47.900  36.766  29.365  1.00  0.00     0.029 A 
ATOM     67  C   UNL A   1      46.778  36.034  29.715  1.00  0.00     0.049 A 
ATOM     68  H   UNL A   1      46.291  34.038  29.234  1.00  0.00     0.167 HD
ATOM     69  C   UNL A   1      44.577  35.668  30.795  1.00  0.00     0.074 A 
ATOM     70  C   UNL A   1      43.446  36.098  31.591  1.00  0.00     0.031 C 
ATOM     71  C   UNL A   1      45.650  36.448  30.510  1.00  0.00     0.031 A 
BRANCH  58  72
ATOM     72  C   UNL A   1      49.981  33.626  27.117  1.00  0.00    -0.014 A 
ATOM     73  C   UNL A   1      51.154  33.317  27.829  1.00  0.00     0.010 A 
ATOM     74  C   UNL A   1      50.079  33.980  25.759  1.00  0.00     0.010 A 
ATOM     75  C   UNL A   1      52.403  33.398  27.207  1.00  0.00     0.020 A 
ATOM     76  C   UNL A   1      51.324  34.037  25.125  1.00  0.00     0.020 A 
ATOM     77  C   UNL A   1      52.479  33.763  25.859  1.00  0.00     0.054 A 
BRANCH  77  78
ATOM     78  S   UNL A   1      54.111  33.846  25.070  1.00  0.00     0.124 S 
ATOM     79  O   UNL A   1      54.539  35.201  25.405  1.00  0.00    -0.237 OA
ATOM     80  O   UNL A   1      54.845  32.773  25.737  1.00  0.00    -0.237 OA
ATOM     81  O   UNL A   1      53.826  33.615  23.656  1.00  0.00    -0.744 OA
ENDBRANCH  77  78
ENDBRANCH  58  72
BRANCH  59  82
ATOM     82  C   UNL A   1      41.068  32.607  31.511  1.00  0.00    -0.014 A 
ATOM     83  C   UNL A   1      40.998  32.158  32.840  1.00  0.00     0.010 A 
ATOM     84  C   UNL A   1      39.876  32.920  30.830  1.00  0.00     0.010 A 
ATOM     85  C   UNL A   1      39.759  32.019  33.475  1.00  0.00     0.020 A 
ATOM     86  C   UNL A   1      38.639  32.807  31.469  1.00  0.00     0.020 A 
ATOM     87  C   UNL A   1      38.588  32.347  32.786  1.00  0.00     0.054 A 
BRANCH  87  88
ATOM     88  S   UNL A   1      36.998  32.220  33.650  1.00  0.00     0.124 S 
ATOM     89  O   UNL A   1      36.312  31.191  32.876  1.00  0.00    -0.237 OA
ATOM     90  O   UNL A   1      37.401  31.834  35.000  1.00  0.00    -0.237 OA
ATOM     91  O   UNL A   1      36.440  33.566  33.537  1.00  0.00    -0.744 OA
ENDBRANCH  87  88
ENDBRANCH  59  82
BRANCH  71  92
ATOM     92  C   UNL A   1      45.643  37.859  31.038  1.00  0.00    -0.014 A 
ATOM     93  C   UNL A   1      45.048  38.907  30.313  1.00  0.00     0.010 A 
ATOM     94  C   UNL A   1      46.192  38.127  32.305  1.00  0.00     0.010 A 
ATOM     95  C   UNL A   1      45.031  40.204  30.834  1.00  0.00     0.020 A 
ATOM     96  C   UNL A   1      46.152  39.418  32.841  1.00  0.00     0.020 A 
ATOM     97  C   UNL A   1      45.584  40.452  32.094  1.00  0.00     0.054 A 
BRANCH  97  98
ATOM     98  S   UNL A   1      45.512  42.135  32.765  1.00  0.00     0.124 S 
ATOM     99  O   UNL A   1      46.625  42.132  33.711  1.00  0.00    -0.237 OA
ATOM    100  O   UNL A   1      45.700  42.964  31.576  1.00  0.00    -0.237 OA
ATOM    101  O   UNL A   1      44.184  42.213  33.367  1.00  0.00    -0.744 OA
ENDBRANCH  97  98
ENDBRANCH  71  92
ENDBRANCH  45  46
ENDBRANCH  38  40
ENDBRANCH  37  38
ENDBRANCH  36  37
ENDBRANCH  35  36
ENDBRANCH   1  35
TORSDOF 21
ENDMDL
