MODEL 1
REMARK VINA RESULT:     -10.9      0.000      0.000
REMARK SMILES O=C(OCCOCCOC(=O)[C@H]1CC=CC[C@H]1C(=O)N[C@@H]1CCN(c2cccc(Cl)c2)C1)c1ccc(-c2c3nc(c(-c4ccc(S(=O)(=O)[O-])cc4)c4ccc([nH]4)c(-c4ccc(S(=O)(=O)[O-])cc4)c4nc(c(-c5ccc(S(=O)(=O)[O-])cc5)c5ccc2[nH]5)C=C4)C=C3)cc1
REMARK SMILES IDX 6 1 5 2 4 3 3 4 2 5 1 6 33 7 34 8 92 9 35 10 91 11 36 12
REMARK SMILES IDX 37 13 38 14 85 15 39 16 90 17 84 18 86 19 40 20 89 21 83 22
REMARK SMILES IDX 82 23 41 25 71 26 52 27 70 28 53 29 56 30 69 31 87 32 54 33
REMARK SMILES IDX 55 34 68 36 88 37 57 38 42 39 43 40 51 41 44 42 50 43 45 44
REMARK SMILES IDX 46 45 47 46 48 47 49 48 72 49 73 50 81 51 74 52 80 53 75 54
REMARK SMILES IDX 76 55 77 56 78 57 79 58 58 59 59 60 67 61 60 62 66 63 61 64
REMARK SMILES IDX 62 65 63 66 64 67 65 68 7 69 8 70 9 71 10 72 11 73 12 74
REMARK SMILES IDX 13 75 17 76 14 77 16 78 15 79 18 80 19 81 20 82 21 84 22 85
REMARK SMILES IDX 32 86 23 87 24 88 25 89 26 90 31 91 27 92 29 93 28 94 30 95
REMARK H PARENT 86 24 56 35 20 83
REMARK Flexibility Score: inf
ROOT
ATOM      1  O   UNL A   1      33.792  31.711  27.680  1.00  0.00    -0.374 OA
ENDROOT
BRANCH   1   2
ATOM      2  C   UNL A   1      34.746  31.483  28.717  1.00  0.00     0.202 C 
BRANCH   2   3
ATOM      3  C   UNL A   1      36.197  31.900  28.397  1.00  0.00     0.261 C 
BRANCH   3   4
ATOM      4  O   UNL A   1      37.177  31.129  29.167  1.00  0.00    -0.460 OA
BRANCH   4   5
ATOM      5  C   UNL A   1      37.265  29.836  29.565  1.00  0.00     0.338 C 
ATOM      6  O   UNL A   1      36.532  29.343  30.415  1.00  0.00    -0.246 OA
BRANCH   5   7
ATOM      7  C   UNL A   1      38.275  29.049  28.874  1.00  0.00     0.060 A 
ATOM      8  C   UNL A   1      39.014  28.206  29.666  1.00  0.00     0.016 A 
ATOM      9  C   UNL A   1      38.679  29.384  27.580  1.00  0.00     0.016 A 
ATOM     10  C   UNL A   1      40.347  28.148  29.374  1.00  0.00     0.010 A 
ATOM     11  C   UNL A   1      39.962  29.019  27.165  1.00  0.00     0.010 A 
ATOM     12  C   UNL A   1      40.852  28.501  28.111  1.00  0.00    -0.014 A 
BRANCH  12  13
ATOM     13  C   UNL A   1      42.324  28.375  27.927  1.00  0.00     0.031 A 
ATOM     14  C   UNL A   1      42.923  27.233  27.152  1.00  0.00     0.074 A 
ATOM     15  C   UNL A   1      43.071  29.451  28.264  1.00  0.00     0.049 A 
ATOM     16  N   UNL A   1      44.189  27.001  26.924  1.00  0.00    -0.248 NA
ATOM     17  C   UNL A   1      42.029  26.203  26.592  1.00  0.00     0.031 C 
ATOM     18  C   UNL A   1      42.564  30.630  28.987  1.00  0.00     0.029 A 
ATOM     19  N   UNL A   1      44.330  29.832  27.895  1.00  0.00    -0.354 N 
ATOM     20  C   UNL A   1      44.251  25.754  26.312  1.00  0.00     0.074 A 
ATOM     21  C   UNL A   1      42.891  25.297  26.145  1.00  0.00     0.031 C 
ATOM     22  C   UNL A   1      43.357  31.672  28.731  1.00  0.00     0.029 A 
ATOM     23  C   UNL A   1      44.569  31.176  28.105  1.00  0.00     0.049 A 
ATOM     24  H   UNL A   1      44.997  29.214  27.519  1.00  0.00     0.167 HD
ATOM     25  C   UNL A   1      45.362  25.058  25.976  1.00  0.00     0.031 A 
ATOM     26  C   UNL A   1      45.671  31.914  27.886  1.00  0.00     0.031 A 
ATOM     27  C   UNL A   1      46.687  25.604  26.133  1.00  0.00     0.049 A 
ATOM     28  C   UNL A   1      46.882  31.147  27.457  1.00  0.00     0.074 A 
ATOM     29  C   UNL A   1      47.913  24.987  25.979  1.00  0.00     0.029 A 
ATOM     30  N   UNL A   1      46.942  26.934  26.447  1.00  0.00    -0.354 N 
ATOM     31  N   UNL A   1      46.960  29.887  27.093  1.00  0.00    -0.248 NA
ATOM     32  C   UNL A   1      48.162  31.853  27.511  1.00  0.00     0.031 C 
ATOM     33  C   UNL A   1      48.910  25.942  26.223  1.00  0.00     0.029 A 
ATOM     34  C   UNL A   1      48.305  27.164  26.480  1.00  0.00     0.049 A 
ATOM     35  H   UNL A   1      46.253  27.614  26.621  1.00  0.00     0.167 HD
ATOM     36  C   UNL A   1      48.310  29.621  26.955  1.00  0.00     0.074 A 
ATOM     37  C   UNL A   1      49.002  30.881  27.182  1.00  0.00     0.031 C 
ATOM     38  C   UNL A   1      48.931  28.439  26.723  1.00  0.00     0.031 A 
BRANCH  25  39
ATOM     39  C   UNL A   1      45.191  23.629  25.531  1.00  0.00    -0.014 A 
ATOM     40  C   UNL A   1      45.457  22.540  26.380  1.00  0.00     0.010 A 
ATOM     41  C   UNL A   1      44.752  23.371  24.217  1.00  0.00     0.010 A 
ATOM     42  C   UNL A   1      45.320  21.225  25.914  1.00  0.00     0.020 A 
ATOM     43  C   UNL A   1      44.595  22.060  23.753  1.00  0.00     0.020 A 
ATOM     44  C   UNL A   1      44.897  20.995  24.600  1.00  0.00     0.054 A 
BRANCH  44  45
ATOM     45  S   UNL A   1      44.727  19.283  24.018  1.00  0.00     0.124 S 
ATOM     46  O   UNL A   1      43.485  18.867  24.664  1.00  0.00    -0.237 OA
ATOM     47  O   UNL A   1      44.656  19.441  22.567  1.00  0.00    -0.237 OA
ATOM     48  O   UNL A   1      45.936  18.627  24.510  1.00  0.00    -0.744 OA
ENDBRANCH  44  45
ENDBRANCH  25  39
BRANCH  26  49
ATOM     49  C   UNL A   1      45.710  33.358  28.266  1.00  0.00    -0.014 A 
ATOM     50  C   UNL A   1      45.532  34.379  27.319  1.00  0.00     0.010 A 
ATOM     51  C   UNL A   1      45.875  33.719  29.620  1.00  0.00     0.010 A 
ATOM     52  C   UNL A   1      45.495  35.723  27.721  1.00  0.00     0.020 A 
ATOM     53  C   UNL A   1      45.783  35.048  30.033  1.00  0.00     0.020 A 
ATOM     54  C   UNL A   1      45.609  36.047  29.078  1.00  0.00     0.054 A 
BRANCH  54  55
ATOM     55  S   UNL A   1      45.471  37.776  29.611  1.00  0.00     0.124 S 
ATOM     56  O   UNL A   1      46.293  37.784  30.817  1.00  0.00    -0.237 OA
ATOM     57  O   UNL A   1      46.012  38.513  28.471  1.00  0.00    -0.237 OA
ATOM     58  O   UNL A   1      44.036  37.947  29.827  1.00  0.00    -0.744 OA
ENDBRANCH  54  55
ENDBRANCH  26  49
BRANCH  38  59
ATOM     59  C   UNL A   1      50.427  28.491  26.712  1.00  0.00    -0.014 A 
ATOM     60  C   UNL A   1      51.124  28.719  25.512  1.00  0.00     0.010 A 
ATOM     61  C   UNL A   1      51.132  28.293  27.909  1.00  0.00     0.010 A 
ATOM     62  C   UNL A   1      52.516  28.697  25.503  1.00  0.00     0.020 A 
ATOM     63  C   UNL A   1      52.524  28.292  27.905  1.00  0.00     0.020 A 
ATOM     64  C   UNL A   1      53.207  28.473  26.700  1.00  0.00     0.054 A 
BRANCH  64  65
ATOM     65  S   UNL A   1      55.018  28.445  26.670  1.00  0.00     0.124 S 
ATOM     66  O   UNL A   1      55.350  29.250  27.842  1.00  0.00    -0.237 OA
ATOM     67  O   UNL A   1      55.321  27.020  26.777  1.00  0.00    -0.237 OA
ATOM     68  O   UNL A   1      55.348  29.050  25.381  1.00  0.00    -0.744 OA
ENDBRANCH  64  65
ENDBRANCH  38  59
ENDBRANCH  12  13
ENDBRANCH   5   7
ENDBRANCH   4   5
ENDBRANCH   3   4
ENDBRANCH   2   3
ENDBRANCH   1   2
BRANCH   1  69
ATOM     69  C   UNL A   1      33.296  30.556  26.988  1.00  0.00     0.202 C 
BRANCH  69  70
ATOM     70  C   UNL A   1      33.948  29.234  27.415  1.00  0.00     0.261 C 
BRANCH  70  71
ATOM     71  O   UNL A   1      33.149  28.109  26.988  1.00  0.00    -0.463 OA
BRANCH  71  72
ATOM     72  C   UNL A   1      32.962  27.978  25.651  1.00  0.00     0.310 C 
ATOM     73  O   UNL A   1      33.848  27.646  24.869  1.00  0.00    -0.252 OA
BRANCH  72  74
ATOM     74  C   UNL A   1      31.491  28.035  25.222  1.00  0.00     0.115 C 
ATOM     75  C   UNL A   1      31.437  28.911  23.943  1.00  0.00     0.043 C 
ATOM     76  C   UNL A   1      30.558  26.777  25.290  1.00  0.00     0.096 C 
ATOM     77  C   UNL A   1      30.565  28.448  22.829  1.00  0.00    -0.030 C 
ATOM     78  C   UNL A   1      29.430  26.722  24.233  1.00  0.00     0.041 C 
ATOM     79  C   UNL A   1      29.648  27.491  22.969  1.00  0.00    -0.030 C 
BRANCH  76  80
ATOM     80  C   UNL A   1      31.135  25.390  25.708  1.00  0.00     0.224 C 
ATOM     81  O   UNL A   1      31.458  25.172  26.877  1.00  0.00    -0.275 OA
ATOM     82  N   UNL A   1      31.172  24.342  24.790  1.00  0.00    -0.351 N 
ATOM     83  H   UNL A   1      30.394  23.752  24.672  1.00  0.00     0.163 HD
BRANCH  82  84
ATOM     84  C   UNL A   1      32.396  24.135  23.999  1.00  0.00     0.103 C 
ATOM     85  C   UNL A   1      32.489  22.691  23.631  1.00  0.00     0.048 C 
ATOM     86  C   UNL A   1      33.830  24.397  24.622  1.00  0.00     0.141 C 
ATOM     87  C   UNL A   1      33.357  22.083  24.694  1.00  0.00     0.119 C 
ATOM     88  N   UNL A   1      34.401  23.052  24.877  1.00  0.00    -0.369 N 
BRANCH  88  89
ATOM     89  C   UNL A   1      35.696  22.664  25.125  1.00  0.00     0.038 A 
ATOM     90  C   UNL A   1      36.186  21.400  24.714  1.00  0.00     0.026 A 
ATOM     91  C   UNL A   1      36.617  23.478  25.785  1.00  0.00     0.046 A 
ATOM     92  C   UNL A   1      37.503  20.975  24.912  1.00  0.00     0.004 A 
ATOM     93  C   UNL A   1      37.936  23.049  26.018  1.00  0.00     0.043 A 
ATOM     94  C   UNL A   1      38.385  21.805  25.578  1.00  0.00     0.020 A 
ATOM     95  Cl  UNL A   1      39.025  24.069  26.878  1.00  0.00    -0.084 Cl
ENDBRANCH  88  89
ENDBRANCH  82  84
ENDBRANCH  76  80
ENDBRANCH  72  74
ENDBRANCH  71  72
ENDBRANCH  70  71
ENDBRANCH  69  70
ENDBRANCH   1  69
TORSDOF 20
ENDMDL
MODEL 2
REMARK VINA RESULT:     -10.3      2.079      2.835
REMARK SMILES O=C(OCCOCCOC(=O)[C@H]1CC=CC[C@H]1C(=O)N[C@@H]1CCN(c2cccc(Cl)c2)C1)c1ccc(-c2c3nc(c(-c4ccc(S(=O)(=O)[O-])cc4)c4ccc([nH]4)c(-c4ccc(S(=O)(=O)[O-])cc4)c4nc(c(-c5ccc(S(=O)(=O)[O-])cc5)c5ccc2[nH]5)C=C4)C=C3)cc1
REMARK SMILES IDX 6 1 5 2 4 3 3 4 2 5 1 6 33 7 34 8 92 9 35 10 91 11 36 12
REMARK SMILES IDX 37 13 38 14 85 15 39 16 90 17 84 18 86 19 40 20 89 21 83 22
REMARK SMILES IDX 82 23 41 25 71 26 52 27 70 28 53 29 56 30 69 31 87 32 54 33
REMARK SMILES IDX 55 34 68 36 88 37 57 38 42 39 43 40 51 41 44 42 50 43 45 44
REMARK SMILES IDX 46 45 47 46 48 47 49 48 72 49 73 50 81 51 74 52 80 53 75 54
REMARK SMILES IDX 76 55 77 56 78 57 79 58 58 59 59 60 67 61 60 62 66 63 61 64
REMARK SMILES IDX 62 65 63 66 64 67 65 68 7 69 8 70 9 71 10 72 11 73 12 74
REMARK SMILES IDX 13 75 17 76 14 77 16 78 15 79 18 80 19 81 20 82 21 84 22 85
REMARK SMILES IDX 32 86 23 87 24 88 25 89 26 90 31 91 27 92 29 93 28 94 30 95
REMARK H PARENT 86 24 56 35 20 83
REMARK Flexibility Score: inf
ROOT
ATOM      1  O   UNL A   1      32.850  29.730  27.405  1.00  0.00    -0.374 OA
ENDROOT
BRANCH   1   2
ATOM      2  C   UNL A   1      32.999  31.136  27.219  1.00  0.00     0.202 C 
BRANCH   2   3
ATOM      3  C   UNL A   1      34.339  31.738  27.693  1.00  0.00     0.261 C 
BRANCH   3   4
ATOM      4  O   UNL A   1      34.429  31.803  29.155  1.00  0.00    -0.460 OA
BRANCH   4   5
ATOM      5  C   UNL A   1      35.355  31.414  30.066  1.00  0.00     0.338 C 
ATOM      6  O   UNL A   1      35.370  31.818  31.224  1.00  0.00    -0.246 OA
BRANCH   5   7
ATOM      7  C   UNL A   1      36.318  30.437  29.583  1.00  0.00     0.060 A 
ATOM      8  C   UNL A   1      36.811  29.573  30.528  1.00  0.00     0.016 A 
ATOM      9  C   UNL A   1      36.935  30.598  28.340  1.00  0.00     0.016 A 
ATOM     10  C   UNL A   1      38.147  29.305  30.436  1.00  0.00     0.010 A 
ATOM     11  C   UNL A   1      38.192  30.023  28.140  1.00  0.00     0.010 A 
ATOM     12  C   UNL A   1      38.863  29.471  29.237  1.00  0.00    -0.014 A 
BRANCH  12  13
ATOM     13  C   UNL A   1      40.310  29.127  29.276  1.00  0.00     0.031 A 
ATOM     14  C   UNL A   1      40.834  27.866  28.643  1.00  0.00     0.074 A 
ATOM     15  C   UNL A   1      41.155  30.105  29.675  1.00  0.00     0.049 A 
ATOM     16  N   UNL A   1      42.070  27.444  28.612  1.00  0.00    -0.248 NA
ATOM     17  C   UNL A   1      39.882  26.941  28.000  1.00  0.00     0.031 C 
ATOM     18  C   UNL A   1      40.734  31.385  30.268  1.00  0.00     0.029 A 
ATOM     19  N   UNL A   1      42.496  30.280  29.479  1.00  0.00    -0.354 N 
ATOM     20  C   UNL A   1      42.029  26.166  28.066  1.00  0.00     0.074 A 
ATOM     21  C   UNL A   1      40.653  25.897  27.720  1.00  0.00     0.031 C 
ATOM     22  C   UNL A   1      41.702  32.287  30.089  1.00  0.00     0.029 A 
ATOM     23  C   UNL A   1      42.901  31.586  29.667  1.00  0.00     0.049 A 
ATOM     24  H   UNL A   1      43.109  29.551  29.229  1.00  0.00     0.167 HD
ATOM     25  C   UNL A   1      43.060  25.300  27.925  1.00  0.00     0.031 A 
ATOM     26  C   UNL A   1      44.121  32.145  29.582  1.00  0.00     0.031 A 
ATOM     27  C   UNL A   1      44.417  25.660  28.251  1.00  0.00     0.049 A 
ATOM     28  C   UNL A   1      45.251  31.190  29.367  1.00  0.00     0.074 A 
ATOM     29  C   UNL A   1      45.547  24.867  28.303  1.00  0.00     0.029 A 
ATOM     30  N   UNL A   1      44.822  26.957  28.546  1.00  0.00    -0.354 N 
ATOM     31  N   UNL A   1      45.190  29.911  29.069  1.00  0.00    -0.248 NA
ATOM     32  C   UNL A   1      46.602  31.709  29.579  1.00  0.00     0.031 C 
ATOM     33  C   UNL A   1      46.632  25.685  28.652  1.00  0.00     0.029 A 
ATOM     34  C   UNL A   1      46.186  26.993  28.768  1.00  0.00     0.049 A 
ATOM     35  H   UNL A   1      44.224  27.738  28.589  1.00  0.00     0.167 HD
ATOM     36  C   UNL A   1      46.492  29.449  29.141  1.00  0.00     0.074 A 
ATOM     37  C   UNL A   1      47.325  30.609  29.415  1.00  0.00     0.031 C 
ATOM     38  C   UNL A   1      46.955  28.179  29.050  1.00  0.00     0.031 A 
BRANCH  25  39
ATOM     39  C   UNL A   1      42.741  23.884  27.517  1.00  0.00    -0.014 A 
ATOM     40  C   UNL A   1      42.501  22.867  28.458  1.00  0.00     0.010 A 
ATOM     41  C   UNL A   1      42.684  23.565  26.146  1.00  0.00     0.010 A 
ATOM     42  C   UNL A   1      42.244  21.556  28.035  1.00  0.00     0.020 A 
ATOM     43  C   UNL A   1      42.408  22.262  25.718  1.00  0.00     0.020 A 
ATOM     44  C   UNL A   1      42.207  21.260  26.668  1.00  0.00     0.054 A 
BRANCH  44  45
ATOM     45  S   UNL A   1      41.873  19.554  26.144  1.00  0.00     0.124 S 
ATOM     46  O   UNL A   1      40.459  19.621  25.784  1.00  0.00    -0.237 OA
ATOM     47  O   UNL A   1      42.797  19.372  25.027  1.00  0.00    -0.237 OA
ATOM     48  O   UNL A   1      42.176  18.760  27.332  1.00  0.00    -0.744 OA
ENDBRANCH  44  45
ENDBRANCH  25  39
BRANCH  26  49
ATOM     49  C   UNL A   1      44.321  33.590  29.906  1.00  0.00    -0.014 A 
ATOM     50  C   UNL A   1      44.180  34.594  28.935  1.00  0.00     0.010 A 
ATOM     51  C   UNL A   1      44.607  33.975  31.233  1.00  0.00     0.010 A 
ATOM     52  C   UNL A   1      44.297  35.947  29.289  1.00  0.00     0.020 A 
ATOM     53  C   UNL A   1      44.670  35.319  31.601  1.00  0.00     0.020 A 
ATOM     54  C   UNL A   1      44.530  36.299  30.623  1.00  0.00     0.054 A 
BRANCH  54  55
ATOM     55  S   UNL A   1      44.592  38.050  31.100  1.00  0.00     0.124 S 
ATOM     56  O   UNL A   1      44.015  38.016  32.440  1.00  0.00    -0.237 OA
ATOM     57  O   UNL A   1      46.019  38.355  31.031  1.00  0.00    -0.237 OA
ATOM     58  O   UNL A   1      43.775  38.705  30.080  1.00  0.00    -0.744 OA
ENDBRANCH  54  55
ENDBRANCH  26  49
BRANCH  38  59
ATOM     59  C   UNL A   1      48.428  28.018  29.255  1.00  0.00    -0.014 A 
ATOM     60  C   UNL A   1      49.318  28.140  28.173  1.00  0.00     0.010 A 
ATOM     61  C   UNL A   1      48.918  27.724  30.537  1.00  0.00     0.010 A 
ATOM     62  C   UNL A   1      50.679  27.921  28.364  1.00  0.00     0.020 A 
ATOM     63  C   UNL A   1      50.281  27.524  30.734  1.00  0.00     0.020 A 
ATOM     64  C   UNL A   1      51.151  27.603  29.643  1.00  0.00     0.054 A 
BRANCH  64  65
ATOM     65  S   UNL A   1      52.924  27.318  29.874  1.00  0.00     0.124 S 
ATOM     66  O   UNL A   1      53.381  27.138  28.499  1.00  0.00    -0.237 OA
ATOM     67  O   UNL A   1      53.366  28.545  30.530  1.00  0.00    -0.237 OA
ATOM     68  O   UNL A   1      52.971  26.120  30.711  1.00  0.00    -0.744 OA
ENDBRANCH  64  65
ENDBRANCH  38  59
ENDBRANCH  12  13
ENDBRANCH   5   7
ENDBRANCH   4   5
ENDBRANCH   3   4
ENDBRANCH   2   3
ENDBRANCH   1   2
BRANCH   1  69
ATOM     69  C   UNL A   1      33.960  28.904  27.026  1.00  0.00     0.202 C 
BRANCH  69  70
ATOM     70  C   UNL A   1      33.564  27.540  26.444  1.00  0.00     0.261 C 
BRANCH  70  71
ATOM     71  O   UNL A   1      33.375  27.630  25.014  1.00  0.00    -0.463 OA
BRANCH  71  72
ATOM     72  C   UNL A   1      32.097  27.531  24.570  1.00  0.00     0.310 C 
ATOM     73  O   UNL A   1      31.223  28.356  24.820  1.00  0.00    -0.252 OA
BRANCH  72  74
ATOM     74  C   UNL A   1      31.890  26.433  23.520  1.00  0.00     0.115 C 
ATOM     75  C   UNL A   1      33.261  26.217  22.829  1.00  0.00     0.043 C 
ATOM     76  C   UNL A   1      31.005  25.169  23.805  1.00  0.00     0.096 C 
ATOM     77  C   UNL A   1      33.684  24.815  22.560  1.00  0.00    -0.030 C 
ATOM     78  C   UNL A   1      31.424  23.878  23.065  1.00  0.00     0.041 C 
ATOM     79  C   UNL A   1      32.853  23.774  22.637  1.00  0.00    -0.030 C 
BRANCH  76  80
ATOM     80  C   UNL A   1      30.383  24.946  25.217  1.00  0.00     0.224 C 
ATOM     81  O   UNL A   1      29.965  25.899  25.876  1.00  0.00    -0.275 OA
ATOM     82  N   UNL A   1      30.178  23.652  25.694  1.00  0.00    -0.351 N 
ATOM     83  H   UNL A   1      29.351  23.164  25.480  1.00  0.00     0.163 HD
BRANCH  82  84
ATOM     84  C   UNL A   1      31.222  23.029  26.524  1.00  0.00     0.103 C 
ATOM     85  C   UNL A   1      32.117  24.101  27.052  1.00  0.00     0.048 C 
ATOM     86  C   UNL A   1      32.272  22.017  25.900  1.00  0.00     0.141 C 
ATOM     87  C   UNL A   1      33.258  24.158  26.079  1.00  0.00     0.119 C 
ATOM     88  N   UNL A   1      33.542  22.776  25.806  1.00  0.00    -0.369 N 
BRANCH  88  89
ATOM     89  C   UNL A   1      34.833  22.338  25.626  1.00  0.00     0.038 A 
ATOM     90  C   UNL A   1      35.117  21.091  25.015  1.00  0.00     0.026 A 
ATOM     91  C   UNL A   1      35.947  23.081  26.019  1.00  0.00     0.046 A 
ATOM     92  C   UNL A   1      36.411  20.619  24.780  1.00  0.00     0.004 A 
ATOM     93  C   UNL A   1      37.254  22.601  25.815  1.00  0.00     0.043 A 
ATOM     94  C   UNL A   1      37.490  21.378  25.190  1.00  0.00     0.020 A 
ATOM     95  Cl  UNL A   1      38.597  23.532  26.358  1.00  0.00    -0.084 Cl
ENDBRANCH  88  89
ENDBRANCH  82  84
ENDBRANCH  76  80
ENDBRANCH  72  74
ENDBRANCH  71  72
ENDBRANCH  70  71
ENDBRANCH  69  70
ENDBRANCH   1  69
TORSDOF 20
ENDMDL
MODEL 3
REMARK VINA RESULT:     -10.1      3.111      9.566
REMARK SMILES O=C(OCCOCCOC(=O)[C@H]1CC=CC[C@H]1C(=O)N[C@@H]1CCN(c2cccc(Cl)c2)C1)c1ccc(-c2c3nc(c(-c4ccc(S(=O)(=O)[O-])cc4)c4ccc([nH]4)c(-c4ccc(S(=O)(=O)[O-])cc4)c4nc(c(-c5ccc(S(=O)(=O)[O-])cc5)c5ccc2[nH]5)C=C4)C=C3)cc1
REMARK SMILES IDX 6 1 5 2 4 3 3 4 2 5 1 6 33 7 34 8 92 9 35 10 91 11 36 12
REMARK SMILES IDX 37 13 38 14 85 15 39 16 90 17 84 18 86 19 40 20 89 21 83 22
REMARK SMILES IDX 82 23 41 25 71 26 52 27 70 28 53 29 56 30 69 31 87 32 54 33
REMARK SMILES IDX 55 34 68 36 88 37 57 38 42 39 43 40 51 41 44 42 50 43 45 44
REMARK SMILES IDX 46 45 47 46 48 47 49 48 72 49 73 50 81 51 74 52 80 53 75 54
REMARK SMILES IDX 76 55 77 56 78 57 79 58 58 59 59 60 67 61 60 62 66 63 61 64
REMARK SMILES IDX 62 65 63 66 64 67 65 68 7 69 8 70 9 71 10 72 11 73 12 74
REMARK SMILES IDX 13 75 17 76 14 77 16 78 15 79 18 80 19 81 20 82 21 84 22 85
REMARK SMILES IDX 32 86 23 87 24 88 25 89 26 90 31 91 27 92 29 93 28 94 30 95
REMARK H PARENT 86 24 56 35 20 83
REMARK Flexibility Score: inf
ROOT
ATOM      1  O   UNL A   1      37.858  19.551  24.696  1.00  0.00    -0.374 OA
ENDROOT
BRANCH   1   2
ATOM      2  C   UNL A   1      38.754  19.195  25.747  1.00  0.00     0.202 C 
BRANCH   2   3
ATOM      3  C   UNL A   1      40.116  19.922  25.743  1.00  0.00     0.261 C 
BRANCH   3   4
ATOM      4  O   UNL A   1      40.076  21.174  26.505  1.00  0.00    -0.460 OA
BRANCH   4   5
ATOM      5  C   UNL A   1      39.453  22.366  26.338  1.00  0.00     0.338 C 
ATOM      6  O   UNL A   1      38.642  22.582  25.444  1.00  0.00    -0.246 OA
BRANCH   5   7
ATOM      7  C   UNL A   1      39.784  23.375  27.332  1.00  0.00     0.060 A 
ATOM      8  C   UNL A   1      38.983  24.489  27.335  1.00  0.00     0.016 A 
ATOM      9  C   UNL A   1      41.019  23.356  27.984  1.00  0.00     0.016 A 
ATOM     10  C   UNL A   1      39.632  25.677  27.515  1.00  0.00     0.010 A 
ATOM     11  C   UNL A   1      41.535  24.559  28.471  1.00  0.00     0.010 A 
ATOM     12  C   UNL A   1      40.894  25.754  28.130  1.00  0.00    -0.014 A 
BRANCH  12  13
ATOM     13  C   UNL A   1      41.479  27.115  28.275  1.00  0.00     0.031 A 
ATOM     14  C   UNL A   1      40.820  28.165  29.129  1.00  0.00     0.074 A 
ATOM     15  C   UNL A   1      42.741  27.285  27.819  1.00  0.00     0.049 A 
ATOM     16  N   UNL A   1      41.220  29.392  29.334  1.00  0.00    -0.248 NA
ATOM     17  C   UNL A   1      39.551  27.841  29.807  1.00  0.00     0.031 C 
ATOM     18  C   UNL A   1      43.480  26.299  27.012  1.00  0.00     0.029 A 
ATOM     19  N   UNL A   1      43.692  28.222  28.111  1.00  0.00    -0.354 N 
ATOM     20  C   UNL A   1      40.205  30.015  30.052  1.00  0.00     0.074 A 
ATOM     21  C   UNL A   1      39.191  29.018  30.304  1.00  0.00     0.031 C 
ATOM     22  C   UNL A   1      44.789  26.518  27.148  1.00  0.00     0.029 A 
ATOM     23  C   UNL A   1      44.968  27.815  27.776  1.00  0.00     0.049 A 
ATOM     24  H   UNL A   1      43.489  29.094  28.519  1.00  0.00     0.167 HD
ATOM     25  C   UNL A   1      40.134  31.318  30.411  1.00  0.00     0.031 A 
ATOM     26  C   UNL A   1      46.148  28.450  27.892  1.00  0.00     0.031 A 
ATOM     27  C   UNL A   1      41.211  32.243  30.164  1.00  0.00     0.049 A 
ATOM     28  C   UNL A   1      46.069  29.873  28.346  1.00  0.00     0.074 A 
ATOM     29  C   UNL A   1      41.247  33.614  30.331  1.00  0.00     0.029 A 
ATOM     30  N   UNL A   1      42.474  31.859  29.724  1.00  0.00    -0.354 N 
ATOM     31  N   UNL A   1      45.027  30.520  28.818  1.00  0.00    -0.248 NA
ATOM     32  C   UNL A   1      47.277  30.683  28.188  1.00  0.00     0.031 C 
ATOM     33  C   UNL A   1      42.526  34.060  29.970  1.00  0.00     0.029 A 
ATOM     34  C   UNL A   1      43.302  32.962  29.626  1.00  0.00     0.049 A 
ATOM     35  H   UNL A   1      42.740  30.936  29.514  1.00  0.00     0.167 HD
ATOM     36  C   UNL A   1      45.428  31.838  28.935  1.00  0.00     0.074 A 
ATOM     37  C   UNL A   1      46.837  31.873  28.574  1.00  0.00     0.031 C 
ATOM     38  C   UNL A   1      44.692  32.932  29.250  1.00  0.00     0.031 A 
BRANCH  25  39
ATOM     39  C   UNL A   1      38.836  31.822  30.987  1.00  0.00    -0.014 A 
ATOM     40  C   UNL A   1      37.761  32.227  30.176  1.00  0.00     0.010 A 
ATOM     41  C   UNL A   1      38.691  31.892  32.387  1.00  0.00     0.010 A 
ATOM     42  C   UNL A   1      36.584  32.724  30.753  1.00  0.00     0.020 A 
ATOM     43  C   UNL A   1      37.511  32.368  32.968  1.00  0.00     0.020 A 
ATOM     44  C   UNL A   1      36.470  32.798  32.146  1.00  0.00     0.054 A 
BRANCH  44  45
ATOM     45  S   UNL A   1      34.936  33.445  32.870  1.00  0.00     0.124 S 
ATOM     46  O   UNL A   1      35.093  33.089  34.278  1.00  0.00    -0.237 OA
ATOM     47  O   UNL A   1      35.016  34.874  32.573  1.00  0.00    -0.237 OA
ATOM     48  O   UNL A   1      33.884  32.724  32.158  1.00  0.00    -0.744 OA
ENDBRANCH  44  45
ENDBRANCH  25  39
BRANCH  26  49
ATOM     49  C   UNL A   1      47.404  27.822  27.383  1.00  0.00    -0.014 A 
ATOM     50  C   UNL A   1      47.854  28.023  26.069  1.00  0.00     0.010 A 
ATOM     51  C   UNL A   1      48.200  27.047  28.254  1.00  0.00     0.010 A 
ATOM     52  C   UNL A   1      49.079  27.484  25.646  1.00  0.00     0.020 A 
ATOM     53  C   UNL A   1      49.443  26.556  27.856  1.00  0.00     0.020 A 
ATOM     54  C   UNL A   1      49.870  26.764  26.547  1.00  0.00     0.054 A 
BRANCH  54  55
ATOM     55  S   UNL A   1      51.495  26.143  26.031  1.00  0.00     0.124 S 
ATOM     56  O   UNL A   1      52.398  27.081  26.689  1.00  0.00    -0.237 OA
ATOM     57  O   UNL A   1      51.505  24.779  26.556  1.00  0.00    -0.237 OA
ATOM     58  O   UNL A   1      51.443  26.237  24.573  1.00  0.00    -0.744 OA
ENDBRANCH  54  55
ENDBRANCH  26  49
BRANCH  38  59
ATOM     59  C   UNL A   1      45.429  34.234  29.207  1.00  0.00    -0.014 A 
ATOM     60  C   UNL A   1      46.009  34.764  30.373  1.00  0.00     0.010 A 
ATOM     61  C   UNL A   1      45.521  34.934  27.995  1.00  0.00     0.010 A 
ATOM     62  C   UNL A   1      46.632  36.009  30.334  1.00  0.00     0.020 A 
ATOM     63  C   UNL A   1      46.162  36.169  27.950  1.00  0.00     0.020 A 
ATOM     64  C   UNL A   1      46.695  36.708  29.123  1.00  0.00     0.054 A 
BRANCH  64  65
ATOM     65  S   UNL A   1      47.506  38.327  29.091  1.00  0.00     0.124 S 
ATOM     66  O   UNL A   1      48.905  37.958  28.897  1.00  0.00    -0.237 OA
ATOM     67  O   UNL A   1      46.865  38.987  27.956  1.00  0.00    -0.237 OA
ATOM     68  O   UNL A   1      47.183  38.897  30.398  1.00  0.00    -0.744 OA
ENDBRANCH  64  65
ENDBRANCH  38  59
ENDBRANCH  12  13
ENDBRANCH   5   7
ENDBRANCH   4   5
ENDBRANCH   3   4
ENDBRANCH   2   3
ENDBRANCH   1   2
BRANCH   1  69
ATOM     69  C   UNL A   1      36.515  19.056  24.791  1.00  0.00     0.202 C 
BRANCH  69  70
ATOM     70  C   UNL A   1      35.444  20.149  24.905  1.00  0.00     0.261 C 
BRANCH  70  71
ATOM     71  O   UNL A   1      35.998  21.349  25.487  1.00  0.00    -0.463 OA
BRANCH  71  72
ATOM     72  C   UNL A   1      35.105  22.269  25.931  1.00  0.00     0.310 C 
ATOM     73  O   UNL A   1      35.425  23.316  26.486  1.00  0.00    -0.252 OA
BRANCH  72  74
ATOM     74  C   UNL A   1      33.668  22.015  25.460  1.00  0.00     0.115 C 
ATOM     75  C   UNL A   1      32.785  21.976  26.734  1.00  0.00     0.043 C 
ATOM     76  C   UNL A   1      33.080  22.707  24.180  1.00  0.00     0.096 C 
ATOM     77  C   UNL A   1      31.472  22.675  26.683  1.00  0.00    -0.030 C 
ATOM     78  C   UNL A   1      31.558  22.975  24.205  1.00  0.00     0.041 C 
ATOM     79  C   UNL A   1      30.911  23.094  25.548  1.00  0.00    -0.030 C 
BRANCH  76  80
ATOM     80  C   UNL A   1      33.922  23.761  23.398  1.00  0.00     0.224 C 
ATOM     81  O   UNL A   1      34.874  23.411  22.701  1.00  0.00    -0.275 OA
ATOM     82  N   UNL A   1      33.526  25.098  23.381  1.00  0.00    -0.351 N 
ATOM     83  H   UNL A   1      32.881  25.420  22.711  1.00  0.00     0.163 HD
BRANCH  82  84
ATOM     84  C   UNL A   1      34.091  26.018  24.381  1.00  0.00     0.103 C 
ATOM     85  C   UNL A   1      33.407  25.782  25.688  1.00  0.00     0.048 C 
ATOM     86  C   UNL A   1      33.945  27.589  24.226  1.00  0.00     0.141 C 
ATOM     87  C   UNL A   1      32.301  26.795  25.727  1.00  0.00     0.119 C 
ATOM     88  N   UNL A   1      32.914  27.989  25.214  1.00  0.00    -0.369 N 
BRANCH  88  89
ATOM     89  C   UNL A   1      32.598  29.225  25.724  1.00  0.00     0.038 A 
ATOM     90  C   UNL A   1      31.434  29.924  25.318  1.00  0.00     0.026 A 
ATOM     91  C   UNL A   1      33.386  29.878  26.673  1.00  0.00     0.046 A 
ATOM     92  C   UNL A   1      31.054  31.166  25.832  1.00  0.00     0.004 A 
ATOM     93  C   UNL A   1      33.030  31.142  27.175  1.00  0.00     0.043 A 
ATOM     94  C   UNL A   1      31.863  31.785  26.765  1.00  0.00     0.020 A 
ATOM     95  Cl  UNL A   1      34.057  31.929  28.312  1.00  0.00    -0.084 Cl
ENDBRANCH  88  89
ENDBRANCH  82  84
ENDBRANCH  76  80
ENDBRANCH  72  74
ENDBRANCH  71  72
ENDBRANCH  70  71
ENDBRANCH  69  70
ENDBRANCH   1  69
TORSDOF 20
ENDMDL
