MODEL 1
REMARK VINA RESULT:     -10.5      0.000      0.000
REMARK SMILES O=C(OCCOCCOC(=O)c1ccc(F)cc1-c1ccc(F)c(Cl)c1)c1ccc(-c2c3nc(c(-c4ccc(S(=O)(=O)[O-])cc4)c4ccc([nH]4)c(-c4ccc(S(=O)(=O)[O-])cc4)c4nc(c(-c5ccc(S(=O)(=O)[O-])cc5)c5ccc2[nH]5)C=C4)C=C3)cc1
REMARK SMILES IDX 5 1 4 2 3 3 2 4 1 5 27 6 28 7 86 8 29 9 85 10 30 11 31 12
REMARK SMILES IDX 32 13 79 14 33 15 84 16 78 17 80 18 34 19 83 20 77 21 76 22
REMARK SMILES IDX 35 24 65 25 46 26 64 27 47 28 50 29 63 30 81 31 48 32 49 33
REMARK SMILES IDX 62 35 82 36 51 37 36 38 37 39 45 40 38 41 44 42 39 43 40 44
REMARK SMILES IDX 41 45 42 46 43 47 66 48 67 49 75 50 68 51 74 52 69 53 70 54
REMARK SMILES IDX 71 55 72 56 73 57 52 58 53 59 61 60 54 61 60 62 55 63 56 64
REMARK SMILES IDX 57 65 58 66 59 67 6 68 7 69 8 70 9 71 10 72 11 73 12 74
REMARK SMILES IDX 13 75 18 76 14 77 17 78 15 79 16 80 19 81 20 82 26 83 21 84
REMARK SMILES IDX 24 85 22 86 25 87 23 88
REMARK H PARENT 80 23 50 34
REMARK Flexibility Score: inf
ROOT
ATOM      1  C   UNL A   1      31.854  30.163  25.583  1.00  0.00     0.202 C 
ENDROOT
BRANCH   1   2
ATOM      2  C   UNL A   1      32.180  30.093  27.081  1.00  0.00     0.261 C 
BRANCH   2   3
ATOM      3  O   UNL A   1      33.567  29.800  27.338  1.00  0.00    -0.460 OA
BRANCH   3   4
ATOM      4  C   UNL A   1      34.403  30.624  28.036  1.00  0.00     0.338 C 
ATOM      5  O   UNL A   1      34.031  31.737  28.390  1.00  0.00    -0.246 OA
BRANCH   4   6
ATOM      6  C   UNL A   1      35.788  30.175  28.345  1.00  0.00     0.060 A 
ATOM      7  C   UNL A   1      36.779  30.293  27.389  1.00  0.00     0.016 A 
ATOM      8  C   UNL A   1      36.156  29.705  29.602  1.00  0.00     0.016 A 
ATOM      9  C   UNL A   1      38.032  29.761  27.531  1.00  0.00     0.010 A 
ATOM     10  C   UNL A   1      37.499  29.369  29.843  1.00  0.00     0.010 A 
ATOM     11  C   UNL A   1      38.441  29.400  28.796  1.00  0.00    -0.014 A 
BRANCH  11  12
ATOM     12  C   UNL A   1      39.874  29.092  28.948  1.00  0.00     0.031 A 
ATOM     13  C   UNL A   1      40.763  30.127  29.548  1.00  0.00     0.074 A 
ATOM     14  C   UNL A   1      40.313  27.844  28.671  1.00  0.00     0.049 A 
ATOM     15  N   UNL A   1      42.060  30.119  29.662  1.00  0.00    -0.248 NA
ATOM     16  C   UNL A   1      40.109  31.332  30.088  1.00  0.00     0.031 C 
ATOM     17  C   UNL A   1      39.474  26.721  28.213  1.00  0.00     0.029 A 
ATOM     18  N   UNL A   1      41.557  27.285  28.774  1.00  0.00    -0.354 N 
ATOM     19  C   UNL A   1      42.384  31.336  30.242  1.00  0.00     0.074 A 
ATOM     20  C   UNL A   1      41.153  32.063  30.448  1.00  0.00     0.031 C 
ATOM     21  C   UNL A   1      40.219  25.610  28.128  1.00  0.00     0.029 A 
ATOM     22  C   UNL A   1      41.602  25.960  28.399  1.00  0.00     0.049 A 
ATOM     23  H   UNL A   1      42.347  27.782  29.086  1.00  0.00     0.167 HD
ATOM     24  C   UNL A   1      43.613  31.796  30.561  1.00  0.00     0.031 A 
ATOM     25  C   UNL A   1      42.655  25.139  28.233  1.00  0.00     0.031 A 
ATOM     26  C   UNL A   1      44.811  31.034  30.344  1.00  0.00     0.049 A 
ATOM     27  C   UNL A   1      44.017  25.720  28.491  1.00  0.00     0.074 A 
ATOM     28  C   UNL A   1      46.124  31.410  30.547  1.00  0.00     0.029 A 
ATOM     29  N   UNL A   1      44.831  29.723  29.883  1.00  0.00    -0.354 N 
ATOM     30  N   UNL A   1      44.329  26.916  28.937  1.00  0.00    -0.248 NA
ATOM     31  C   UNL A   1      45.168  24.857  28.206  1.00  0.00     0.031 C 
ATOM     32  C   UNL A   1      46.940  30.342  30.163  1.00  0.00     0.029 A 
ATOM     33  C   UNL A   1      46.135  29.277  29.782  1.00  0.00     0.049 A 
ATOM     34  H   UNL A   1      44.034  29.189  29.661  1.00  0.00     0.167 HD
ATOM     35  C   UNL A   1      45.714  26.944  29.003  1.00  0.00     0.074 A 
ATOM     36  C   UNL A   1      46.174  25.632  28.583  1.00  0.00     0.031 C 
ATOM     37  C   UNL A   1      46.539  27.959  29.362  1.00  0.00     0.031 A 
BRANCH  24  38
ATOM     38  C   UNL A   1      43.704  33.194  31.100  1.00  0.00    -0.014 A 
ATOM     39  C   UNL A   1      43.864  34.301  30.247  1.00  0.00     0.010 A 
ATOM     40  C   UNL A   1      43.640  33.402  32.489  1.00  0.00     0.010 A 
ATOM     41  C   UNL A   1      43.982  35.588  30.777  1.00  0.00     0.020 A 
ATOM     42  C   UNL A   1      43.730  34.689  33.021  1.00  0.00     0.020 A 
ATOM     43  C   UNL A   1      43.911  35.774  32.161  1.00  0.00     0.054 A 
BRANCH  43  44
ATOM     44  S   UNL A   1      44.023  37.461  32.817  1.00  0.00     0.124 S 
ATOM     45  O   UNL A   1      43.854  38.266  31.611  1.00  0.00    -0.237 OA
ATOM     46  O   UNL A   1      42.913  37.507  33.764  1.00  0.00    -0.237 OA
ATOM     47  O   UNL A   1      45.354  37.512  33.418  1.00  0.00    -0.744 OA
ENDBRANCH  43  44
ENDBRANCH  24  38
BRANCH  25  48
ATOM     48  C   UNL A   1      42.480  23.753  27.705  1.00  0.00    -0.014 A 
ATOM     49  C   UNL A   1      42.411  22.647  28.570  1.00  0.00     0.010 A 
ATOM     50  C   UNL A   1      42.427  23.526  26.316  1.00  0.00     0.010 A 
ATOM     51  C   UNL A   1      42.341  21.345  28.057  1.00  0.00     0.020 A 
ATOM     52  C   UNL A   1      42.318  22.231  25.800  1.00  0.00     0.020 A 
ATOM     53  C   UNL A   1      42.302  21.145  26.674  1.00  0.00     0.054 A 
BRANCH  53  54
ATOM     54  S   UNL A   1      42.226  19.452  26.029  1.00  0.00     0.124 S 
ATOM     55  O   UNL A   1      43.165  19.510  24.913  1.00  0.00    -0.237 OA
ATOM     56  O   UNL A   1      42.654  18.655  27.176  1.00  0.00    -0.237 OA
ATOM     57  O   UNL A   1      40.822  19.289  25.657  1.00  0.00    -0.744 OA
ENDBRANCH  53  54
ENDBRANCH  25  48
BRANCH  37  58
ATOM     58  C   UNL A   1      48.011  27.661  29.351  1.00  0.00    -0.014 A 
ATOM     59  C   UNL A   1      48.786  27.867  28.197  1.00  0.00     0.010 A 
ATOM     60  C   UNL A   1      48.626  27.200  30.529  1.00  0.00     0.010 A 
ATOM     61  C   UNL A   1      50.149  27.573  28.209  1.00  0.00     0.020 A 
ATOM     62  C   UNL A   1      49.995  26.941  30.554  1.00  0.00     0.020 A 
ATOM     63  C   UNL A   1      50.745  27.112  29.388  1.00  0.00     0.054 A 
BRANCH  63  64
ATOM     64  S   UNL A   1      52.523  26.769  29.388  1.00  0.00     0.124 S 
ATOM     65  O   UNL A   1      53.091  28.109  29.509  1.00  0.00    -0.237 OA
ATOM     66  O   UNL A   1      52.683  25.910  30.559  1.00  0.00    -0.237 OA
ATOM     67  O   UNL A   1      52.749  26.110  28.104  1.00  0.00    -0.744 OA
ENDBRANCH  63  64
ENDBRANCH  37  58
ENDBRANCH  11  12
ENDBRANCH   4   6
ENDBRANCH   3   4
ENDBRANCH   2   3
ENDBRANCH   1   2
BRANCH   1  68
ATOM     68  O   UNL A   1      32.836  29.686  24.682  1.00  0.00    -0.374 OA
BRANCH  68  69
ATOM     69  C   UNL A   1      32.440  28.674  23.775  1.00  0.00     0.202 C 
BRANCH  69  70
ATOM     70  C   UNL A   1      33.619  27.727  23.612  1.00  0.00     0.261 C 
BRANCH  70  71
ATOM     71  O   UNL A   1      33.240  26.432  24.113  1.00  0.00    -0.460 OA
BRANCH  71  72
ATOM     72  C   UNL A   1      33.282  26.221  25.461  1.00  0.00     0.338 C 
ATOM     73  O   UNL A   1      33.909  26.843  26.298  1.00  0.00    -0.246 OA
BRANCH  72  74
ATOM     74  C   UNL A   1      32.353  25.095  25.745  1.00  0.00     0.068 A 
ATOM     75  C   UNL A   1      31.037  25.471  26.101  1.00  0.00     0.019 A 
ATOM     76  C   UNL A   1      32.726  23.727  25.734  1.00  0.00    -0.001 A 
ATOM     77  C   UNL A   1      30.094  24.520  26.464  1.00  0.00     0.040 A 
ATOM     78  C   UNL A   1      31.733  22.787  26.085  1.00  0.00     0.048 A 
ATOM     79  C   UNL A   1      30.451  23.184  26.448  1.00  0.00     0.123 A 
ATOM     80  F   UNL A   1      29.552  22.259  26.803  1.00  0.00    -0.207 F 
BRANCH  76  81
ATOM     81  C   UNL A   1      34.070  23.170  25.467  1.00  0.00    -0.016 A 
ATOM     82  C   UNL A   1      34.246  22.227  24.427  1.00  0.00     0.012 A 
ATOM     83  C   UNL A   1      35.221  23.652  26.112  1.00  0.00     0.032 A 
ATOM     84  C   UNL A   1      35.510  21.724  24.100  1.00  0.00     0.041 A 
ATOM     85  C   UNL A   1      36.493  23.187  25.746  1.00  0.00     0.077 A 
ATOM     86  C   UNL A   1      36.629  22.212  24.760  1.00  0.00     0.141 A 
ATOM     87  Cl  UNL A   1      37.891  23.873  26.483  1.00  0.00    -0.081 Cl
ATOM     88  F   UNL A   1      37.836  21.746  24.407  1.00  0.00    -0.205 F 
ENDBRANCH  76  81
ENDBRANCH  72  74
ENDBRANCH  71  72
ENDBRANCH  70  71
ENDBRANCH  69  70
ENDBRANCH  68  69
ENDBRANCH   1  68
TORSDOF 18
ENDMDL
MODEL 2
REMARK VINA RESULT:     -10.4      1.426      2.523
REMARK SMILES O=C(OCCOCCOC(=O)c1ccc(F)cc1-c1ccc(F)c(Cl)c1)c1ccc(-c2c3nc(c(-c4ccc(S(=O)(=O)[O-])cc4)c4ccc([nH]4)c(-c4ccc(S(=O)(=O)[O-])cc4)c4nc(c(-c5ccc(S(=O)(=O)[O-])cc5)c5ccc2[nH]5)C=C4)C=C3)cc1
REMARK SMILES IDX 5 1 4 2 3 3 2 4 1 5 27 6 28 7 86 8 29 9 85 10 30 11 31 12
REMARK SMILES IDX 32 13 79 14 33 15 84 16 78 17 80 18 34 19 83 20 77 21 76 22
REMARK SMILES IDX 35 24 65 25 46 26 64 27 47 28 50 29 63 30 81 31 48 32 49 33
REMARK SMILES IDX 62 35 82 36 51 37 36 38 37 39 45 40 38 41 44 42 39 43 40 44
REMARK SMILES IDX 41 45 42 46 43 47 66 48 67 49 75 50 68 51 74 52 69 53 70 54
REMARK SMILES IDX 71 55 72 56 73 57 52 58 53 59 61 60 54 61 60 62 55 63 56 64
REMARK SMILES IDX 57 65 58 66 59 67 6 68 7 69 8 70 9 71 10 72 11 73 12 74
REMARK SMILES IDX 13 75 18 76 14 77 17 78 15 79 16 80 19 81 20 82 26 83 21 84
REMARK SMILES IDX 24 85 22 86 25 87 23 88
REMARK H PARENT 80 23 50 34
REMARK Flexibility Score: inf
ROOT
ATOM      1  C   UNL A   1      32.185  29.445  25.444  1.00  0.00     0.202 C 
ENDROOT
BRANCH   1   2
ATOM      2  C   UNL A   1      32.425  30.382  26.635  1.00  0.00     0.261 C 
BRANCH   2   3
ATOM      3  O   UNL A   1      33.464  29.910  27.516  1.00  0.00    -0.460 OA
BRANCH   3   4
ATOM      4  C   UNL A   1      34.335  30.731  28.175  1.00  0.00     0.338 C 
ATOM      5  O   UNL A   1      33.992  31.856  28.520  1.00  0.00    -0.246 OA
BRANCH   4   6
ATOM      6  C   UNL A   1      35.720  30.263  28.449  1.00  0.00     0.060 A 
ATOM      7  C   UNL A   1      36.721  30.492  27.523  1.00  0.00     0.016 A 
ATOM      8  C   UNL A   1      36.079  29.661  29.652  1.00  0.00     0.016 A 
ATOM      9  C   UNL A   1      37.977  29.959  27.622  1.00  0.00     0.010 A 
ATOM     10  C   UNL A   1      37.423  29.313  29.871  1.00  0.00     0.010 A 
ATOM     11  C   UNL A   1      38.375  29.465  28.845  1.00  0.00    -0.014 A 
BRANCH  11  12
ATOM     12  C   UNL A   1      39.809  29.155  28.980  1.00  0.00     0.031 A 
ATOM     13  C   UNL A   1      40.708  30.189  29.566  1.00  0.00     0.074 A 
ATOM     14  C   UNL A   1      40.243  27.905  28.700  1.00  0.00     0.049 A 
ATOM     15  N   UNL A   1      42.006  30.179  29.664  1.00  0.00    -0.248 NA
ATOM     16  C   UNL A   1      40.063  31.397  30.112  1.00  0.00     0.031 C 
ATOM     17  C   UNL A   1      39.396  26.783  28.256  1.00  0.00     0.029 A 
ATOM     18  N   UNL A   1      41.487  27.344  28.789  1.00  0.00    -0.354 N 
ATOM     19  C   UNL A   1      42.340  31.397  30.237  1.00  0.00     0.074 A 
ATOM     20  C   UNL A   1      41.113  32.127  30.457  1.00  0.00     0.031 C 
ATOM     21  C   UNL A   1      40.137  25.670  28.164  1.00  0.00     0.029 A 
ATOM     22  C   UNL A   1      41.524  26.018  28.417  1.00  0.00     0.049 A 
ATOM     23  H   UNL A   1      42.282  27.840  29.090  1.00  0.00     0.167 HD
ATOM     24  C   UNL A   1      43.574  31.856  30.539  1.00  0.00     0.031 A 
ATOM     25  C   UNL A   1      42.574  25.195  28.240  1.00  0.00     0.031 A 
ATOM     26  C   UNL A   1      44.768  31.090  30.309  1.00  0.00     0.049 A 
ATOM     27  C   UNL A   1      43.940  25.773  28.479  1.00  0.00     0.074 A 
ATOM     28  C   UNL A   1      46.084  31.463  30.495  1.00  0.00     0.029 A 
ATOM     29  N   UNL A   1      44.779  29.778  29.851  1.00  0.00    -0.354 N 
ATOM     30  N   UNL A   1      44.260  26.969  28.919  1.00  0.00    -0.248 NA
ATOM     31  C   UNL A   1      45.085  24.907  28.182  1.00  0.00     0.031 C 
ATOM     32  C   UNL A   1      46.893  30.393  30.103  1.00  0.00     0.029 A 
ATOM     33  C   UNL A   1      46.081  29.329  29.735  1.00  0.00     0.049 A 
ATOM     34  H   UNL A   1      43.978  29.245  29.641  1.00  0.00     0.167 HD
ATOM     35  C   UNL A   1      45.646  26.995  28.967  1.00  0.00     0.074 A 
ATOM     36  C   UNL A   1      46.097  25.681  28.545  1.00  0.00     0.031 C 
ATOM     37  C   UNL A   1      46.477  28.009  29.314  1.00  0.00     0.031 A 
BRANCH  24  38
ATOM     38  C   UNL A   1      43.675  33.254  31.074  1.00  0.00    -0.014 A 
ATOM     39  C   UNL A   1      43.724  34.367  30.215  1.00  0.00     0.010 A 
ATOM     40  C   UNL A   1      43.733  33.457  32.464  1.00  0.00     0.010 A 
ATOM     41  C   UNL A   1      43.854  35.655  30.737  1.00  0.00     0.020 A 
ATOM     42  C   UNL A   1      43.836  34.746  32.991  1.00  0.00     0.020 A 
ATOM     43  C   UNL A   1      43.906  35.837  32.123  1.00  0.00     0.054 A 
BRANCH  43  44
ATOM     44  S   UNL A   1      44.030  37.525  32.773  1.00  0.00     0.124 S 
ATOM     45  O   UNL A   1      43.849  38.328  31.567  1.00  0.00    -0.237 OA
ATOM     46  O   UNL A   1      42.930  37.577  33.733  1.00  0.00    -0.237 OA
ATOM     47  O   UNL A   1      45.368  37.575  33.359  1.00  0.00    -0.744 OA
ENDBRANCH  43  44
ENDBRANCH  24  38
BRANCH  25  48
ATOM     48  C   UNL A   1      42.389  23.808  27.717  1.00  0.00    -0.014 A 
ATOM     49  C   UNL A   1      42.277  22.709  28.588  1.00  0.00     0.010 A 
ATOM     50  C   UNL A   1      42.370  23.570  26.329  1.00  0.00     0.010 A 
ATOM     51  C   UNL A   1      42.199  21.405  28.083  1.00  0.00     0.020 A 
ATOM     52  C   UNL A   1      42.253  22.274  25.819  1.00  0.00     0.020 A 
ATOM     53  C   UNL A   1      42.195  21.196  26.701  1.00  0.00     0.054 A 
BRANCH  53  54
ATOM     54  S   UNL A   1      42.107  19.498  26.066  1.00  0.00     0.124 S 
ATOM     55  O   UNL A   1      42.574  18.722  27.210  1.00  0.00    -0.237 OA
ATOM     56  O   UNL A   1      40.690  19.355  25.739  1.00  0.00    -0.237 OA
ATOM     57  O   UNL A   1      43.005  19.516  24.913  1.00  0.00    -0.744 OA
ENDBRANCH  53  54
ENDBRANCH  25  48
BRANCH  37  58
ATOM     58  C   UNL A   1      47.948  27.708  29.284  1.00  0.00    -0.014 A 
ATOM     59  C   UNL A   1      48.643  27.361  30.455  1.00  0.00     0.010 A 
ATOM     60  C   UNL A   1      48.630  27.741  28.054  1.00  0.00     0.010 A 
ATOM     61  C   UNL A   1      50.011  27.095  30.403  1.00  0.00     0.020 A 
ATOM     62  C   UNL A   1      49.989  27.439  27.994  1.00  0.00     0.020 A 
ATOM     63  C   UNL A   1      50.675  27.135  29.172  1.00  0.00     0.054 A 
BRANCH  63  64
ATOM     64  S   UNL A   1      52.445  26.754  29.126  1.00  0.00     0.124 S 
ATOM     65  O   UNL A   1      53.043  28.084  29.200  1.00  0.00    -0.237 OA
ATOM     66  O   UNL A   1      52.622  25.917  30.310  1.00  0.00    -0.237 OA
ATOM     67  O   UNL A   1      52.618  26.063  27.851  1.00  0.00    -0.744 OA
ENDBRANCH  63  64
ENDBRANCH  37  58
ENDBRANCH  11  12
ENDBRANCH   4   6
ENDBRANCH   3   4
ENDBRANCH   2   3
ENDBRANCH   1   2
BRANCH   1  68
ATOM     68  O   UNL A   1      33.285  29.181  24.593  1.00  0.00    -0.374 OA
BRANCH  68  69
ATOM     69  C   UNL A   1      33.461  27.843  24.164  1.00  0.00     0.202 C 
BRANCH  69  70
ATOM     70  C   UNL A   1      33.547  26.978  25.412  1.00  0.00     0.261 C 
BRANCH  70  71
ATOM     71  O   UNL A   1      34.251  25.766  25.081  1.00  0.00    -0.460 OA
BRANCH  71  72
ATOM     72  C   UNL A   1      34.088  24.680  25.891  1.00  0.00     0.338 C 
ATOM     73  O   UNL A   1      33.148  24.422  26.619  1.00  0.00    -0.246 OA
BRANCH  72  74
ATOM     74  C   UNL A   1      35.274  23.808  25.680  1.00  0.00     0.068 A 
ATOM     75  C   UNL A   1      36.465  24.244  26.306  1.00  0.00     0.019 A 
ATOM     76  C   UNL A   1      35.278  22.645  24.868  1.00  0.00    -0.001 A 
ATOM     77  C   UNL A   1      37.660  23.562  26.125  1.00  0.00     0.040 A 
ATOM     78  C   UNL A   1      36.507  21.964  24.729  1.00  0.00     0.048 A 
ATOM     79  C   UNL A   1      37.668  22.423  25.340  1.00  0.00     0.123 A 
ATOM     80  F   UNL A   1      38.816  21.762  25.153  1.00  0.00    -0.207 F 
BRANCH  76  81
ATOM     81  C   UNL A   1      34.149  22.100  24.083  1.00  0.00    -0.016 A 
ATOM     82  C   UNL A   1      33.665  22.813  22.961  1.00  0.00     0.012 A 
ATOM     83  C   UNL A   1      33.625  20.819  24.317  1.00  0.00     0.032 A 
ATOM     84  C   UNL A   1      32.642  22.303  22.155  1.00  0.00     0.041 A 
ATOM     85  C   UNL A   1      32.638  20.285  23.476  1.00  0.00     0.077 A 
ATOM     86  C   UNL A   1      32.137  21.037  22.415  1.00  0.00     0.141 A 
ATOM     87  Cl  UNL A   1      32.091  18.671  23.727  1.00  0.00    -0.081 Cl
ATOM     88  F   UNL A   1      31.183  20.549  21.608  1.00  0.00    -0.205 F 
ENDBRANCH  76  81
ENDBRANCH  72  74
ENDBRANCH  71  72
ENDBRANCH  70  71
ENDBRANCH  69  70
ENDBRANCH  68  69
ENDBRANCH   1  68
TORSDOF 18
ENDMDL
MODEL 3
REMARK VINA RESULT:     -10.4      3.198      9.479
REMARK SMILES O=C(OCCOCCOC(=O)c1ccc(F)cc1-c1ccc(F)c(Cl)c1)c1ccc(-c2c3nc(c(-c4ccc(S(=O)(=O)[O-])cc4)c4ccc([nH]4)c(-c4ccc(S(=O)(=O)[O-])cc4)c4nc(c(-c5ccc(S(=O)(=O)[O-])cc5)c5ccc2[nH]5)C=C4)C=C3)cc1
REMARK SMILES IDX 5 1 4 2 3 3 2 4 1 5 27 6 28 7 86 8 29 9 85 10 30 11 31 12
REMARK SMILES IDX 32 13 79 14 33 15 84 16 78 17 80 18 34 19 83 20 77 21 76 22
REMARK SMILES IDX 35 24 65 25 46 26 64 27 47 28 50 29 63 30 81 31 48 32 49 33
REMARK SMILES IDX 62 35 82 36 51 37 36 38 37 39 45 40 38 41 44 42 39 43 40 44
REMARK SMILES IDX 41 45 42 46 43 47 66 48 67 49 75 50 68 51 74 52 69 53 70 54
REMARK SMILES IDX 71 55 72 56 73 57 52 58 53 59 61 60 54 61 60 62 55 63 56 64
REMARK SMILES IDX 57 65 58 66 59 67 6 68 7 69 8 70 9 71 10 72 11 73 12 74
REMARK SMILES IDX 13 75 18 76 14 77 17 78 15 79 16 80 19 81 20 82 26 83 21 84
REMARK SMILES IDX 24 85 22 86 25 87 23 88
REMARK H PARENT 80 23 50 34
REMARK Flexibility Score: inf
ROOT
ATOM      1  C   UNL A   1      35.776  21.836  24.371  1.00  0.00     0.202 C 
ENDROOT
BRANCH   1   2
ATOM      2  C   UNL A   1      36.954  21.655  25.338  1.00  0.00     0.261 C 
BRANCH   2   3
ATOM      3  O   UNL A   1      37.766  22.839  25.457  1.00  0.00    -0.460 OA
BRANCH   3   4
ATOM      4  C   UNL A   1      38.929  22.897  26.172  1.00  0.00     0.338 C 
ATOM      5  O   UNL A   1      39.612  21.892  26.334  1.00  0.00    -0.246 OA
BRANCH   4   6
ATOM      6  C   UNL A   1      39.353  24.186  26.781  1.00  0.00     0.060 A 
ATOM      7  C   UNL A   1      39.132  24.419  28.126  1.00  0.00     0.016 A 
ATOM      8  C   UNL A   1      40.046  25.157  26.064  1.00  0.00     0.016 A 
ATOM      9  C   UNL A   1      39.343  25.629  28.728  1.00  0.00     0.010 A 
ATOM     10  C   UNL A   1      40.481  26.319  26.725  1.00  0.00     0.010 A 
ATOM     11  C   UNL A   1      40.125  26.552  28.067  1.00  0.00    -0.014 A 
BRANCH  11  12
ATOM     12  C   UNL A   1      40.550  27.721  28.856  1.00  0.00     0.031 A 
ATOM     13  C   UNL A   1      41.942  27.754  29.385  1.00  0.00     0.074 A 
ATOM     14  C   UNL A   1      39.718  28.782  28.961  1.00  0.00     0.049 A 
ATOM     15  N   UNL A   1      42.485  28.615  30.197  1.00  0.00    -0.248 NA
ATOM     16  C   UNL A   1      42.845  26.675  28.945  1.00  0.00     0.031 C 
ATOM     17  C   UNL A   1      38.382  28.891  28.347  1.00  0.00     0.029 A 
ATOM     18  N   UNL A   1      39.880  29.994  29.577  1.00  0.00    -0.354 N 
ATOM     19  C   UNL A   1      43.777  28.157  30.406  1.00  0.00     0.074 A 
ATOM     20  C   UNL A   1      43.937  26.939  29.646  1.00  0.00     0.031 C 
ATOM     21  C   UNL A   1      37.880  30.112  28.576  1.00  0.00     0.029 A 
ATOM     22  C   UNL A   1      38.791  30.827  29.453  1.00  0.00     0.049 A 
ATOM     23  H   UNL A   1      40.697  30.246  30.064  1.00  0.00     0.167 HD
ATOM     24  C   UNL A   1      44.735  28.714  31.179  1.00  0.00     0.031 A 
ATOM     25  C   UNL A   1      38.532  32.012  30.035  1.00  0.00     0.031 A 
ATOM     26  C   UNL A   1      44.532  29.932  31.913  1.00  0.00     0.049 A 
ATOM     27  C   UNL A   1      39.574  32.548  30.976  1.00  0.00     0.074 A 
ATOM     28  C   UNL A   1      45.388  30.563  32.794  1.00  0.00     0.029 A 
ATOM     29  N   UNL A   1      43.385  30.712  31.832  1.00  0.00    -0.354 N 
ATOM     30  N   UNL A   1      40.758  32.054  31.259  1.00  0.00    -0.248 NA
ATOM     31  C   UNL A   1      39.245  33.785  31.692  1.00  0.00     0.031 C 
ATOM     32  C   UNL A   1      44.738  31.700  33.283  1.00  0.00     0.029 A 
ATOM     33  C   UNL A   1      43.503  31.814  32.658  1.00  0.00     0.049 A 
ATOM     34  H   UNL A   1      42.603  30.511  31.269  1.00  0.00     0.167 HD
ATOM     35  C   UNL A   1      41.324  32.928  32.175  1.00  0.00     0.074 A 
ATOM     36  C   UNL A   1      40.363  34.000  32.369  1.00  0.00     0.031 C 
ATOM     37  C   UNL A   1      42.519  32.854  32.812  1.00  0.00     0.031 A 
BRANCH  24  38
ATOM     38  C   UNL A   1      46.030  27.969  31.311  1.00  0.00    -0.014 A 
ATOM     39  C   UNL A   1      47.117  28.228  30.456  1.00  0.00     0.010 A 
ATOM     40  C   UNL A   1      46.159  26.981  32.303  1.00  0.00     0.010 A 
ATOM     41  C   UNL A   1      48.300  27.496  30.577  1.00  0.00     0.020 A 
ATOM     42  C   UNL A   1      47.349  26.265  32.445  1.00  0.00     0.020 A 
ATOM     43  C   UNL A   1      48.409  26.520  31.573  1.00  0.00     0.054 A 
BRANCH  43  44
ATOM     44  S   UNL A   1      49.972  25.615  31.735  1.00  0.00     0.124 S 
ATOM     45  O   UNL A   1      49.655  24.648  32.781  1.00  0.00    -0.237 OA
ATOM     46  O   UNL A   1      50.156  25.058  30.398  1.00  0.00    -0.237 OA
ATOM     47  O   UNL A   1      50.934  26.648  32.114  1.00  0.00    -0.744 OA
ENDBRANCH  43  44
ENDBRANCH  24  38
BRANCH  25  48
ATOM     48  C   UNL A   1      37.221  32.700  29.843  1.00  0.00    -0.014 A 
ATOM     49  C   UNL A   1      36.914  33.363  28.641  1.00  0.00     0.010 A 
ATOM     50  C   UNL A   1      36.279  32.735  30.890  1.00  0.00     0.010 A 
ATOM     51  C   UNL A   1      35.720  34.083  28.509  1.00  0.00     0.020 A 
ATOM     52  C   UNL A   1      35.068  33.419  30.749  1.00  0.00     0.020 A 
ATOM     53  C   UNL A   1      34.807  34.112  29.567  1.00  0.00     0.054 A 
BRANCH  53  54
ATOM     54  S   UNL A   1      33.272  35.061  29.383  1.00  0.00     0.124 S 
ATOM     55  O   UNL A   1      32.599  34.342  28.305  1.00  0.00    -0.237 OA
ATOM     56  O   UNL A   1      32.662  34.938  30.704  1.00  0.00    -0.237 OA
ATOM     57  O   UNL A   1      33.737  36.404  29.043  1.00  0.00    -0.744 OA
ENDBRANCH  53  54
ENDBRANCH  25  48
BRANCH  37  58
ATOM     58  C   UNL A   1      42.853  33.988  33.739  1.00  0.00    -0.014 A 
ATOM     59  C   UNL A   1      42.660  33.874  35.127  1.00  0.00     0.010 A 
ATOM     60  C   UNL A   1      43.402  35.169  33.208  1.00  0.00     0.010 A 
ATOM     61  C   UNL A   1      42.970  34.945  35.965  1.00  0.00     0.020 A 
ATOM     62  C   UNL A   1      43.747  36.226  34.048  1.00  0.00     0.020 A 
ATOM     63  C   UNL A   1      43.512  36.113  35.420  1.00  0.00     0.054 A 
BRANCH  63  64
ATOM     64  S   UNL A   1      43.936  37.477  36.534  1.00  0.00     0.124 S 
ATOM     65  O   UNL A   1      42.873  37.395  37.532  1.00  0.00    -0.237 OA
ATOM     66  O   UNL A   1      45.268  37.105  37.001  1.00  0.00    -0.237 OA
ATOM     67  O   UNL A   1      43.891  38.656  35.672  1.00  0.00    -0.744 OA
ENDBRANCH  63  64
ENDBRANCH  37  58
ENDBRANCH  11  12
ENDBRANCH   4   6
ENDBRANCH   3   4
ENDBRANCH   2   3
ENDBRANCH   1   2
BRANCH   1  68
ATOM     68  O   UNL A   1      34.550  22.283  24.919  1.00  0.00    -0.374 OA
BRANCH  68  69
ATOM     69  C   UNL A   1      34.526  22.550  26.310  1.00  0.00     0.202 C 
BRANCH  69  70
ATOM     70  C   UNL A   1      33.123  23.028  26.652  1.00  0.00     0.261 C 
BRANCH  70  71
ATOM     71  O   UNL A   1      33.127  24.468  26.695  1.00  0.00    -0.460 OA
BRANCH  71  72
ATOM     72  C   UNL A   1      32.012  25.132  26.276  1.00  0.00     0.338 C 
ATOM     73  O   UNL A   1      30.984  25.338  26.896  1.00  0.00    -0.246 OA
BRANCH  72  74
ATOM     74  C   UNL A   1      32.300  25.626  24.904  1.00  0.00     0.068 A 
ATOM     75  C   UNL A   1      32.198  24.659  23.878  1.00  0.00     0.019 A 
ATOM     76  C   UNL A   1      32.710  26.950  24.600  1.00  0.00    -0.001 A 
ATOM     77  C   UNL A   1      32.515  24.973  22.564  1.00  0.00     0.040 A 
ATOM     78  C   UNL A   1      33.000  27.238  23.249  1.00  0.00     0.048 A 
ATOM     79  C   UNL A   1      32.910  26.264  22.261  1.00  0.00     0.123 A 
ATOM     80  F   UNL A   1      33.225  26.576  20.998  1.00  0.00    -0.207 F 
BRANCH  76  81
ATOM     81  C   UNL A   1      32.945  28.054  25.556  1.00  0.00    -0.016 A 
ATOM     82  C   UNL A   1      34.146  28.095  26.302  1.00  0.00     0.012 A 
ATOM     83  C   UNL A   1      32.081  29.157  25.651  1.00  0.00     0.032 A 
ATOM     84  C   UNL A   1      34.434  29.153  27.170  1.00  0.00     0.041 A 
ATOM     85  C   UNL A   1      32.397  30.244  26.479  1.00  0.00     0.077 A 
ATOM     86  C   UNL A   1      33.558  30.227  27.249  1.00  0.00     0.141 A 
ATOM     87  Cl  UNL A   1      31.370  31.627  26.494  1.00  0.00    -0.081 Cl
ATOM     88  F   UNL A   1      33.870  31.251  28.057  1.00  0.00    -0.205 F 
ENDBRANCH  76  81
ENDBRANCH  72  74
ENDBRANCH  71  72
ENDBRANCH  70  71
ENDBRANCH  69  70
ENDBRANCH  68  69
ENDBRANCH   1  68
TORSDOF 18
ENDMDL
