MODEL 1
REMARK VINA RESULT:      -9.8      0.000      0.000
REMARK SMILES CC1(C)CCC[C@@]1(C(=O)OCCOCCOC(=O)c1ccc(-c2c3nc(c(-c4ccc(S(=O)(=O)[O-])cc4)c4ccc([nH]4)c(-c4ccc(S(=O)(=O)[O-])cc4)c4nc(c(-c5ccc(S(=O)(=O)[O-])cc5)c5ccc2[nH]5)C=C4)C=C3)cc1)[NH+]1CC[NH2+]CC1
REMARK SMILES IDX 14 1 13 2 12 3 11 4 10 5 8 6 9 7 7 8 1 9 2 10 3 11 4 12 5 13
REMARK SMILES IDX 6 14 79 15 80 16 84 17 81 19 83 20 82 21 15 24 16 25 17 26
REMARK SMILES IDX 18 27 19 28 20 29 78 30 21 31 77 32 22 33 23 34 24 35 71 36
REMARK SMILES IDX 25 37 76 38 70 39 72 40 26 41 75 42 69 43 68 44 27 46 57 47
REMARK SMILES IDX 38 48 56 49 39 50 42 51 55 52 73 53 40 54 41 55 54 57 74 58
REMARK SMILES IDX 43 59 28 60 29 61 37 62 30 63 36 64 31 65 32 66 33 67 34 68
REMARK SMILES IDX 35 69 58 70 59 71 67 72 60 73 66 74 61 75 62 76 63 77 64 78
REMARK SMILES IDX 65 79 44 80 45 81 53 82 46 83 52 84 47 85 48 86 49 87 50 88
REMARK SMILES IDX 51 89
REMARK H PARENT 79 18 82 22 82 23 72 45 42 56
REMARK Flexibility Score: inf
ROOT
ATOM      1  C   UNL A   1      31.914  30.450  26.643  1.00  0.00     0.202 C 
ENDROOT
BRANCH   1   2
ATOM      2  O   UNL A   1      31.661  30.070  25.291  1.00  0.00    -0.374 OA
BRANCH   2   3
ATOM      3  C   UNL A   1      31.569  28.675  25.001  1.00  0.00     0.202 C 
BRANCH   3   4
ATOM      4  C   UNL A   1      32.536  28.132  23.948  1.00  0.00     0.261 C 
BRANCH   4   5
ATOM      5  O   UNL A   1      33.444  27.167  24.503  1.00  0.00    -0.459 OA
BRANCH   5   6
ATOM      6  C   UNL A   1      33.616  26.050  23.744  1.00  0.00     0.368 C 
ATOM      7  O   UNL A   1      33.747  26.078  22.522  1.00  0.00    -0.245 OA
BRANCH   6   8
ATOM      8  C   UNL A   1      33.612  24.717  24.581  1.00  0.00     0.201 C 
ATOM      9  C   UNL A   1      32.464  23.306  22.687  1.00  0.00     0.018 C 
ATOM     10  C   UNL A   1      32.341  23.897  24.096  1.00  0.00     0.031 C 
ATOM     11  C   UNL A   1      31.029  24.747  24.087  1.00  0.00     0.018 C 
ATOM     12  C   UNL A   1      32.151  22.836  25.199  1.00  0.00     0.014 C 
ATOM     13  C   UNL A   1      32.629  23.503  26.492  1.00  0.00     0.008 C 
ATOM     14  C   UNL A   1      33.276  24.834  26.092  1.00  0.00     0.082 C 
BRANCH   8  15
ATOM     15  N   UNL A   1      34.988  24.133  24.391  1.00  0.00    -0.311 N 
ATOM     16  C   UNL A   1      35.217  22.962  23.544  1.00  0.00     0.325 C 
ATOM     17  C   UNL A   1      35.775  24.006  25.642  1.00  0.00     0.325 C 
ATOM     18  H   UNL A   1      35.332  24.888  23.797  1.00  0.00     0.349 HD
ATOM     19  C   UNL A   1      36.731  22.721  23.298  1.00  0.00     0.322 C 
ATOM     20  C   UNL A   1      37.277  23.751  25.377  1.00  0.00     0.322 C 
ATOM     21  N   UNL A   1      37.510  22.562  24.538  1.00  0.00    -0.337 N 
ATOM     22  H   UNL A   1      38.502  22.484  24.316  1.00  0.00     0.346 HD
ATOM     23  H   UNL A   1      37.223  21.717  25.032  1.00  0.00     0.346 HD
ENDBRANCH   8  15
ENDBRANCH   6   8
ENDBRANCH   5   6
ENDBRANCH   4   5
ENDBRANCH   3   4
ENDBRANCH   2   3
ENDBRANCH   1   2
BRANCH   1  24
ATOM     24  C   UNL A   1      33.282  30.085  27.238  1.00  0.00     0.261 C 
BRANCH  24  25
ATOM     25  O   UNL A   1      34.189  31.202  27.332  1.00  0.00    -0.460 OA
BRANCH  25  26
ATOM     26  C   UNL A   1      34.863  31.271  28.507  1.00  0.00     0.338 C 
ATOM     27  O   UNL A   1      34.510  31.858  29.521  1.00  0.00    -0.246 OA
BRANCH  26  28
ATOM     28  C   UNL A   1      36.052  30.399  28.503  1.00  0.00     0.060 A 
ATOM     29  C   UNL A   1      36.403  29.791  29.716  1.00  0.00     0.016 A 
ATOM     30  C   UNL A   1      36.900  30.313  27.396  1.00  0.00     0.016 A 
ATOM     31  C   UNL A   1      37.638  29.161  29.848  1.00  0.00     0.010 A 
ATOM     32  C   UNL A   1      38.145  29.683  27.534  1.00  0.00     0.010 A 
ATOM     33  C   UNL A   1      38.541  29.153  28.776  1.00  0.00    -0.014 A 
BRANCH  33  34
ATOM     34  C   UNL A   1      39.949  28.758  29.040  1.00  0.00     0.031 A 
ATOM     35  C   UNL A   1      40.848  29.711  29.786  1.00  0.00     0.074 A 
ATOM     36  C   UNL A   1      40.397  27.534  28.708  1.00  0.00     0.049 A 
ATOM     37  N   UNL A   1      42.075  29.535  30.208  1.00  0.00    -0.248 NA
ATOM     38  C   UNL A   1      40.288  31.035  30.104  1.00  0.00     0.031 C 
ATOM     39  C   UNL A   1      39.619  26.506  28.019  1.00  0.00     0.029 A 
ATOM     40  N   UNL A   1      41.618  26.944  28.925  1.00  0.00    -0.354 N 
ATOM     41  C   UNL A   1      42.431  30.720  30.843  1.00  0.00     0.074 A 
ATOM     42  C   UNL A   1      41.305  31.620  30.719  1.00  0.00     0.031 C 
ATOM     43  C   UNL A   1      40.380  25.406  27.878  1.00  0.00     0.029 A 
ATOM     44  C   UNL A   1      41.701  25.658  28.451  1.00  0.00     0.049 A 
ATOM     45  H   UNL A   1      42.364  27.401  29.378  1.00  0.00     0.167 HD
ATOM     46  C   UNL A   1      43.584  31.031  31.481  1.00  0.00     0.031 A 
ATOM     47  C   UNL A   1      42.724  24.782  28.476  1.00  0.00     0.031 A 
ATOM     48  C   UNL A   1      44.712  30.144  31.599  1.00  0.00     0.049 A 
ATOM     49  C   UNL A   1      44.018  25.168  29.145  1.00  0.00     0.074 A 
ATOM     50  C   UNL A   1      45.920  30.366  32.238  1.00  0.00     0.029 A 
ATOM     51  N   UNL A   1      44.772  28.869  31.060  1.00  0.00    -0.354 N 
ATOM     52  N   UNL A   1      44.325  26.283  29.764  1.00  0.00    -0.248 NA
ATOM     53  C   UNL A   1      45.095  24.168  29.131  1.00  0.00     0.031 C 
ATOM     54  C   UNL A   1      46.730  29.240  32.044  1.00  0.00     0.029 A 
ATOM     55  C   UNL A   1      46.005  28.299  31.330  1.00  0.00     0.049 A 
ATOM     56  H   UNL A   1      44.046  28.432  30.560  1.00  0.00     0.167 HD
ATOM     57  C   UNL A   1      45.625  26.111  30.230  1.00  0.00     0.074 A 
ATOM     58  C   UNL A   1      46.037  24.778  29.838  1.00  0.00     0.031 C 
ATOM     59  C   UNL A   1      46.407  26.978  30.922  1.00  0.00     0.031 A 
BRANCH  46  60
ATOM     60  C   UNL A   1      43.691  32.408  32.081  1.00  0.00    -0.014 A 
ATOM     61  C   UNL A   1      43.372  32.641  33.431  1.00  0.00     0.010 A 
ATOM     62  C   UNL A   1      44.139  33.480  31.288  1.00  0.00     0.010 A 
ATOM     63  C   UNL A   1      43.459  33.929  33.966  1.00  0.00     0.020 A 
ATOM     64  C   UNL A   1      44.249  34.766  31.825  1.00  0.00     0.020 A 
ATOM     65  C   UNL A   1      43.891  34.985  33.157  1.00  0.00     0.054 A 
BRANCH  65  66
ATOM     66  S   UNL A   1      44.004  36.647  33.876  1.00  0.00     0.124 S 
ATOM     67  O   UNL A   1      44.995  37.282  33.011  1.00  0.00    -0.237 OA
ATOM     68  O   UNL A   1      42.639  37.150  33.741  1.00  0.00    -0.237 OA
ATOM     69  O   UNL A   1      44.440  36.402  35.248  1.00  0.00    -0.744 OA
ENDBRANCH  65  66
ENDBRANCH  46  60
BRANCH  47  70
ATOM     70  C   UNL A   1      42.571  23.445  27.840  1.00  0.00    -0.014 A 
ATOM     71  C   UNL A   1      42.800  23.271  26.464  1.00  0.00     0.010 A 
ATOM     72  C   UNL A   1      42.191  22.336  28.617  1.00  0.00     0.010 A 
ATOM     73  C   UNL A   1      42.638  22.013  25.874  1.00  0.00     0.020 A 
ATOM     74  C   UNL A   1      42.052  21.073  28.035  1.00  0.00     0.020 A 
ATOM     75  C   UNL A   1      42.266  20.922  26.664  1.00  0.00     0.054 A 
BRANCH  75  76
ATOM     76  S   UNL A   1      42.115  19.286  25.892  1.00  0.00     0.124 S 
ATOM     77  O   UNL A   1      40.683  19.208  25.626  1.00  0.00    -0.237 OA
ATOM     78  O   UNL A   1      42.973  19.411  24.716  1.00  0.00    -0.237 OA
ATOM     79  O   UNL A   1      42.612  18.377  26.922  1.00  0.00    -0.744 OA
ENDBRANCH  75  76
ENDBRANCH  47  70
BRANCH  59  80
ATOM     80  C   UNL A   1      47.781  26.502  31.313  1.00  0.00    -0.014 A 
ATOM     81  C   UNL A   1      48.002  25.845  32.537  1.00  0.00     0.010 A 
ATOM     82  C   UNL A   1      48.861  26.692  30.432  1.00  0.00     0.010 A 
ATOM     83  C   UNL A   1      49.287  25.426  32.892  1.00  0.00     0.020 A 
ATOM     84  C   UNL A   1      50.144  26.253  30.773  1.00  0.00     0.020 A 
ATOM     85  C   UNL A   1      50.351  25.641  32.011  1.00  0.00     0.054 A 
BRANCH  85  86
ATOM     86  S   UNL A   1      52.010  25.078  32.486  1.00  0.00     0.124 S 
ATOM     87  O   UNL A   1      52.845  25.695  31.460  1.00  0.00    -0.237 OA
ATOM     88  O   UNL A   1      52.164  25.621  33.833  1.00  0.00    -0.237 OA
ATOM     89  O   UNL A   1      51.912  23.621  32.417  1.00  0.00    -0.744 OA
ENDBRANCH  85  86
ENDBRANCH  59  80
ENDBRANCH  33  34
ENDBRANCH  26  28
ENDBRANCH  25  26
ENDBRANCH  24  25
ENDBRANCH   1  24
TORSDOF 18
ENDMDL
MODEL 2
REMARK VINA RESULT:      -9.5      3.589      9.479
REMARK SMILES CC1(C)CCC[C@@]1(C(=O)OCCOCCOC(=O)c1ccc(-c2c3nc(c(-c4ccc(S(=O)(=O)[O-])cc4)c4ccc([nH]4)c(-c4ccc(S(=O)(=O)[O-])cc4)c4nc(c(-c5ccc(S(=O)(=O)[O-])cc5)c5ccc2[nH]5)C=C4)C=C3)cc1)[NH+]1CC[NH2+]CC1
REMARK SMILES IDX 14 1 13 2 12 3 11 4 10 5 8 6 9 7 7 8 1 9 2 10 3 11 4 12 5 13
REMARK SMILES IDX 6 14 79 15 80 16 84 17 81 19 83 20 82 21 15 24 16 25 17 26
REMARK SMILES IDX 18 27 19 28 20 29 78 30 21 31 77 32 22 33 23 34 24 35 71 36
REMARK SMILES IDX 25 37 76 38 70 39 72 40 26 41 75 42 69 43 68 44 27 46 57 47
REMARK SMILES IDX 38 48 56 49 39 50 42 51 55 52 73 53 40 54 41 55 54 57 74 58
REMARK SMILES IDX 43 59 28 60 29 61 37 62 30 63 36 64 31 65 32 66 33 67 34 68
REMARK SMILES IDX 35 69 58 70 59 71 67 72 60 73 66 74 61 75 62 76 63 77 64 78
REMARK SMILES IDX 65 79 44 80 45 81 53 82 46 83 52 84 47 85 48 86 49 87 50 88
REMARK SMILES IDX 51 89
REMARK H PARENT 79 18 82 22 82 23 72 45 42 56
REMARK Flexibility Score: inf
ROOT
ATOM      1  C   UNL A   1      38.281  20.693  25.246  1.00  0.00     0.202 C 
ENDROOT
BRANCH   1   2
ATOM      2  O   UNL A   1      37.046  21.403  25.160  1.00  0.00    -0.374 OA
BRANCH   2   3
ATOM      3  C   UNL A   1      37.102  22.794  24.847  1.00  0.00     0.202 C 
BRANCH   3   4
ATOM      4  C   UNL A   1      36.325  23.733  25.772  1.00  0.00     0.261 C 
BRANCH   4   5
ATOM      5  O   UNL A   1      35.324  24.478  25.060  1.00  0.00    -0.459 OA
BRANCH   5   6
ATOM      6  C   UNL A   1      34.042  24.175  25.402  1.00  0.00     0.368 C 
ATOM      7  O   UNL A   1      33.658  24.085  26.566  1.00  0.00    -0.245 OA
BRANCH   6   8
ATOM      8  C   UNL A   1      33.103  23.931  24.162  1.00  0.00     0.201 C 
ATOM      9  C   UNL A   1      31.637  22.127  25.386  1.00  0.00     0.018 C 
ATOM     10  C   UNL A   1      32.634  22.417  24.257  1.00  0.00     0.031 C 
ATOM     11  C   UNL A   1      33.819  21.420  24.471  1.00  0.00     0.018 C 
ATOM     12  C   UNL A   1      32.080  22.120  22.849  1.00  0.00     0.014 C 
ATOM     13  C   UNL A   1      32.914  22.977  21.894  1.00  0.00     0.008 C 
ATOM     14  C   UNL A   1      33.775  23.901  22.763  1.00  0.00     0.082 C 
BRANCH   8  15
ATOM     15  N   UNL A   1      32.075  25.031  24.230  1.00  0.00    -0.311 N 
ATOM     16  C   UNL A   1      30.745  24.879  23.640  1.00  0.00     0.325 C 
ATOM     17  C   UNL A   1      32.606  26.382  23.923  1.00  0.00     0.325 C 
ATOM     18  H   UNL A   1      31.875  24.915  25.224  1.00  0.00     0.349 HD
ATOM     19  C   UNL A   1      29.792  26.028  24.071  1.00  0.00     0.322 C 
ATOM     20  C   UNL A   1      31.638  27.512  24.344  1.00  0.00     0.322 C 
ATOM     21  N   UNL A   1      30.302  27.369  23.738  1.00  0.00    -0.337 N 
ATOM     22  H   UNL A   1      29.675  28.081  24.111  1.00  0.00     0.346 HD
ATOM     23  H   UNL A   1      30.358  27.487  22.726  1.00  0.00     0.346 HD
ENDBRANCH   8  15
ENDBRANCH   6   8
ENDBRANCH   5   6
ENDBRANCH   4   5
ENDBRANCH   3   4
ENDBRANCH   2   3
ENDBRANCH   1   2
BRANCH   1  24
ATOM     24  C   UNL A   1      39.351  21.245  26.200  1.00  0.00     0.261 C 
BRANCH  24  25
ATOM     25  O   UNL A   1      40.064  20.222  26.923  1.00  0.00    -0.460 OA
BRANCH  25  26
ATOM     26  C   UNL A   1      41.285  19.929  26.409  1.00  0.00     0.338 C 
ATOM     27  O   UNL A   1      41.582  18.948  25.739  1.00  0.00    -0.246 OA
BRANCH  26  28
ATOM     28  C   UNL A   1      42.239  21.035  26.609  1.00  0.00     0.060 A 
ATOM     29  C   UNL A   1      42.497  21.426  27.929  1.00  0.00     0.016 A 
ATOM     30  C   UNL A   1      42.733  21.785  25.539  1.00  0.00     0.016 A 
ATOM     31  C   UNL A   1      43.185  22.610  28.184  1.00  0.00     0.010 A 
ATOM     32  C   UNL A   1      43.420  22.980  25.799  1.00  0.00     0.010 A 
ATOM     33  C   UNL A   1      43.601  23.423  27.122  1.00  0.00    -0.014 A 
BRANCH  33  34
ATOM     34  C   UNL A   1      44.045  24.809  27.423  1.00  0.00     0.031 A 
ATOM     35  C   UNL A   1      45.487  25.181  27.189  1.00  0.00     0.074 A 
ATOM     36  C   UNL A   1      43.163  25.749  27.808  1.00  0.00     0.049 A 
ATOM     37  N   UNL A   1      46.069  26.350  27.291  1.00  0.00    -0.248 NA
ATOM     38  C   UNL A   1      46.392  24.094  26.781  1.00  0.00     0.031 C 
ATOM     39  C   UNL A   1      41.736  25.529  28.032  1.00  0.00     0.029 A 
ATOM     40  N   UNL A   1      43.343  27.087  28.059  1.00  0.00    -0.354 N 
ATOM     41  C   UNL A   1      47.402  26.141  26.956  1.00  0.00     0.074 A 
ATOM     42  C   UNL A   1      47.552  24.727  26.684  1.00  0.00     0.031 C 
ATOM     43  C   UNL A   1      41.165  26.696  28.380  1.00  0.00     0.029 A 
ATOM     44  C   UNL A   1      42.189  27.740  28.418  1.00  0.00     0.049 A 
ATOM     45  H   UNL A   1      44.216  27.536  27.988  1.00  0.00     0.167 HD
ATOM     46  C   UNL A   1      48.411  27.040  26.870  1.00  0.00     0.031 A 
ATOM     47  C   UNL A   1      41.979  29.032  28.741  1.00  0.00     0.031 A 
ATOM     48  C   UNL A   1      48.271  28.445  27.149  1.00  0.00     0.049 A 
ATOM     49  C   UNL A   1      43.127  30.006  28.690  1.00  0.00     0.074 A 
ATOM     50  C   UNL A   1      49.233  29.438  27.079  1.00  0.00     0.029 A 
ATOM     51  N   UNL A   1      47.096  29.056  27.560  1.00  0.00    -0.354 N 
ATOM     52  N   UNL A   1      44.374  29.794  28.344  1.00  0.00    -0.248 NA
ATOM     53  C   UNL A   1      42.831  31.397  29.059  1.00  0.00     0.031 C 
ATOM     54  C   UNL A   1      48.650  30.642  27.492  1.00  0.00     0.029 A 
ATOM     55  C   UNL A   1      47.313  30.407  27.769  1.00  0.00     0.049 A 
ATOM     56  H   UNL A   1      46.234  28.596  27.683  1.00  0.00     0.167 HD
ATOM     57  C   UNL A   1      45.008  31.029  28.436  1.00  0.00     0.074 A 
ATOM     58  C   UNL A   1      44.002  31.985  28.851  1.00  0.00     0.031 C 
ATOM     59  C   UNL A   1      46.306  31.344  28.196  1.00  0.00     0.031 A 
BRANCH  46  60
ATOM     60  C   UNL A   1      49.769  26.520  26.482  1.00  0.00    -0.014 A 
ATOM     61  C   UNL A   1      50.251  26.652  25.166  1.00  0.00     0.010 A 
ATOM     62  C   UNL A   1      50.584  25.909  27.451  1.00  0.00     0.010 A 
ATOM     63  C   UNL A   1      51.506  26.146  24.819  1.00  0.00     0.020 A 
ATOM     64  C   UNL A   1      51.850  25.422  27.113  1.00  0.00     0.020 A 
ATOM     65  C   UNL A   1      52.295  25.528  25.794  1.00  0.00     0.054 A 
BRANCH  65  66
ATOM     66  S   UNL A   1      53.925  24.887  25.320  1.00  0.00     0.124 S 
ATOM     67  O   UNL A   1      54.722  25.183  26.508  1.00  0.00    -0.237 OA
ATOM     68  O   UNL A   1      53.657  23.471  25.082  1.00  0.00    -0.237 OA
ATOM     69  O   UNL A   1      54.270  25.659  24.130  1.00  0.00    -0.744 OA
ENDBRANCH  65  66
ENDBRANCH  46  60
BRANCH  47  70
ATOM     70  C   UNL A   1      40.621  29.483  29.147  1.00  0.00    -0.014 A 
ATOM     71  C   UNL A   1      39.605  29.663  28.193  1.00  0.00     0.010 A 
ATOM     72  C   UNL A   1      40.341  29.738  30.502  1.00  0.00     0.010 A 
ATOM     73  C   UNL A   1      38.337  30.103  28.585  1.00  0.00     0.020 A 
ATOM     74  C   UNL A   1      39.067  30.154  30.900  1.00  0.00     0.020 A 
ATOM     75  C   UNL A   1      38.075  30.344  29.936  1.00  0.00     0.054 A 
BRANCH  75  76
ATOM     76  S   UNL A   1      36.408  30.860  30.433  1.00  0.00     0.124 S 
ATOM     77  O   UNL A   1      36.631  32.239  30.856  1.00  0.00    -0.237 OA
ATOM     78  O   UNL A   1      35.644  30.690  29.200  1.00  0.00    -0.237 OA
ATOM     79  O   UNL A   1      36.067  29.924  31.502  1.00  0.00    -0.744 OA
ENDBRANCH  75  76
ENDBRANCH  47  70
BRANCH  59  80
ATOM     80  C   UNL A   1      46.705  32.787  28.361  1.00  0.00    -0.014 A 
ATOM     81  C   UNL A   1      46.592  33.699  27.295  1.00  0.00     0.010 A 
ATOM     82  C   UNL A   1      47.174  33.242  29.606  1.00  0.00     0.010 A 
ATOM     83  C   UNL A   1      46.984  35.030  27.460  1.00  0.00     0.020 A 
ATOM     84  C   UNL A   1      47.544  34.579  29.782  1.00  0.00     0.020 A 
ATOM     85  C   UNL A   1      47.465  35.459  28.701  1.00  0.00     0.054 A 
BRANCH  85  86
ATOM     86  S   UNL A   1      47.957  37.195  28.898  1.00  0.00     0.124 S 
ATOM     87  O   UNL A   1      47.089  37.866  27.934  1.00  0.00    -0.237 OA
ATOM     88  O   UNL A   1      47.659  37.459  30.303  1.00  0.00    -0.237 OA
ATOM     89  O   UNL A   1      49.379  37.192  28.559  1.00  0.00    -0.744 OA
ENDBRANCH  85  86
ENDBRANCH  59  80
ENDBRANCH  33  34
ENDBRANCH  26  28
ENDBRANCH  25  26
ENDBRANCH  24  25
ENDBRANCH   1  24
TORSDOF 18
ENDMDL
MODEL 3
REMARK VINA RESULT:      -9.5      3.521      9.266
REMARK SMILES CC1(C)CCC[C@@]1(C(=O)OCCOCCOC(=O)c1ccc(-c2c3nc(c(-c4ccc(S(=O)(=O)[O-])cc4)c4ccc([nH]4)c(-c4ccc(S(=O)(=O)[O-])cc4)c4nc(c(-c5ccc(S(=O)(=O)[O-])cc5)c5ccc2[nH]5)C=C4)C=C3)cc1)[NH+]1CC[NH2+]CC1
REMARK SMILES IDX 14 1 13 2 12 3 11 4 10 5 8 6 9 7 7 8 1 9 2 10 3 11 4 12 5 13
REMARK SMILES IDX 6 14 79 15 80 16 84 17 81 19 83 20 82 21 15 24 16 25 17 26
REMARK SMILES IDX 18 27 19 28 20 29 78 30 21 31 77 32 22 33 23 34 24 35 71 36
REMARK SMILES IDX 25 37 76 38 70 39 72 40 26 41 75 42 69 43 68 44 27 46 57 47
REMARK SMILES IDX 38 48 56 49 39 50 42 51 55 52 73 53 40 54 41 55 54 57 74 58
REMARK SMILES IDX 43 59 28 60 29 61 37 62 30 63 36 64 31 65 32 66 33 67 34 68
REMARK SMILES IDX 35 69 58 70 59 71 67 72 60 73 66 74 61 75 62 76 63 77 64 78
REMARK SMILES IDX 65 79 44 80 45 81 53 82 46 83 52 84 47 85 48 86 49 87 50 88
REMARK SMILES IDX 51 89
REMARK H PARENT 79 18 82 22 82 23 72 45 42 56
REMARK Flexibility Score: inf
ROOT
ATOM      1  C   UNL A   1      37.900  20.921  25.297  1.00  0.00     0.202 C 
ENDROOT
BRANCH   1   2
ATOM      2  O   UNL A   1      37.132  21.861  24.548  1.00  0.00    -0.374 OA
BRANCH   2   3
ATOM      3  C   UNL A   1      37.275  23.243  24.874  1.00  0.00     0.202 C 
BRANCH   3   4
ATOM      4  C   UNL A   1      36.078  23.912  25.553  1.00  0.00     0.261 C 
BRANCH   4   5
ATOM      5  O   UNL A   1      35.252  24.613  24.610  1.00  0.00    -0.459 OA
BRANCH   5   6
ATOM      6  C   UNL A   1      34.143  25.192  25.149  1.00  0.00     0.368 C 
ATOM      7  O   UNL A   1      34.161  26.279  25.721  1.00  0.00    -0.245 OA
BRANCH   6   8
ATOM      8  C   UNL A   1      32.840  24.325  24.984  1.00  0.00     0.201 C 
ATOM      9  C   UNL A   1      33.307  23.758  22.462  1.00  0.00     0.018 C 
ATOM     10  C   UNL A   1      32.399  24.478  23.466  1.00  0.00     0.031 C 
ATOM     11  C   UNL A   1      32.339  25.967  22.993  1.00  0.00     0.018 C 
ATOM     12  C   UNL A   1      30.942  23.972  23.459  1.00  0.00     0.014 C 
ATOM     13  C   UNL A   1      30.377  24.339  24.833  1.00  0.00     0.008 C 
ATOM     14  C   UNL A   1      31.553  24.846  25.676  1.00  0.00     0.082 C 
BRANCH   8  15
ATOM     15  N   UNL A   1      33.209  22.963  25.514  1.00  0.00    -0.311 N 
ATOM     16  C   UNL A   1      32.856  21.737  24.800  1.00  0.00     0.325 C 
ATOM     17  C   UNL A   1      32.957  22.785  26.966  1.00  0.00     0.325 C 
ATOM     18  H   UNL A   1      34.204  23.045  25.306  1.00  0.00     0.349 HD
ATOM     19  C   UNL A   1      33.571  20.496  25.401  1.00  0.00     0.322 C 
ATOM     20  C   UNL A   1      33.664  21.537  27.544  1.00  0.00     0.322 C 
ATOM     21  N   UNL A   1      33.296  20.298  26.835  1.00  0.00    -0.337 N 
ATOM     22  H   UNL A   1      33.851  19.520  27.189  1.00  0.00     0.346 HD
ATOM     23  H   UNL A   1      32.310  20.086  26.982  1.00  0.00     0.346 HD
ENDBRANCH   8  15
ENDBRANCH   6   8
ENDBRANCH   5   6
ENDBRANCH   4   5
ENDBRANCH   3   4
ENDBRANCH   2   3
ENDBRANCH   1   2
BRANCH   1  24
ATOM     24  C   UNL A   1      39.119  21.452  26.065  1.00  0.00     0.261 C 
BRANCH  24  25
ATOM     25  O   UNL A   1      39.790  20.449  26.853  1.00  0.00    -0.460 OA
BRANCH  25  26
ATOM     26  C   UNL A   1      41.020  20.111  26.391  1.00  0.00     0.338 C 
ATOM     27  O   UNL A   1      41.311  19.117  25.740  1.00  0.00    -0.246 OA
BRANCH  26  28
ATOM     28  C   UNL A   1      42.001  21.188  26.621  1.00  0.00     0.060 A 
ATOM     29  C   UNL A   1      42.254  21.548  27.951  1.00  0.00     0.016 A 
ATOM     30  C   UNL A   1      42.527  21.943  25.570  1.00  0.00     0.016 A 
ATOM     31  C   UNL A   1      42.970  22.708  28.235  1.00  0.00     0.010 A 
ATOM     32  C   UNL A   1      43.243  23.114  25.860  1.00  0.00     0.010 A 
ATOM     33  C   UNL A   1      43.421  23.529  27.193  1.00  0.00    -0.014 A 
BRANCH  33  34
ATOM     34  C   UNL A   1      43.898  24.896  27.524  1.00  0.00     0.031 A 
ATOM     35  C   UNL A   1      45.349  25.239  27.295  1.00  0.00     0.074 A 
ATOM     36  C   UNL A   1      43.040  25.848  27.931  1.00  0.00     0.049 A 
ATOM     37  N   UNL A   1      45.958  26.391  27.421  1.00  0.00    -0.248 NA
ATOM     38  C   UNL A   1      46.227  24.140  26.860  1.00  0.00     0.031 C 
ATOM     39  C   UNL A   1      41.608  25.658  28.154  1.00  0.00     0.029 A 
ATOM     40  N   UNL A   1      43.252  27.176  28.212  1.00  0.00    -0.354 N 
ATOM     41  C   UNL A   1      47.286  26.157  27.079  1.00  0.00     0.074 A 
ATOM     42  C   UNL A   1      47.401  24.747  26.775  1.00  0.00     0.031 C 
ATOM     43  C   UNL A   1      41.067  26.830  28.530  1.00  0.00     0.029 A 
ATOM     44  C   UNL A   1      42.115  27.848  28.588  1.00  0.00     0.049 A 
ATOM     45  H   UNL A   1      44.136  27.605  28.149  1.00  0.00     0.167 HD
ATOM     46  C   UNL A   1      48.316  27.034  27.011  1.00  0.00     0.031 A 
ATOM     47  C   UNL A   1      41.937  29.136  28.940  1.00  0.00     0.031 A 
ATOM     48  C   UNL A   1      48.210  28.435  27.322  1.00  0.00     0.049 A 
ATOM     49  C   UNL A   1      43.108  30.084  28.909  1.00  0.00     0.074 A 
ATOM     50  C   UNL A   1      49.196  29.406  27.271  1.00  0.00     0.029 A 
ATOM     51  N   UNL A   1      47.051  29.064  27.748  1.00  0.00    -0.354 N 
ATOM     52  N   UNL A   1      44.349  29.849  28.556  1.00  0.00    -0.248 NA
ATOM     53  C   UNL A   1      42.846  31.473  29.310  1.00  0.00     0.031 C 
ATOM     54  C   UNL A   1      48.642  30.614  27.713  1.00  0.00     0.029 A 
ATOM     55  C   UNL A   1      47.300  30.405  27.987  1.00  0.00     0.049 A 
ATOM     56  H   UNL A   1      46.179  28.623  27.863  1.00  0.00     0.167 HD
ATOM     57  C   UNL A   1      45.013  31.067  28.673  1.00  0.00     0.074 A 
ATOM     58  C   UNL A   1      44.030  32.038  29.112  1.00  0.00     0.031 C 
ATOM     59  C   UNL A   1      46.317  31.356  28.438  1.00  0.00     0.031 A 
BRANCH  46  60
ATOM     60  C   UNL A   1      49.660  26.490  26.608  1.00  0.00    -0.014 A 
ATOM     61  C   UNL A   1      50.530  25.920  27.556  1.00  0.00     0.010 A 
ATOM     62  C   UNL A   1      50.050  26.528  25.257  1.00  0.00     0.010 A 
ATOM     63  C   UNL A   1      51.781  25.437  27.166  1.00  0.00     0.020 A 
ATOM     64  C   UNL A   1      51.292  26.025  24.860  1.00  0.00     0.020 A 
ATOM     65  C   UNL A   1      52.158  25.499  25.821  1.00  0.00     0.054 A 
BRANCH  65  66
ATOM     66  S   UNL A   1      53.785  24.857  25.338  1.00  0.00     0.124 S 
ATOM     67  O   UNL A   1      54.568  25.082  26.550  1.00  0.00    -0.237 OA
ATOM     68  O   UNL A   1      53.500  23.459  25.025  1.00  0.00    -0.237 OA
ATOM     69  O   UNL A   1      54.158  25.683  24.193  1.00  0.00    -0.744 OA
ENDBRANCH  65  66
ENDBRANCH  46  60
BRANCH  47  70
ATOM     70  C   UNL A   1      40.591  29.611  29.360  1.00  0.00    -0.014 A 
ATOM     71  C   UNL A   1      39.588  29.867  28.410  1.00  0.00     0.010 A 
ATOM     72  C   UNL A   1      40.309  29.811  30.724  1.00  0.00     0.010 A 
ATOM     73  C   UNL A   1      38.331  30.327  28.815  1.00  0.00     0.020 A 
ATOM     74  C   UNL A   1      39.047  30.248  31.134  1.00  0.00     0.020 A 
ATOM     75  C   UNL A   1      38.068  30.514  30.175  1.00  0.00     0.054 A 
BRANCH  75  76
ATOM     76  S   UNL A   1      36.414  31.059  30.686  1.00  0.00     0.124 S 
ATOM     77  O   UNL A   1      36.675  32.412  31.165  1.00  0.00    -0.237 OA
ATOM     78  O   UNL A   1      35.651  30.961  29.444  1.00  0.00    -0.237 OA
ATOM     79  O   UNL A   1      36.040  30.091  31.714  1.00  0.00    -0.744 OA
ENDBRANCH  75  76
ENDBRANCH  47  70
BRANCH  59  80
ATOM     80  C   UNL A   1      46.751  32.785  28.634  1.00  0.00    -0.014 A 
ATOM     81  C   UNL A   1      47.301  33.217  29.854  1.00  0.00     0.010 A 
ATOM     82  C   UNL A   1      46.631  33.701  27.573  1.00  0.00     0.010 A 
ATOM     83  C   UNL A   1      47.681  34.551  30.025  1.00  0.00     0.020 A 
ATOM     84  C   UNL A   1      47.033  35.031  27.733  1.00  0.00     0.020 A 
ATOM     85  C   UNL A   1      47.537  35.451  28.965  1.00  0.00     0.054 A 
BRANCH  85  86
ATOM     86  S   UNL A   1      48.049  37.176  29.204  1.00  0.00     0.124 S 
ATOM     87  O   UNL A   1      47.042  37.664  30.141  1.00  0.00    -0.237 OA
ATOM     88  O   UNL A   1      49.399  37.041  29.744  1.00  0.00    -0.237 OA
ATOM     89  O   UNL A   1      47.978  37.745  27.859  1.00  0.00    -0.744 OA
ENDBRANCH  85  86
ENDBRANCH  59  80
ENDBRANCH  33  34
ENDBRANCH  26  28
ENDBRANCH  25  26
ENDBRANCH  24  25
ENDBRANCH   1  24
TORSDOF 18
ENDMDL
