MODEL 1
REMARK VINA RESULT:     -12.4      0.000      0.000
REMARK SMILES Cc1cnn(C2(C(=O)OCCOCCOC(=O)c3ccc(-c4c5nc(c(-c6ccc(S(=O)(=O)[O-])cc6)c6ccc([nH]6)c(-c6ccc(S(=O)(=O)[O-])cc6)c6nc(c(-c7ccc(S(=O)(=O)[O-])cc7)c7ccc4[nH]7)C=C6)C=C5)cc3)CCN(C(=O)c3cc4ccccc4[nH]3)CC2)c1
REMARK SMILES IDX 13 1 12 2 11 3 10 4 9 5 7 6 8 7 6 8 78 9 93 10 79 11 92 12
REMARK SMILES IDX 80 13 81 14 82 15 5 16 1 17 2 18 3 19 94 20 4 21 83 22 84 23
REMARK SMILES IDX 91 24 85 25 90 26 86 28 89 29 87 30 88 31 14 32 15 33 16 34
REMARK SMILES IDX 17 35 18 36 19 37 77 38 20 39 76 40 21 41 22 42 23 43 70 44
REMARK SMILES IDX 24 45 75 46 69 47 71 48 25 49 74 50 68 51 67 52 26 54 56 55
REMARK SMILES IDX 37 56 55 57 38 58 41 59 54 60 72 61 39 62 40 63 53 65 73 66
REMARK SMILES IDX 42 67 27 68 28 69 36 70 29 71 35 72 30 73 31 74 32 75 33 76
REMARK SMILES IDX 34 77 57 78 58 79 66 80 59 81 65 82 60 83 61 84 62 85 63 86
REMARK SMILES IDX 64 87 43 88 44 89 52 90 45 91 51 92 46 93 47 94 48 95 49 96
REMARK SMILES IDX 50 97
REMARK H PARENT 91 27 71 53 41 64
REMARK Flexibility Score: inf
ROOT
ATOM      1  C   UNL A   1      40.538  20.444  26.776  1.00  0.00     0.202 C 
ENDROOT
BRANCH   1   2
ATOM      2  O   UNL A   1      39.793  20.946  25.669  1.00  0.00    -0.374 OA
BRANCH   2   3
ATOM      3  C   UNL A   1      38.644  21.763  25.887  1.00  0.00     0.202 C 
BRANCH   3   4
ATOM      4  C   UNL A   1      37.445  21.614  24.952  1.00  0.00     0.261 C 
BRANCH   4   5
ATOM      5  O   UNL A   1      36.554  22.737  25.020  1.00  0.00    -0.461 OA
BRANCH   5   6
ATOM      6  C   UNL A   1      35.628  22.807  24.019  1.00  0.00     0.334 C 
ATOM      7  O   UNL A   1      35.926  22.901  22.830  1.00  0.00    -0.249 OA
BRANCH   6   8
ATOM      8  C   UNL A   1      34.179  22.921  24.542  1.00  0.00     0.163 C 
ATOM      9  C   UNL A   1      34.061  23.564  25.948  1.00  0.00     0.064 C 
ATOM     10  C   UNL A   1      33.596  23.864  23.475  1.00  0.00     0.064 C 
ATOM     11  C   UNL A   1      32.677  24.150  26.235  1.00  0.00     0.123 C 
ATOM     12  C   UNL A   1      32.263  24.477  23.807  1.00  0.00     0.123 C 
ATOM     13  N   UNL A   1      32.216  25.022  25.156  1.00  0.00    -0.337 N 
ATOM     14  C   UNL A   1      31.725  26.298  25.467  1.00  0.00     0.270 C 
ATOM     15  O   UNL A   1      31.885  26.797  26.579  1.00  0.00    -0.267 OA
BRANCH   8  16
ATOM     16  N   UNL A   1      33.552  21.583  24.544  1.00  0.00    -0.255 N 
ATOM     17  C   UNL A   1      32.826  18.164  25.636  1.00  0.00     0.048 C 
ATOM     18  C   UNL A   1      32.975  19.489  24.998  1.00  0.00    -0.013 A 
ATOM     19  C   UNL A   1      32.453  19.931  23.771  1.00  0.00     0.138 A 
ATOM     20  C   UNL A   1      33.696  20.569  25.457  1.00  0.00     0.113 A 
ATOM     21  N   UNL A   1      32.843  21.169  23.471  1.00  0.00    -0.180 NA
ENDBRANCH   8  16
BRANCH  14  22
ATOM     22  C   UNL A   1      31.096  27.051  24.401  1.00  0.00     0.105 A 
ATOM     23  C   UNL A   1      31.622  27.893  23.434  1.00  0.00     0.042 A 
ATOM     24  N   UNL A   1      29.737  27.021  24.179  1.00  0.00    -0.351 N 
ATOM     25  C   UNL A   1      30.550  28.628  22.870  1.00  0.00     0.000 A 
ATOM     26  C   UNL A   1      29.373  28.040  23.327  1.00  0.00     0.046 A 
ATOM     27  H   UNL A   1      29.115  26.366  24.572  1.00  0.00     0.167 HD
ATOM     28  C   UNL A   1      30.475  29.755  22.033  1.00  0.00     0.010 A 
ATOM     29  C   UNL A   1      28.109  28.491  22.936  1.00  0.00     0.026 A 
ATOM     30  C   UNL A   1      29.219  30.248  21.668  1.00  0.00     0.001 A 
ATOM     31  C   UNL A   1      28.056  29.612  22.101  1.00  0.00     0.002 A 
ENDBRANCH  14  22
ENDBRANCH   6   8
ENDBRANCH   5   6
ENDBRANCH   4   5
ENDBRANCH   3   4
ENDBRANCH   2   3
ENDBRANCH   1   2
BRANCH   1  32
ATOM     32  C   UNL A   1      42.056  20.544  26.744  1.00  0.00     0.261 C 
BRANCH  32  33
ATOM     33  O   UNL A   1      42.524  20.727  25.416  1.00  0.00    -0.460 OA
BRANCH  33  34
ATOM     34  C   UNL A   1      43.874  20.737  25.314  1.00  0.00     0.338 C 
ATOM     35  O   UNL A   1      44.624  19.786  25.361  1.00  0.00    -0.246 OA
BRANCH  34  36
ATOM     36  C   UNL A   1      44.320  22.134  25.243  1.00  0.00     0.060 A 
ATOM     37  C   UNL A   1      45.298  22.475  26.177  1.00  0.00     0.016 A 
ATOM     38  C   UNL A   1      43.515  23.092  24.607  1.00  0.00     0.016 A 
ATOM     39  C   UNL A   1      45.218  23.719  26.741  1.00  0.00     0.010 A 
ATOM     40  C   UNL A   1      43.439  24.337  25.171  1.00  0.00     0.010 A 
ATOM     41  C   UNL A   1      44.198  24.574  26.312  1.00  0.00    -0.014 A 
BRANCH  41  42
ATOM     42  C   UNL A   1      43.959  25.761  27.092  1.00  0.00     0.031 A 
ATOM     43  C   UNL A   1      44.984  26.788  26.856  1.00  0.00     0.074 A 
ATOM     44  C   UNL A   1      42.875  25.902  27.876  1.00  0.00     0.049 A 
ATOM     45  N   UNL A   1      45.963  27.113  27.631  1.00  0.00    -0.248 NA
ATOM     46  C   UNL A   1      45.067  27.343  25.496  1.00  0.00     0.031 C 
ATOM     47  C   UNL A   1      41.684  25.052  27.965  1.00  0.00     0.029 A 
ATOM     48  N   UNL A   1      42.571  26.934  28.698  1.00  0.00    -0.354 N 
ATOM     49  C   UNL A   1      46.648  28.100  26.939  1.00  0.00     0.074 A 
ATOM     50  C   UNL A   1      46.217  28.009  25.566  1.00  0.00     0.031 C 
ATOM     51  C   UNL A   1      40.698  25.739  28.591  1.00  0.00     0.029 A 
ATOM     52  C   UNL A   1      41.236  27.006  29.062  1.00  0.00     0.049 A 
ATOM     53  H   UNL A   1      43.244  27.582  29.012  1.00  0.00     0.167 HD
ATOM     54  C   UNL A   1      47.256  29.125  27.592  1.00  0.00     0.031 A 
ATOM     55  C   UNL A   1      40.619  28.079  29.622  1.00  0.00     0.031 A 
ATOM     56  C   UNL A   1      47.439  28.841  28.992  1.00  0.00     0.049 A 
ATOM     57  C   UNL A   1      41.688  28.928  30.216  1.00  0.00     0.074 A 
ATOM     58  C   UNL A   1      48.108  27.863  29.703  1.00  0.00     0.029 A 
ATOM     59  N   UNL A   1      46.530  29.392  29.868  1.00  0.00    -0.354 N 
ATOM     60  N   UNL A   1      42.438  28.536  31.211  1.00  0.00    -0.248 NA
ATOM     61  C   UNL A   1      42.259  29.987  29.394  1.00  0.00     0.031 C 
ATOM     62  C   UNL A   1      47.256  27.560  30.806  1.00  0.00     0.029 A 
ATOM     63  C   UNL A   1      46.148  28.410  30.747  1.00  0.00     0.049 A 
ATOM     64  H   UNL A   1      46.212  30.324  29.863  1.00  0.00     0.167 HD
ATOM     65  C   UNL A   1      43.718  28.975  30.896  1.00  0.00     0.074 A 
ATOM     66  C   UNL A   1      43.529  29.938  29.811  1.00  0.00     0.031 C 
ATOM     67  C   UNL A   1      44.827  28.310  31.339  1.00  0.00     0.031 A 
BRANCH  54  68
ATOM     68  C   UNL A   1      47.251  30.527  27.040  1.00  0.00    -0.014 A 
ATOM     69  C   UNL A   1      48.438  31.279  27.074  1.00  0.00     0.010 A 
ATOM     70  C   UNL A   1      46.058  31.223  26.740  1.00  0.00     0.010 A 
ATOM     71  C   UNL A   1      48.416  32.666  26.876  1.00  0.00     0.020 A 
ATOM     72  C   UNL A   1      46.031  32.591  26.493  1.00  0.00     0.020 A 
ATOM     73  C   UNL A   1      47.209  33.311  26.599  1.00  0.00     0.054 A 
BRANCH  73  74
ATOM     74  S   UNL A   1      47.169  35.112  26.459  1.00  0.00     0.124 S 
ATOM     75  O   UNL A   1      45.756  35.358  26.190  1.00  0.00    -0.237 OA
ATOM     76  O   UNL A   1      47.651  35.532  27.772  1.00  0.00    -0.237 OA
ATOM     77  O   UNL A   1      48.077  35.389  25.348  1.00  0.00    -0.744 OA
ENDBRANCH  73  74
ENDBRANCH  54  68
BRANCH  55  78
ATOM     78  C   UNL A   1      39.256  28.581  29.298  1.00  0.00    -0.014 A 
ATOM     79  C   UNL A   1      38.287  28.801  30.293  1.00  0.00     0.010 A 
ATOM     80  C   UNL A   1      38.991  29.093  28.009  1.00  0.00     0.010 A 
ATOM     81  C   UNL A   1      37.112  29.529  30.014  1.00  0.00     0.020 A 
ATOM     82  C   UNL A   1      37.826  29.814  27.722  1.00  0.00     0.020 A 
ATOM     83  C   UNL A   1      36.896  30.042  28.731  1.00  0.00     0.054 A 
BRANCH  83  84
ATOM     84  S   UNL A   1      35.444  31.089  28.406  1.00  0.00     0.124 S 
ATOM     85  O   UNL A   1      36.016  32.180  27.622  1.00  0.00    -0.237 OA
ATOM     86  O   UNL A   1      34.555  30.187  27.681  1.00  0.00    -0.237 OA
ATOM     87  O   UNL A   1      34.983  31.465  29.743  1.00  0.00    -0.744 OA
ENDBRANCH  83  84
ENDBRANCH  55  78
BRANCH  67  88
ATOM     88  C   UNL A   1      44.641  27.209  32.363  1.00  0.00    -0.014 A 
ATOM     89  C   UNL A   1      44.431  27.452  33.737  1.00  0.00     0.010 A 
ATOM     90  C   UNL A   1      44.493  25.894  31.890  1.00  0.00     0.010 A 
ATOM     91  C   UNL A   1      44.095  26.405  34.611  1.00  0.00     0.020 A 
ATOM     92  C   UNL A   1      44.144  24.849  32.753  1.00  0.00     0.020 A 
ATOM     93  C   UNL A   1      43.950  25.108  34.111  1.00  0.00     0.054 A 
BRANCH  93  94
ATOM     94  S   UNL A   1      43.449  23.766  35.228  1.00  0.00     0.124 S 
ATOM     95  O   UNL A   1      43.863  22.572  34.498  1.00  0.00    -0.237 OA
ATOM     96  O   UNL A   1      44.207  24.055  36.444  1.00  0.00    -0.237 OA
ATOM     97  O   UNL A   1      42.003  23.941  35.356  1.00  0.00    -0.744 OA
ENDBRANCH  93  94
ENDBRANCH  67  88
ENDBRANCH  41  42
ENDBRANCH  34  36
ENDBRANCH  33  34
ENDBRANCH  32  33
ENDBRANCH   1  32
TORSDOF 19
ENDMDL
MODEL 2
REMARK VINA RESULT:     -11.6      2.364      7.048
REMARK SMILES Cc1cnn(C2(C(=O)OCCOCCOC(=O)c3ccc(-c4c5nc(c(-c6ccc(S(=O)(=O)[O-])cc6)c6ccc([nH]6)c(-c6ccc(S(=O)(=O)[O-])cc6)c6nc(c(-c7ccc(S(=O)(=O)[O-])cc7)c7ccc4[nH]7)C=C6)C=C5)cc3)CCN(C(=O)c3cc4ccccc4[nH]3)CC2)c1
REMARK SMILES IDX 13 1 12 2 11 3 10 4 9 5 7 6 8 7 6 8 78 9 93 10 79 11 92 12
REMARK SMILES IDX 80 13 81 14 82 15 5 16 1 17 2 18 3 19 94 20 4 21 83 22 84 23
REMARK SMILES IDX 91 24 85 25 90 26 86 28 89 29 87 30 88 31 14 32 15 33 16 34
REMARK SMILES IDX 17 35 18 36 19 37 77 38 20 39 76 40 21 41 22 42 23 43 70 44
REMARK SMILES IDX 24 45 75 46 69 47 71 48 25 49 74 50 68 51 67 52 26 54 56 55
REMARK SMILES IDX 37 56 55 57 38 58 41 59 54 60 72 61 39 62 40 63 53 65 73 66
REMARK SMILES IDX 42 67 27 68 28 69 36 70 29 71 35 72 30 73 31 74 32 75 33 76
REMARK SMILES IDX 34 77 57 78 58 79 66 80 59 81 65 82 60 83 61 84 62 85 63 86
REMARK SMILES IDX 64 87 43 88 44 89 52 90 45 91 51 92 46 93 47 94 48 95 49 96
REMARK SMILES IDX 50 97
REMARK H PARENT 91 27 71 53 41 64
REMARK Flexibility Score: inf
ROOT
ATOM      1  C   UNL A   1      37.165  21.006  24.771  1.00  0.00     0.202 C 
ENDROOT
BRANCH   1   2
ATOM      2  O   UNL A   1      37.464  22.376  24.508  1.00  0.00    -0.374 OA
BRANCH   2   3
ATOM      3  C   UNL A   1      37.575  23.306  25.583  1.00  0.00     0.202 C 
BRANCH   3   4
ATOM      4  C   UNL A   1      36.341  24.106  25.997  1.00  0.00     0.261 C 
BRANCH   4   5
ATOM      5  O   UNL A   1      35.130  23.572  25.442  1.00  0.00    -0.461 OA
BRANCH   5   6
ATOM      6  C   UNL A   1      34.418  22.757  26.274  1.00  0.00     0.334 C 
ATOM      7  O   UNL A   1      34.928  22.121  27.195  1.00  0.00    -0.249 OA
BRANCH   6   8
ATOM      8  C   UNL A   1      32.945  22.588  25.840  1.00  0.00     0.163 C 
ATOM      9  C   UNL A   1      31.920  22.769  26.990  1.00  0.00     0.064 C 
ATOM     10  C   UNL A   1      32.837  23.755  24.843  1.00  0.00     0.064 C 
ATOM     11  C   UNL A   1      30.514  23.125  26.502  1.00  0.00     0.123 C 
ATOM     12  C   UNL A   1      31.441  24.127  24.426  1.00  0.00     0.123 C 
ATOM     13  N   UNL A   1      30.529  24.239  25.555  1.00  0.00    -0.337 N 
ATOM     14  C   UNL A   1      29.655  25.318  25.751  1.00  0.00     0.270 C 
ATOM     15  O   UNL A   1      29.049  25.473  26.809  1.00  0.00    -0.267 OA
BRANCH   8  16
ATOM     16  N   UNL A   1      32.768  21.263  25.210  1.00  0.00    -0.255 N 
ATOM     17  C   UNL A   1      32.651  17.614  24.930  1.00  0.00     0.048 C 
ATOM     18  C   UNL A   1      32.667  19.086  24.795  1.00  0.00    -0.013 A 
ATOM     19  C   UNL A   1      32.574  19.856  23.624  1.00  0.00     0.138 A 
ATOM     20  C   UNL A   1      32.813  20.022  25.794  1.00  0.00     0.113 A 
ATOM     21  N   UNL A   1      32.690  21.161  23.865  1.00  0.00    -0.180 NA
ENDBRANCH   8  16
BRANCH  14  22
ATOM     22  C   UNL A   1      29.556  26.299  24.690  1.00  0.00     0.105 A 
ATOM     23  C   UNL A   1      30.520  27.058  24.046  1.00  0.00     0.042 A 
ATOM     24  N   UNL A   1      28.354  26.643  24.111  1.00  0.00    -0.351 N 
ATOM     25  C   UNL A   1      29.857  28.093  23.341  1.00  0.00     0.000 A 
ATOM     26  C   UNL A   1      28.497  27.793  23.367  1.00  0.00     0.046 A 
ATOM     27  H   UNL A   1      27.514  26.140  24.215  1.00  0.00     0.167 HD
ATOM     28  C   UNL A   1      30.288  29.271  22.705  1.00  0.00     0.010 A 
ATOM     29  C   UNL A   1      27.541  28.589  22.731  1.00  0.00     0.026 A 
ATOM     30  C   UNL A   1      29.341  30.103  22.102  1.00  0.00     0.001 A 
ATOM     31  C   UNL A   1      27.991  29.755  22.101  1.00  0.00     0.002 A 
ENDBRANCH  14  22
ENDBRANCH   6   8
ENDBRANCH   5   6
ENDBRANCH   4   5
ENDBRANCH   3   4
ENDBRANCH   2   3
ENDBRANCH   1   2
BRANCH   1  32
ATOM     32  C   UNL A   1      38.313  20.045  25.044  1.00  0.00     0.261 C 
BRANCH  32  33
ATOM     33  O   UNL A   1      39.396  20.715  25.671  1.00  0.00    -0.460 OA
BRANCH  33  34
ATOM     34  C   UNL A   1      40.474  19.921  25.884  1.00  0.00     0.338 C 
ATOM     35  O   UNL A   1      40.520  18.712  25.828  1.00  0.00    -0.246 OA
BRANCH  34  36
ATOM     36  C   UNL A   1      41.592  20.770  26.313  1.00  0.00     0.060 A 
ATOM     37  C   UNL A   1      41.947  20.620  27.653  1.00  0.00     0.016 A 
ATOM     38  C   UNL A   1      41.935  21.905  25.563  1.00  0.00     0.016 A 
ATOM     39  C   UNL A   1      42.316  21.749  28.334  1.00  0.00     0.010 A 
ATOM     40  C   UNL A   1      42.308  23.032  26.244  1.00  0.00     0.010 A 
ATOM     41  C   UNL A   1      42.357  22.958  27.633  1.00  0.00    -0.014 A 
BRANCH  41  42
ATOM     42  C   UNL A   1      42.480  24.166  28.406  1.00  0.00     0.031 A 
ATOM     43  C   UNL A   1      41.395  25.116  28.116  1.00  0.00     0.074 A 
ATOM     44  C   UNL A   1      43.445  24.338  29.327  1.00  0.00     0.049 A 
ATOM     45  N   UNL A   1      41.461  26.190  27.404  1.00  0.00    -0.248 NA
ATOM     46  C   UNL A   1      40.029  24.688  28.457  1.00  0.00     0.031 C 
ATOM     47  C   UNL A   1      44.392  23.356  29.863  1.00  0.00     0.029 A 
ATOM     48  N   UNL A   1      43.702  25.442  30.068  1.00  0.00    -0.354 N 
ATOM     49  C   UNL A   1      40.173  26.701  27.416  1.00  0.00     0.074 A 
ATOM     50  C   UNL A   1      39.312  25.626  27.842  1.00  0.00     0.031 C 
ATOM     51  C   UNL A   1      44.929  23.842  31.008  1.00  0.00     0.029 A 
ATOM     52  C   UNL A   1      44.470  25.209  31.198  1.00  0.00     0.049 A 
ATOM     53  H   UNL A   1      43.369  26.336  29.825  1.00  0.00     0.167 HD
ATOM     54  C   UNL A   1      39.946  28.041  27.402  1.00  0.00     0.031 A 
ATOM     55  C   UNL A   1      44.623  26.061  32.246  1.00  0.00     0.031 A 
ATOM     56  C   UNL A   1      41.108  28.781  26.980  1.00  0.00     0.049 A 
ATOM     57  C   UNL A   1      44.257  27.418  31.755  1.00  0.00     0.074 A 
ATOM     58  C   UNL A   1      41.880  28.801  25.835  1.00  0.00     0.029 A 
ATOM     59  N   UNL A   1      41.876  29.357  27.967  1.00  0.00    -0.354 N 
ATOM     60  N   UNL A   1      44.935  28.048  30.833  1.00  0.00    -0.248 NA
ATOM     61  C   UNL A   1      42.876  27.855  31.911  1.00  0.00     0.031 C 
ATOM     62  C   UNL A   1      43.221  28.952  26.296  1.00  0.00     0.029 A 
ATOM     63  C   UNL A   1      43.191  29.080  27.688  1.00  0.00     0.049 A 
ATOM     64  H   UNL A   1      41.541  29.875  28.734  1.00  0.00     0.167 HD
ATOM     65  C   UNL A   1      43.976  28.640  30.019  1.00  0.00     0.074 A 
ATOM     66  C   UNL A   1      42.732  28.560  30.784  1.00  0.00     0.031 C 
ATOM     67  C   UNL A   1      44.216  28.877  28.694  1.00  0.00     0.031 A 
BRANCH  54  68
ATOM     68  C   UNL A   1      38.832  28.662  28.203  1.00  0.00    -0.014 A 
ATOM     69  C   UNL A   1      38.103  29.728  27.649  1.00  0.00     0.010 A 
ATOM     70  C   UNL A   1      38.659  28.415  29.584  1.00  0.00     0.010 A 
ATOM     71  C   UNL A   1      37.290  30.538  28.453  1.00  0.00     0.020 A 
ATOM     72  C   UNL A   1      37.816  29.181  30.383  1.00  0.00     0.020 A 
ATOM     73  C   UNL A   1      37.164  30.263  29.816  1.00  0.00     0.054 A 
BRANCH  73  74
ATOM     74  S   UNL A   1      36.207  31.378  30.868  1.00  0.00     0.124 S 
ATOM     75  O   UNL A   1      37.181  32.427  31.153  1.00  0.00    -0.237 OA
ATOM     76  O   UNL A   1      35.102  31.754  29.991  1.00  0.00    -0.237 OA
ATOM     77  O   UNL A   1      35.836  30.540  32.007  1.00  0.00    -0.744 OA
ENDBRANCH  73  74
ENDBRANCH  54  68
BRANCH  55  78
ATOM     78  C   UNL A   1      44.655  25.690  33.687  1.00  0.00    -0.014 A 
ATOM     79  C   UNL A   1      44.148  24.463  34.151  1.00  0.00     0.010 A 
ATOM     80  C   UNL A   1      45.428  26.455  34.586  1.00  0.00     0.010 A 
ATOM     81  C   UNL A   1      44.429  24.009  35.456  1.00  0.00     0.020 A 
ATOM     82  C   UNL A   1      45.710  26.013  35.884  1.00  0.00     0.020 A 
ATOM     83  C   UNL A   1      45.221  24.782  36.310  1.00  0.00     0.054 A 
BRANCH  83  84
ATOM     84  S   UNL A   1      45.690  24.136  37.945  1.00  0.00     0.124 S 
ATOM     85  O   UNL A   1      47.055  24.632  38.096  1.00  0.00    -0.237 OA
ATOM     86  O   UNL A   1      44.696  24.743  38.825  1.00  0.00    -0.237 OA
ATOM     87  O   UNL A   1      45.573  22.686  37.791  1.00  0.00    -0.744 OA
ENDBRANCH  83  84
ENDBRANCH  55  78
BRANCH  67  88
ATOM     88  C   UNL A   1      45.626  28.683  28.176  1.00  0.00    -0.014 A 
ATOM     89  C   UNL A   1      46.099  27.464  27.645  1.00  0.00     0.010 A 
ATOM     90  C   UNL A   1      46.442  29.821  28.055  1.00  0.00     0.010 A 
ATOM     91  C   UNL A   1      47.356  27.388  27.023  1.00  0.00     0.020 A 
ATOM     92  C   UNL A   1      47.688  29.755  27.424  1.00  0.00     0.020 A 
ATOM     93  C   UNL A   1      48.143  28.538  26.914  1.00  0.00     0.054 A 
BRANCH  93  94
ATOM     94  S   UNL A   1      49.739  28.455  26.051  1.00  0.00     0.124 S 
ATOM     95  O   UNL A   1      49.353  28.034  24.707  1.00  0.00    -0.237 OA
ATOM     96  O   UNL A   1      50.241  29.823  26.161  1.00  0.00    -0.237 OA
ATOM     97  O   UNL A   1      50.496  27.464  26.814  1.00  0.00    -0.744 OA
ENDBRANCH  93  94
ENDBRANCH  67  88
ENDBRANCH  41  42
ENDBRANCH  34  36
ENDBRANCH  33  34
ENDBRANCH  32  33
ENDBRANCH   1  32
TORSDOF 19
ENDMDL
MODEL 3
REMARK VINA RESULT:     -11.2      5.129      9.346
REMARK SMILES Cc1cnn(C2(C(=O)OCCOCCOC(=O)c3ccc(-c4c5nc(c(-c6ccc(S(=O)(=O)[O-])cc6)c6ccc([nH]6)c(-c6ccc(S(=O)(=O)[O-])cc6)c6nc(c(-c7ccc(S(=O)(=O)[O-])cc7)c7ccc4[nH]7)C=C6)C=C5)cc3)CCN(C(=O)c3cc4ccccc4[nH]3)CC2)c1
REMARK SMILES IDX 13 1 12 2 11 3 10 4 9 5 7 6 8 7 6 8 78 9 93 10 79 11 92 12
REMARK SMILES IDX 80 13 81 14 82 15 5 16 1 17 2 18 3 19 94 20 4 21 83 22 84 23
REMARK SMILES IDX 91 24 85 25 90 26 86 28 89 29 87 30 88 31 14 32 15 33 16 34
REMARK SMILES IDX 17 35 18 36 19 37 77 38 20 39 76 40 21 41 22 42 23 43 70 44
REMARK SMILES IDX 24 45 75 46 69 47 71 48 25 49 74 50 68 51 67 52 26 54 56 55
REMARK SMILES IDX 37 56 55 57 38 58 41 59 54 60 72 61 39 62 40 63 53 65 73 66
REMARK SMILES IDX 42 67 27 68 28 69 36 70 29 71 35 72 30 73 31 74 32 75 33 76
REMARK SMILES IDX 34 77 57 78 58 79 66 80 59 81 65 82 60 83 61 84 62 85 63 86
REMARK SMILES IDX 64 87 43 88 44 89 52 90 45 91 51 92 46 93 47 94 48 95 49 96
REMARK SMILES IDX 50 97
REMARK H PARENT 91 27 71 53 41 64
REMARK Flexibility Score: inf
ROOT
ATOM      1  C   UNL A   1      42.856  20.590  25.483  1.00  0.00     0.202 C 
ENDROOT
BRANCH   1   2
ATOM      2  O   UNL A   1      43.713  21.401  24.683  1.00  0.00    -0.374 OA
BRANCH   2   3
ATOM      3  C   UNL A   1      45.122  21.398  24.907  1.00  0.00     0.202 C 
BRANCH   3   4
ATOM      4  C   UNL A   1      45.699  22.308  25.989  1.00  0.00     0.261 C 
BRANCH   4   5
ATOM      5  O   UNL A   1      46.586  23.302  25.455  1.00  0.00    -0.461 OA
BRANCH   5   6
ATOM      6  C   UNL A   1      46.129  24.587  25.522  1.00  0.00     0.334 C 
ATOM      7  O   UNL A   1      45.422  25.097  24.655  1.00  0.00    -0.249 OA
BRANCH   6   8
ATOM      8  C   UNL A   1      46.724  25.379  26.708  1.00  0.00     0.163 C 
ATOM      9  C   UNL A   1      45.964  26.689  27.040  1.00  0.00     0.064 C 
ATOM     10  C   UNL A   1      46.520  24.347  27.831  1.00  0.00     0.064 C 
ATOM     11  C   UNL A   1      46.194  27.180  28.471  1.00  0.00     0.123 C 
ATOM     12  C   UNL A   1      46.690  24.868  29.233  1.00  0.00     0.123 C 
ATOM     13  N   UNL A   1      45.982  26.120  29.455  1.00  0.00    -0.337 N 
ATOM     14  C   UNL A   1      45.159  26.367  30.563  1.00  0.00     0.270 C 
ATOM     15  O   UNL A   1      44.426  27.352  30.615  1.00  0.00    -0.267 OA
BRANCH   8  16
ATOM     16  N   UNL A   1      48.146  25.674  26.437  1.00  0.00    -0.255 N 
ATOM     17  C   UNL A   1      51.787  25.470  26.760  1.00  0.00     0.048 C 
ATOM     18  C   UNL A   1      50.363  25.742  26.474  1.00  0.00    -0.013 A 
ATOM     19  C   UNL A   1      49.812  26.749  25.663  1.00  0.00     0.138 A 
ATOM     20  C   UNL A   1      49.262  25.083  26.974  1.00  0.00     0.113 A 
ATOM     21  N   UNL A   1      48.481  26.744  25.683  1.00  0.00    -0.180 NA
ENDBRANCH   8  16
BRANCH  14  22
ATOM     22  C   UNL A   1      45.133  25.369  31.612  1.00  0.00     0.105 A 
ATOM     23  C   UNL A   1      44.328  24.258  31.807  1.00  0.00     0.042 A 
ATOM     24  N   UNL A   1      46.011  25.392  32.674  1.00  0.00    -0.351 N 
ATOM     25  C   UNL A   1      44.495  23.831  33.148  1.00  0.00     0.000 A 
ATOM     26  C   UNL A   1      45.582  24.535  33.663  1.00  0.00     0.046 A 
ATOM     27  H   UNL A   1      46.826  25.941  32.720  1.00  0.00     0.167 HD
ATOM     28  C   UNL A   1      43.805  22.929  33.977  1.00  0.00     0.010 A 
ATOM     29  C   UNL A   1      46.055  24.336  34.963  1.00  0.00     0.026 A 
ATOM     30  C   UNL A   1      44.237  22.751  35.294  1.00  0.00     0.001 A 
ATOM     31  C   UNL A   1      45.356  23.432  35.771  1.00  0.00     0.002 A 
ENDBRANCH  14  22
ENDBRANCH   6   8
ENDBRANCH   5   6
ENDBRANCH   4   5
ENDBRANCH   3   4
ENDBRANCH   2   3
ENDBRANCH   1   2
BRANCH   1  32
ATOM     32  C   UNL A   1      41.844  21.269  26.394  1.00  0.00     0.261 C 
BRANCH  32  33
ATOM     33  O   UNL A   1      42.201  22.622  26.629  1.00  0.00    -0.460 OA
BRANCH  33  34
ATOM     34  C   UNL A   1      41.149  23.475  26.591  1.00  0.00     0.338 C 
ATOM     35  O   UNL A   1      39.972  23.191  26.568  1.00  0.00    -0.246 OA
BRANCH  34  36
ATOM     36  C   UNL A   1      41.670  24.842  26.468  1.00  0.00     0.060 A 
ATOM     37  C   UNL A   1      42.664  25.164  27.391  1.00  0.00     0.016 A 
ATOM     38  C   UNL A   1      40.918  25.818  25.796  1.00  0.00     0.016 A 
ATOM     39  C   UNL A   1      42.652  26.431  27.909  1.00  0.00     0.010 A 
ATOM     40  C   UNL A   1      40.910  27.086  26.312  1.00  0.00     0.010 A 
ATOM     41  C   UNL A   1      41.680  27.324  27.446  1.00  0.00    -0.014 A 
BRANCH  41  42
ATOM     42  C   UNL A   1      41.505  28.549  28.181  1.00  0.00     0.031 A 
ATOM     43  C   UNL A   1      42.617  29.486  27.957  1.00  0.00     0.074 A 
ATOM     44  C   UNL A   1      40.406  28.800  28.915  1.00  0.00     0.049 A 
ATOM     45  N   UNL A   1      43.588  29.758  28.762  1.00  0.00    -0.248 NA
ATOM     46  C   UNL A   1      42.796  29.989  26.586  1.00  0.00     0.031 C 
ATOM     47  C   UNL A   1      39.149  28.048  28.980  1.00  0.00     0.029 A 
ATOM     48  N   UNL A   1      40.153  29.878  29.694  1.00  0.00    -0.354 N 
ATOM     49  C   UNL A   1      44.375  30.666  28.071  1.00  0.00     0.074 A 
ATOM     50  C   UNL A   1      43.991  30.565  26.685  1.00  0.00     0.031 C 
ATOM     51  C   UNL A   1      38.197  28.829  29.544  1.00  0.00     0.029 A 
ATOM     52  C   UNL A   1      38.814  30.065  30.000  1.00  0.00     0.049 A 
ATOM     53  H   UNL A   1      40.862  30.481  30.016  1.00  0.00     0.167 HD
ATOM     54  C   UNL A   1      45.036  31.661  28.718  1.00  0.00     0.031 A 
ATOM     55  C   UNL A   1      38.263  31.201  30.503  1.00  0.00     0.031 A 
ATOM     56  C   UNL A   1      45.141  31.409  30.133  1.00  0.00     0.049 A 
ATOM     57  C   UNL A   1      39.372  31.982  31.115  1.00  0.00     0.074 A 
ATOM     58  C   UNL A   1      45.703  30.406  30.898  1.00  0.00     0.029 A 
ATOM     59  N   UNL A   1      44.245  32.057  30.954  1.00  0.00    -0.354 N 
ATOM     60  N   UNL A   1      40.049  31.565  32.151  1.00  0.00    -0.248 NA
ATOM     61  C   UNL A   1      40.057  32.967  30.288  1.00  0.00     0.031 C 
ATOM     62  C   UNL A   1      44.788  30.205  31.974  1.00  0.00     0.029 A 
ATOM     63  C   UNL A   1      43.753  31.136  31.845  1.00  0.00     0.049 A 
ATOM     64  H   UNL A   1      44.002  33.010  30.909  1.00  0.00     0.167 HD
ATOM     65  C   UNL A   1      41.372  31.893  31.877  1.00  0.00     0.074 A 
ATOM     66  C   UNL A   1      41.302  32.833  30.758  1.00  0.00     0.031 C 
ATOM     67  C   UNL A   1      42.407  31.158  32.384  1.00  0.00     0.031 A 
BRANCH  54  68
ATOM     68  C   UNL A   1      45.163  33.041  28.126  1.00  0.00    -0.014 A 
ATOM     69  C   UNL A   1      46.436  33.629  28.030  1.00  0.00     0.010 A 
ATOM     70  C   UNL A   1      44.049  33.884  27.914  1.00  0.00     0.010 A 
ATOM     71  C   UNL A   1      46.578  35.002  27.793  1.00  0.00     0.020 A 
ATOM     72  C   UNL A   1      44.178  35.239  27.628  1.00  0.00     0.020 A 
ATOM     73  C   UNL A   1      45.445  35.797  27.606  1.00  0.00     0.054 A 
BRANCH  73  74
ATOM     74  S   UNL A   1      45.629  37.584  27.415  1.00  0.00     0.124 S 
ATOM     75  O   UNL A   1      44.314  37.966  26.908  1.00  0.00    -0.237 OA
ATOM     76  O   UNL A   1      45.935  38.009  28.778  1.00  0.00    -0.237 OA
ATOM     77  O   UNL A   1      46.730  37.716  26.464  1.00  0.00    -0.744 OA
ENDBRANCH  73  74
ENDBRANCH  54  68
BRANCH  55  78
ATOM     78  C   UNL A   1      36.958  31.797  30.109  1.00  0.00    -0.014 A 
ATOM     79  C   UNL A   1      36.008  32.208  31.061  1.00  0.00     0.010 A 
ATOM     80  C   UNL A   1      36.752  32.199  28.771  1.00  0.00     0.010 A 
ATOM     81  C   UNL A   1      34.912  33.014  30.692  1.00  0.00     0.020 A 
ATOM     82  C   UNL A   1      35.665  32.996  28.395  1.00  0.00     0.020 A 
ATOM     83  C   UNL A   1      34.755  33.413  29.361  1.00  0.00     0.054 A 
BRANCH  83  84
ATOM     84  S   UNL A   1      33.414  34.558  28.911  1.00  0.00     0.124 S 
ATOM     85  O   UNL A   1      32.706  33.815  27.872  1.00  0.00    -0.237 OA
ATOM     86  O   UNL A   1      32.697  34.721  30.171  1.00  0.00    -0.237 OA
ATOM     87  O   UNL A   1      34.120  35.751  28.444  1.00  0.00    -0.744 OA
ENDBRANCH  83  84
ENDBRANCH  55  78
BRANCH  67  88
ATOM     88  C   UNL A   1      42.094  30.109  33.432  1.00  0.00    -0.014 A 
ATOM     89  C   UNL A   1      41.615  28.819  33.122  1.00  0.00     0.010 A 
ATOM     90  C   UNL A   1      42.471  30.377  34.759  1.00  0.00     0.010 A 
ATOM     91  C   UNL A   1      41.505  27.832  34.115  1.00  0.00     0.020 A 
ATOM     92  C   UNL A   1      42.378  29.395  35.750  1.00  0.00     0.020 A 
ATOM     93  C   UNL A   1      41.892  28.127  35.426  1.00  0.00     0.054 A 
BRANCH  93  94
ATOM     94  S   UNL A   1      41.815  26.832  36.697  1.00  0.00     0.124 S 
ATOM     95  O   UNL A   1      41.867  25.606  35.907  1.00  0.00    -0.237 OA
ATOM     96  O   UNL A   1      42.996  27.105  37.514  1.00  0.00    -0.237 OA
ATOM     97  O   UNL A   1      40.539  27.080  37.369  1.00  0.00    -0.744 OA
ENDBRANCH  93  94
ENDBRANCH  67  88
ENDBRANCH  41  42
ENDBRANCH  34  36
ENDBRANCH  33  34
ENDBRANCH  32  33
ENDBRANCH   1  32
TORSDOF 19
ENDMDL
