MODEL 1
REMARK VINA RESULT:     -10.1      0.000      0.000
REMARK SMILES COc1ccc2c(c1)CC[C@@](C)(CCC(=O)OCCOCCOC(=O)c1ccc(-c3c4nc(c(-c5ccc(S(=O)(=O)[O-])cc5)c5ccc([nH]5)c(-c5ccc(S(=O)(=O)[O-])cc5)c5nc(c(-c6ccc(S(=O)(=O)[O-])cc6)c6ccc3[nH]6)C=C5)C=C4)cc1)C2=O
REMARK SMILES IDX 20 1 19 2 18 3 17 4 15 5 16 6 14 7 13 8 11 9 3 10 4 11 8 12
REMARK SMILES IDX 5 13 7 14 6 15 9 16 86 17 10 18 87 19 12 20 2 21 1 22 21 23
REMARK SMILES IDX 22 24 23 25 24 26 25 27 26 28 27 29 85 30 28 31 84 32 29 33
REMARK SMILES IDX 30 34 31 35 78 36 32 37 83 38 77 39 79 40 33 41 82 42 76 43
REMARK SMILES IDX 75 44 34 46 64 47 45 48 63 49 46 50 49 51 62 52 80 53 47 54
REMARK SMILES IDX 48 55 61 57 81 58 50 59 35 60 36 61 44 62 37 63 43 64 38 65
REMARK SMILES IDX 39 66 40 67 41 68 42 69 65 70 66 71 74 72 67 73 73 74 68 75
REMARK SMILES IDX 69 76 70 77 71 78 72 79 51 80 52 81 60 82 53 83 59 84 54 85
REMARK SMILES IDX 55 86 56 87 57 88 58 89
REMARK H PARENT 79 45 49 56
REMARK Flexibility Score: inf
ROOT
ATOM      1  O   UNL A   1      32.224  29.070  23.643  1.00  0.00    -0.374 OA
ENDROOT
BRANCH   1   2
ATOM      2  C   UNL A   1      30.855  28.973  24.045  1.00  0.00     0.202 C 
BRANCH   2   3
ATOM      3  C   UNL A   1      29.946  28.193  23.082  1.00  0.00     0.261 C 
BRANCH   3   4
ATOM      4  O   UNL A   1      30.664  27.584  21.988  1.00  0.00    -0.463 OA
BRANCH   4   5
ATOM      5  C   UNL A   1      31.191  26.355  22.197  1.00  0.00     0.305 C 
ATOM      6  O   UNL A   1      32.124  25.870  21.570  1.00  0.00    -0.252 OA
BRANCH   5   7
ATOM      7  C   UNL A   1      30.437  25.593  23.272  1.00  0.00     0.124 C 
BRANCH   7   8
ATOM      8  C   UNL A   1      30.778  24.105  23.453  1.00  0.00     0.026 C 
BRANCH   8   9
ATOM      9  C   UNL A   1      31.979  23.718  24.363  1.00  0.00     0.032 C 
ATOM     10  C   UNL A   1      37.024  23.251  25.117  1.00  0.00     0.119 A 
ATOM     11  C   UNL A   1      36.861  23.001  23.760  1.00  0.00     0.047 A 
ATOM     12  C   UNL A   1      35.983  23.753  25.883  1.00  0.00     0.050 A 
ATOM     13  C   UNL A   1      35.596  23.094  23.197  1.00  0.00     0.016 A 
ATOM     14  C   UNL A   1      34.727  23.925  25.312  1.00  0.00    -0.033 A 
ATOM     15  C   UNL A   1      34.524  23.475  24.004  1.00  0.00     0.022 A 
ATOM     16  C   UNL A   1      33.622  24.518  26.130  1.00  0.00     0.037 C 
ATOM     17  C   UNL A   1      33.148  23.211  23.539  1.00  0.00     0.169 C 
ATOM     18  C   UNL A   1      32.436  24.893  25.244  1.00  0.00     0.020 C 
ATOM     19  O   UNL A   1      32.983  22.440  22.601  1.00  0.00    -0.294 OA
ATOM     20  C   UNL A   1      31.549  22.511  25.235  1.00  0.00     0.020 C 
BRANCH  10  21
ATOM     21  O   UNL A   1      38.161  22.929  25.793  1.00  0.00    -0.497 OA
ATOM     22  C   UNL A   1      38.577  24.006  26.609  1.00  0.00     0.278 C 
ENDBRANCH  10  21
ENDBRANCH   8   9
ENDBRANCH   7   8
ENDBRANCH   5   7
ENDBRANCH   4   5
ENDBRANCH   3   4
ENDBRANCH   2   3
ENDBRANCH   1   2
BRANCH   1  23
ATOM     23  C   UNL A   1      33.179  28.865  24.684  1.00  0.00     0.202 C 
BRANCH  23  24
ATOM     24  C   UNL A   1      32.975  29.708  25.954  1.00  0.00     0.261 C 
BRANCH  24  25
ATOM     25  O   UNL A   1      33.935  29.424  26.989  1.00  0.00    -0.460 OA
BRANCH  25  26
ATOM     26  C   UNL A   1      34.550  30.492  27.545  1.00  0.00     0.338 C 
ATOM     27  O   UNL A   1      34.055  31.595  27.729  1.00  0.00    -0.246 OA
BRANCH  26  28
ATOM     28  C   UNL A   1      35.900  30.122  28.060  1.00  0.00     0.060 A 
ATOM     29  C   UNL A   1      37.068  30.258  27.311  1.00  0.00     0.016 A 
ATOM     30  C   UNL A   1      35.988  29.615  29.367  1.00  0.00     0.016 A 
ATOM     31  C   UNL A   1      38.304  29.900  27.879  1.00  0.00     0.010 A 
ATOM     32  C   UNL A   1      37.229  29.281  29.938  1.00  0.00     0.010 A 
ATOM     33  C   UNL A   1      38.413  29.426  29.211  1.00  0.00    -0.014 A 
BRANCH  33  34
ATOM     34  C   UNL A   1      39.770  29.241  29.833  1.00  0.00     0.031 A 
ATOM     35  C   UNL A   1      40.344  30.128  30.926  1.00  0.00     0.074 A 
ATOM     36  C   UNL A   1      40.505  28.187  29.415  1.00  0.00     0.049 A 
ATOM     37  N   UNL A   1      41.352  29.878  31.731  1.00  0.00    -0.248 NA
ATOM     38  C   UNL A   1      39.712  31.434  31.182  1.00  0.00     0.031 C 
ATOM     39  C   UNL A   1      40.131  27.285  28.322  1.00  0.00     0.029 A 
ATOM     40  N   UNL A   1      41.701  27.683  29.864  1.00  0.00    -0.354 N 
ATOM     41  C   UNL A   1      41.385  30.913  32.665  1.00  0.00     0.074 A 
ATOM     42  C   UNL A   1      40.379  31.867  32.251  1.00  0.00     0.031 C 
ATOM     43  C   UNL A   1      41.054  26.320  28.211  1.00  0.00     0.029 A 
ATOM     44  C   UNL A   1      42.110  26.553  29.192  1.00  0.00     0.049 A 
ATOM     45  H   UNL A   1      42.219  28.091  30.595  1.00  0.00     0.167 HD
ATOM     46  C   UNL A   1      42.108  30.989  33.812  1.00  0.00     0.031 A 
ATOM     47  C   UNL A   1      43.205  25.780  29.333  1.00  0.00     0.031 A 
ATOM     48  C   UNL A   1      43.161  30.065  34.167  1.00  0.00     0.049 A 
ATOM     49  C   UNL A   1      44.168  26.066  30.447  1.00  0.00     0.074 A 
ATOM     50  C   UNL A   1      43.920  30.037  35.327  1.00  0.00     0.029 A 
ATOM     51  N   UNL A   1      43.643  29.047  33.360  1.00  0.00    -0.354 N 
ATOM     52  N   UNL A   1      44.054  26.924  31.430  1.00  0.00    -0.248 NA
ATOM     53  C   UNL A   1      45.401  25.267  30.483  1.00  0.00     0.031 C 
ATOM     54  C   UNL A   1      44.926  29.080  35.173  1.00  0.00     0.029 A 
ATOM     55  C   UNL A   1      44.750  28.455  33.951  1.00  0.00     0.049 A 
ATOM     56  H   UNL A   1      43.256  28.784  32.493  1.00  0.00     0.167 HD
ATOM     57  C   UNL A   1      45.189  26.753  32.215  1.00  0.00     0.074 A 
ATOM     58  C   UNL A   1      45.963  25.691  31.607  1.00  0.00     0.031 C 
ATOM     59  C   UNL A   1      45.551  27.423  33.338  1.00  0.00     0.031 A 
BRANCH  46  60
ATOM     60  C   UNL A   1      41.752  32.019  34.870  1.00  0.00    -0.014 A 
ATOM     61  C   UNL A   1      40.636  31.864  35.708  1.00  0.00     0.010 A 
ATOM     62  C   UNL A   1      42.361  33.286  34.811  1.00  0.00     0.010 A 
ATOM     63  C   UNL A   1      40.127  32.960  36.427  1.00  0.00     0.020 A 
ATOM     64  C   UNL A   1      41.876  34.377  35.536  1.00  0.00     0.020 A 
ATOM     65  C   UNL A   1      40.742  34.214  36.321  1.00  0.00     0.054 A 
BRANCH  65  66
ATOM     66  S   UNL A   1      40.012  35.648  37.162  1.00  0.00     0.124 S 
ATOM     67  O   UNL A   1      38.888  35.052  37.875  1.00  0.00    -0.237 OA
ATOM     68  O   UNL A   1      41.116  36.118  37.995  1.00  0.00    -0.237 OA
ATOM     69  O   UNL A   1      39.649  36.542  36.064  1.00  0.00    -0.744 OA
ENDBRANCH  65  66
ENDBRANCH  46  60
BRANCH  47  70
ATOM     70  C   UNL A   1      43.435  24.661  28.374  1.00  0.00    -0.014 A 
ATOM     71  C   UNL A   1      44.214  24.875  27.221  1.00  0.00     0.010 A 
ATOM     72  C   UNL A   1      42.847  23.400  28.573  1.00  0.00     0.010 A 
ATOM     73  C   UNL A   1      44.353  23.876  26.256  1.00  0.00     0.020 A 
ATOM     74  C   UNL A   1      43.019  22.380  27.628  1.00  0.00     0.020 A 
ATOM     75  C   UNL A   1      43.746  22.636  26.463  1.00  0.00     0.054 A 
BRANCH  75  76
ATOM     76  S   UNL A   1      43.920  21.366  25.181  1.00  0.00     0.124 S 
ATOM     77  O   UNL A   1      42.784  20.494  25.469  1.00  0.00    -0.237 OA
ATOM     78  O   UNL A   1      43.821  22.142  23.948  1.00  0.00    -0.237 OA
ATOM     79  O   UNL A   1      45.235  20.789  25.448  1.00  0.00    -0.744 OA
ENDBRANCH  75  76
ENDBRANCH  47  70
BRANCH  59  80
ATOM     80  C   UNL A   1      46.870  27.061  33.977  1.00  0.00    -0.014 A 
ATOM     81  C   UNL A   1      48.054  27.726  33.606  1.00  0.00     0.010 A 
ATOM     82  C   UNL A   1      46.948  26.011  34.911  1.00  0.00     0.010 A 
ATOM     83  C   UNL A   1      49.288  27.337  34.137  1.00  0.00     0.020 A 
ATOM     84  C   UNL A   1      48.173  25.646  35.476  1.00  0.00     0.020 A 
ATOM     85  C   UNL A   1      49.339  26.297  35.069  1.00  0.00     0.054 A 
BRANCH  85  86
ATOM     86  S   UNL A   1      50.944  25.817  35.763  1.00  0.00     0.124 S 
ATOM     87  O   UNL A   1      51.872  26.645  34.998  1.00  0.00    -0.237 OA
ATOM     88  O   UNL A   1      50.803  26.169  37.175  1.00  0.00    -0.237 OA
ATOM     89  O   UNL A   1      51.020  24.382  35.493  1.00  0.00    -0.744 OA
ENDBRANCH  85  86
ENDBRANCH  59  80
ENDBRANCH  33  34
ENDBRANCH  26  28
ENDBRANCH  25  26
ENDBRANCH  24  25
ENDBRANCH  23  24
ENDBRANCH   1  23
TORSDOF 20
ENDMDL
MODEL 2
REMARK VINA RESULT:      -9.9      3.415      9.913
REMARK SMILES COc1ccc2c(c1)CC[C@@](C)(CCC(=O)OCCOCCOC(=O)c1ccc(-c3c4nc(c(-c5ccc(S(=O)(=O)[O-])cc5)c5ccc([nH]5)c(-c5ccc(S(=O)(=O)[O-])cc5)c5nc(c(-c6ccc(S(=O)(=O)[O-])cc6)c6ccc3[nH]6)C=C5)C=C4)cc1)C2=O
REMARK SMILES IDX 20 1 19 2 18 3 17 4 15 5 16 6 14 7 13 8 11 9 3 10 4 11 8 12
REMARK SMILES IDX 5 13 7 14 6 15 9 16 86 17 10 18 87 19 12 20 2 21 1 22 21 23
REMARK SMILES IDX 22 24 23 25 24 26 25 27 26 28 27 29 85 30 28 31 84 32 29 33
REMARK SMILES IDX 30 34 31 35 78 36 32 37 83 38 77 39 79 40 33 41 82 42 76 43
REMARK SMILES IDX 75 44 34 46 64 47 45 48 63 49 46 50 49 51 62 52 80 53 47 54
REMARK SMILES IDX 48 55 61 57 81 58 50 59 35 60 36 61 44 62 37 63 43 64 38 65
REMARK SMILES IDX 39 66 40 67 41 68 42 69 65 70 66 71 74 72 67 73 73 74 68 75
REMARK SMILES IDX 69 76 70 77 71 78 72 79 51 80 52 81 60 82 53 83 59 84 54 85
REMARK SMILES IDX 55 86 56 87 57 88 58 89
REMARK H PARENT 79 45 49 56
REMARK Flexibility Score: inf
ROOT
ATOM      1  O   UNL A   1      35.006  34.394  28.382  1.00  0.00    -0.374 OA
ENDROOT
BRANCH   1   2
ATOM      2  C   UNL A   1      35.434  33.104  28.824  1.00  0.00     0.202 C 
BRANCH   2   3
ATOM      3  C   UNL A   1      34.395  31.982  28.670  1.00  0.00     0.261 C 
BRANCH   3   4
ATOM      4  O   UNL A   1      34.579  31.195  27.475  1.00  0.00    -0.463 OA
BRANCH   4   5
ATOM      5  C   UNL A   1      35.059  29.939  27.625  1.00  0.00     0.305 C 
ATOM      6  O   UNL A   1      35.754  29.555  28.558  1.00  0.00    -0.252 OA
BRANCH   5   7
ATOM      7  C   UNL A   1      34.696  29.051  26.449  1.00  0.00     0.124 C 
BRANCH   7   8
ATOM      8  C   UNL A   1      33.712  27.900  26.711  1.00  0.00     0.026 C 
BRANCH   8   9
ATOM      9  C   UNL A   1      32.436  27.791  25.827  1.00  0.00     0.032 C 
ATOM     10  C   UNL A   1      28.965  29.943  22.735  1.00  0.00     0.119 A 
ATOM     11  C   UNL A   1      29.318  30.964  23.609  1.00  0.00     0.047 A 
ATOM     12  C   UNL A   1      29.682  28.757  22.693  1.00  0.00     0.050 A 
ATOM     13  C   UNL A   1      30.293  30.733  24.568  1.00  0.00     0.016 A 
ATOM     14  C   UNL A   1      30.714  28.542  23.598  1.00  0.00    -0.033 A 
ATOM     15  C   UNL A   1      30.924  29.489  24.605  1.00  0.00     0.022 A 
ATOM     16  C   UNL A   1      31.519  27.282  23.511  1.00  0.00     0.037 C 
ATOM     17  C   UNL A   1      31.661  29.096  25.822  1.00  0.00     0.169 C 
ATOM     18  C   UNL A   1      32.769  27.379  24.383  1.00  0.00     0.020 C 
ATOM     19  O   UNL A   1      31.484  29.739  26.850  1.00  0.00    -0.294 OA
ATOM     20  C   UNL A   1      31.484  26.761  26.487  1.00  0.00     0.020 C 
BRANCH  10  21
ATOM     21  O   UNL A   1      27.852  29.997  21.953  1.00  0.00    -0.497 OA
ATOM     22  C   UNL A   1      28.030  30.921  20.898  1.00  0.00     0.278 C 
ENDBRANCH  10  21
ENDBRANCH   8   9
ENDBRANCH   7   8
ENDBRANCH   5   7
ENDBRANCH   4   5
ENDBRANCH   3   4
ENDBRANCH   2   3
ENDBRANCH   1   2
BRANCH   1  23
ATOM     23  C   UNL A   1      33.593  34.593  28.367  1.00  0.00     0.202 C 
BRANCH  23  24
ATOM     24  C   UNL A   1      33.065  35.709  29.286  1.00  0.00     0.261 C 
BRANCH  24  25
ATOM     25  O   UNL A   1      32.413  35.213  30.470  1.00  0.00    -0.460 OA
BRANCH  25  26
ATOM     26  C   UNL A   1      32.810  35.754  31.644  1.00  0.00     0.338 C 
ATOM     27  O   UNL A   1      32.287  36.702  32.214  1.00  0.00    -0.246 OA
BRANCH  26  28
ATOM     28  C   UNL A   1      33.904  34.951  32.259  1.00  0.00     0.060 A 
ATOM     29  C   UNL A   1      33.675  33.816  33.037  1.00  0.00     0.016 A 
ATOM     30  C   UNL A   1      35.227  35.363  32.034  1.00  0.00     0.016 A 
ATOM     31  C   UNL A   1      34.767  33.105  33.567  1.00  0.00     0.010 A 
ATOM     32  C   UNL A   1      36.316  34.635  32.546  1.00  0.00     0.010 A 
ATOM     33  C   UNL A   1      36.110  33.485  33.314  1.00  0.00    -0.014 A 
BRANCH  33  34
ATOM     34  C   UNL A   1      37.238  32.587  33.741  1.00  0.00     0.031 A 
ATOM     35  C   UNL A   1      37.668  31.334  32.996  1.00  0.00     0.074 A 
ATOM     36  C   UNL A   1      37.937  32.949  34.838  1.00  0.00     0.049 A 
ATOM     37  N   UNL A   1      38.798  30.672  33.102  1.00  0.00    -0.248 NA
ATOM     38  C   UNL A   1      36.755  30.757  31.993  1.00  0.00     0.031 C 
ATOM     39  C   UNL A   1      37.606  34.080  35.709  1.00  0.00     0.029 A 
ATOM     40  N   UNL A   1      39.075  32.423  35.401  1.00  0.00    -0.354 N 
ATOM     41  C   UNL A   1      38.792  29.705  32.098  1.00  0.00     0.074 A 
ATOM     42  C   UNL A   1      37.488  29.774  31.474  1.00  0.00     0.031 C 
ATOM     43  C   UNL A   1      38.536  34.187  36.667  1.00  0.00     0.029 A 
ATOM     44  C   UNL A   1      39.509  33.110  36.513  1.00  0.00     0.049 A 
ATOM     45  H   UNL A   1      39.536  31.629  35.045  1.00  0.00     0.167 HD
ATOM     46  C   UNL A   1      39.820  28.923  31.675  1.00  0.00     0.031 A 
ATOM     47  C   UNL A   1      40.564  32.910  37.328  1.00  0.00     0.031 A 
ATOM     48  C   UNL A   1      41.088  28.813  32.360  1.00  0.00     0.049 A 
ATOM     49  C   UNL A   1      41.549  31.827  37.003  1.00  0.00     0.074 A 
ATOM     50  C   UNL A   1      42.202  28.081  31.984  1.00  0.00     0.029 A 
ATOM     51  N   UNL A   1      41.397  29.401  33.576  1.00  0.00    -0.354 N 
ATOM     52  N   UNL A   1      41.616  31.073  35.933  1.00  0.00    -0.248 NA
ATOM     53  C   UNL A   1      42.612  31.578  37.986  1.00  0.00     0.031 C 
ATOM     54  C   UNL A   1      43.137  28.136  33.021  1.00  0.00     0.029 A 
ATOM     55  C   UNL A   1      42.641  28.967  34.011  1.00  0.00     0.049 A 
ATOM     56  H   UNL A   1      40.818  30.034  34.060  1.00  0.00     0.167 HD
ATOM     57  C   UNL A   1      42.743  30.275  36.103  1.00  0.00     0.074 A 
ATOM     58  C   UNL A   1      43.340  30.658  37.366  1.00  0.00     0.031 C 
ATOM     59  C   UNL A   1      43.230  29.311  35.283  1.00  0.00     0.031 A 
BRANCH  46  60
ATOM     60  C   UNL A   1      39.722  28.189  30.349  1.00  0.00    -0.014 A 
ATOM     61  C   UNL A   1      39.048  26.963  30.229  1.00  0.00     0.010 A 
ATOM     62  C   UNL A   1      40.568  28.583  29.295  1.00  0.00     0.010 A 
ATOM     63  C   UNL A   1      39.256  26.143  29.105  1.00  0.00     0.020 A 
ATOM     64  C   UNL A   1      40.766  27.786  28.166  1.00  0.00     0.020 A 
ATOM     65  C   UNL A   1      40.128  26.553  28.090  1.00  0.00     0.054 A 
BRANCH  65  66
ATOM     66  S   UNL A   1      40.479  25.440  26.699  1.00  0.00     0.124 S 
ATOM     67  O   UNL A   1      41.598  24.653  27.206  1.00  0.00    -0.237 OA
ATOM     68  O   UNL A   1      39.216  24.722  26.547  1.00  0.00    -0.237 OA
ATOM     69  O   UNL A   1      40.804  26.350  25.603  1.00  0.00    -0.744 OA
ENDBRANCH  65  66
ENDBRANCH  46  60
BRANCH  47  70
ATOM     70  C   UNL A   1      40.723  33.770  38.536  1.00  0.00    -0.014 A 
ATOM     71  C   UNL A   1      40.140  33.378  39.757  1.00  0.00     0.010 A 
ATOM     72  C   UNL A   1      41.407  34.996  38.472  1.00  0.00     0.010 A 
ATOM     73  C   UNL A   1      40.183  34.217  40.871  1.00  0.00     0.020 A 
ATOM     74  C   UNL A   1      41.490  35.821  39.600  1.00  0.00     0.020 A 
ATOM     75  C   UNL A   1      40.852  35.439  40.782  1.00  0.00     0.054 A 
BRANCH  75  76
ATOM     76  S   UNL A   1      40.869  36.521  42.237  1.00  0.00     0.124 S 
ATOM     77  O   UNL A   1      41.924  37.470  41.891  1.00  0.00    -0.237 OA
ATOM     78  O   UNL A   1      39.513  37.064  42.246  1.00  0.00    -0.237 OA
ATOM     79  O   UNL A   1      41.181  35.611  43.336  1.00  0.00    -0.744 OA
ENDBRANCH  75  76
ENDBRANCH  47  70
BRANCH  59  80
ATOM     80  C   UNL A   1      44.459  28.560  35.734  1.00  0.00    -0.014 A 
ATOM     81  C   UNL A   1      44.343  27.330  36.406  1.00  0.00     0.010 A 
ATOM     82  C   UNL A   1      45.742  29.108  35.543  1.00  0.00     0.010 A 
ATOM     83  C   UNL A   1      45.477  26.673  36.895  1.00  0.00     0.020 A 
ATOM     84  C   UNL A   1      46.881  28.436  35.993  1.00  0.00     0.020 A 
ATOM     85  C   UNL A   1      46.740  27.233  36.686  1.00  0.00     0.054 A 
BRANCH  85  86
ATOM     86  S   UNL A   1      48.203  26.360  37.310  1.00  0.00     0.124 S 
ATOM     87  O   UNL A   1      48.309  25.236  36.385  1.00  0.00    -0.237 OA
ATOM     88  O   UNL A   1      49.253  27.370  37.198  1.00  0.00    -0.237 OA
ATOM     89  O   UNL A   1      47.834  26.008  38.680  1.00  0.00    -0.744 OA
ENDBRANCH  85  86
ENDBRANCH  59  80
ENDBRANCH  33  34
ENDBRANCH  26  28
ENDBRANCH  25  26
ENDBRANCH  24  25
ENDBRANCH  23  24
ENDBRANCH   1  23
TORSDOF 20
ENDMDL
MODEL 3
REMARK VINA RESULT:      -9.6      2.773      4.289
REMARK SMILES COc1ccc2c(c1)CC[C@@](C)(CCC(=O)OCCOCCOC(=O)c1ccc(-c3c4nc(c(-c5ccc(S(=O)(=O)[O-])cc5)c5ccc([nH]5)c(-c5ccc(S(=O)(=O)[O-])cc5)c5nc(c(-c6ccc(S(=O)(=O)[O-])cc6)c6ccc3[nH]6)C=C5)C=C4)cc1)C2=O
REMARK SMILES IDX 20 1 19 2 18 3 17 4 15 5 16 6 14 7 13 8 11 9 3 10 4 11 8 12
REMARK SMILES IDX 5 13 7 14 6 15 9 16 86 17 10 18 87 19 12 20 2 21 1 22 21 23
REMARK SMILES IDX 22 24 23 25 24 26 25 27 26 28 27 29 85 30 28 31 84 32 29 33
REMARK SMILES IDX 30 34 31 35 78 36 32 37 83 38 77 39 79 40 33 41 82 42 76 43
REMARK SMILES IDX 75 44 34 46 64 47 45 48 63 49 46 50 49 51 62 52 80 53 47 54
REMARK SMILES IDX 48 55 61 57 81 58 50 59 35 60 36 61 44 62 37 63 43 64 38 65
REMARK SMILES IDX 39 66 40 67 41 68 42 69 65 70 66 71 74 72 67 73 73 74 68 75
REMARK SMILES IDX 69 76 70 77 71 78 72 79 51 80 52 81 60 82 53 83 59 84 54 85
REMARK SMILES IDX 55 86 56 87 57 88 58 89
REMARK H PARENT 79 45 49 56
REMARK Flexibility Score: inf
ROOT
ATOM      1  O   UNL A   1      32.770  29.740  25.961  1.00  0.00    -0.374 OA
ENDROOT
BRANCH   1   2
ATOM      2  C   UNL A   1      31.519  29.616  25.279  1.00  0.00     0.202 C 
BRANCH   2   3
ATOM      3  C   UNL A   1      31.177  28.197  24.797  1.00  0.00     0.261 C 
BRANCH   3   4
ATOM      4  O   UNL A   1      32.124  27.202  25.238  1.00  0.00    -0.463 OA
BRANCH   4   5
ATOM      5  C   UNL A   1      31.635  26.127  25.899  1.00  0.00     0.305 C 
ATOM      6  O   UNL A   1      30.481  26.003  26.289  1.00  0.00    -0.252 OA
BRANCH   5   7
ATOM      7  C   UNL A   1      32.713  25.095  26.176  1.00  0.00     0.124 C 
BRANCH   7   8
ATOM      8  C   UNL A   1      33.765  24.863  25.080  1.00  0.00     0.026 C 
BRANCH   8   9
ATOM      9  C   UNL A   1      33.725  23.532  24.275  1.00  0.00     0.032 C 
ATOM     10  C   UNL A   1      32.551  18.556  23.954  1.00  0.00     0.119 A 
ATOM     11  C   UNL A   1      32.883  18.739  25.291  1.00  0.00     0.047 A 
ATOM     12  C   UNL A   1      32.381  19.637  23.104  1.00  0.00     0.050 A 
ATOM     13  C   UNL A   1      33.211  20.008  25.744  1.00  0.00     0.016 A 
ATOM     14  C   UNL A   1      32.632  20.924  23.565  1.00  0.00    -0.033 A 
ATOM     15  C   UNL A   1      33.163  21.078  24.849  1.00  0.00     0.022 A 
ATOM     16  C   UNL A   1      32.392  22.092  22.658  1.00  0.00     0.037 C 
ATOM     17  C   UNL A   1      33.863  22.332  25.194  1.00  0.00     0.169 C 
ATOM     18  C   UNL A   1      32.439  23.402  23.441  1.00  0.00     0.020 C 
ATOM     19  O   UNL A   1      34.676  22.318  26.111  1.00  0.00    -0.294 OA
ATOM     20  C   UNL A   1      34.978  23.486  23.364  1.00  0.00     0.020 C 
BRANCH  10  21
ATOM     21  O   UNL A   1      32.477  17.325  23.377  1.00  0.00    -0.497 OA
ATOM     22  C   UNL A   1      33.695  16.626  23.539  1.00  0.00     0.278 C 
ENDBRANCH  10  21
ENDBRANCH   8   9
ENDBRANCH   7   8
ENDBRANCH   5   7
ENDBRANCH   4   5
ENDBRANCH   3   4
ENDBRANCH   2   3
ENDBRANCH   1   2
BRANCH   1  23
ATOM     23  C   UNL A   1      32.721  30.457  27.194  1.00  0.00     0.202 C 
BRANCH  23  24
ATOM     24  C   UNL A   1      32.216  31.908  27.105  1.00  0.00     0.261 C 
BRANCH  24  25
ATOM     25  O   UNL A   1      33.275  32.883  27.101  1.00  0.00    -0.460 OA
BRANCH  25  26
ATOM     26  C   UNL A   1      33.299  33.747  28.141  1.00  0.00     0.338 C 
ATOM     27  O   UNL A   1      32.425  34.553  28.428  1.00  0.00    -0.246 OA
BRANCH  26  28
ATOM     28  C   UNL A   1      34.483  33.501  29.013  1.00  0.00     0.060 A 
ATOM     29  C   UNL A   1      34.424  32.754  30.189  1.00  0.00     0.016 A 
ATOM     30  C   UNL A   1      35.714  34.050  28.619  1.00  0.00     0.016 A 
ATOM     31  C   UNL A   1      35.594  32.555  30.945  1.00  0.00     0.010 A 
ATOM     32  C   UNL A   1      36.884  33.829  29.366  1.00  0.00     0.010 A 
ATOM     33  C   UNL A   1      36.852  33.069  30.539  1.00  0.00    -0.014 A 
BRANCH  33  34
ATOM     34  C   UNL A   1      38.100  32.669  31.276  1.00  0.00     0.031 A 
ATOM     35  C   UNL A   1      38.571  33.301  32.575  1.00  0.00     0.074 A 
ATOM     36  C   UNL A   1      38.823  31.650  30.763  1.00  0.00     0.049 A 
ATOM     37  N   UNL A   1      39.447  32.834  33.437  1.00  0.00    -0.248 NA
ATOM     38  C   UNL A   1      37.986  34.589  32.990  1.00  0.00     0.031 C 
ATOM     39  C   UNL A   1      38.550  30.987  29.485  1.00  0.00     0.029 A 
ATOM     40  N   UNL A   1      39.918  30.980  31.254  1.00  0.00    -0.354 N 
ATOM     41  C   UNL A   1      39.412  33.683  34.543  1.00  0.00     0.074 A 
ATOM     42  C   UNL A   1      38.526  34.772  34.193  1.00  0.00     0.031 C 
ATOM     43  C   UNL A   1      39.423  29.985  29.312  1.00  0.00     0.029 A 
ATOM     44  C   UNL A   1      40.349  29.957  30.439  1.00  0.00     0.049 A 
ATOM     45  H   UNL A   1      40.355  31.211  32.105  1.00  0.00     0.167 HD
ATOM     46  C   UNL A   1      39.979  33.498  35.764  1.00  0.00     0.031 A 
ATOM     47  C   UNL A   1      41.370  29.086  30.567  1.00  0.00     0.031 A 
ATOM     48  C   UNL A   1      40.921  32.445  36.068  1.00  0.00     0.049 A 
ATOM     49  C   UNL A   1      42.189  29.094  31.824  1.00  0.00     0.074 A 
ATOM     50  C   UNL A   1      41.514  32.153  37.286  1.00  0.00     0.029 A 
ATOM     51  N   UNL A   1      41.448  31.550  35.151  1.00  0.00    -0.354 N 
ATOM     52  N   UNL A   1      41.993  29.772  32.927  1.00  0.00    -0.248 NA
ATOM     53  C   UNL A   1      43.359  28.205  31.861  1.00  0.00     0.031 C 
ATOM     54  C   UNL A   1      42.476  31.161  37.081  1.00  0.00     0.029 A 
ATOM     55  C   UNL A   1      42.430  30.776  35.753  1.00  0.00     0.049 A 
ATOM     56  H   UNL A   1      41.166  31.474  34.210  1.00  0.00     0.167 HD
ATOM     57  C   UNL A   1      43.001  29.376  33.800  1.00  0.00     0.074 A 
ATOM     58  C   UNL A   1      43.788  28.379  33.104  1.00  0.00     0.031 C 
ATOM     59  C   UNL A   1      43.247  29.808  35.062  1.00  0.00     0.031 A 
BRANCH  46  60
ATOM     60  C   UNL A   1      39.542  34.352  36.942  1.00  0.00    -0.014 A 
ATOM     61  C   UNL A   1      40.178  35.565  37.253  1.00  0.00     0.010 A 
ATOM     62  C   UNL A   1      38.697  33.783  37.912  1.00  0.00     0.010 A 
ATOM     63  C   UNL A   1      40.001  36.159  38.516  1.00  0.00     0.020 A 
ATOM     64  C   UNL A   1      38.499  34.374  39.162  1.00  0.00     0.020 A 
ATOM     65  C   UNL A   1      39.176  35.548  39.468  1.00  0.00     0.054 A 
BRANCH  65  66
ATOM     66  S   UNL A   1      39.043  36.259  41.133  1.00  0.00     0.124 S 
ATOM     67  O   UNL A   1      38.878  37.681  40.852  1.00  0.00    -0.237 OA
ATOM     68  O   UNL A   1      37.868  35.577  41.671  1.00  0.00    -0.237 OA
ATOM     69  O   UNL A   1      40.309  35.893  41.765  1.00  0.00    -0.744 OA
ENDBRANCH  65  66
ENDBRANCH  46  60
BRANCH  47  70
ATOM     70  C   UNL A   1      41.662  28.138  29.454  1.00  0.00    -0.014 A 
ATOM     71  C   UNL A   1      40.939  26.934  29.352  1.00  0.00     0.010 A 
ATOM     72  C   UNL A   1      42.682  28.400  28.523  1.00  0.00     0.010 A 
ATOM     73  C   UNL A   1      41.268  25.983  28.384  1.00  0.00     0.020 A 
ATOM     74  C   UNL A   1      42.987  27.468  27.524  1.00  0.00     0.020 A 
ATOM     75  C   UNL A   1      42.298  26.254  27.481  1.00  0.00     0.054 A 
BRANCH  75  76
ATOM     76  S   UNL A   1      42.722  24.991  26.251  1.00  0.00     0.124 S 
ATOM     77  O   UNL A   1      44.170  24.892  26.411  1.00  0.00    -0.237 OA
ATOM     78  O   UNL A   1      41.958  23.833  26.709  1.00  0.00    -0.237 OA
ATOM     79  O   UNL A   1      42.269  25.574  24.991  1.00  0.00    -0.744 OA
ENDBRANCH  75  76
ENDBRANCH  47  70
BRANCH  59  80
ATOM     80  C   UNL A   1      44.446  29.235  35.779  1.00  0.00    -0.014 A 
ATOM     81  C   UNL A   1      44.326  28.073  36.563  1.00  0.00     0.010 A 
ATOM     82  C   UNL A   1      45.692  29.888  35.722  1.00  0.00     0.010 A 
ATOM     83  C   UNL A   1      45.416  27.588  37.292  1.00  0.00     0.020 A 
ATOM     84  C   UNL A   1      46.795  29.383  36.416  1.00  0.00     0.020 A 
ATOM     85  C   UNL A   1      46.645  28.248  37.214  1.00  0.00     0.054 A 
BRANCH  85  86
ATOM     86  S   UNL A   1      48.055  27.595  38.150  1.00  0.00     0.124 S 
ATOM     87  O   UNL A   1      48.833  28.801  38.417  1.00  0.00    -0.237 OA
ATOM     88  O   UNL A   1      47.415  26.987  39.315  1.00  0.00    -0.237 OA
ATOM     89  O   UNL A   1      48.672  26.647  37.224  1.00  0.00    -0.744 OA
ENDBRANCH  85  86
ENDBRANCH  59  80
ENDBRANCH  33  34
ENDBRANCH  26  28
ENDBRANCH  25  26
ENDBRANCH  24  25
ENDBRANCH  23  24
ENDBRANCH   1  23
TORSDOF 20
ENDMDL
