MODEL 1
REMARK VINA RESULT:     -11.5      0.000      0.000
REMARK SMILES CN1N[C@H](C(=O)N[C@@H](CC2=c3ccccc3=NC2)C(=O)OCCOCCOC(=O)c2ccc(-c3c4nc(c(-c5ccc(S(=O)(=O)[O-])cc5)c5ccc([nH]5)c(-c5ccc(S(=O)(=O)[O-])cc5)c5nc(c(-c6ccc(S(=O)(=O)[O-])cc6)c6ccc3[nH]6)C=C5)C=C4)cc2)c2ccccc2C1=O
REMARK SMILES IDX 25 1 24 2 23 3 22 4 21 5 19 6 20 7 8 8 7 9 5 10 6 11 4 13
REMARK SMILES IDX 1 14 2 15 3 16 96 17 95 19 97 20 90 21 94 22 91 23 93 24
REMARK SMILES IDX 92 25 9 26 10 27 11 28 18 29 12 30 16 31 17 32 13 33 15 34
REMARK SMILES IDX 14 35 26 36 27 37 28 38 29 39 30 40 31 41 89 42 32 43 88 44
REMARK SMILES IDX 33 45 34 46 35 47 82 48 36 49 87 50 81 51 83 52 37 53 86 54
REMARK SMILES IDX 80 55 79 56 38 58 68 59 49 60 67 61 50 62 53 63 66 64 84 65
REMARK SMILES IDX 51 66 52 67 65 69 85 70 54 71 39 72 40 73 48 74 41 75 47 76
REMARK SMILES IDX 42 77 43 78 44 79 45 80 46 81 69 82 70 83 78 84 71 85 77 86
REMARK SMILES IDX 72 87 73 88 74 89 75 90 76 91 55 92 56 93 64 94 57 95 63 96
REMARK SMILES IDX 58 97 59 98 60 99 61 100 62 101
REMARK H PARENT 7 12 3 18 83 57 53 68
REMARK Flexibility Score: inf
ROOT
ATOM      1  C   UNL A   1      39.425  22.430  26.667  1.00  0.00     0.202 C 
ENDROOT
BRANCH   1   2
ATOM      2  O   UNL A   1      38.787  21.973  25.478  1.00  0.00    -0.374 OA
BRANCH   2   3
ATOM      3  C   UNL A   1      37.358  22.039  25.450  1.00  0.00     0.202 C 
BRANCH   3   4
ATOM      4  C   UNL A   1      36.791  23.459  25.471  1.00  0.00     0.261 C 
BRANCH   4   5
ATOM      5  O   UNL A   1      35.723  23.526  24.512  1.00  0.00    -0.462 OA
BRANCH   5   6
ATOM      6  C   UNL A   1      34.625  24.248  24.838  1.00  0.00     0.329 C 
ATOM      7  O   UNL A   1      34.360  24.637  25.967  1.00  0.00    -0.250 OA
BRANCH   6   8
ATOM      8  C   UNL A   1      33.685  24.390  23.625  1.00  0.00     0.196 C 
BRANCH   8   9
ATOM      9  N   UNL A   1      34.017  25.513  22.721  1.00  0.00    -0.341 N 
ATOM     10  C   UNL A   1      33.383  26.667  22.369  1.00  0.00     0.244 C 
ATOM     11  O   UNL A   1      33.881  27.315  21.437  1.00  0.00    -0.273 OA
ATOM     12  H   UNL A   1      34.888  25.403  22.276  1.00  0.00     0.164 HD
BRANCH  10  13
ATOM     13  C   UNL A   1      32.179  27.271  23.151  1.00  0.00     0.195 C 
ATOM     14  C   UNL A   1      28.725  26.342  23.988  1.00  0.00     0.169 C 
ATOM     15  N   UNL A   1      30.155  26.451  24.217  1.00  0.00    -0.276 N 
ATOM     16  N   UNL A   1      31.027  26.357  23.104  1.00  0.00    -0.215 NA
ATOM     17  C   UNL A   1      30.654  26.508  25.522  1.00  0.00     0.268 C 
ATOM     18  H   UNL A   1      30.491  26.564  22.261  1.00  0.00     0.149 HD
ATOM     19  C   UNL A   1      31.993  27.132  25.667  1.00  0.00     0.046 A 
ATOM     20  O   UNL A   1      30.003  26.221  26.522  1.00  0.00    -0.268 OA
ATOM     21  C   UNL A   1      32.623  27.664  24.541  1.00  0.00    -0.007 A 
ATOM     22  C   UNL A   1      32.504  27.380  26.948  1.00  0.00     0.014 A 
ATOM     23  C   UNL A   1      33.659  28.596  24.725  1.00  0.00     0.007 A 
ATOM     24  C   UNL A   1      33.582  28.249  27.113  1.00  0.00     0.001 A 
ATOM     25  C   UNL A   1      34.122  28.898  26.005  1.00  0.00     0.000 A 
ENDBRANCH  10  13
ENDBRANCH   8   9
BRANCH   8  26
ATOM     26  C   UNL A   1      33.631  23.034  22.834  1.00  0.00     0.070 C 
BRANCH  26  27
ATOM     27  C   UNL A   1      32.547  21.989  23.170  1.00  0.00    -0.037 C 
ATOM     28  C   UNL A   1      32.888  20.740  23.538  1.00  0.00     0.001 A 
ATOM     29  C   UNL A   1      31.430  22.421  24.072  1.00  0.00     0.174 C 
ATOM     30  C   UNL A   1      32.318  19.488  23.052  1.00  0.00     0.010 A 
ATOM     31  C   UNL A   1      32.553  20.863  24.998  1.00  0.00     0.065 A 
ATOM     32  N   UNL A   1      31.835  21.875  25.387  1.00  0.00    -0.280 NA
ATOM     33  C   UNL A   1      32.318  18.429  23.888  1.00  0.00     0.001 A 
ATOM     34  C   UNL A   1      33.048  19.743  25.815  1.00  0.00     0.028 A 
ATOM     35  C   UNL A   1      32.910  18.544  25.220  1.00  0.00     0.002 A 
ENDBRANCH  26  27
ENDBRANCH   8  26
ENDBRANCH   6   8
ENDBRANCH   5   6
ENDBRANCH   4   5
ENDBRANCH   3   4
ENDBRANCH   2   3
ENDBRANCH   1   2
BRANCH   1  36
ATOM     36  C   UNL A   1      40.312  23.673  26.543  1.00  0.00     0.261 C 
BRANCH  36  37
ATOM     37  O   UNL A   1      39.589  24.898  26.670  1.00  0.00    -0.460 OA
BRANCH  37  38
ATOM     38  C   UNL A   1      40.358  26.007  26.552  1.00  0.00     0.338 C 
ATOM     39  O   UNL A   1      40.996  26.367  25.576  1.00  0.00    -0.246 OA
BRANCH  38  40
ATOM     40  C   UNL A   1      40.213  26.826  27.766  1.00  0.00     0.060 A 
ATOM     41  C   UNL A   1      39.443  26.397  28.848  1.00  0.00     0.016 A 
ATOM     42  C   UNL A   1      40.906  28.040  27.816  1.00  0.00     0.016 A 
ATOM     43  C   UNL A   1      39.377  27.185  29.997  1.00  0.00     0.010 A 
ATOM     44  C   UNL A   1      40.846  28.824  28.965  1.00  0.00     0.010 A 
ATOM     45  C   UNL A   1      40.093  28.394  30.066  1.00  0.00    -0.014 A 
BRANCH  45  46
ATOM     46  C   UNL A   1      40.155  29.153  31.334  1.00  0.00     0.031 A 
ATOM     47  C   UNL A   1      41.252  28.917  32.324  1.00  0.00     0.074 A 
ATOM     48  C   UNL A   1      39.180  30.048  31.588  1.00  0.00     0.049 A 
ATOM     49  N   UNL A   1      41.471  29.528  33.459  1.00  0.00    -0.248 NA
ATOM     50  C   UNL A   1      42.226  27.861  32.005  1.00  0.00     0.031 C 
ATOM     51  C   UNL A   1      38.059  30.336  30.691  1.00  0.00     0.029 A 
ATOM     52  N   UNL A   1      38.977  30.881  32.658  1.00  0.00    -0.354 N 
ATOM     53  C   UNL A   1      42.620  28.951  33.983  1.00  0.00     0.074 A 
ATOM     54  C   UNL A   1      43.021  27.903  33.067  1.00  0.00     0.031 C 
ATOM     55  C   UNL A   1      37.308  31.308  31.229  1.00  0.00     0.029 A 
ATOM     56  C   UNL A   1      37.870  31.685  32.524  1.00  0.00     0.049 A 
ATOM     57  H   UNL A   1      39.567  30.902  33.445  1.00  0.00     0.167 HD
ATOM     58  C   UNL A   1      43.285  29.287  35.113  1.00  0.00     0.031 A 
ATOM     59  C   UNL A   1      37.368  32.630  33.343  1.00  0.00     0.031 A 
ATOM     60  C   UNL A   1      42.852  30.318  36.024  1.00  0.00     0.049 A 
ATOM     61  C   UNL A   1      38.091  32.943  34.621  1.00  0.00     0.074 A 
ATOM     62  C   UNL A   1      43.468  30.745  37.187  1.00  0.00     0.029 A 
ATOM     63  N   UNL A   1      41.698  31.077  35.882  1.00  0.00    -0.354 N 
ATOM     64  N   UNL A   1      39.209  32.428  35.076  1.00  0.00    -0.248 NA
ATOM     65  C   UNL A   1      37.500  33.968  35.491  1.00  0.00     0.031 C 
ATOM     66  C   UNL A   1      42.655  31.712  37.783  1.00  0.00     0.029 A 
ATOM     67  C   UNL A   1      41.570  31.947  36.952  1.00  0.00     0.049 A 
ATOM     68  H   UNL A   1      41.066  31.007  35.132  1.00  0.00     0.167 HD
ATOM     69  C   UNL A   1      39.465  33.079  36.277  1.00  0.00     0.074 A 
ATOM     70  C   UNL A   1      38.395  34.037  36.470  1.00  0.00     0.031 C 
ATOM     71  C   UNL A   1      40.495  32.895  37.139  1.00  0.00     0.031 A 
BRANCH  58  72
ATOM     72  C   UNL A   1      44.566  28.559  35.431  1.00  0.00    -0.014 A 
ATOM     73  C   UNL A   1      45.734  28.825  34.694  1.00  0.00     0.010 A 
ATOM     74  C   UNL A   1      44.578  27.520  36.380  1.00  0.00     0.010 A 
ATOM     75  C   UNL A   1      46.882  28.047  34.877  1.00  0.00     0.020 A 
ATOM     76  C   UNL A   1      45.733  26.759  36.586  1.00  0.00     0.020 A 
ATOM     77  C   UNL A   1      46.870  27.013  35.817  1.00  0.00     0.054 A 
BRANCH  77  78
ATOM     78  S   UNL A   1      48.359  25.998  36.027  1.00  0.00     0.124 S 
ATOM     79  O   UNL A   1      49.338  26.977  36.490  1.00  0.00    -0.237 OA
ATOM     80  O   UNL A   1      47.934  25.011  37.016  1.00  0.00    -0.237 OA
ATOM     81  O   UNL A   1      48.597  25.461  34.688  1.00  0.00    -0.744 OA
ENDBRANCH  77  78
ENDBRANCH  58  72
BRANCH  59  82
ATOM     82  C   UNL A   1      36.153  33.378  32.919  1.00  0.00    -0.014 A 
ATOM     83  C   UNL A   1      36.264  34.651  32.327  1.00  0.00     0.010 A 
ATOM     84  C   UNL A   1      34.874  32.871  33.211  1.00  0.00     0.010 A 
ATOM     85  C   UNL A   1      35.126  35.428  32.096  1.00  0.00     0.020 A 
ATOM     86  C   UNL A   1      33.731  33.634  32.955  1.00  0.00     0.020 A 
ATOM     87  C   UNL A   1      33.867  34.920  32.429  1.00  0.00     0.054 A 
BRANCH  87  88
ATOM     88  S   UNL A   1      32.410  35.976  32.193  1.00  0.00     0.124 S 
ATOM     89  O   UNL A   1      32.454  36.228  30.755  1.00  0.00    -0.237 OA
ATOM     90  O   UNL A   1      31.319  35.119  32.650  1.00  0.00    -0.237 OA
ATOM     91  O   UNL A   1      32.686  37.134  33.039  1.00  0.00    -0.744 OA
ENDBRANCH  87  88
ENDBRANCH  59  82
BRANCH  71  92
ATOM     92  C   UNL A   1      40.537  33.735  38.389  1.00  0.00    -0.014 A 
ATOM     93  C   UNL A   1      39.910  33.275  39.562  1.00  0.00     0.010 A 
ATOM     94  C   UNL A   1      41.064  35.038  38.361  1.00  0.00     0.010 A 
ATOM     95  C   UNL A   1      39.764  34.116  40.667  1.00  0.00     0.020 A 
ATOM     96  C   UNL A   1      40.948  35.874  39.477  1.00  0.00     0.020 A 
ATOM     97  C   UNL A   1      40.272  35.416  40.611  1.00  0.00     0.054 A 
BRANCH  97  98
ATOM     98  S   UNL A   1      40.022  36.513  42.034  1.00  0.00     0.124 S 
ATOM     99  O   UNL A   1      40.992  35.995  42.994  1.00  0.00    -0.237 OA
ATOM    100  O   UNL A   1      40.327  37.831  41.481  1.00  0.00    -0.237 OA
ATOM    101  O   UNL A   1      38.620  36.304  42.387  1.00  0.00    -0.744 OA
ENDBRANCH  97  98
ENDBRANCH  71  92
ENDBRANCH  45  46
ENDBRANCH  38  40
ENDBRANCH  37  38
ENDBRANCH  36  37
ENDBRANCH   1  36
TORSDOF 21
ENDMDL
MODEL 2
REMARK VINA RESULT:     -11.5      1.585      2.247
REMARK SMILES CN1N[C@H](C(=O)N[C@@H](CC2=c3ccccc3=NC2)C(=O)OCCOCCOC(=O)c2ccc(-c3c4nc(c(-c5ccc(S(=O)(=O)[O-])cc5)c5ccc([nH]5)c(-c5ccc(S(=O)(=O)[O-])cc5)c5nc(c(-c6ccc(S(=O)(=O)[O-])cc6)c6ccc3[nH]6)C=C5)C=C4)cc2)c2ccccc2C1=O
REMARK SMILES IDX 25 1 24 2 23 3 22 4 21 5 19 6 20 7 8 8 7 9 5 10 6 11 4 13
REMARK SMILES IDX 1 14 2 15 3 16 96 17 95 19 97 20 90 21 94 22 91 23 93 24
REMARK SMILES IDX 92 25 9 26 10 27 11 28 18 29 12 30 16 31 17 32 13 33 15 34
REMARK SMILES IDX 14 35 26 36 27 37 28 38 29 39 30 40 31 41 89 42 32 43 88 44
REMARK SMILES IDX 33 45 34 46 35 47 82 48 36 49 87 50 81 51 83 52 37 53 86 54
REMARK SMILES IDX 80 55 79 56 38 58 68 59 49 60 67 61 50 62 53 63 66 64 84 65
REMARK SMILES IDX 51 66 52 67 65 69 85 70 54 71 39 72 40 73 48 74 41 75 47 76
REMARK SMILES IDX 42 77 43 78 44 79 45 80 46 81 69 82 70 83 78 84 71 85 77 86
REMARK SMILES IDX 72 87 73 88 74 89 75 90 76 91 55 92 56 93 64 94 57 95 63 96
REMARK SMILES IDX 58 97 59 98 60 99 61 100 62 101
REMARK H PARENT 7 12 3 18 83 57 53 68
REMARK Flexibility Score: inf
ROOT
ATOM      1  C   UNL A   1      39.684  22.692  26.784  1.00  0.00     0.202 C 
ENDROOT
BRANCH   1   2
ATOM      2  O   UNL A   1      38.823  22.089  25.822  1.00  0.00    -0.374 OA
BRANCH   2   3
ATOM      3  C   UNL A   1      37.451  22.491  25.847  1.00  0.00     0.202 C 
BRANCH   3   4
ATOM      4  C   UNL A   1      37.114  23.643  24.898  1.00  0.00     0.261 C 
BRANCH   4   5
ATOM      5  O   UNL A   1      35.688  23.672  24.722  1.00  0.00    -0.462 OA
BRANCH   5   6
ATOM      6  C   UNL A   1      35.206  23.595  23.459  1.00  0.00     0.329 C 
ATOM      7  O   UNL A   1      35.791  23.069  22.523  1.00  0.00    -0.250 OA
BRANCH   6   8
ATOM      8  C   UNL A   1      33.889  24.385  23.329  1.00  0.00     0.196 C 
BRANCH   8   9
ATOM      9  N   UNL A   1      34.030  25.703  22.671  1.00  0.00    -0.341 N 
ATOM     10  C   UNL A   1      33.511  26.942  22.906  1.00  0.00     0.244 C 
ATOM     11  O   UNL A   1      33.713  27.804  22.040  1.00  0.00    -0.273 OA
ATOM     12  H   UNL A   1      34.631  25.681  21.892  1.00  0.00     0.164 HD
BRANCH  10  13
ATOM     13  C   UNL A   1      32.820  27.356  24.239  1.00  0.00     0.195 C 
ATOM     14  C   UNL A   1      33.634  29.295  27.250  1.00  0.00     0.169 C 
ATOM     15  N   UNL A   1      33.086  29.089  25.922  1.00  0.00    -0.276 N 
ATOM     16  N   UNL A   1      33.732  28.168  25.059  1.00  0.00    -0.215 NA
ATOM     17  C   UNL A   1      32.031  29.886  25.467  1.00  0.00     0.268 C 
ATOM     18  H   UNL A   1      34.293  27.536  25.631  1.00  0.00     0.149 HD
ATOM     19  C   UNL A   1      31.208  29.298  24.380  1.00  0.00     0.046 A 
ATOM     20  O   UNL A   1      31.677  30.931  26.002  1.00  0.00    -0.268 OA
ATOM     21  C   UNL A   1      31.487  28.003  23.939  1.00  0.00    -0.007 A 
ATOM     22  C   UNL A   1      30.036  29.948  23.972  1.00  0.00     0.014 A 
ATOM     23  C   UNL A   1      30.493  27.302  23.234  1.00  0.00     0.007 A 
ATOM     24  C   UNL A   1      29.090  29.266  23.209  1.00  0.00     0.001 A 
ATOM     25  C   UNL A   1      29.295  27.927  22.887  1.00  0.00     0.000 A 
ENDBRANCH  10  13
ENDBRANCH   8   9
BRANCH   8  26
ATOM     26  C   UNL A   1      32.813  23.508  22.595  1.00  0.00     0.070 C 
BRANCH  26  27
ATOM     27  C   UNL A   1      32.154  22.322  23.331  1.00  0.00    -0.037 C 
ATOM     28  C   UNL A   1      32.746  21.113  23.351  1.00  0.00     0.001 A 
ATOM     29  C   UNL A   1      31.630  22.575  24.713  1.00  0.00     0.174 C 
ATOM     30  C   UNL A   1      32.120  19.819  23.101  1.00  0.00     0.010 A 
ATOM     31  C   UNL A   1      33.203  21.137  24.782  1.00  0.00     0.065 A 
ATOM     32  N   UNL A   1      32.701  22.035  25.579  1.00  0.00    -0.280 NA
ATOM     33  C   UNL A   1      32.645  18.737  23.714  1.00  0.00     0.001 A 
ATOM     34  C   UNL A   1      34.144  20.057  25.120  1.00  0.00     0.028 A 
ATOM     35  C   UNL A   1      33.826  18.874  24.564  1.00  0.00     0.002 A 
ENDBRANCH  26  27
ENDBRANCH   8  26
ENDBRANCH   6   8
ENDBRANCH   5   6
ENDBRANCH   4   5
ENDBRANCH   3   4
ENDBRANCH   2   3
ENDBRANCH   1   2
BRANCH   1  36
ATOM     36  C   UNL A   1      41.138  22.926  26.362  1.00  0.00     0.261 C 
BRANCH  36  37
ATOM     37  O   UNL A   1      41.768  23.993  27.071  1.00  0.00    -0.460 OA
BRANCH  37  38
ATOM     38  C   UNL A   1      41.586  25.212  26.510  1.00  0.00     0.338 C 
ATOM     39  O   UNL A   1      41.604  25.492  25.321  1.00  0.00    -0.246 OA
BRANCH  38  40
ATOM     40  C   UNL A   1      41.217  26.177  27.558  1.00  0.00     0.060 A 
ATOM     41  C   UNL A   1      40.138  25.946  28.414  1.00  0.00     0.016 A 
ATOM     42  C   UNL A   1      42.009  27.322  27.695  1.00  0.00     0.016 A 
ATOM     43  C   UNL A   1      39.859  26.865  29.425  1.00  0.00     0.010 A 
ATOM     44  C   UNL A   1      41.734  28.235  28.708  1.00  0.00     0.010 A 
ATOM     45  C   UNL A   1      40.667  28.005  29.587  1.00  0.00    -0.014 A 
BRANCH  45  46
ATOM     46  C   UNL A   1      40.474  28.898  30.751  1.00  0.00     0.031 A 
ATOM     47  C   UNL A   1      41.345  28.789  31.962  1.00  0.00     0.074 A 
ATOM     48  C   UNL A   1      39.473  29.799  30.701  1.00  0.00     0.049 A 
ATOM     49  N   UNL A   1      41.332  29.522  33.044  1.00  0.00    -0.248 NA
ATOM     50  C   UNL A   1      42.357  27.721  31.966  1.00  0.00     0.031 C 
ATOM     51  C   UNL A   1      38.561  29.970  29.570  1.00  0.00     0.029 A 
ATOM     52  N   UNL A   1      39.061  30.740  31.610  1.00  0.00    -0.354 N 
ATOM     53  C   UNL A   1      42.347  29.024  33.851  1.00  0.00     0.074 A 
ATOM     54  C   UNL A   1      42.919  27.890  33.156  1.00  0.00     0.031 C 
ATOM     55  C   UNL A   1      37.721  30.982  29.835  1.00  0.00     0.029 A 
ATOM     56  C   UNL A   1      38.010  31.506  31.167  1.00  0.00     0.049 A 
ATOM     57  H   UNL A   1      39.479  30.855  32.494  1.00  0.00     0.167 HD
ATOM     58  C   UNL A   1      42.769  29.492  35.049  1.00  0.00     0.031 A 
ATOM     59  C   UNL A   1      37.357  32.526  31.760  1.00  0.00     0.031 A 
ATOM     60  C   UNL A   1      42.165  30.608  35.735  1.00  0.00     0.049 A 
ATOM     61  C   UNL A   1      37.806  32.987  33.116  1.00  0.00     0.074 A 
ATOM     62  C   UNL A   1      42.535  31.167  36.945  1.00  0.00     0.029 A 
ATOM     63  N   UNL A   1      41.070  31.327  35.279  1.00  0.00    -0.354 N 
ATOM     64  N   UNL A   1      38.805  32.543  33.842  1.00  0.00    -0.248 NA
ATOM     65  C   UNL A   1      37.057  34.090  33.730  1.00  0.00     0.031 C 
ATOM     66  C   UNL A   1      41.623  32.180  37.254  1.00  0.00     0.029 A 
ATOM     67  C   UNL A   1      40.732  32.306  36.199  1.00  0.00     0.049 A 
ATOM     68  H   UNL A   1      40.603  31.167  34.428  1.00  0.00     0.167 HD
ATOM     69  C   UNL A   1      38.815  33.324  34.991  1.00  0.00     0.074 A 
ATOM     70  C   UNL A   1      37.734  34.279  34.857  1.00  0.00     0.031 C 
ATOM     71  C   UNL A   1      39.647  33.251  36.060  1.00  0.00     0.031 A 
BRANCH  58  72
ATOM     72  C   UNL A   1      43.954  28.823  35.698  1.00  0.00    -0.014 A 
ATOM     73  C   UNL A   1      45.262  29.206  35.351  1.00  0.00     0.010 A 
ATOM     74  C   UNL A   1      43.769  27.727  36.561  1.00  0.00     0.010 A 
ATOM     75  C   UNL A   1      46.363  28.489  35.830  1.00  0.00     0.020 A 
ATOM     76  C   UNL A   1      44.868  27.025  37.065  1.00  0.00     0.020 A 
ATOM     77  C   UNL A   1      46.158  27.397  36.678  1.00  0.00     0.054 A 
BRANCH  77  78
ATOM     78  S   UNL A   1      47.594  26.463  37.272  1.00  0.00     0.124 S 
ATOM     79  O   UNL A   1      47.321  26.351  38.701  1.00  0.00    -0.237 OA
ATOM     80  O   UNL A   1      47.502  25.219  36.511  1.00  0.00    -0.237 OA
ATOM     81  O   UNL A   1      48.727  27.316  36.917  1.00  0.00    -0.744 OA
ENDBRANCH  77  78
ENDBRANCH  58  72
BRANCH  59  82
ATOM     82  C   UNL A   1      36.258  33.204  31.018  1.00  0.00    -0.014 A 
ATOM     83  C   UNL A   1      36.499  33.803  29.767  1.00  0.00     0.010 A 
ATOM     84  C   UNL A   1      34.993  33.353  31.614  1.00  0.00     0.010 A 
ATOM     85  C   UNL A   1      35.521  34.592  29.157  1.00  0.00     0.020 A 
ATOM     86  C   UNL A   1      34.001  34.119  30.993  1.00  0.00     0.020 A 
ATOM     87  C   UNL A   1      34.284  34.759  29.784  1.00  0.00     0.054 A 
BRANCH  87  88
ATOM     88  S   UNL A   1      33.056  35.851  29.014  1.00  0.00     0.124 S 
ATOM     89  O   UNL A   1      33.905  36.844  28.363  1.00  0.00    -0.237 OA
ATOM     90  O   UNL A   1      32.344  34.945  28.115  1.00  0.00    -0.237 OA
ATOM     91  O   UNL A   1      32.275  36.341  30.146  1.00  0.00    -0.744 OA
ENDBRANCH  87  88
ENDBRANCH  59  82
BRANCH  71  92
ATOM     92  C   UNL A   1      39.438  34.222  37.192  1.00  0.00    -0.014 A 
ATOM     93  C   UNL A   1      40.038  35.494  37.141  1.00  0.00     0.010 A 
ATOM     94  C   UNL A   1      38.776  33.824  38.367  1.00  0.00     0.010 A 
ATOM     95  C   UNL A   1      40.023  36.332  38.259  1.00  0.00     0.020 A 
ATOM     96  C   UNL A   1      38.732  34.673  39.478  1.00  0.00     0.020 A 
ATOM     97  C   UNL A   1      39.382  35.908  39.426  1.00  0.00     0.054 A 
BRANCH  97  98
ATOM     98  S   UNL A   1      39.423  36.985  40.885  1.00  0.00     0.124 S 
ATOM     99  O   UNL A   1      38.731  38.177  40.406  1.00  0.00    -0.237 OA
ATOM    100  O   UNL A   1      38.704  36.198  41.884  1.00  0.00    -0.237 OA
ATOM    101  O   UNL A   1      40.851  37.153  41.148  1.00  0.00    -0.744 OA
ENDBRANCH  97  98
ENDBRANCH  71  92
ENDBRANCH  45  46
ENDBRANCH  38  40
ENDBRANCH  37  38
ENDBRANCH  36  37
ENDBRANCH   1  36
TORSDOF 21
ENDMDL
MODEL 3
REMARK VINA RESULT:     -11.4      1.705      2.496
REMARK SMILES CN1N[C@H](C(=O)N[C@@H](CC2=c3ccccc3=NC2)C(=O)OCCOCCOC(=O)c2ccc(-c3c4nc(c(-c5ccc(S(=O)(=O)[O-])cc5)c5ccc([nH]5)c(-c5ccc(S(=O)(=O)[O-])cc5)c5nc(c(-c6ccc(S(=O)(=O)[O-])cc6)c6ccc3[nH]6)C=C5)C=C4)cc2)c2ccccc2C1=O
REMARK SMILES IDX 25 1 24 2 23 3 22 4 21 5 19 6 20 7 8 8 7 9 5 10 6 11 4 13
REMARK SMILES IDX 1 14 2 15 3 16 96 17 95 19 97 20 90 21 94 22 91 23 93 24
REMARK SMILES IDX 92 25 9 26 10 27 11 28 18 29 12 30 16 31 17 32 13 33 15 34
REMARK SMILES IDX 14 35 26 36 27 37 28 38 29 39 30 40 31 41 89 42 32 43 88 44
REMARK SMILES IDX 33 45 34 46 35 47 82 48 36 49 87 50 81 51 83 52 37 53 86 54
REMARK SMILES IDX 80 55 79 56 38 58 68 59 49 60 67 61 50 62 53 63 66 64 84 65
REMARK SMILES IDX 51 66 52 67 65 69 85 70 54 71 39 72 40 73 48 74 41 75 47 76
REMARK SMILES IDX 42 77 43 78 44 79 45 80 46 81 69 82 70 83 78 84 71 85 77 86
REMARK SMILES IDX 72 87 73 88 74 89 75 90 76 91 55 92 56 93 64 94 57 95 63 96
REMARK SMILES IDX 58 97 59 98 60 99 61 100 62 101
REMARK H PARENT 7 12 3 18 83 57 53 68
REMARK Flexibility Score: inf
ROOT
ATOM      1  C   UNL A   1      41.114  21.998  27.095  1.00  0.00     0.202 C 
ENDROOT
BRANCH   1   2
ATOM      2  O   UNL A   1      40.536  21.289  26.003  1.00  0.00    -0.374 OA
BRANCH   2   3
ATOM      3  C   UNL A   1      39.118  21.108  26.033  1.00  0.00     0.202 C 
BRANCH   3   4
ATOM      4  C   UNL A   1      38.317  22.314  25.540  1.00  0.00     0.261 C 
BRANCH   4   5
ATOM      5  O   UNL A   1      36.926  22.056  25.787  1.00  0.00    -0.462 OA
BRANCH   5   6
ATOM      6  C   UNL A   1      36.028  22.981  25.373  1.00  0.00     0.329 C 
ATOM      7  O   UNL A   1      36.205  24.191  25.419  1.00  0.00    -0.250 OA
BRANCH   6   8
ATOM      8  C   UNL A   1      34.699  22.311  24.972  1.00  0.00     0.196 C 
BRANCH   8   9
ATOM      9  N   UNL A   1      34.311  22.518  23.559  1.00  0.00    -0.341 N 
ATOM     10  C   UNL A   1      33.769  23.558  22.866  1.00  0.00     0.244 C 
ATOM     11  O   UNL A   1      33.411  23.326  21.702  1.00  0.00    -0.273 OA
ATOM     12  H   UNL A   1      34.485  21.730  22.995  1.00  0.00     0.164 HD
BRANCH  10  13
ATOM     13  C   UNL A   1      33.707  25.020  23.399  1.00  0.00     0.195 C 
ATOM     14  C   UNL A   1      34.162  28.424  22.094  1.00  0.00     0.169 C 
ATOM     15  N   UNL A   1      33.402  27.245  22.469  1.00  0.00    -0.276 N 
ATOM     16  N   UNL A   1      34.009  25.973  22.319  1.00  0.00    -0.215 NA
ATOM     17  C   UNL A   1      32.058  27.364  22.837  1.00  0.00     0.268 C 
ATOM     18  H   UNL A   1      35.020  26.104  22.285  1.00  0.00     0.149 HD
ATOM     19  C   UNL A   1      31.526  26.266  23.683  1.00  0.00     0.046 A 
ATOM     20  O   UNL A   1      31.374  28.362  22.632  1.00  0.00    -0.268 OA
ATOM     21  C   UNL A   1      32.388  25.249  24.099  1.00  0.00    -0.007 A 
ATOM     22  C   UNL A   1      30.243  26.377  24.234  1.00  0.00     0.014 A 
ATOM     23  C   UNL A   1      32.016  24.461  25.202  1.00  0.00     0.007 A 
ATOM     24  C   UNL A   1      29.857  25.539  25.279  1.00  0.00     0.001 A 
ATOM     25  C   UNL A   1      30.765  24.618  25.798  1.00  0.00     0.000 A 
ENDBRANCH  10  13
ENDBRANCH   8   9
BRANCH   8  26
ATOM     26  C   UNL A   1      34.750  20.780  25.319  1.00  0.00     0.070 C 
BRANCH  26  27
ATOM     27  C   UNL A   1      33.975  19.768  24.450  1.00  0.00    -0.037 C 
ATOM     28  C   UNL A   1      34.228  18.449  24.542  1.00  0.00     0.001 A 
ATOM     29  C   UNL A   1      32.485  19.923  24.376  1.00  0.00     0.174 C 
ATOM     30  C   UNL A   1      34.415  17.506  23.444  1.00  0.00     0.010 A 
ATOM     31  C   UNL A   1      32.979  18.056  25.280  1.00  0.00     0.065 A 
ATOM     32  N   UNL A   1      31.996  18.907  25.335  1.00  0.00    -0.280 NA
ATOM     33  C   UNL A   1      34.071  16.219  23.655  1.00  0.00     0.001 A 
ATOM     34  C   UNL A   1      33.011  16.682  25.806  1.00  0.00     0.028 A 
ATOM     35  C   UNL A   1      33.566  15.796  24.960  1.00  0.00     0.002 A 
ENDBRANCH  26  27
ENDBRANCH   8  26
ENDBRANCH   6   8
ENDBRANCH   5   6
ENDBRANCH   4   5
ENDBRANCH   3   4
ENDBRANCH   2   3
ENDBRANCH   1   2
BRANCH   1  36
ATOM     36  C   UNL A   1      41.788  23.336  26.771  1.00  0.00     0.261 C 
BRANCH  36  37
ATOM     37  O   UNL A   1      40.866  24.354  26.381  1.00  0.00    -0.460 OA
BRANCH  37  38
ATOM     38  C   UNL A   1      41.436  25.565  26.173  1.00  0.00     0.338 C 
ATOM     39  O   UNL A   1      42.068  25.928  25.193  1.00  0.00    -0.246 OA
BRANCH  38  40
ATOM     40  C   UNL A   1      41.068  26.468  27.274  1.00  0.00     0.060 A 
ATOM     41  C   UNL A   1      40.070  26.132  28.191  1.00  0.00     0.016 A 
ATOM     42  C   UNL A   1      41.780  27.666  27.397  1.00  0.00     0.016 A 
ATOM     43  C   UNL A   1      39.792  26.998  29.247  1.00  0.00     0.010 A 
ATOM     44  C   UNL A   1      41.506  28.527  28.455  1.00  0.00     0.010 A 
ATOM     45  C   UNL A   1      40.521  28.191  29.394  1.00  0.00    -0.014 A 
BRANCH  45  46
ATOM     46  C   UNL A   1      40.341  29.034  30.597  1.00  0.00     0.031 A 
ATOM     47  C   UNL A   1      41.219  28.866  31.796  1.00  0.00     0.074 A 
ATOM     48  C   UNL A   1      39.345  29.941  30.593  1.00  0.00     0.049 A 
ATOM     49  N   UNL A   1      41.218  29.552  32.910  1.00  0.00    -0.248 NA
ATOM     50  C   UNL A   1      42.225  27.793  31.747  1.00  0.00     0.031 C 
ATOM     51  C   UNL A   1      38.427  30.167  29.476  1.00  0.00     0.029 A 
ATOM     52  N   UNL A   1      38.945  30.844  31.545  1.00  0.00    -0.354 N 
ATOM     53  C   UNL A   1      42.234  29.014  33.687  1.00  0.00     0.074 A 
ATOM     54  C   UNL A   1      42.795  27.907  32.939  1.00  0.00     0.031 C 
ATOM     55  C   UNL A   1      37.595  31.171  29.791  1.00  0.00     0.029 A 
ATOM     56  C   UNL A   1      37.895  31.635  31.143  1.00  0.00     0.049 A 
ATOM     57  H   UNL A   1      39.369  30.918  32.430  1.00  0.00     0.167 HD
ATOM     58  C   UNL A   1      42.667  29.426  34.901  1.00  0.00     0.031 A 
ATOM     59  C   UNL A   1      37.252  32.632  31.784  1.00  0.00     0.031 A 
ATOM     60  C   UNL A   1      42.075  30.514  35.639  1.00  0.00     0.049 A 
ATOM     61  C   UNL A   1      37.713  33.030  33.156  1.00  0.00     0.074 A 
ATOM     62  C   UNL A   1      42.455  31.018  36.870  1.00  0.00     0.029 A 
ATOM     63  N   UNL A   1      40.980  31.259  35.223  1.00  0.00    -0.354 N 
ATOM     64  N   UNL A   1      38.714  32.549  33.855  1.00  0.00    -0.248 NA
ATOM     65  C   UNL A   1      36.974  34.110  33.822  1.00  0.00     0.031 C 
ATOM     66  C   UNL A   1      41.552  32.022  37.229  1.00  0.00     0.029 A 
ATOM     67  C   UNL A   1      40.654  32.199  36.187  1.00  0.00     0.049 A 
ATOM     68  H   UNL A   1      40.507  31.139  34.369  1.00  0.00     0.167 HD
ATOM     69  C   UNL A   1      38.736  33.279  35.037  1.00  0.00     0.074 A 
ATOM     70  C   UNL A   1      37.660  34.246  34.952  1.00  0.00     0.031 C 
ATOM     71  C   UNL A   1      39.575  33.155  36.096  1.00  0.00     0.031 A 
BRANCH  58  72
ATOM     72  C   UNL A   1      43.852  28.722  35.512  1.00  0.00    -0.014 A 
ATOM     73  C   UNL A   1      43.658  27.661  36.416  1.00  0.00     0.010 A 
ATOM     74  C   UNL A   1      45.157  29.196  35.285  1.00  0.00     0.010 A 
ATOM     75  C   UNL A   1      44.742  27.107  37.103  1.00  0.00     0.020 A 
ATOM     76  C   UNL A   1      46.247  28.625  35.949  1.00  0.00     0.020 A 
ATOM     77  C   UNL A   1      46.029  27.599  36.871  1.00  0.00     0.054 A 
BRANCH  77  78
ATOM     78  S   UNL A   1      47.422  26.885  37.787  1.00  0.00     0.124 S 
ATOM     79  O   UNL A   1      47.669  27.895  38.811  1.00  0.00    -0.237 OA
ATOM     80  O   UNL A   1      46.873  25.619  38.267  1.00  0.00    -0.237 OA
ATOM     81  O   UNL A   1      48.466  26.753  36.773  1.00  0.00    -0.744 OA
ENDBRANCH  77  78
ENDBRANCH  58  72
BRANCH  59  82
ATOM     82  C   UNL A   1      36.153  33.348  31.080  1.00  0.00    -0.014 A 
ATOM     83  C   UNL A   1      36.326  33.810  29.761  1.00  0.00     0.010 A 
ATOM     84  C   UNL A   1      34.970  33.671  31.767  1.00  0.00     0.010 A 
ATOM     85  C   UNL A   1      35.368  34.636  29.167  1.00  0.00     0.020 A 
ATOM     86  C   UNL A   1      33.995  34.474  31.164  1.00  0.00     0.020 A 
ATOM     87  C   UNL A   1      34.217  34.977  29.881  1.00  0.00     0.054 A 
BRANCH  87  88
ATOM     88  S   UNL A   1      33.024  36.113  29.120  1.00  0.00     0.124 S 
ATOM     89  O   UNL A   1      32.271  35.216  28.248  1.00  0.00    -0.237 OA
ATOM     90  O   UNL A   1      32.293  36.627  30.276  1.00  0.00    -0.237 OA
ATOM     91  O   UNL A   1      33.868  37.089  28.435  1.00  0.00    -0.744 OA
ENDBRANCH  87  88
ENDBRANCH  59  82
BRANCH  71  92
ATOM     92  C   UNL A   1      39.379  34.077  37.271  1.00  0.00    -0.014 A 
ATOM     93  C   UNL A   1      39.940  35.367  37.248  1.00  0.00     0.010 A 
ATOM     94  C   UNL A   1      38.770  33.616  38.452  1.00  0.00     0.010 A 
ATOM     95  C   UNL A   1      39.941  36.162  38.397  1.00  0.00     0.020 A 
ATOM     96  C   UNL A   1      38.742  34.422  39.595  1.00  0.00     0.020 A 
ATOM     97  C   UNL A   1      39.355  35.677  39.568  1.00  0.00     0.054 A 
BRANCH  97  98
ATOM     98  S   UNL A   1      39.417  36.699  41.065  1.00  0.00     0.124 S 
ATOM     99  O   UNL A   1      38.939  37.989  40.575  1.00  0.00    -0.237 OA
ATOM    100  O   UNL A   1      38.513  35.996  41.971  1.00  0.00    -0.237 OA
ATOM    101  O   UNL A   1      40.827  36.660  41.449  1.00  0.00    -0.744 OA
ENDBRANCH  97  98
ENDBRANCH  71  92
ENDBRANCH  45  46
ENDBRANCH  38  40
ENDBRANCH  37  38
ENDBRANCH  36  37
ENDBRANCH   1  36
TORSDOF 21
ENDMDL
