MODEL 1
REMARK VINA RESULT:     -11.0      0.000      0.000
REMARK SMILES CN1C(=O)C[C@@H](C(=O)OCCOCCOC(=O)c2ccc(-c3c4nc(c(-c5ccc(S(=O)(=O)[O-])cc5)c5ccc([nH]5)c(-c5ccc(S(=O)(=O)[O-])cc5)c5nc(c(-c6ccc(S(=O)(=O)[O-])cc6)c6ccc3[nH]6)C=C5)C=C4)cc2)C12CCN(c1ccc(Cl)cn1)CC2
REMARK SMILES IDX 13 1 12 2 11 3 10 4 9 5 7 6 8 7 6 8 1 9 2 10 3 11 78 12 4 13
REMARK SMILES IDX 5 14 79 15 90 16 80 17 89 18 81 19 82 20 83 21 88 22 84 23
REMARK SMILES IDX 87 24 85 25 86 26 14 27 15 28 16 29 17 30 18 31 19 32 77 33
REMARK SMILES IDX 20 34 76 35 21 36 22 37 23 38 70 39 24 40 75 41 69 42 71 43
REMARK SMILES IDX 25 44 74 45 68 46 67 47 26 49 56 50 37 51 55 52 38 53 41 54
REMARK SMILES IDX 54 55 72 56 39 57 40 58 53 60 73 61 42 62 27 63 28 64 36 65
REMARK SMILES IDX 29 66 35 67 30 68 31 69 32 70 33 71 34 72 57 73 58 74 66 75
REMARK SMILES IDX 59 76 65 77 60 78 61 79 62 80 63 81 64 82 43 83 44 84 52 85
REMARK SMILES IDX 45 86 51 87 46 88 47 89 48 90 49 91 50 92
REMARK H PARENT 71 48 41 59
REMARK Flexibility Score: inf
ROOT
ATOM      1  C   UNL A   1      39.784  22.529  27.024  1.00  0.00     0.202 C 
ENDROOT
BRANCH   1   2
ATOM      2  O   UNL A   1      39.946  21.363  26.223  1.00  0.00    -0.374 OA
BRANCH   2   3
ATOM      3  C   UNL A   1      38.782  20.785  25.636  1.00  0.00     0.202 C 
BRANCH   3   4
ATOM      4  C   UNL A   1      37.751  21.729  25.003  1.00  0.00     0.261 C 
BRANCH   4   5
ATOM      5  O   UNL A   1      36.385  21.567  25.448  1.00  0.00    -0.463 OA
BRANCH   5   6
ATOM      6  C   UNL A   1      35.798  22.695  25.913  1.00  0.00     0.311 C 
ATOM      7  O   UNL A   1      36.421  23.665  26.341  1.00  0.00    -0.252 OA
BRANCH   6   8
ATOM      8  C   UNL A   1      34.287  22.669  26.011  1.00  0.00     0.134 C 
ATOM      9  C   UNL A   1      32.053  22.083  23.027  1.00  0.00     0.147 C 
ATOM     10  N   UNL A   1      32.967  22.077  24.156  1.00  0.00    -0.339 N 
ATOM     11  C   UNL A   1      33.256  20.882  24.794  1.00  0.00     0.223 C 
ATOM     12  C   UNL A   1      33.302  23.262  24.967  1.00  0.00     0.060 C 
ATOM     13  O   UNL A   1      32.951  19.764  24.411  1.00  0.00    -0.275 OA
ATOM     14  C   UNL A   1      33.908  21.184  26.110  1.00  0.00     0.118 C 
ATOM     15  C   UNL A   1      33.839  24.408  24.086  1.00  0.00     0.051 C 
ATOM     16  C   UNL A   1      32.012  23.746  25.716  1.00  0.00     0.051 C 
ATOM     17  C   UNL A   1      33.955  25.730  24.823  1.00  0.00     0.120 C 
ATOM     18  C   UNL A   1      32.167  25.118  26.392  1.00  0.00     0.120 C 
ATOM     19  N   UNL A   1      32.653  26.056  25.394  1.00  0.00    -0.356 N 
BRANCH  19  20
ATOM     20  C   UNL A   1      32.460  27.415  25.622  1.00  0.00     0.128 A 
ATOM     21  C   UNL A   1      32.910  27.958  26.830  1.00  0.00     0.048 A 
ATOM     22  N   UNL A   1      31.805  28.166  24.713  1.00  0.00    -0.238 NA
ATOM     23  C   UNL A   1      32.649  29.290  27.141  1.00  0.00     0.026 A 
ATOM     24  C   UNL A   1      31.550  29.460  25.043  1.00  0.00     0.134 A 
ATOM     25  C   UNL A   1      31.939  30.055  26.234  1.00  0.00     0.059 A 
ATOM     26  Cl  UNL A   1      31.544  31.688  26.582  1.00  0.00    -0.083 Cl
ENDBRANCH  19  20
ENDBRANCH   6   8
ENDBRANCH   5   6
ENDBRANCH   4   5
ENDBRANCH   3   4
ENDBRANCH   2   3
ENDBRANCH   1   2
BRANCH   1  27
ATOM     27  C   UNL A   1      40.563  23.773  26.586  1.00  0.00     0.261 C 
BRANCH  27  28
ATOM     28  O   UNL A   1      39.722  24.937  26.537  1.00  0.00    -0.460 OA
BRANCH  28  29
ATOM     29  C   UNL A   1      40.418  26.099  26.470  1.00  0.00     0.338 C 
ATOM     30  O   UNL A   1      41.121  26.478  25.552  1.00  0.00    -0.246 OA
BRANCH  29  31
ATOM     31  C   UNL A   1      40.081  26.957  27.620  1.00  0.00     0.060 A 
ATOM     32  C   UNL A   1      40.608  28.254  27.643  1.00  0.00     0.016 A 
ATOM     33  C   UNL A   1      39.380  26.452  28.714  1.00  0.00     0.016 A 
ATOM     34  C   UNL A   1      40.478  29.035  28.792  1.00  0.00     0.010 A 
ATOM     35  C   UNL A   1      39.252  27.239  29.867  1.00  0.00     0.010 A 
ATOM     36  C   UNL A   1      39.835  28.517  29.925  1.00  0.00    -0.014 A 
BRANCH  36  37
ATOM     37  C   UNL A   1      39.901  29.268  31.205  1.00  0.00     0.031 A 
ATOM     38  C   UNL A   1      41.028  28.991  32.165  1.00  0.00     0.074 A 
ATOM     39  C   UNL A   1      38.995  30.223  31.486  1.00  0.00     0.049 A 
ATOM     40  N   UNL A   1      41.302  29.567  33.308  1.00  0.00    -0.248 NA
ATOM     41  C   UNL A   1      41.972  27.927  31.786  1.00  0.00     0.031 C 
ATOM     42  C   UNL A   1      37.875  30.604  30.627  1.00  0.00     0.029 A 
ATOM     43  N   UNL A   1      38.881  31.051  32.575  1.00  0.00    -0.354 N 
ATOM     44  C   UNL A   1      42.450  28.941  33.782  1.00  0.00     0.074 A 
ATOM     45  C   UNL A   1      42.800  27.918  32.821  1.00  0.00     0.031 C 
ATOM     46  C   UNL A   1      37.189  31.597  31.220  1.00  0.00     0.029 A 
ATOM     47  C   UNL A   1      37.806  31.905  32.508  1.00  0.00     0.049 A 
ATOM     48  H   UNL A   1      39.510  31.035  33.333  1.00  0.00     0.167 HD
ATOM     49  C   UNL A   1      43.154  29.199  34.911  1.00  0.00     0.031 A 
ATOM     50  C   UNL A   1      37.364  32.825  33.388  1.00  0.00     0.031 A 
ATOM     51  C   UNL A   1      42.795  30.203  35.875  1.00  0.00     0.049 A 
ATOM     52  C   UNL A   1      38.126  33.049  34.668  1.00  0.00     0.074 A 
ATOM     53  C   UNL A   1      43.455  30.551  37.042  1.00  0.00     0.029 A 
ATOM     54  N   UNL A   1      41.673  31.014  35.793  1.00  0.00    -0.354 N 
ATOM     55  N   UNL A   1      39.232  32.476  35.080  1.00  0.00    -0.248 NA
ATOM     56  C   UNL A   1      37.585  34.052  35.597  1.00  0.00     0.031 C 
ATOM     57  C   UNL A   1      42.702  31.537  37.691  1.00  0.00     0.029 A 
ATOM     58  C   UNL A   1      41.603  31.840  36.902  1.00  0.00     0.049 A 
ATOM     59  H   UNL A   1      41.023  31.003  35.054  1.00  0.00     0.167 HD
ATOM     60  C   UNL A   1      39.529  33.061  36.306  1.00  0.00     0.074 A 
ATOM     61  C   UNL A   1      38.496  34.044  36.561  1.00  0.00     0.031 C 
ATOM     62  C   UNL A   1      40.563  32.807  37.146  1.00  0.00     0.031 A 
BRANCH  49  63
ATOM     63  C   UNL A   1      44.373  28.355  35.174  1.00  0.00    -0.014 A 
ATOM     64  C   UNL A   1      44.272  27.121  35.842  1.00  0.00     0.010 A 
ATOM     65  C   UNL A   1      45.632  28.786  34.719  1.00  0.00     0.010 A 
ATOM     66  C   UNL A   1      45.415  26.355  36.088  1.00  0.00     0.020 A 
ATOM     67  C   UNL A   1      46.774  28.011  34.943  1.00  0.00     0.020 A 
ATOM     68  C   UNL A   1      46.660  26.809  35.643  1.00  0.00     0.054 A 
BRANCH  68  69
ATOM     69  S   UNL A   1      48.127  25.792  35.968  1.00  0.00     0.124 S 
ATOM     70  O   UNL A   1      47.570  24.442  35.933  1.00  0.00    -0.237 OA
ATOM     71  O   UNL A   1      49.011  26.135  34.856  1.00  0.00    -0.237 OA
ATOM     72  O   UNL A   1      48.579  26.244  37.282  1.00  0.00    -0.744 OA
ENDBRANCH  68  69
ENDBRANCH  49  63
BRANCH  50  73
ATOM     73  C   UNL A   1      36.128  33.600  33.093  1.00  0.00    -0.014 A 
ATOM     74  C   UNL A   1      36.194  34.829  32.413  1.00  0.00     0.010 A 
ATOM     75  C   UNL A   1      34.872  33.105  33.489  1.00  0.00     0.010 A 
ATOM     76  C   UNL A   1      35.028  35.552  32.144  1.00  0.00     0.020 A 
ATOM     77  C   UNL A   1      33.702  33.813  33.200  1.00  0.00     0.020 A 
ATOM     78  C   UNL A   1      33.789  35.039  32.538  1.00  0.00     0.054 A 
BRANCH  78  79
ATOM     79  S   UNL A   1      32.284  35.966  32.128  1.00  0.00     0.124 S 
ATOM     80  O   UNL A   1      31.235  35.026  32.509  1.00  0.00    -0.237 OA
ATOM     81  O   UNL A   1      32.406  37.155  32.967  1.00  0.00    -0.237 OA
ATOM     82  O   UNL A   1      32.415  36.211  30.693  1.00  0.00    -0.744 OA
ENDBRANCH  78  79
ENDBRANCH  50  73
BRANCH  62  83
ATOM     83  C   UNL A   1      40.640  33.615  38.414  1.00  0.00    -0.014 A 
ATOM     84  C   UNL A   1      41.402  34.794  38.478  1.00  0.00     0.010 A 
ATOM     85  C   UNL A   1      39.893  33.218  39.539  1.00  0.00     0.010 A 
ATOM     86  C   UNL A   1      41.440  35.548  39.655  1.00  0.00     0.020 A 
ATOM     87  C   UNL A   1      39.910  33.981  40.709  1.00  0.00     0.020 A 
ATOM     88  C   UNL A   1      40.695  35.135  40.764  1.00  0.00     0.054 A 
BRANCH  88  89
ATOM     89  S   UNL A   1      40.726  36.152  42.266  1.00  0.00     0.124 S 
ATOM     90  O   UNL A   1      41.877  37.016  42.025  1.00  0.00    -0.237 OA
ATOM     91  O   UNL A   1      39.425  36.815  42.233  1.00  0.00    -0.237 OA
ATOM     92  O   UNL A   1      40.893  35.176  43.341  1.00  0.00    -0.744 OA
ENDBRANCH  88  89
ENDBRANCH  62  83
ENDBRANCH  36  37
ENDBRANCH  29  31
ENDBRANCH  28  29
ENDBRANCH  27  28
ENDBRANCH   1  27
TORSDOF 18
ENDMDL
MODEL 2
REMARK VINA RESULT:     -10.9      2.382      3.969
REMARK SMILES CN1C(=O)C[C@@H](C(=O)OCCOCCOC(=O)c2ccc(-c3c4nc(c(-c5ccc(S(=O)(=O)[O-])cc5)c5ccc([nH]5)c(-c5ccc(S(=O)(=O)[O-])cc5)c5nc(c(-c6ccc(S(=O)(=O)[O-])cc6)c6ccc3[nH]6)C=C5)C=C4)cc2)C12CCN(c1ccc(Cl)cn1)CC2
REMARK SMILES IDX 13 1 12 2 11 3 10 4 9 5 7 6 8 7 6 8 1 9 2 10 3 11 78 12 4 13
REMARK SMILES IDX 5 14 79 15 90 16 80 17 89 18 81 19 82 20 83 21 88 22 84 23
REMARK SMILES IDX 87 24 85 25 86 26 14 27 15 28 16 29 17 30 18 31 19 32 77 33
REMARK SMILES IDX 20 34 76 35 21 36 22 37 23 38 70 39 24 40 75 41 69 42 71 43
REMARK SMILES IDX 25 44 74 45 68 46 67 47 26 49 56 50 37 51 55 52 38 53 41 54
REMARK SMILES IDX 54 55 72 56 39 57 40 58 53 60 73 61 42 62 27 63 28 64 36 65
REMARK SMILES IDX 29 66 35 67 30 68 31 69 32 70 33 71 34 72 57 73 58 74 66 75
REMARK SMILES IDX 59 76 65 77 60 78 61 79 62 80 63 81 64 82 43 83 44 84 52 85
REMARK SMILES IDX 45 86 51 87 46 88 47 89 48 90 49 91 50 92
REMARK H PARENT 71 48 41 59
REMARK Flexibility Score: inf
ROOT
ATOM      1  C   UNL A   1      39.678  22.610  26.891  1.00  0.00     0.202 C 
ENDROOT
BRANCH   1   2
ATOM      2  O   UNL A   1      39.265  21.829  25.774  1.00  0.00    -0.374 OA
BRANCH   2   3
ATOM      3  C   UNL A   1      37.900  21.902  25.372  1.00  0.00     0.202 C 
BRANCH   3   4
ATOM      4  C   UNL A   1      37.331  23.280  25.006  1.00  0.00     0.261 C 
BRANCH   4   5
ATOM      5  O   UNL A   1      36.368  23.303  23.928  1.00  0.00    -0.463 OA
BRANCH   5   6
ATOM      6  C   UNL A   1      35.236  23.998  24.188  1.00  0.00     0.311 C 
ATOM      7  O   UNL A   1      35.152  24.877  25.044  1.00  0.00    -0.252 OA
BRANCH   6   8
ATOM      8  C   UNL A   1      33.992  23.549  23.448  1.00  0.00     0.134 C 
ATOM      9  C   UNL A   1      30.503  24.221  24.718  1.00  0.00     0.147 C 
ATOM     10  N   UNL A   1      31.853  24.196  24.182  1.00  0.00    -0.339 N 
ATOM     11  C   UNL A   1      32.268  25.208  23.332  1.00  0.00     0.223 C 
ATOM     12  C   UNL A   1      32.700  22.992  24.106  1.00  0.00     0.060 C 
ATOM     13  O   UNL A   1      31.672  26.246  23.094  1.00  0.00    -0.275 OA
ATOM     14  C   UNL A   1      33.528  24.773  22.645  1.00  0.00     0.118 C 
ATOM     15  C   UNL A   1      32.860  22.334  25.491  1.00  0.00     0.051 C 
ATOM     16  C   UNL A   1      32.040  21.967  23.120  1.00  0.00     0.051 C 
ATOM     17  C   UNL A   1      33.501  20.959  25.435  1.00  0.00     0.120 C 
ATOM     18  C   UNL A   1      32.689  20.574  23.148  1.00  0.00     0.120 C 
ATOM     19  N   UNL A   1      32.720  20.123  24.530  1.00  0.00    -0.356 N 
BRANCH  19  20
ATOM     20  C   UNL A   1      32.845  18.759  24.771  1.00  0.00     0.128 A 
ATOM     21  C   UNL A   1      33.247  17.929  23.718  1.00  0.00     0.048 A 
ATOM     22  N   UNL A   1      32.531  18.256  25.983  1.00  0.00    -0.238 NA
ATOM     23  C   UNL A   1      33.289  16.548  23.889  1.00  0.00     0.026 A 
ATOM     24  C   UNL A   1      32.566  16.903  26.123  1.00  0.00     0.134 A 
ATOM     25  C   UNL A   1      32.924  16.021  25.115  1.00  0.00     0.059 A 
ATOM     26  Cl  UNL A   1      32.909  14.325  25.371  1.00  0.00    -0.083 Cl
ENDBRANCH  19  20
ENDBRANCH   6   8
ENDBRANCH   5   6
ENDBRANCH   4   5
ENDBRANCH   3   4
ENDBRANCH   2   3
ENDBRANCH   1   2
BRANCH   1  27
ATOM     27  C   UNL A   1      40.511  23.858  26.581  1.00  0.00     0.261 C 
BRANCH  27  28
ATOM     28  O   UNL A   1      39.704  25.047  26.573  1.00  0.00    -0.460 OA
BRANCH  28  29
ATOM     29  C   UNL A   1      40.433  26.189  26.531  1.00  0.00     0.338 C 
ATOM     30  O   UNL A   1      41.173  26.553  25.635  1.00  0.00    -0.246 OA
BRANCH  29  31
ATOM     31  C   UNL A   1      40.087  27.052  27.674  1.00  0.00     0.060 A 
ATOM     32  C   UNL A   1      40.639  28.339  27.713  1.00  0.00     0.016 A 
ATOM     33  C   UNL A   1      39.350  26.559  28.751  1.00  0.00     0.016 A 
ATOM     34  C   UNL A   1      40.498  29.121  28.859  1.00  0.00     0.010 A 
ATOM     35  C   UNL A   1      39.211  27.347  29.902  1.00  0.00     0.010 A 
ATOM     36  C   UNL A   1      39.819  28.614  29.976  1.00  0.00    -0.014 A 
BRANCH  36  37
ATOM     37  C   UNL A   1      39.869  29.361  31.259  1.00  0.00     0.031 A 
ATOM     38  C   UNL A   1      40.990  29.090  32.227  1.00  0.00     0.074 A 
ATOM     39  C   UNL A   1      38.955  30.309  31.536  1.00  0.00     0.049 A 
ATOM     40  N   UNL A   1      41.252  29.664  33.373  1.00  0.00    -0.248 NA
ATOM     41  C   UNL A   1      41.944  28.032  31.852  1.00  0.00     0.031 C 
ATOM     42  C   UNL A   1      37.839  30.686  30.669  1.00  0.00     0.029 A 
ATOM     43  N   UNL A   1      38.827  31.134  32.626  1.00  0.00    -0.354 N 
ATOM     44  C   UNL A   1      42.400  29.044  33.854  1.00  0.00     0.074 A 
ATOM     45  C   UNL A   1      42.764  28.026  32.893  1.00  0.00     0.031 C 
ATOM     46  C   UNL A   1      37.141  31.672  31.259  1.00  0.00     0.029 A 
ATOM     47  C   UNL A   1      37.747  31.981  32.553  1.00  0.00     0.049 A 
ATOM     48  H   UNL A   1      39.450  31.119  33.388  1.00  0.00     0.167 HD
ATOM     49  C   UNL A   1      43.094  29.303  34.989  1.00  0.00     0.031 A 
ATOM     50  C   UNL A   1      37.291  32.895  33.432  1.00  0.00     0.031 A 
ATOM     51  C   UNL A   1      42.721  30.303  35.954  1.00  0.00     0.049 A 
ATOM     52  C   UNL A   1      38.042  33.121  34.718  1.00  0.00     0.074 A 
ATOM     53  C   UNL A   1      43.369  30.652  37.126  1.00  0.00     0.029 A 
ATOM     54  N   UNL A   1      41.594  31.106  35.866  1.00  0.00    -0.354 N 
ATOM     55  N   UNL A   1      39.149  32.554  35.137  1.00  0.00    -0.248 NA
ATOM     56  C   UNL A   1      37.488  34.117  35.646  1.00  0.00     0.031 C 
ATOM     57  C   UNL A   1      42.604  31.630  37.773  1.00  0.00     0.029 A 
ATOM     58  C   UNL A   1      41.510  31.929  36.976  1.00  0.00     0.049 A 
ATOM     59  H   UNL A   1      40.949  31.093  35.122  1.00  0.00     0.167 HD
ATOM     60  C   UNL A   1      39.432  33.137  36.368  1.00  0.00     0.074 A 
ATOM     61  C   UNL A   1      38.390  34.113  36.617  1.00  0.00     0.031 C 
ATOM     62  C   UNL A   1      40.462  32.888  37.214  1.00  0.00     0.031 A 
BRANCH  49  63
ATOM     63  C   UNL A   1      44.316  28.466  35.259  1.00  0.00    -0.014 A 
ATOM     64  C   UNL A   1      44.225  27.254  35.966  1.00  0.00     0.010 A 
ATOM     65  C   UNL A   1      45.569  28.883  34.773  1.00  0.00     0.010 A 
ATOM     66  C   UNL A   1      45.371  26.494  36.218  1.00  0.00     0.020 A 
ATOM     67  C   UNL A   1      46.713  28.115  35.003  1.00  0.00     0.020 A 
ATOM     68  C   UNL A   1      46.610  26.934  35.741  1.00  0.00     0.054 A 
BRANCH  68  69
ATOM     69  S   UNL A   1      48.081  25.926  36.074  1.00  0.00     0.124 S 
ATOM     70  O   UNL A   1      48.172  26.000  37.530  1.00  0.00    -0.237 OA
ATOM     71  O   UNL A   1      47.707  24.620  35.535  1.00  0.00    -0.237 OA
ATOM     72  O   UNL A   1      49.146  26.614  35.348  1.00  0.00    -0.744 OA
ENDBRANCH  68  69
ENDBRANCH  49  63
BRANCH  50  73
ATOM     73  C   UNL A   1      36.053  33.663  33.130  1.00  0.00    -0.014 A 
ATOM     74  C   UNL A   1      36.123  34.982  32.647  1.00  0.00     0.010 A 
ATOM     75  C   UNL A   1      34.791  33.070  33.318  1.00  0.00     0.010 A 
ATOM     76  C   UNL A   1      34.954  35.697  32.370  1.00  0.00     0.020 A 
ATOM     77  C   UNL A   1      33.621  33.774  33.019  1.00  0.00     0.020 A 
ATOM     78  C   UNL A   1      33.710  35.088  32.556  1.00  0.00     0.054 A 
BRANCH  78  79
ATOM     79  S   UNL A   1      32.207  36.013  32.135  1.00  0.00     0.124 S 
ATOM     80  O   UNL A   1      32.383  36.245  30.705  1.00  0.00    -0.237 OA
ATOM     81  O   UNL A   1      31.146  35.078  32.500  1.00  0.00    -0.237 OA
ATOM     82  O   UNL A   1      32.293  37.204  32.978  1.00  0.00    -0.744 OA
ENDBRANCH  78  79
ENDBRANCH  50  73
BRANCH  62  83
ATOM     83  C   UNL A   1      40.523  33.692  38.485  1.00  0.00    -0.014 A 
ATOM     84  C   UNL A   1      40.917  35.041  38.472  1.00  0.00     0.010 A 
ATOM     85  C   UNL A   1      40.126  33.105  39.701  1.00  0.00     0.010 A 
ATOM     86  C   UNL A   1      40.943  35.782  39.657  1.00  0.00     0.020 A 
ATOM     87  C   UNL A   1      40.126  33.850  40.884  1.00  0.00     0.020 A 
ATOM     88  C   UNL A   1      40.548  35.181  40.856  1.00  0.00     0.054 A 
BRANCH  88  89
ATOM     89  S   UNL A   1      40.548  36.174  42.374  1.00  0.00     0.124 S 
ATOM     90  O   UNL A   1      39.490  37.143  42.104  1.00  0.00    -0.237 OA
ATOM     91  O   UNL A   1      40.245  35.185  43.406  1.00  0.00    -0.237 OA
ATOM     92  O   UNL A   1      41.900  36.725  42.427  1.00  0.00    -0.744 OA
ENDBRANCH  88  89
ENDBRANCH  62  83
ENDBRANCH  36  37
ENDBRANCH  29  31
ENDBRANCH  28  29
ENDBRANCH  27  28
ENDBRANCH   1  27
TORSDOF 18
ENDMDL
MODEL 3
REMARK VINA RESULT:     -10.7      6.129      8.405
REMARK SMILES CN1C(=O)C[C@@H](C(=O)OCCOCCOC(=O)c2ccc(-c3c4nc(c(-c5ccc(S(=O)(=O)[O-])cc5)c5ccc([nH]5)c(-c5ccc(S(=O)(=O)[O-])cc5)c5nc(c(-c6ccc(S(=O)(=O)[O-])cc6)c6ccc3[nH]6)C=C5)C=C4)cc2)C12CCN(c1ccc(Cl)cn1)CC2
REMARK SMILES IDX 13 1 12 2 11 3 10 4 9 5 7 6 8 7 6 8 1 9 2 10 3 11 78 12 4 13
REMARK SMILES IDX 5 14 79 15 90 16 80 17 89 18 81 19 82 20 83 21 88 22 84 23
REMARK SMILES IDX 87 24 85 25 86 26 14 27 15 28 16 29 17 30 18 31 19 32 77 33
REMARK SMILES IDX 20 34 76 35 21 36 22 37 23 38 70 39 24 40 75 41 69 42 71 43
REMARK SMILES IDX 25 44 74 45 68 46 67 47 26 49 56 50 37 51 55 52 38 53 41 54
REMARK SMILES IDX 54 55 72 56 39 57 40 58 53 60 73 61 42 62 27 63 28 64 36 65
REMARK SMILES IDX 29 66 35 67 30 68 31 69 32 70 33 71 34 72 57 73 58 74 66 75
REMARK SMILES IDX 59 76 65 77 60 78 61 79 62 80 63 81 64 82 43 83 44 84 52 85
REMARK SMILES IDX 45 86 51 87 46 88 47 89 48 90 49 91 50 92
REMARK H PARENT 71 48 41 59
REMARK Flexibility Score: inf
ROOT
ATOM      1  C   UNL A   1      37.793  19.900  25.043  1.00  0.00     0.202 C 
ENDROOT
BRANCH   1   2
ATOM      2  O   UNL A   1      37.687  21.291  24.757  1.00  0.00    -0.374 OA
BRANCH   2   3
ATOM      3  C   UNL A   1      36.482  21.961  25.118  1.00  0.00     0.202 C 
BRANCH   3   4
ATOM      4  C   UNL A   1      35.651  22.599  23.996  1.00  0.00     0.261 C 
BRANCH   4   5
ATOM      5  O   UNL A   1      34.252  22.819  24.290  1.00  0.00    -0.463 OA
BRANCH   5   6
ATOM      6  C   UNL A   1      33.809  24.075  24.048  1.00  0.00     0.311 C 
ATOM      7  O   UNL A   1      34.035  24.694  23.010  1.00  0.00    -0.252 OA
BRANCH   6   8
ATOM      8  C   UNL A   1      33.107  24.768  25.198  1.00  0.00     0.134 C 
ATOM      9  C   UNL A   1      30.040  23.348  26.875  1.00  0.00     0.147 C 
ATOM     10  N   UNL A   1      31.338  23.718  26.339  1.00  0.00    -0.339 N 
ATOM     11  C   UNL A   1      32.489  23.306  26.992  1.00  0.00     0.223 C 
ATOM     12  C   UNL A   1      31.570  24.838  25.409  1.00  0.00     0.060 C 
ATOM     13  O   UNL A   1      32.554  22.502  27.909  1.00  0.00    -0.275 OA
ATOM     14  C   UNL A   1      33.649  24.100  26.471  1.00  0.00     0.118 C 
ATOM     15  C   UNL A   1      30.694  24.706  24.147  1.00  0.00     0.051 C 
ATOM     16  C   UNL A   1      31.228  26.184  26.138  1.00  0.00     0.051 C 
ATOM     17  C   UNL A   1      30.697  25.951  23.279  1.00  0.00     0.120 C 
ATOM     18  C   UNL A   1      31.184  27.401  25.201  1.00  0.00     0.120 C 
ATOM     19  N   UNL A   1      30.289  27.086  24.100  1.00  0.00    -0.356 N 
BRANCH  19  20
ATOM     20  C   UNL A   1      29.745  28.141  23.375  1.00  0.00     0.128 A 
ATOM     21  C   UNL A   1      28.356  28.197  23.219  1.00  0.00     0.048 A 
ATOM     22  N   UNL A   1      30.555  29.052  22.797  1.00  0.00    -0.238 NA
ATOM     23  C   UNL A   1      27.778  29.179  22.419  1.00  0.00     0.026 A 
ATOM     24  C   UNL A   1      29.970  29.994  22.009  1.00  0.00     0.134 A 
ATOM     25  C   UNL A   1      28.605  30.089  21.786  1.00  0.00     0.059 A 
ATOM     26  Cl  UNL A   1      27.955  31.291  20.749  1.00  0.00    -0.083 Cl
ENDBRANCH  19  20
ENDBRANCH   6   8
ENDBRANCH   5   6
ENDBRANCH   4   5
ENDBRANCH   3   4
ENDBRANCH   2   3
ENDBRANCH   1   2
BRANCH   1  27
ATOM     27  C   UNL A   1      39.192  19.375  25.378  1.00  0.00     0.261 C 
BRANCH  27  28
ATOM     28  O   UNL A   1      39.973  20.357  26.080  1.00  0.00    -0.460 OA
BRANCH  28  29
ATOM     29  C   UNL A   1      41.261  19.979  26.273  1.00  0.00     0.338 C 
ATOM     30  O   UNL A   1      41.715  18.853  26.177  1.00  0.00    -0.246 OA
BRANCH  29  31
ATOM     31  C   UNL A   1      42.113  21.166  26.463  1.00  0.00     0.060 A 
ATOM     32  C   UNL A   1      42.519  21.478  27.766  1.00  0.00     0.016 A 
ATOM     33  C   UNL A   1      42.391  22.029  25.403  1.00  0.00     0.016 A 
ATOM     34  C   UNL A   1      43.163  22.688  28.022  1.00  0.00     0.010 A 
ATOM     35  C   UNL A   1      43.036  23.245  25.663  1.00  0.00     0.010 A 
ATOM     36  C   UNL A   1      43.388  23.599  26.979  1.00  0.00    -0.014 A 
BRANCH  36  37
ATOM     37  C   UNL A   1      43.867  24.967  27.299  1.00  0.00     0.031 A 
ATOM     38  C   UNL A   1      45.316  25.313  27.078  1.00  0.00     0.074 A 
ATOM     39  C   UNL A   1      43.009  25.909  27.734  1.00  0.00     0.049 A 
ATOM     40  N   UNL A   1      45.929  26.457  27.241  1.00  0.00    -0.248 NA
ATOM     41  C   UNL A   1      46.189  24.224  26.608  1.00  0.00     0.031 C 
ATOM     42  C   UNL A   1      41.578  25.708  27.961  1.00  0.00     0.029 A 
ATOM     43  N   UNL A   1      43.218  27.227  28.056  1.00  0.00    -0.354 N 
ATOM     44  C   UNL A   1      47.255  26.230  26.891  1.00  0.00     0.074 A 
ATOM     45  C   UNL A   1      47.365  24.831  26.540  1.00  0.00     0.031 C 
ATOM     46  C   UNL A   1      41.036  26.865  28.381  1.00  0.00     0.029 A 
ATOM     47  C   UNL A   1      42.084  27.880  28.474  1.00  0.00     0.049 A 
ATOM     48  H   UNL A   1      44.099  27.663  27.993  1.00  0.00     0.167 HD
ATOM     49  C   UNL A   1      48.287  27.108  26.856  1.00  0.00     0.031 A 
ATOM     50  C   UNL A   1      41.909  29.149  28.894  1.00  0.00     0.031 A 
ATOM     51  C   UNL A   1      48.181  28.495  27.223  1.00  0.00     0.049 A 
ATOM     52  C   UNL A   1      43.085  30.090  28.909  1.00  0.00     0.074 A 
ATOM     53  C   UNL A   1      49.166  29.468  27.205  1.00  0.00     0.029 A 
ATOM     54  N   UNL A   1      47.026  29.105  27.686  1.00  0.00    -0.354 N 
ATOM     55  N   UNL A   1      44.323  29.868  28.534  1.00  0.00    -0.248 NA
ATOM     56  C   UNL A   1      42.838  31.455  29.393  1.00  0.00     0.031 C 
ATOM     57  C   UNL A   1      48.617  30.653  27.707  1.00  0.00     0.029 A 
ATOM     58  C   UNL A   1      47.277  30.432  27.986  1.00  0.00     0.049 A 
ATOM     59  H   UNL A   1      46.153  28.658  27.786  1.00  0.00     0.167 HD
ATOM     60  C   UNL A   1      44.997  31.070  28.722  1.00  0.00     0.074 A 
ATOM     61  C   UNL A   1      44.026  32.020  29.226  1.00  0.00     0.031 C 
ATOM     62  C   UNL A   1      46.302  31.362  28.497  1.00  0.00     0.031 A 
BRANCH  49  63
ATOM     63  C   UNL A   1      49.631  26.579  26.430  1.00  0.00    -0.014 A 
ATOM     64  C   UNL A   1      50.099  26.759  25.116  1.00  0.00     0.010 A 
ATOM     65  C   UNL A   1      50.451  25.921  27.364  1.00  0.00     0.010 A 
ATOM     66  C   UNL A   1      51.344  26.253  24.732  1.00  0.00     0.020 A 
ATOM     67  C   UNL A   1      51.706  25.434  26.991  1.00  0.00     0.020 A 
ATOM     68  C   UNL A   1      52.137  25.586  25.672  1.00  0.00     0.054 A 
BRANCH  68  69
ATOM     69  S   UNL A   1      53.753  24.946  25.151  1.00  0.00     0.124 S 
ATOM     70  O   UNL A   1      53.933  25.599  23.858  1.00  0.00    -0.237 OA
ATOM     71  O   UNL A   1      54.641  25.407  26.216  1.00  0.00    -0.237 OA
ATOM     72  O   UNL A   1      53.551  23.500  25.096  1.00  0.00    -0.744 OA
ENDBRANCH  68  69
ENDBRANCH  49  63
BRANCH  50  73
ATOM     73  C   UNL A   1      40.565  29.604  29.343  1.00  0.00    -0.014 A 
ATOM     74  C   UNL A   1      39.510  29.749  28.426  1.00  0.00     0.010 A 
ATOM     75  C   UNL A   1      40.334  29.887  30.702  1.00  0.00     0.010 A 
ATOM     76  C   UNL A   1      38.252  30.180  28.858  1.00  0.00     0.020 A 
ATOM     77  C   UNL A   1      39.072  30.296  31.141  1.00  0.00     0.020 A 
ATOM     78  C   UNL A   1      38.040  30.450  30.213  1.00  0.00     0.054 A 
BRANCH  78  79
ATOM     79  S   UNL A   1      36.385  30.953  30.759  1.00  0.00     0.124 S 
ATOM     80  O   UNL A   1      35.701  31.177  29.489  1.00  0.00    -0.237 OA
ATOM     81  O   UNL A   1      35.937  29.792  31.524  1.00  0.00    -0.237 OA
ATOM     82  O   UNL A   1      36.639  32.153  31.555  1.00  0.00    -0.744 OA
ENDBRANCH  78  79
ENDBRANCH  50  73
BRANCH  62  83
ATOM     83  C   UNL A   1      46.756  32.769  28.779  1.00  0.00    -0.014 A 
ATOM     84  C   UNL A   1      47.347  33.108  30.009  1.00  0.00     0.010 A 
ATOM     85  C   UNL A   1      46.641  33.752  27.779  1.00  0.00     0.010 A 
ATOM     86  C   UNL A   1      47.787  34.414  30.246  1.00  0.00     0.020 A 
ATOM     87  C   UNL A   1      47.102  35.053  28.003  1.00  0.00     0.020 A 
ATOM     88  C   UNL A   1      47.661  35.379  29.241  1.00  0.00     0.054 A 
BRANCH  88  89
ATOM     89  S   UNL A   1      48.278  37.055  29.555  1.00  0.00     0.124 S 
ATOM     90  O   UNL A   1      47.751  37.792  28.411  1.00  0.00    -0.237 OA
ATOM     91  O   UNL A   1      47.677  37.383  30.845  1.00  0.00    -0.237 OA
ATOM     92  O   UNL A   1      49.730  36.891  29.575  1.00  0.00    -0.744 OA
ENDBRANCH  88  89
ENDBRANCH  62  83
ENDBRANCH  36  37
ENDBRANCH  29  31
ENDBRANCH  28  29
ENDBRANCH  27  28
ENDBRANCH   1  27
TORSDOF 18
ENDMDL
