MODEL 1
REMARK VINA RESULT:     -10.4      0.000      0.000
REMARK SMILES Cc1cc(C)c2c(c1)C=C(C(=O)OCCOCCOC(=O)c1ccc(-c3c4nc(c(-c5ccc(S(=O)(=O)[O-])cc5)c5ccc([nH]5)c(-c5ccc(S(=O)(=O)[O-])cc5)c5nc(c(-c6ccc(S(=O)(=O)[O-])cc6)c6ccc3[nH]6)C=C5)C=C4)cc1)[C@@H](C(F)(F)F)O2
REMARK SMILES IDX 17 1 16 2 15 3 14 4 13 5 11 6 12 7 10 8 1 9 2 10 3 11 8 12
REMARK SMILES IDX 4 13 7 14 5 15 6 16 9 17 87 18 82 19 83 20 84 21 85 22 86 23
REMARK SMILES IDX 18 24 19 25 20 26 21 27 22 28 23 29 81 30 24 31 80 32 25 33
REMARK SMILES IDX 26 34 27 35 74 36 28 37 79 38 73 39 75 40 29 41 78 42 72 43
REMARK SMILES IDX 71 44 30 46 60 47 41 48 59 49 42 50 45 51 58 52 76 53 43 54
REMARK SMILES IDX 44 55 57 57 77 58 46 59 31 60 32 61 40 62 33 63 39 64 34 65
REMARK SMILES IDX 35 66 36 67 37 68 38 69 61 70 62 71 70 72 63 73 69 74 64 75
REMARK SMILES IDX 65 76 66 77 67 78 68 79 47 80 48 81 56 82 49 83 55 84 50 85
REMARK SMILES IDX 51 86 52 87 53 88 54 89
REMARK H PARENT 75 45 45 56
REMARK Flexibility Score: inf
ROOT
ATOM      1  C   UNL A   1      33.800  28.672  25.934  1.00  0.00     0.202 C 
ENDROOT
BRANCH   1   2
ATOM      2  O   UNL A   1      33.997  28.633  24.520  1.00  0.00    -0.374 OA
BRANCH   2   3
ATOM      3  C   UNL A   1      32.863  28.862  23.685  1.00  0.00     0.202 C 
BRANCH   3   4
ATOM      4  C   UNL A   1      32.092  27.624  23.218  1.00  0.00     0.261 C 
BRANCH   4   5
ATOM      5  O   UNL A   1      32.771  26.411  23.579  1.00  0.00    -0.460 OA
BRANCH   5   6
ATOM      6  C   UNL A   1      32.193  25.723  24.590  1.00  0.00     0.338 C 
ATOM      7  O   UNL A   1      31.152  26.001  25.166  1.00  0.00    -0.246 OA
BRANCH   6   8
ATOM      8  C   UNL A   1      32.935  24.472  24.835  1.00  0.00     0.087 C 
ATOM      9  C   UNL A   1      38.676  22.627  26.001  1.00  0.00     0.044 C 
ATOM     10  C   UNL A   1      37.211  22.456  25.731  1.00  0.00    -0.050 A 
ATOM     11  C   UNL A   1      36.673  21.201  25.427  1.00  0.00     0.010 A 
ATOM     12  C   UNL A   1      36.375  23.576  25.705  1.00  0.00     0.015 A 
ATOM     13  C   UNL A   1      35.307  21.051  25.130  1.00  0.00    -0.008 A 
ATOM     14  C   UNL A   1      35.019  23.444  25.388  1.00  0.00     0.018 A 
ATOM     15  C   UNL A   1      34.759  19.695  24.782  1.00  0.00     0.048 C 
ATOM     16  C   UNL A   1      34.478  22.183  25.127  1.00  0.00     0.130 A 
ATOM     17  C   UNL A   1      34.196  24.629  25.256  1.00  0.00     0.027 C 
ATOM     18  O   UNL A   1      33.149  21.986  24.865  1.00  0.00    -0.475 OA
ATOM     19  C   UNL A   1      32.296  23.133  24.589  1.00  0.00     0.316 C 
BRANCH  19  20
ATOM     20  C   UNL A   1      31.747  22.992  23.163  1.00  0.00     0.430 C 
ATOM     21  F   UNL A   1      32.557  23.602  22.265  1.00  0.00    -0.167 F 
ATOM     22  F   UNL A   1      31.652  21.697  22.787  1.00  0.00    -0.167 F 
ATOM     23  F   UNL A   1      30.517  23.542  23.039  1.00  0.00    -0.167 F 
ENDBRANCH  19  20
ENDBRANCH   6   8
ENDBRANCH   5   6
ENDBRANCH   4   5
ENDBRANCH   3   4
ENDBRANCH   2   3
ENDBRANCH   1   2
BRANCH   1  24
ATOM     24  C   UNL A   1      33.245  29.970  26.534  1.00  0.00     0.261 C 
BRANCH  24  25
ATOM     25  O   UNL A   1      33.569  30.110  27.930  1.00  0.00    -0.460 OA
BRANCH  25  26
ATOM     26  C   UNL A   1      34.565  30.989  28.194  1.00  0.00     0.338 C 
ATOM     27  O   UNL A   1      34.447  32.174  28.474  1.00  0.00    -0.246 OA
BRANCH  26  28
ATOM     28  C   UNL A   1      35.852  30.280  28.291  1.00  0.00     0.060 A 
ATOM     29  C   UNL A   1      36.161  29.659  29.508  1.00  0.00     0.016 A 
ATOM     30  C   UNL A   1      36.777  30.297  27.246  1.00  0.00     0.016 A 
ATOM     31  C   UNL A   1      37.418  29.091  29.701  1.00  0.00     0.010 A 
ATOM     32  C   UNL A   1      38.043  29.737  27.447  1.00  0.00     0.010 A 
ATOM     33  C   UNL A   1      38.380  29.164  28.686  1.00  0.00    -0.014 A 
BRANCH  33  34
ATOM     34  C   UNL A   1      39.781  28.782  28.985  1.00  0.00     0.031 A 
ATOM     35  C   UNL A   1      40.669  29.768  29.693  1.00  0.00     0.074 A 
ATOM     36  C   UNL A   1      40.239  27.555  28.678  1.00  0.00     0.049 A 
ATOM     37  N   UNL A   1      41.920  29.644  30.053  1.00  0.00    -0.248 NA
ATOM     38  C   UNL A   1      40.065  31.064  30.048  1.00  0.00     0.031 C 
ATOM     39  C   UNL A   1      39.456  26.494  28.045  1.00  0.00     0.029 A 
ATOM     40  N   UNL A   1      41.477  26.994  28.866  1.00  0.00    -0.354 N 
ATOM     41  C   UNL A   1      42.253  30.839  30.678  1.00  0.00     0.074 A 
ATOM     42  C   UNL A   1      41.084  31.689  30.621  1.00  0.00     0.031 C 
ATOM     43  C   UNL A   1      40.233  25.406  27.902  1.00  0.00     0.029 A 
ATOM     44  C   UNL A   1      41.575  25.705  28.401  1.00  0.00     0.049 A 
ATOM     45  H   UNL A   1      42.225  27.472  29.292  1.00  0.00     0.167 HD
ATOM     46  C   UNL A   1      43.424  31.194  31.258  1.00  0.00     0.031 A 
ATOM     47  C   UNL A   1      42.629  24.865  28.370  1.00  0.00     0.031 A 
ATOM     48  C   UNL A   1      44.591  30.354  31.299  1.00  0.00     0.049 A 
ATOM     49  C   UNL A   1      43.951  25.320  28.933  1.00  0.00     0.074 A 
ATOM     50  C   UNL A   1      45.827  30.627  31.860  1.00  0.00     0.029 A 
ATOM     51  N   UNL A   1      44.670  29.081  30.754  1.00  0.00    -0.354 N 
ATOM     52  N   UNL A   1      44.250  26.453  29.523  1.00  0.00    -0.248 NA
ATOM     53  C   UNL A   1      45.077  24.381  28.826  1.00  0.00     0.031 C 
ATOM     54  C   UNL A   1      46.669  29.540  31.608  1.00  0.00     0.029 A 
ATOM     55  C   UNL A   1      45.941  28.566  30.941  1.00  0.00     0.049 A 
ATOM     56  H   UNL A   1      43.931  28.614  30.303  1.00  0.00     0.167 HD
ATOM     57  C   UNL A   1      45.592  26.355  29.874  1.00  0.00     0.074 A 
ATOM     58  C   UNL A   1      46.043  25.048  29.444  1.00  0.00     0.031 C 
ATOM     59  C   UNL A   1      46.378  27.265  30.501  1.00  0.00     0.031 A 
BRANCH  46  60
ATOM     60  C   UNL A   1      43.509  32.564  31.875  1.00  0.00    -0.014 A 
ATOM     61  C   UNL A   1      43.994  33.660  31.141  1.00  0.00     0.010 A 
ATOM     62  C   UNL A   1      43.053  32.768  33.191  1.00  0.00     0.010 A 
ATOM     63  C   UNL A   1      44.045  34.931  31.718  1.00  0.00     0.020 A 
ATOM     64  C   UNL A   1      43.080  34.042  33.764  1.00  0.00     0.020 A 
ATOM     65  C   UNL A   1      43.587  35.114  33.027  1.00  0.00     0.054 A 
BRANCH  65  66
ATOM     66  S   UNL A   1      43.636  36.782  33.739  1.00  0.00     0.124 S 
ATOM     67  O   UNL A   1      42.396  36.816  34.511  1.00  0.00    -0.237 OA
ATOM     68  O   UNL A   1      44.866  36.756  34.526  1.00  0.00    -0.237 OA
ATOM     69  O   UNL A   1      43.666  37.659  32.571  1.00  0.00    -0.744 OA
ENDBRANCH  65  66
ENDBRANCH  46  60
BRANCH  47  70
ATOM     70  C   UNL A   1      42.480  23.510  27.774  1.00  0.00    -0.014 A 
ATOM     71  C   UNL A   1      42.831  23.276  26.433  1.00  0.00     0.010 A 
ATOM     72  C   UNL A   1      41.998  22.441  28.552  1.00  0.00     0.010 A 
ATOM     73  C   UNL A   1      42.697  21.998  25.880  1.00  0.00     0.020 A 
ATOM     74  C   UNL A   1      41.887  21.158  28.010  1.00  0.00     0.020 A 
ATOM     75  C   UNL A   1      42.231  20.946  26.674  1.00  0.00     0.054 A 
BRANCH  75  76
ATOM     76  S   UNL A   1      42.126  19.286  25.949  1.00  0.00     0.124 S 
ATOM     77  O   UNL A   1      42.954  19.421  24.755  1.00  0.00    -0.237 OA
ATOM     78  O   UNL A   1      42.677  18.446  27.010  1.00  0.00    -0.237 OA
ATOM     79  O   UNL A   1      40.697  19.109  25.704  1.00  0.00    -0.744 OA
ENDBRANCH  75  76
ENDBRANCH  47  70
BRANCH  59  80
ATOM     80  C   UNL A   1      47.808  26.884  30.774  1.00  0.00    -0.014 A 
ATOM     81  C   UNL A   1      48.832  27.211  29.868  1.00  0.00     0.010 A 
ATOM     82  C   UNL A   1      48.143  26.263  31.993  1.00  0.00     0.010 A 
ATOM     83  C   UNL A   1      50.163  26.909  30.168  1.00  0.00     0.020 A 
ATOM     84  C   UNL A   1      49.475  25.982  32.306  1.00  0.00     0.020 A 
ATOM     85  C   UNL A   1      50.476  26.298  31.387  1.00  0.00     0.054 A 
BRANCH  85  86
ATOM     86  S   UNL A   1      52.218  25.971  31.775  1.00  0.00     0.124 S 
ATOM     87  O   UNL A   1      52.875  26.283  30.508  1.00  0.00    -0.237 OA
ATOM     88  O   UNL A   1      52.484  26.904  32.867  1.00  0.00    -0.237 OA
ATOM     89  O   UNL A   1      52.230  24.559  32.152  1.00  0.00    -0.744 OA
ENDBRANCH  85  86
ENDBRANCH  59  80
ENDBRANCH  33  34
ENDBRANCH  26  28
ENDBRANCH  25  26
ENDBRANCH  24  25
ENDBRANCH   1  24
TORSDOF 18
ENDMDL
MODEL 2
REMARK VINA RESULT:     -10.3      4.656      7.137
REMARK SMILES Cc1cc(C)c2c(c1)C=C(C(=O)OCCOCCOC(=O)c1ccc(-c3c4nc(c(-c5ccc(S(=O)(=O)[O-])cc5)c5ccc([nH]5)c(-c5ccc(S(=O)(=O)[O-])cc5)c5nc(c(-c6ccc(S(=O)(=O)[O-])cc6)c6ccc3[nH]6)C=C5)C=C4)cc1)[C@@H](C(F)(F)F)O2
REMARK SMILES IDX 17 1 16 2 15 3 14 4 13 5 11 6 12 7 10 8 1 9 2 10 3 11 8 12
REMARK SMILES IDX 4 13 7 14 5 15 6 16 9 17 87 18 82 19 83 20 84 21 85 22 86 23
REMARK SMILES IDX 18 24 19 25 20 26 21 27 22 28 23 29 81 30 24 31 80 32 25 33
REMARK SMILES IDX 26 34 27 35 74 36 28 37 79 38 73 39 75 40 29 41 78 42 72 43
REMARK SMILES IDX 71 44 30 46 60 47 41 48 59 49 42 50 45 51 58 52 76 53 43 54
REMARK SMILES IDX 44 55 57 57 77 58 46 59 31 60 32 61 40 62 33 63 39 64 34 65
REMARK SMILES IDX 35 66 36 67 37 68 38 69 61 70 62 71 70 72 63 73 69 74 64 75
REMARK SMILES IDX 65 76 66 77 67 78 68 79 47 80 48 81 56 82 49 83 55 84 50 85
REMARK SMILES IDX 51 86 52 87 53 88 54 89
REMARK H PARENT 75 45 45 56
REMARK Flexibility Score: inf
ROOT
ATOM      1  C   UNL A   1      33.799  34.525  29.789  1.00  0.00     0.202 C 
ENDROOT
BRANCH   1   2
ATOM      2  O   UNL A   1      34.649  34.592  30.935  1.00  0.00    -0.374 OA
BRANCH   2   3
ATOM      3  C   UNL A   1      34.057  34.959  32.180  1.00  0.00     0.202 C 
BRANCH   3   4
ATOM      4  C   UNL A   1      34.990  35.560  33.236  1.00  0.00     0.261 C 
BRANCH   4   5
ATOM      5  O   UNL A   1      36.247  34.867  33.285  1.00  0.00    -0.460 OA
BRANCH   5   6
ATOM      6  C   UNL A   1      36.379  34.013  34.326  1.00  0.00     0.338 C 
ATOM      7  O   UNL A   1      35.625  33.900  35.282  1.00  0.00    -0.246 OA
BRANCH   6   8
ATOM      8  C   UNL A   1      37.519  33.107  34.092  1.00  0.00     0.087 C 
ATOM      9  C   UNL A   1      38.571  27.337  32.271  1.00  0.00     0.044 C 
ATOM     10  C   UNL A   1      38.935  28.705  32.769  1.00  0.00    -0.050 A 
ATOM     11  C   UNL A   1      40.215  28.976  33.265  1.00  0.00     0.010 A 
ATOM     12  C   UNL A   1      37.964  29.708  32.813  1.00  0.00     0.015 A 
ATOM     13  C   UNL A   1      40.540  30.246  33.773  1.00  0.00    -0.008 A 
ATOM     14  C   UNL A   1      38.268  30.969  33.337  1.00  0.00     0.018 A 
ATOM     15  C   UNL A   1      41.915  30.506  34.322  1.00  0.00     0.048 C 
ATOM     16  C   UNL A   1      39.558  31.249  33.792  1.00  0.00     0.130 A 
ATOM     17  C   UNL A   1      37.218  31.958  33.478  1.00  0.00     0.027 C 
ATOM     18  O   UNL A   1      39.928  32.479  34.264  1.00  0.00    -0.475 OA
ATOM     19  C   UNL A   1      38.903  33.472  34.554  1.00  0.00     0.316 C 
BRANCH  19  20
ATOM     20  C   UNL A   1      38.961  33.799  36.053  1.00  0.00     0.430 C 
ATOM     21  F   UNL A   1      40.220  33.666  36.533  1.00  0.00    -0.167 F 
ATOM     22  F   UNL A   1      38.579  35.072  36.303  1.00  0.00    -0.167 F 
ATOM     23  F   UNL A   1      38.161  32.984  36.778  1.00  0.00    -0.167 F 
ENDBRANCH  19  20
ENDBRANCH   6   8
ENDBRANCH   5   6
ENDBRANCH   4   5
ENDBRANCH   3   4
ENDBRANCH   2   3
ENDBRANCH   1   2
BRANCH   1  24
ATOM     24  C   UNL A   1      34.158  33.503  28.703  1.00  0.00     0.261 C 
BRANCH  24  25
ATOM     25  O   UNL A   1      34.244  32.162  29.221  1.00  0.00    -0.460 OA
BRANCH  25  26
ATOM     26  C   UNL A   1      34.329  31.195  28.275  1.00  0.00     0.338 C 
ATOM     27  O   UNL A   1      33.544  30.988  27.360  1.00  0.00    -0.246 OA
BRANCH  26  28
ATOM     28  C   UNL A   1      35.628  30.508  28.370  1.00  0.00     0.060 A 
ATOM     29  C   UNL A   1      36.004  30.002  29.621  1.00  0.00     0.016 A 
ATOM     30  C   UNL A   1      36.499  30.437  27.282  1.00  0.00     0.016 A 
ATOM     31  C   UNL A   1      37.276  29.463  29.800  1.00  0.00     0.010 A 
ATOM     32  C   UNL A   1      37.780  29.907  27.468  1.00  0.00     0.010 A 
ATOM     33  C   UNL A   1      38.186  29.451  28.735  1.00  0.00    -0.014 A 
BRANCH  33  34
ATOM     34  C   UNL A   1      39.604  29.108  28.996  1.00  0.00     0.031 A 
ATOM     35  C   UNL A   1      40.494  30.134  29.644  1.00  0.00     0.074 A 
ATOM     36  C   UNL A   1      40.079  27.883  28.709  1.00  0.00     0.049 A 
ATOM     37  N   UNL A   1      41.759  30.047  29.964  1.00  0.00    -0.248 NA
ATOM     38  C   UNL A   1      39.873  31.426  29.983  1.00  0.00     0.031 C 
ATOM     39  C   UNL A   1      39.299  26.787  28.135  1.00  0.00     0.029 A 
ATOM     40  N   UNL A   1      41.335  27.355  28.869  1.00  0.00    -0.354 N 
ATOM     41  C   UNL A   1      42.086  31.268  30.542  1.00  0.00     0.074 A 
ATOM     42  C   UNL A   1      40.897  32.090  30.501  1.00  0.00     0.031 C 
ATOM     43  C   UNL A   1      40.095  25.713  27.996  1.00  0.00     0.029 A 
ATOM     44  C   UNL A   1      41.446  26.055  28.439  1.00  0.00     0.049 A 
ATOM     45  H   UNL A   1      42.087  27.861  29.256  1.00  0.00     0.167 HD
ATOM     46  C   UNL A   1      43.267  31.665  31.070  1.00  0.00     0.031 A 
ATOM     47  C   UNL A   1      42.518  25.238  28.396  1.00  0.00     0.031 A 
ATOM     48  C   UNL A   1      44.454  30.852  31.094  1.00  0.00     0.049 A 
ATOM     49  C   UNL A   1      43.847  25.737  28.898  1.00  0.00     0.074 A 
ATOM     50  C   UNL A   1      45.702  31.168  31.604  1.00  0.00     0.029 A 
ATOM     51  N   UNL A   1      44.543  29.566  30.585  1.00  0.00    -0.354 N 
ATOM     52  N   UNL A   1      44.140  26.893  29.444  1.00  0.00    -0.248 NA
ATOM     53  C   UNL A   1      44.990  24.820  28.779  1.00  0.00     0.031 C 
ATOM     54  C   UNL A   1      46.559  30.092  31.354  1.00  0.00     0.029 A 
ATOM     55  C   UNL A   1      45.831  29.084  30.742  1.00  0.00     0.049 A 
ATOM     56  H   UNL A   1      43.800  29.069  30.172  1.00  0.00     0.167 HD
ATOM     57  C   UNL A   1      45.495  26.834  29.752  1.00  0.00     0.074 A 
ATOM     58  C   UNL A   1      45.961  25.525  29.344  1.00  0.00     0.031 C 
ATOM     59  C   UNL A   1      46.282  27.780  30.324  1.00  0.00     0.031 A 
BRANCH  46  60
ATOM     60  C   UNL A   1      43.343  33.054  31.644  1.00  0.00    -0.014 A 
ATOM     61  C   UNL A   1      43.228  33.273  33.028  1.00  0.00     0.010 A 
ATOM     62  C   UNL A   1      43.582  34.150  30.794  1.00  0.00     0.010 A 
ATOM     63  C   UNL A   1      43.325  34.565  33.550  1.00  0.00     0.020 A 
ATOM     64  C   UNL A   1      43.703  35.441  31.315  1.00  0.00     0.020 A 
ATOM     65  C   UNL A   1      43.562  35.641  32.690  1.00  0.00     0.054 A 
BRANCH  65  66
ATOM     66  S   UNL A   1      43.715  37.303  33.400  1.00  0.00     0.124 S 
ATOM     67  O   UNL A   1      42.464  37.429  34.145  1.00  0.00    -0.237 OA
ATOM     68  O   UNL A   1      44.922  37.193  34.214  1.00  0.00    -0.237 OA
ATOM     69  O   UNL A   1      43.832  38.172  32.232  1.00  0.00    -0.744 OA
ENDBRANCH  65  66
ENDBRANCH  46  60
BRANCH  47  70
ATOM     70  C   UNL A   1      42.378  23.862  27.845  1.00  0.00    -0.014 A 
ATOM     71  C   UNL A   1      42.360  22.748  28.701  1.00  0.00     0.010 A 
ATOM     72  C   UNL A   1      42.248  23.662  26.458  1.00  0.00     0.010 A 
ATOM     73  C   UNL A   1      42.220  21.458  28.179  1.00  0.00     0.020 A 
ATOM     74  C   UNL A   1      42.082  22.377  25.936  1.00  0.00     0.020 A 
ATOM     75  C   UNL A   1      42.075  21.281  26.801  1.00  0.00     0.054 A 
BRANCH  75  76
ATOM     76  S   UNL A   1      41.833  19.602  26.156  1.00  0.00     0.124 S 
ATOM     77  O   UNL A   1      42.741  19.580  25.014  1.00  0.00    -0.237 OA
ATOM     78  O   UNL A   1      42.224  18.771  27.292  1.00  0.00    -0.237 OA
ATOM     79  O   UNL A   1      40.410  19.564  25.826  1.00  0.00    -0.744 OA
ENDBRANCH  75  76
ENDBRANCH  47  70
BRANCH  59  80
ATOM     80  C   UNL A   1      47.729  27.438  30.558  1.00  0.00    -0.014 A 
ATOM     81  C   UNL A   1      48.715  27.768  29.612  1.00  0.00     0.010 A 
ATOM     82  C   UNL A   1      48.117  26.852  31.778  1.00  0.00     0.010 A 
ATOM     83  C   UNL A   1      50.061  27.503  29.874  1.00  0.00     0.020 A 
ATOM     84  C   UNL A   1      49.466  26.609  32.053  1.00  0.00     0.020 A 
ATOM     85  C   UNL A   1      50.429  26.927  31.095  1.00  0.00     0.054 A 
BRANCH  85  86
ATOM     86  S   UNL A   1      52.190  26.649  31.432  1.00  0.00     0.124 S 
ATOM     87  O   UNL A   1      52.729  26.454  30.089  1.00  0.00    -0.237 OA
ATOM     88  O   UNL A   1      52.588  27.888  32.095  1.00  0.00    -0.237 OA
ATOM     89  O   UNL A   1      52.196  25.462  32.285  1.00  0.00    -0.744 OA
ENDBRANCH  85  86
ENDBRANCH  59  80
ENDBRANCH  33  34
ENDBRANCH  26  28
ENDBRANCH  25  26
ENDBRANCH  24  25
ENDBRANCH   1  24
TORSDOF 18
ENDMDL
MODEL 3
REMARK VINA RESULT:     -10.2      3.242      4.301
REMARK SMILES Cc1cc(C)c2c(c1)C=C(C(=O)OCCOCCOC(=O)c1ccc(-c3c4nc(c(-c5ccc(S(=O)(=O)[O-])cc5)c5ccc([nH]5)c(-c5ccc(S(=O)(=O)[O-])cc5)c5nc(c(-c6ccc(S(=O)(=O)[O-])cc6)c6ccc3[nH]6)C=C5)C=C4)cc1)[C@@H](C(F)(F)F)O2
REMARK SMILES IDX 17 1 16 2 15 3 14 4 13 5 11 6 12 7 10 8 1 9 2 10 3 11 8 12
REMARK SMILES IDX 4 13 7 14 5 15 6 16 9 17 87 18 82 19 83 20 84 21 85 22 86 23
REMARK SMILES IDX 18 24 19 25 20 26 21 27 22 28 23 29 81 30 24 31 80 32 25 33
REMARK SMILES IDX 26 34 27 35 74 36 28 37 79 38 73 39 75 40 29 41 78 42 72 43
REMARK SMILES IDX 71 44 30 46 60 47 41 48 59 49 42 50 45 51 58 52 76 53 43 54
REMARK SMILES IDX 44 55 57 57 77 58 46 59 31 60 32 61 40 62 33 63 39 64 34 65
REMARK SMILES IDX 35 66 36 67 37 68 38 69 61 70 62 71 70 72 63 73 69 74 64 75
REMARK SMILES IDX 65 76 66 77 67 78 68 79 47 80 48 81 56 82 49 83 55 84 50 85
REMARK SMILES IDX 51 86 52 87 53 88 54 89
REMARK H PARENT 75 45 45 56
REMARK Flexibility Score: inf
ROOT
ATOM      1  C   UNL A   1      34.389  31.518  28.051  1.00  0.00     0.202 C 
ENDROOT
BRANCH   1   2
ATOM      2  O   UNL A   1      33.900  30.486  27.192  1.00  0.00    -0.374 OA
BRANCH   2   3
ATOM      3  C   UNL A   1      32.486  30.356  27.049  1.00  0.00     0.202 C 
BRANCH   3   4
ATOM      4  C   UNL A   1      31.952  30.183  25.624  1.00  0.00     0.261 C 
BRANCH   4   5
ATOM      5  O   UNL A   1      32.927  29.573  24.765  1.00  0.00    -0.460 OA
BRANCH   5   6
ATOM      6  C   UNL A   1      32.438  28.606  23.955  1.00  0.00     0.338 C 
ATOM      7  O   UNL A   1      32.305  28.663  22.741  1.00  0.00    -0.246 OA
BRANCH   6   8
ATOM      8  C   UNL A   1      32.196  27.375  24.731  1.00  0.00     0.087 C 
ATOM      9  C   UNL A   1      35.173  22.262  26.377  1.00  0.00     0.044 C 
ATOM     10  C   UNL A   1      34.004  23.197  26.286  1.00  0.00    -0.050 A 
ATOM     11  C   UNL A   1      32.715  22.780  26.637  1.00  0.00     0.010 A 
ATOM     12  C   UNL A   1      34.182  24.483  25.769  1.00  0.00     0.015 A 
ATOM     13  C   UNL A   1      31.614  23.644  26.507  1.00  0.00    -0.008 A 
ATOM     14  C   UNL A   1      33.092  25.344  25.613  1.00  0.00     0.018 A 
ATOM     15  C   UNL A   1      30.236  23.164  26.869  1.00  0.00     0.048 C 
ATOM     16  C   UNL A   1      31.814  24.939  26.005  1.00  0.00     0.130 A 
ATOM     17  C   UNL A   1      33.281  26.630  24.971  1.00  0.00     0.027 C 
ATOM     18  O   UNL A   1      30.720  25.757  25.927  1.00  0.00    -0.475 OA
ATOM     19  C   UNL A   1      30.810  27.003  25.178  1.00  0.00     0.316 C 
BRANCH  19  20
ATOM     20  C   UNL A   1      29.810  26.937  24.015  1.00  0.00     0.430 C 
ATOM     21  F   UNL A   1      28.701  26.243  24.362  1.00  0.00    -0.167 F 
ATOM     22  F   UNL A   1      29.398  28.169  23.637  1.00  0.00    -0.167 F 
ATOM     23  F   UNL A   1      30.342  26.335  22.926  1.00  0.00    -0.167 F 
ENDBRANCH  19  20
ENDBRANCH   6   8
ENDBRANCH   5   6
ENDBRANCH   4   5
ENDBRANCH   3   4
ENDBRANCH   2   3
ENDBRANCH   1   2
BRANCH   1  24
ATOM     24  C   UNL A   1      35.558  31.168  28.980  1.00  0.00     0.261 C 
BRANCH  24  25
ATOM     25  O   UNL A   1      36.050  29.833  28.761  1.00  0.00    -0.460 OA
BRANCH  25  26
ATOM     26  C   UNL A   1      36.845  29.354  29.748  1.00  0.00     0.338 C 
ATOM     27  O   UNL A   1      36.527  29.131  30.909  1.00  0.00    -0.246 OA
BRANCH  26  28
ATOM     28  C   UNL A   1      38.145  28.941  29.194  1.00  0.00     0.060 A 
ATOM     29  C   UNL A   1      39.041  28.292  30.054  1.00  0.00     0.016 A 
ATOM     30  C   UNL A   1      38.518  29.259  27.887  1.00  0.00     0.016 A 
ATOM     31  C   UNL A   1      40.333  28.000  29.623  1.00  0.00     0.010 A 
ATOM     32  C   UNL A   1      39.820  28.976  27.461  1.00  0.00     0.010 A 
ATOM     33  C   UNL A   1      40.742  28.378  28.339  1.00  0.00    -0.014 A 
BRANCH  33  34
ATOM     34  C   UNL A   1      42.178  28.288  27.979  1.00  0.00     0.031 A 
ATOM     35  C   UNL A   1      43.068  29.473  28.235  1.00  0.00     0.074 A 
ATOM     36  C   UNL A   1      42.691  27.149  27.480  1.00  0.00     0.049 A 
ATOM     37  N   UNL A   1      44.347  29.612  28.001  1.00  0.00    -0.248 NA
ATOM     38  C   UNL A   1      42.434  30.656  28.843  1.00  0.00     0.031 C 
ATOM     39  C   UNL A   1      41.941  25.916  27.243  1.00  0.00     0.029 A 
ATOM     40  N   UNL A   1      43.971  26.846  27.090  1.00  0.00    -0.354 N 
ATOM     41  C   UNL A   1      44.673  30.893  28.434  1.00  0.00     0.074 A 
ATOM     42  C   UNL A   1      43.452  31.502  28.915  1.00  0.00     0.031 C 
ATOM     43  C   UNL A   1      42.778  24.986  26.752  1.00  0.00     0.029 A 
ATOM     44  C   UNL A   1      44.112  25.566  26.609  1.00  0.00     0.049 A 
ATOM     45  H   UNL A   1      44.718  27.485  27.148  1.00  0.00     0.167 HD
ATOM     46  C   UNL A   1      45.881  31.502  28.439  1.00  0.00     0.031 A 
ATOM     47  C   UNL A   1      45.191  24.939  26.100  1.00  0.00     0.031 A 
ATOM     48  C   UNL A   1      47.090  30.901  27.944  1.00  0.00     0.049 A 
ATOM     49  C   UNL A   1      46.504  25.674  26.025  1.00  0.00     0.074 A 
ATOM     50  C   UNL A   1      48.364  31.441  27.903  1.00  0.00     0.029 A 
ATOM     51  N   UNL A   1      47.177  29.628  27.400  1.00  0.00    -0.354 N 
ATOM     52  N   UNL A   1      46.797  26.883  26.440  1.00  0.00    -0.248 NA
ATOM     53  C   UNL A   1      47.633  24.957  25.413  1.00  0.00     0.031 C 
ATOM     54  C   UNL A   1      49.210  30.515  27.285  1.00  0.00     0.029 A 
ATOM     55  C   UNL A   1      48.476  29.375  26.995  1.00  0.00     0.049 A 
ATOM     56  H   UNL A   1      46.425  28.999  27.316  1.00  0.00     0.167 HD
ATOM     57  C   UNL A   1      48.147  27.064  26.158  1.00  0.00     0.074 A 
ATOM     58  C   UNL A   1      48.617  25.837  25.550  1.00  0.00     0.031 C 
ATOM     59  C   UNL A   1      48.928  28.150  26.385  1.00  0.00     0.031 A 
BRANCH  46  60
ATOM     60  C   UNL A   1      45.951  32.906  28.977  1.00  0.00    -0.014 A 
ATOM     61  C   UNL A   1      46.338  33.154  30.306  1.00  0.00     0.010 A 
ATOM     62  C   UNL A   1      45.676  33.994  28.129  1.00  0.00     0.010 A 
ATOM     63  C   UNL A   1      46.423  34.464  30.785  1.00  0.00     0.020 A 
ATOM     64  C   UNL A   1      45.782  35.306  28.597  1.00  0.00     0.020 A 
ATOM     65  C   UNL A   1      46.144  35.532  29.927  1.00  0.00     0.054 A 
BRANCH  65  66
ATOM     66  S   UNL A   1      46.293  37.222  30.569  1.00  0.00     0.124 S 
ATOM     67  O   UNL A   1      46.793  37.945  29.401  1.00  0.00    -0.237 OA
ATOM     68  O   UNL A   1      44.923  37.536  30.962  1.00  0.00    -0.237 OA
ATOM     69  O   UNL A   1      47.241  37.093  31.673  1.00  0.00    -0.744 OA
ENDBRANCH  65  66
ENDBRANCH  46  60
BRANCH  47  70
ATOM     70  C   UNL A   1      45.071  23.539  25.610  1.00  0.00    -0.014 A 
ATOM     71  C   UNL A   1      44.701  23.276  24.279  1.00  0.00     0.010 A 
ATOM     72  C   UNL A   1      45.342  22.459  26.470  1.00  0.00     0.010 A 
ATOM     73  C   UNL A   1      44.598  21.959  23.821  1.00  0.00     0.020 A 
ATOM     74  C   UNL A   1      45.266  21.143  26.008  1.00  0.00     0.020 A 
ATOM     75  C   UNL A   1      44.887  20.901  24.687  1.00  0.00     0.054 A 
BRANCH  75  76
ATOM     76  S   UNL A   1      44.806  19.204  24.049  1.00  0.00     0.124 S 
ATOM     77  O   UNL A   1      44.398  19.417  22.664  1.00  0.00    -0.237 OA
ATOM     78  O   UNL A   1      46.176  18.733  24.240  1.00  0.00    -0.237 OA
ATOM     79  O   UNL A   1      43.810  18.563  24.904  1.00  0.00    -0.744 OA
ENDBRANCH  75  76
ENDBRANCH  47  70
BRANCH  59  80
ATOM     80  C   UNL A   1      50.377  28.065  25.989  1.00  0.00    -0.014 A 
ATOM     81  C   UNL A   1      50.798  28.418  24.696  1.00  0.00     0.010 A 
ATOM     82  C   UNL A   1      51.341  27.704  26.950  1.00  0.00     0.010 A 
ATOM     83  C   UNL A   1      52.155  28.397  24.364  1.00  0.00     0.020 A 
ATOM     84  C   UNL A   1      52.702  27.706  26.629  1.00  0.00     0.020 A 
ATOM     85  C   UNL A   1      53.099  28.043  25.335  1.00  0.00     0.054 A 
BRANCH  85  86
ATOM     86  S   UNL A   1      54.858  28.080  24.892  1.00  0.00     0.124 S 
ATOM     87  O   UNL A   1      54.925  27.086  23.825  1.00  0.00    -0.237 OA
ATOM     88  O   UNL A   1      55.052  29.466  24.473  1.00  0.00    -0.237 OA
ATOM     89  O   UNL A   1      55.536  27.710  26.133  1.00  0.00    -0.744 OA
ENDBRANCH  85  86
ENDBRANCH  59  80
ENDBRANCH  33  34
ENDBRANCH  26  28
ENDBRANCH  25  26
ENDBRANCH  24  25
ENDBRANCH   1  24
TORSDOF 18
ENDMDL
