MODEL 1
REMARK VINA RESULT:     -11.0      0.000      0.000
REMARK SMILES Cc1c2c([nH]c(=O)c1C(=O)OCCOCCOC(=O)c1ccc(-c3c4nc(c(-c5ccc(S(=O)(=O)[O-])cc5)c5ccc([nH]5)c(-c5ccc(S(=O)(=O)[O-])cc5)c5nc(c(-c6ccc(S(=O)(=O)[O-])cc6)c6ccc3[nH]6)C=C5)C=C4)cc1)CC(C)(C)CC2=O
REMARK SMILES IDX 15 1 14 2 13 3 12 4 11 5 9 6 10 7 8 8 1 9 2 10 3 11 4 12
REMARK SMILES IDX 85 13 6 14 5 15 80 16 84 17 86 18 7 19 81 21 82 22 83 23
REMARK SMILES IDX 16 24 17 25 18 26 19 27 20 28 21 29 79 30 22 31 78 32 23 33
REMARK SMILES IDX 24 34 25 35 72 36 26 37 77 38 71 39 73 40 27 41 76 42 70 43
REMARK SMILES IDX 69 44 28 46 58 47 39 48 57 49 40 50 43 51 56 52 74 53 41 54
REMARK SMILES IDX 42 55 55 57 75 58 44 59 29 60 30 61 38 62 31 63 37 64 32 65
REMARK SMILES IDX 33 66 34 67 35 68 36 69 59 70 60 71 68 72 61 73 67 74 62 75
REMARK SMILES IDX 63 76 64 77 65 78 66 79 45 80 46 81 54 82 47 83 53 84 48 85
REMARK SMILES IDX 49 86 50 87 51 88 52 89
REMARK H PARENT 5 20 73 45 43 56
REMARK Flexibility Score: inf
ROOT
ATOM      1  C   UNL A   1      36.910  21.299  24.329  1.00  0.00     0.202 C 
ENDROOT
BRANCH   1   2
ATOM      2  O   UNL A   1      35.707  21.977  24.691  1.00  0.00    -0.374 OA
BRANCH   2   3
ATOM      3  C   UNL A   1      34.485  21.236  24.618  1.00  0.00     0.202 C 
BRANCH   3   4
ATOM      4  C   UNL A   1      33.851  20.896  25.966  1.00  0.00     0.261 C 
BRANCH   4   5
ATOM      5  O   UNL A   1      32.611  21.612  26.071  1.00  0.00    -0.459 OA
BRANCH   5   6
ATOM      6  C   UNL A   1      32.563  22.600  26.987  1.00  0.00     0.344 C 
ATOM      7  O   UNL A   1      32.992  22.529  28.130  1.00  0.00    -0.246 OA
BRANCH   6   8
ATOM      8  C   UNL A   1      31.997  23.848  26.411  1.00  0.00     0.128 A 
ATOM      9  C   UNL A   1      34.203  24.919  25.766  1.00  0.00     0.046 C 
ATOM     10  C   UNL A   1      32.696  24.813  25.756  1.00  0.00    -0.018 A 
ATOM     11  C   UNL A   1      31.959  25.827  24.962  1.00  0.00     0.041 A 
ATOM     12  C   UNL A   1      30.617  25.921  25.067  1.00  0.00     0.030 A 
ATOM     13  C   UNL A   1      32.614  26.675  23.896  1.00  0.00     0.165 C 
ATOM     14  C   UNL A   1      30.523  24.027  26.582  1.00  0.00     0.263 A 
ATOM     15  N   UNL A   1      29.946  25.061  25.898  1.00  0.00    -0.325 N 
ATOM     16  C   UNL A   1      29.729  26.870  24.300  1.00  0.00     0.061 C 
ATOM     17  C   UNL A   1      31.725  27.398  22.904  1.00  0.00     0.088 C 
ATOM     18  O   UNL A   1      33.833  26.732  23.755  1.00  0.00    -0.294 OA
ATOM     19  O   UNL A   1      29.843  23.350  27.347  1.00  0.00    -0.269 OA
ATOM     20  H   UNL A   1      28.977  25.198  26.010  1.00  0.00     0.169 HD
ATOM     21  C   UNL A   1      30.482  27.993  23.570  1.00  0.00    -0.023 C 
ATOM     22  C   UNL A   1      30.874  29.115  24.551  1.00  0.00     0.012 C 
ATOM     23  C   UNL A   1      29.569  28.596  22.487  1.00  0.00     0.012 C 
ENDBRANCH   6   8
ENDBRANCH   5   6
ENDBRANCH   4   5
ENDBRANCH   3   4
ENDBRANCH   2   3
ENDBRANCH   1   2
BRANCH   1  24
ATOM     24  C   UNL A   1      38.024  21.289  25.383  1.00  0.00     0.261 C 
BRANCH  24  25
ATOM     25  O   UNL A   1      38.214  22.580  25.991  1.00  0.00    -0.460 OA
BRANCH  25  26
ATOM     26  C   UNL A   1      39.490  22.853  26.349  1.00  0.00     0.338 C 
ATOM     27  O   UNL A   1      40.486  22.178  26.110  1.00  0.00    -0.246 OA
BRANCH  26  28
ATOM     28  C   UNL A   1      39.575  24.201  26.935  1.00  0.00     0.060 A 
ATOM     29  C   UNL A   1      40.258  25.183  26.206  1.00  0.00     0.016 A 
ATOM     30  C   UNL A   1      39.068  24.483  28.206  1.00  0.00     0.016 A 
ATOM     31  C   UNL A   1      40.477  26.440  26.764  1.00  0.00     0.010 A 
ATOM     32  C   UNL A   1      39.301  25.742  28.770  1.00  0.00     0.010 A 
ATOM     33  C   UNL A   1      40.036  26.713  28.066  1.00  0.00    -0.014 A 
BRANCH  33  34
ATOM     34  C   UNL A   1      40.482  27.958  28.737  1.00  0.00     0.031 A 
ATOM     35  C   UNL A   1      41.907  28.057  29.212  1.00  0.00     0.074 A 
ATOM     36  C   UNL A   1      39.648  29.003  28.875  1.00  0.00     0.049 A 
ATOM     37  N   UNL A   1      42.507  29.046  29.821  1.00  0.00    -0.248 NA
ATOM     38  C   UNL A   1      42.768  26.890  28.960  1.00  0.00     0.031 C 
ATOM     39  C   UNL A   1      38.265  29.050  28.401  1.00  0.00     0.029 A 
ATOM     40  N   UNL A   1      39.849  30.234  29.450  1.00  0.00    -0.354 N 
ATOM     41  C   UNL A   1      43.816  28.624  30.024  1.00  0.00     0.074 A 
ATOM     42  C   UNL A   1      43.914  27.278  29.504  1.00  0.00     0.031 C 
ATOM     43  C   UNL A   1      37.743  30.252  28.699  1.00  0.00     0.029 A 
ATOM     44  C   UNL A   1      38.741  31.046  29.414  1.00  0.00     0.049 A 
ATOM     45  H   UNL A   1      40.706  30.508  29.848  1.00  0.00     0.167 HD
ATOM     46  C   UNL A   1      44.847  29.300  30.585  1.00  0.00     0.031 A 
ATOM     47  C   UNL A   1      38.550  32.283  29.915  1.00  0.00     0.031 A 
ATOM     48  C   UNL A   1      44.744  30.631  31.118  1.00  0.00     0.049 A 
ATOM     49  C   UNL A   1      39.683  32.976  30.625  1.00  0.00     0.074 A 
ATOM     50  C   UNL A   1      45.731  31.399  31.712  1.00  0.00     0.029 A 
ATOM     51  N   UNL A   1      43.585  31.392  31.129  1.00  0.00    -0.354 N 
ATOM     52  N   UNL A   1      40.915  32.564  30.809  1.00  0.00    -0.248 NA
ATOM     53  C   UNL A   1      39.401  34.303  31.192  1.00  0.00     0.031 C 
ATOM     54  C   UNL A   1      45.155  32.602  32.131  1.00  0.00     0.029 A 
ATOM     55  C   UNL A   1      43.824  32.609  31.744  1.00  0.00     0.049 A 
ATOM     56  H   UNL A   1      42.720  31.109  30.755  1.00  0.00     0.167 HD
ATOM     57  C   UNL A   1      41.560  33.588  31.495  1.00  0.00     0.074 A 
ATOM     58  C   UNL A   1      40.585  34.645  31.680  1.00  0.00     0.031 C 
ATOM     59  C   UNL A   1      42.843  33.649  31.931  1.00  0.00     0.031 A 
BRANCH  46  60
ATOM     60  C   UNL A   1      46.175  28.595  30.673  1.00  0.00    -0.014 A 
ATOM     61  C   UNL A   1      46.462  27.721  31.738  1.00  0.00     0.010 A 
ATOM     62  C   UNL A   1      47.129  28.774  29.656  1.00  0.00     0.010 A 
ATOM     63  C   UNL A   1      47.693  27.062  31.798  1.00  0.00     0.020 A 
ATOM     64  C   UNL A   1      48.351  28.096  29.700  1.00  0.00     0.020 A 
ATOM     65  C   UNL A   1      48.630  27.255  30.778  1.00  0.00     0.054 A 
BRANCH  65  66
ATOM     66  S   UNL A   1      50.207  26.363  30.869  1.00  0.00     0.124 S 
ATOM     67  O   UNL A   1      50.420  26.274  32.312  1.00  0.00    -0.237 OA
ATOM     68  O   UNL A   1      49.900  25.102  30.201  1.00  0.00    -0.237 OA
ATOM     69  O   UNL A   1      51.141  27.232  30.157  1.00  0.00    -0.744 OA
ENDBRANCH  65  66
ENDBRANCH  46  60
BRANCH  47  70
ATOM     70  C   UNL A   1      37.223  32.943  29.767  1.00  0.00    -0.014 A 
ATOM     71  C   UNL A   1      36.351  33.047  30.865  1.00  0.00     0.010 A 
ATOM     72  C   UNL A   1      36.834  33.488  28.531  1.00  0.00     0.010 A 
ATOM     73  C   UNL A   1      35.113  33.683  30.728  1.00  0.00     0.020 A 
ATOM     74  C   UNL A   1      35.609  34.147  28.396  1.00  0.00     0.020 A 
ATOM     75  C   UNL A   1      34.753  34.235  29.495  1.00  0.00     0.054 A 
BRANCH  75  76
ATOM     76  S   UNL A   1      33.172  35.115  29.362  1.00  0.00     0.124 S 
ATOM     77  O   UNL A   1      33.603  36.464  29.008  1.00  0.00    -0.237 OA
ATOM     78  O   UNL A   1      32.488  34.371  28.306  1.00  0.00    -0.237 OA
ATOM     79  O   UNL A   1      32.586  34.973  30.692  1.00  0.00    -0.744 OA
ENDBRANCH  75  76
ENDBRANCH  47  70
BRANCH  59  80
ATOM     80  C   UNL A   1      43.283  34.903  32.639  1.00  0.00    -0.014 A 
ATOM     81  C   UNL A   1      43.765  36.011  31.920  1.00  0.00     0.010 A 
ATOM     82  C   UNL A   1      43.139  35.001  34.035  1.00  0.00     0.010 A 
ATOM     83  C   UNL A   1      44.115  37.187  32.589  1.00  0.00     0.020 A 
ATOM     84  C   UNL A   1      43.463  36.185  34.703  1.00  0.00     0.020 A 
ATOM     85  C   UNL A   1      43.958  37.268  33.975  1.00  0.00     0.054 A 
BRANCH  85  86
ATOM     86  S   UNL A   1      44.369  38.827  34.809  1.00  0.00     0.124 S 
ATOM     87  O   UNL A   1      43.459  39.767  34.162  1.00  0.00    -0.237 OA
ATOM     88  O   UNL A   1      44.073  38.528  36.207  1.00  0.00    -0.237 OA
ATOM     89  O   UNL A   1      45.786  39.021  34.505  1.00  0.00    -0.744 OA
ENDBRANCH  85  86
ENDBRANCH  59  80
ENDBRANCH  33  34
ENDBRANCH  26  28
ENDBRANCH  25  26
ENDBRANCH  24  25
ENDBRANCH   1  24
TORSDOF 17
ENDMDL
MODEL 2
REMARK VINA RESULT:     -10.9      2.007      2.543
REMARK SMILES Cc1c2c([nH]c(=O)c1C(=O)OCCOCCOC(=O)c1ccc(-c3c4nc(c(-c5ccc(S(=O)(=O)[O-])cc5)c5ccc([nH]5)c(-c5ccc(S(=O)(=O)[O-])cc5)c5nc(c(-c6ccc(S(=O)(=O)[O-])cc6)c6ccc3[nH]6)C=C5)C=C4)cc1)CC(C)(C)CC2=O
REMARK SMILES IDX 15 1 14 2 13 3 12 4 11 5 9 6 10 7 8 8 1 9 2 10 3 11 4 12
REMARK SMILES IDX 85 13 6 14 5 15 80 16 84 17 86 18 7 19 81 21 82 22 83 23
REMARK SMILES IDX 16 24 17 25 18 26 19 27 20 28 21 29 79 30 22 31 78 32 23 33
REMARK SMILES IDX 24 34 25 35 72 36 26 37 77 38 71 39 73 40 27 41 76 42 70 43
REMARK SMILES IDX 69 44 28 46 58 47 39 48 57 49 40 50 43 51 56 52 74 53 41 54
REMARK SMILES IDX 42 55 55 57 75 58 44 59 29 60 30 61 38 62 31 63 37 64 32 65
REMARK SMILES IDX 33 66 34 67 35 68 36 69 59 70 60 71 68 72 61 73 67 74 62 75
REMARK SMILES IDX 63 76 64 77 65 78 66 79 45 80 46 81 54 82 47 83 53 84 48 85
REMARK SMILES IDX 49 86 50 87 51 88 52 89
REMARK H PARENT 5 20 73 45 43 56
REMARK Flexibility Score: inf
ROOT
ATOM      1  C   UNL A   1      36.062  20.892  25.244  1.00  0.00     0.202 C 
ENDROOT
BRANCH   1   2
ATOM      2  O   UNL A   1      35.264  21.537  24.252  1.00  0.00    -0.374 OA
BRANCH   2   3
ATOM      3  C   UNL A   1      33.844  21.505  24.425  1.00  0.00     0.202 C 
BRANCH   3   4
ATOM      4  C   UNL A   1      33.365  20.904  25.746  1.00  0.00     0.261 C 
BRANCH   4   5
ATOM      5  O   UNL A   1      32.177  21.601  26.149  1.00  0.00    -0.459 OA
BRANCH   5   6
ATOM      6  C   UNL A   1      32.347  22.639  26.994  1.00  0.00     0.344 C 
ATOM      7  O   UNL A   1      32.901  22.583  28.083  1.00  0.00    -0.246 OA
BRANCH   6   8
ATOM      8  C   UNL A   1      31.855  23.909  26.400  1.00  0.00     0.128 A 
ATOM      9  C   UNL A   1      34.123  24.858  25.777  1.00  0.00     0.046 C 
ATOM     10  C   UNL A   1      32.613  24.831  25.747  1.00  0.00    -0.018 A 
ATOM     11  C   UNL A   1      31.940  25.875  24.934  1.00  0.00     0.041 A 
ATOM     12  C   UNL A   1      30.604  26.040  25.020  1.00  0.00     0.030 A 
ATOM     13  C   UNL A   1      32.653  26.679  23.871  1.00  0.00     0.165 C 
ATOM     14  C   UNL A   1      30.390  24.166  26.549  1.00  0.00     0.263 A 
ATOM     15  N   UNL A   1      29.877  25.223  25.848  1.00  0.00    -0.325 N 
ATOM     16  C   UNL A   1      29.777  27.026  24.233  1.00  0.00     0.061 C 
ATOM     17  C   UNL A   1      31.816  27.438  22.861  1.00  0.00     0.088 C 
ATOM     18  O   UNL A   1      33.875  26.671  23.747  1.00  0.00    -0.294 OA
ATOM     19  O   UNL A   1      29.666  23.533  27.309  1.00  0.00    -0.269 OA
ATOM     20  H   UNL A   1      28.916  25.411  25.945  1.00  0.00     0.169 HD
ATOM     21  C   UNL A   1      30.597  28.103  23.504  1.00  0.00    -0.023 C 
ATOM     22  C   UNL A   1      31.034  29.212  24.482  1.00  0.00     0.012 C 
ATOM     23  C   UNL A   1      29.732  28.742  22.403  1.00  0.00     0.012 C 
ENDBRANCH   6   8
ENDBRANCH   5   6
ENDBRANCH   4   5
ENDBRANCH   3   4
ENDBRANCH   2   3
ENDBRANCH   1   2
BRANCH   1  24
ATOM     24  C   UNL A   1      37.582  21.009  25.071  1.00  0.00     0.261 C 
BRANCH  24  25
ATOM     25  O   UNL A   1      38.113  22.195  25.690  1.00  0.00    -0.460 OA
BRANCH  25  26
ATOM     26  C   UNL A   1      39.348  22.049  26.222  1.00  0.00     0.338 C 
ATOM     27  O   UNL A   1      40.119  21.108  26.056  1.00  0.00    -0.246 OA
BRANCH  26  28
ATOM     28  C   UNL A   1      39.752  23.283  26.916  1.00  0.00     0.060 A 
ATOM     29  C   UNL A   1      39.144  24.480  26.517  1.00  0.00     0.016 A 
ATOM     30  C   UNL A   1      40.761  23.286  27.882  1.00  0.00     0.016 A 
ATOM     31  C   UNL A   1      39.572  25.692  27.051  1.00  0.00     0.010 A 
ATOM     32  C   UNL A   1      41.199  24.506  28.407  1.00  0.00     0.010 A 
ATOM     33  C   UNL A   1      40.632  25.716  27.968  1.00  0.00    -0.014 A 
BRANCH  33  34
ATOM     34  C   UNL A   1      41.238  27.016  28.343  1.00  0.00     0.031 A 
ATOM     35  C   UNL A   1      42.721  27.203  28.169  1.00  0.00     0.074 A 
ATOM     36  C   UNL A   1      40.475  28.032  28.780  1.00  0.00     0.049 A 
ATOM     37  N   UNL A   1      43.458  28.251  28.431  1.00  0.00    -0.248 NA
ATOM     38  C   UNL A   1      43.471  26.060  27.621  1.00  0.00     0.031 C 
ATOM     39  C   UNL A   1      39.020  27.993  28.932  1.00  0.00     0.029 A 
ATOM     40  N   UNL A   1      40.820  29.302  29.171  1.00  0.00    -0.354 N 
ATOM     41  C   UNL A   1      44.756  27.897  28.079  1.00  0.00     0.074 A 
ATOM     42  C   UNL A   1      44.711  26.528  27.616  1.00  0.00     0.031 C 
ATOM     43  C   UNL A   1      38.596  29.188  29.378  1.00  0.00     0.029 A 
ATOM     44  C   UNL A   1      39.749  30.064  29.576  1.00  0.00     0.049 A 
ATOM     45  H   UNL A   1      41.745  29.636  29.161  1.00  0.00     0.167 HD
ATOM     46  C   UNL A   1      45.881  28.648  28.128  1.00  0.00     0.031 A 
ATOM     47  C   UNL A   1      39.708  31.320  30.065  1.00  0.00     0.031 A 
ATOM     48  C   UNL A   1      45.927  30.003  28.606  1.00  0.00     0.049 A 
ATOM     49  C   UNL A   1      40.988  32.101  30.205  1.00  0.00     0.074 A 
ATOM     50  C   UNL A   1      47.022  30.846  28.700  1.00  0.00     0.029 A 
ATOM     51  N   UNL A   1      44.834  30.714  29.076  1.00  0.00    -0.354 N 
ATOM     52  N   UNL A   1      42.207  31.753  29.868  1.00  0.00    -0.248 NA
ATOM     53  C   UNL A   1      40.886  33.446  30.789  1.00  0.00     0.031 C 
ATOM     54  C   UNL A   1      46.599  32.047  29.278  1.00  0.00     0.029 A 
ATOM     55  C   UNL A   1      45.232  31.975  29.488  1.00  0.00     0.049 A 
ATOM     56  H   UNL A   1      43.911  30.374  29.112  1.00  0.00     0.167 HD
ATOM     57  C   UNL A   1      43.014  32.842  30.180  1.00  0.00     0.074 A 
ATOM     58  C   UNL A   1      42.142  33.866  30.720  1.00  0.00     0.031 C 
ATOM     59  C   UNL A   1      44.355  32.982  30.032  1.00  0.00     0.031 A 
BRANCH  46  60
ATOM     60  C   UNL A   1      47.166  28.006  27.675  1.00  0.00    -0.014 A 
ATOM     61  C   UNL A   1      47.580  28.082  26.332  1.00  0.00     0.010 A 
ATOM     62  C   UNL A   1      47.992  27.359  28.611  1.00  0.00     0.010 A 
ATOM     63  C   UNL A   1      48.783  27.496  25.930  1.00  0.00     0.020 A 
ATOM     64  C   UNL A   1      49.208  26.793  28.216  1.00  0.00     0.020 A 
ATOM     65  C   UNL A   1      49.589  26.854  26.875  1.00  0.00     0.054 A 
BRANCH  65  66
ATOM     66  S   UNL A   1      51.158  26.128  26.327  1.00  0.00     0.124 S 
ATOM     67  O   UNL A   1      52.136  27.024  26.941  1.00  0.00    -0.237 OA
ATOM     68  O   UNL A   1      51.101  24.782  26.891  1.00  0.00    -0.237 OA
ATOM     69  O   UNL A   1      51.084  26.195  24.870  1.00  0.00    -0.744 OA
ENDBRANCH  65  66
ENDBRANCH  46  60
BRANCH  47  70
ATOM     70  C   UNL A   1      38.403  31.913  30.466  1.00  0.00    -0.014 A 
ATOM     71  C   UNL A   1      37.885  31.696  31.755  1.00  0.00     0.010 A 
ATOM     72  C   UNL A   1      37.680  32.717  29.565  1.00  0.00     0.010 A 
ATOM     73  C   UNL A   1      36.667  32.269  32.134  1.00  0.00     0.020 A 
ATOM     74  C   UNL A   1      36.476  33.313  29.949  1.00  0.00     0.020 A 
ATOM     75  C   UNL A   1      35.974  33.080  31.231  1.00  0.00     0.054 A 
BRANCH  75  76
ATOM     76  S   UNL A   1      34.431  33.868  31.771  1.00  0.00     0.124 S 
ATOM     77  O   UNL A   1      34.923  35.037  32.494  1.00  0.00    -0.237 OA
ATOM     78  O   UNL A   1      33.760  34.143  30.503  1.00  0.00    -0.237 OA
ATOM     79  O   UNL A   1      33.793  32.845  32.596  1.00  0.00    -0.744 OA
ENDBRANCH  75  76
ENDBRANCH  47  70
BRANCH  59  80
ATOM     80  C   UNL A   1      44.971  34.293  30.442  1.00  0.00    -0.014 A 
ATOM     81  C   UNL A   1      45.488  34.479  31.737  1.00  0.00     0.010 A 
ATOM     82  C   UNL A   1      45.106  35.325  29.496  1.00  0.00     0.010 A 
ATOM     83  C   UNL A   1      46.108  35.683  32.083  1.00  0.00     0.020 A 
ATOM     84  C   UNL A   1      45.751  36.520  29.830  1.00  0.00     0.020 A 
ATOM     85  C   UNL A   1      46.239  36.694  31.127  1.00  0.00     0.054 A 
BRANCH  85  86
ATOM     86  S   UNL A   1      47.098  38.224  31.589  1.00  0.00     0.124 S 
ATOM     87  O   UNL A   1      46.194  39.248  31.074  1.00  0.00    -0.237 OA
ATOM     88  O   UNL A   1      47.169  38.122  33.044  1.00  0.00    -0.237 OA
ATOM     89  O   UNL A   1      48.383  38.123  30.899  1.00  0.00    -0.744 OA
ENDBRANCH  85  86
ENDBRANCH  59  80
ENDBRANCH  33  34
ENDBRANCH  26  28
ENDBRANCH  25  26
ENDBRANCH  24  25
ENDBRANCH   1  24
TORSDOF 17
ENDMDL
MODEL 3
REMARK VINA RESULT:     -10.9      3.756      4.506
REMARK SMILES Cc1c2c([nH]c(=O)c1C(=O)OCCOCCOC(=O)c1ccc(-c3c4nc(c(-c5ccc(S(=O)(=O)[O-])cc5)c5ccc([nH]5)c(-c5ccc(S(=O)(=O)[O-])cc5)c5nc(c(-c6ccc(S(=O)(=O)[O-])cc6)c6ccc3[nH]6)C=C5)C=C4)cc1)CC(C)(C)CC2=O
REMARK SMILES IDX 15 1 14 2 13 3 12 4 11 5 9 6 10 7 8 8 1 9 2 10 3 11 4 12
REMARK SMILES IDX 85 13 6 14 5 15 80 16 84 17 86 18 7 19 81 21 82 22 83 23
REMARK SMILES IDX 16 24 17 25 18 26 19 27 20 28 21 29 79 30 22 31 78 32 23 33
REMARK SMILES IDX 24 34 25 35 72 36 26 37 77 38 71 39 73 40 27 41 76 42 70 43
REMARK SMILES IDX 69 44 28 46 58 47 39 48 57 49 40 50 43 51 56 52 74 53 41 54
REMARK SMILES IDX 42 55 55 57 75 58 44 59 29 60 30 61 38 62 31 63 37 64 32 65
REMARK SMILES IDX 33 66 34 67 35 68 36 69 59 70 60 71 68 72 61 73 67 74 62 75
REMARK SMILES IDX 63 76 64 77 65 78 66 79 45 80 46 81 54 82 47 83 53 84 48 85
REMARK SMILES IDX 49 86 50 87 51 88 52 89
REMARK H PARENT 5 20 73 45 43 56
REMARK Flexibility Score: inf
ROOT
ATOM      1  C   UNL A   1      37.118  23.453  26.359  1.00  0.00     0.202 C 
ENDROOT
BRANCH   1   2
ATOM      2  O   UNL A   1      36.625  22.404  25.525  1.00  0.00    -0.374 OA
BRANCH   2   3
ATOM      3  C   UNL A   1      35.661  21.510  26.090  1.00  0.00     0.202 C 
BRANCH   3   4
ATOM      4  C   UNL A   1      34.903  20.651  25.079  1.00  0.00     0.261 C 
BRANCH   4   5
ATOM      5  O   UNL A   1      33.498  20.792  25.337  1.00  0.00    -0.459 OA
BRANCH   5   6
ATOM      6  C   UNL A   1      32.712  21.034  24.267  1.00  0.00     0.344 C 
ATOM      7  O   UNL A   1      32.345  20.197  23.454  1.00  0.00    -0.246 OA
BRANCH   6   8
ATOM      8  C   UNL A   1      32.258  22.448  24.236  1.00  0.00     0.128 A 
ATOM      9  C   UNL A   1      34.224  23.377  22.932  1.00  0.00     0.046 C 
ATOM     10  C   UNL A   1      32.846  23.461  23.543  1.00  0.00    -0.018 A 
ATOM     11  C   UNL A   1      32.102  24.729  23.347  1.00  0.00     0.041 A 
ATOM     12  C   UNL A   1      30.959  24.955  24.029  1.00  0.00     0.030 A 
ATOM     13  C   UNL A   1      32.467  25.744  22.288  1.00  0.00     0.165 C 
ATOM     14  C   UNL A   1      31.041  22.753  25.048  1.00  0.00     0.263 A 
ATOM     15  N   UNL A   1      30.487  23.993  24.886  1.00  0.00    -0.325 N 
ATOM     16  C   UNL A   1      30.077  26.172  23.909  1.00  0.00     0.061 C 
ATOM     17  C   UNL A   1      31.448  26.805  21.926  1.00  0.00     0.088 C 
ATOM     18  O   UNL A   1      33.519  25.688  21.656  1.00  0.00    -0.294 OA
ATOM     19  O   UNL A   1      30.575  21.985  25.885  1.00  0.00    -0.269 OA
ATOM     20  H   UNL A   1      29.691  24.211  25.422  1.00  0.00     0.169 HD
ATOM     21  C   UNL A   1      30.719  27.349  23.157  1.00  0.00    -0.023 C 
ATOM     22  C   UNL A   1      31.694  28.116  24.073  1.00  0.00     0.012 C 
ATOM     23  C   UNL A   1      29.617  28.323  22.702  1.00  0.00     0.012 C 
ENDBRANCH   6   8
ENDBRANCH   5   6
ENDBRANCH   4   5
ENDBRANCH   3   4
ENDBRANCH   2   3
ENDBRANCH   1   2
BRANCH   1  24
ATOM     24  C   UNL A   1      38.453  24.079  25.940  1.00  0.00     0.261 C 
BRANCH  24  25
ATOM     25  O   UNL A   1      39.263  24.450  27.070  1.00  0.00    -0.460 OA
BRANCH  25  26
ATOM     26  C   UNL A   1      40.005  25.567  26.892  1.00  0.00     0.338 C 
ATOM     27  O   UNL A   1      40.674  25.861  25.907  1.00  0.00    -0.246 OA
BRANCH  26  28
ATOM     28  C   UNL A   1      39.770  26.514  27.995  1.00  0.00     0.060 A 
ATOM     29  C   UNL A   1      40.411  27.757  27.930  1.00  0.00     0.016 A 
ATOM     30  C   UNL A   1      39.004  26.167  29.110  1.00  0.00     0.016 A 
ATOM     31  C   UNL A   1      40.326  28.643  29.000  1.00  0.00     0.010 A 
ATOM     32  C   UNL A   1      38.930  27.053  30.190  1.00  0.00     0.010 A 
ATOM     33  C   UNL A   1      39.619  28.279  30.154  1.00  0.00    -0.014 A 
BRANCH  33  34
ATOM     34  C   UNL A   1      39.736  29.117  31.372  1.00  0.00     0.031 A 
ATOM     35  C   UNL A   1      40.892  28.884  32.306  1.00  0.00     0.074 A 
ATOM     36  C   UNL A   1      38.857  30.105  31.615  1.00  0.00     0.049 A 
ATOM     37  N   UNL A   1      41.187  29.497  33.423  1.00  0.00    -0.248 NA
ATOM     38  C   UNL A   1      41.843  27.826  31.928  1.00  0.00     0.031 C 
ATOM     39  C   UNL A   1      37.732  30.468  30.752  1.00  0.00     0.029 A 
ATOM     40  N   UNL A   1      38.780  30.992  32.660  1.00  0.00    -0.354 N 
ATOM     41  C   UNL A   1      42.357  28.903  33.881  1.00  0.00     0.074 A 
ATOM     42  C   UNL A   1      42.700  27.859  32.940  1.00  0.00     0.031 C 
ATOM     43  C   UNL A   1      37.079  31.507  31.301  1.00  0.00     0.029 A 
ATOM     44  C   UNL A   1      37.717  31.860  32.568  1.00  0.00     0.049 A 
ATOM     45  H   UNL A   1      39.424  31.006  33.403  1.00  0.00     0.167 HD
ATOM     46  C   UNL A   1      43.086  29.204  34.981  1.00  0.00     0.031 A 
ATOM     47  C   UNL A   1      37.300  32.820  33.418  1.00  0.00     0.031 A 
ATOM     48  C   UNL A   1      42.735  30.230  35.926  1.00  0.00     0.049 A 
ATOM     49  C   UNL A   1      38.071  33.070  34.687  1.00  0.00     0.074 A 
ATOM     50  C   UNL A   1      43.408  30.607  37.076  1.00  0.00     0.029 A 
ATOM     51  N   UNL A   1      41.612  31.038  35.836  1.00  0.00    -0.354 N 
ATOM     52  N   UNL A   1      39.176  32.500  35.106  1.00  0.00    -0.248 NA
ATOM     53  C   UNL A   1      37.541  34.096  35.597  1.00  0.00     0.031 C 
ATOM     54  C   UNL A   1      42.661  31.606  37.710  1.00  0.00     0.029 A 
ATOM     55  C   UNL A   1      41.557  31.893  36.924  1.00  0.00     0.049 A 
ATOM     56  H   UNL A   1      40.952  31.008  35.107  1.00  0.00     0.167 HD
ATOM     57  C   UNL A   1      39.483  33.110  36.317  1.00  0.00     0.074 A 
ATOM     58  C   UNL A   1      38.456  34.104  36.556  1.00  0.00     0.031 C 
ATOM     59  C   UNL A   1      40.523  32.871  37.155  1.00  0.00     0.031 A 
BRANCH  46  60
ATOM     60  C   UNL A   1      44.329  28.393  35.236  1.00  0.00    -0.014 A 
ATOM     61  C   UNL A   1      45.578  28.802  34.733  1.00  0.00     0.010 A 
ATOM     62  C   UNL A   1      44.256  27.233  36.027  1.00  0.00     0.010 A 
ATOM     63  C   UNL A   1      46.725  28.048  34.993  1.00  0.00     0.020 A 
ATOM     64  C   UNL A   1      45.406  26.490  36.309  1.00  0.00     0.020 A 
ATOM     65  C   UNL A   1      46.632  26.895  35.779  1.00  0.00     0.054 A 
BRANCH  65  66
ATOM     66  S   UNL A   1      48.143  25.953  36.121  1.00  0.00     0.124 S 
ATOM     67  O   UNL A   1      47.849  25.377  37.431  1.00  0.00    -0.237 OA
ATOM     68  O   UNL A   1      48.185  25.003  35.013  1.00  0.00    -0.237 OA
ATOM     69  O   UNL A   1      49.195  26.966  36.111  1.00  0.00    -0.744 OA
ENDBRANCH  65  66
ENDBRANCH  46  60
BRANCH  47  70
ATOM     70  C   UNL A   1      36.082  33.613  33.095  1.00  0.00    -0.014 A 
ATOM     71  C   UNL A   1      34.803  33.113  33.397  1.00  0.00     0.010 A 
ATOM     72  C   UNL A   1      36.196  34.883  32.501  1.00  0.00     0.010 A 
ATOM     73  C   UNL A   1      33.662  33.867  33.109  1.00  0.00     0.020 A 
ATOM     74  C   UNL A   1      35.060  35.651  32.235  1.00  0.00     0.020 A 
ATOM     75  C   UNL A   1      33.798  35.135  32.536  1.00  0.00     0.054 A 
BRANCH  75  76
ATOM     76  S   UNL A   1      32.305  36.122  32.236  1.00  0.00     0.124 S 
ATOM     77  O   UNL A   1      31.245  35.196  32.621  1.00  0.00    -0.237 OA
ATOM     78  O   UNL A   1      32.502  37.265  33.126  1.00  0.00    -0.237 OA
ATOM     79  O   UNL A   1      32.379  36.433  30.811  1.00  0.00    -0.744 OA
ENDBRANCH  75  76
ENDBRANCH  47  70
BRANCH  59  80
ATOM     80  C   UNL A   1      40.621  33.704  38.406  1.00  0.00    -0.014 A 
ATOM     81  C   UNL A   1      41.308  34.931  38.409  1.00  0.00     0.010 A 
ATOM     82  C   UNL A   1      39.950  33.292  39.571  1.00  0.00     0.010 A 
ATOM     83  C   UNL A   1      41.340  35.719  39.562  1.00  0.00     0.020 A 
ATOM     84  C   UNL A   1      39.956  34.091  40.718  1.00  0.00     0.020 A 
ATOM     85  C   UNL A   1      40.661  35.296  40.709  1.00  0.00     0.054 A 
BRANCH  85  86
ATOM     86  S   UNL A   1      40.674  36.366  42.173  1.00  0.00     0.124 S 
ATOM     87  O   UNL A   1      40.771  35.395  43.259  1.00  0.00    -0.237 OA
ATOM     88  O   UNL A   1      41.862  37.188  41.957  1.00  0.00    -0.237 OA
ATOM     89  O   UNL A   1      39.403  37.084  42.091  1.00  0.00    -0.744 OA
ENDBRANCH  85  86
ENDBRANCH  59  80
ENDBRANCH  33  34
ENDBRANCH  26  28
ENDBRANCH  25  26
ENDBRANCH  24  25
ENDBRANCH   1  24
TORSDOF 17
ENDMDL
