MODEL 1
REMARK VINA RESULT:     -11.2      0.000      0.000
REMARK SMILES Cc1ccc(-c2cc(Cl)cc3c2O[C@@H](C(F)(F)F)C(C(=O)OCCOCCOC(=O)c2ccc(-c4c5nc(c(-c6ccc(S(=O)(=O)[O-])cc6)c6ccc([nH]6)c(-c6ccc(S(=O)(=O)[O-])cc6)c6nc(c(-c7ccc(S(=O)(=O)[O-])cc7)c7ccc4[nH]7)C=C6)C=C5)cc2)=C3)cc1
REMARK SMILES IDX 26 1 25 2 24 3 23 4 22 5 20 6 21 7 19 8 6 9 7 10 12 11 8 12
REMARK SMILES IDX 11 13 13 14 9 15 10 16 91 17 14 18 5 19 1 20 2 21 3 22 93 23
REMARK SMILES IDX 4 24 92 25 15 26 16 27 17 28 18 29 27 30 28 31 29 32 30 33
REMARK SMILES IDX 31 34 32 35 90 36 33 37 89 38 34 39 35 40 36 41 83 42 37 43
REMARK SMILES IDX 88 44 82 45 84 46 38 47 87 48 81 49 80 50 39 52 69 53 50 54
REMARK SMILES IDX 68 55 51 56 54 57 67 58 85 59 52 60 53 61 66 63 86 64 55 65
REMARK SMILES IDX 40 66 41 67 49 68 42 69 48 70 43 71 44 72 45 73 46 74 47 75
REMARK SMILES IDX 70 76 71 77 79 78 72 79 78 80 73 81 74 82 75 83 76 84 77 85
REMARK SMILES IDX 56 86 57 87 65 88 58 89 64 90 59 91 60 92 61 93 62 94 63 95
REMARK H PARENT 84 51 54 62
REMARK Flexibility Score: inf
ROOT
ATOM      1  C   UNL A   1      34.567  29.630  26.961  1.00  0.00     0.202 C 
ENDROOT
BRANCH   1   2
ATOM      2  O   UNL A   1      33.357  29.190  27.567  1.00  0.00    -0.374 OA
BRANCH   2   3
ATOM      3  C   UNL A   1      32.870  27.928  27.161  1.00  0.00     0.202 C 
BRANCH   3   4
ATOM      4  C   UNL A   1      33.417  27.224  25.916  1.00  0.00     0.261 C 
BRANCH   4   5
ATOM      5  O   UNL A   1      34.128  26.012  26.134  1.00  0.00    -0.460 OA
BRANCH   5   6
ATOM      6  C   UNL A   1      34.574  25.229  25.112  1.00  0.00     0.338 C 
ATOM      7  O   UNL A   1      34.868  25.562  23.994  1.00  0.00    -0.246 OA
BRANCH   6   8
ATOM      8  C   UNL A   1      34.899  23.853  25.710  1.00  0.00     0.087 C 
ATOM      9  C   UNL A   1      31.197  23.863  24.494  1.00  0.00     0.026 A 
ATOM     10  C   UNL A   1      30.143  23.499  25.357  1.00  0.00     0.033 A 
ATOM     11  C   UNL A   1      32.474  23.371  24.843  1.00  0.00     0.135 A 
ATOM     12  C   UNL A   1      30.398  22.949  26.616  1.00  0.00     0.042 A 
ATOM     13  C   UNL A   1      32.739  23.168  26.223  1.00  0.00     0.019 A 
ATOM     14  O   UNL A   1      33.513  23.126  23.911  1.00  0.00    -0.475 OA
ATOM     15  Cl  UNL A   1      29.084  22.550  27.648  1.00  0.00    -0.084 Cl
ATOM     16  C   UNL A   1      31.700  22.874  27.094  1.00  0.00     0.032 A 
ATOM     17  C   UNL A   1      34.124  23.423  26.730  1.00  0.00     0.027 C 
ATOM     18  C   UNL A   1      34.814  22.835  24.589  1.00  0.00     0.316 C 
BRANCH   9  19
ATOM     19  C   UNL A   1      30.955  25.190  23.829  1.00  0.00    -0.015 A 
ATOM     20  C   UNL A   1      29.914  29.033  22.002  1.00  0.00     0.044 C 
ATOM     21  C   UNL A   1      30.229  27.684  22.588  1.00  0.00    -0.051 A 
ATOM     22  C   UNL A   1      31.192  26.835  22.022  1.00  0.00     0.004 A 
ATOM     23  C   UNL A   1      29.603  27.265  23.759  1.00  0.00     0.004 A 
ATOM     24  C   UNL A   1      31.524  25.589  22.613  1.00  0.00     0.009 A 
ATOM     25  C   UNL A   1      29.957  26.046  24.358  1.00  0.00     0.009 A 
ENDBRANCH   9  19
BRANCH  18  26
ATOM     26  C   UNL A   1      36.189  22.716  23.870  1.00  0.00     0.430 C 
ATOM     27  F   UNL A   1      36.663  21.443  24.072  1.00  0.00    -0.167 F 
ATOM     28  F   UNL A   1      36.055  22.836  22.528  1.00  0.00    -0.167 F 
ATOM     29  F   UNL A   1      37.188  23.517  24.265  1.00  0.00    -0.167 F 
ENDBRANCH  18  26
ENDBRANCH   6   8
ENDBRANCH   5   6
ENDBRANCH   4   5
ENDBRANCH   3   4
ENDBRANCH   2   3
ENDBRANCH   1   2
BRANCH   1  30
ATOM     30  C   UNL A   1      35.367  30.735  27.667  1.00  0.00     0.261 C 
BRANCH  30  31
ATOM     31  O   UNL A   1      36.116  30.231  28.791  1.00  0.00    -0.460 OA
BRANCH  31  32
ATOM     32  C   UNL A   1      37.447  30.532  28.843  1.00  0.00     0.338 C 
ATOM     33  O   UNL A   1      37.985  31.526  29.296  1.00  0.00    -0.246 OA
BRANCH  32  34
ATOM     34  C   UNL A   1      38.142  29.235  28.648  1.00  0.00     0.060 A 
ATOM     35  C   UNL A   1      38.131  28.256  29.640  1.00  0.00     0.016 A 
ATOM     36  C   UNL A   1      39.141  29.241  27.677  1.00  0.00     0.016 A 
ATOM     37  C   UNL A   1      39.268  27.467  29.822  1.00  0.00     0.010 A 
ATOM     38  C   UNL A   1      40.316  28.550  27.942  1.00  0.00     0.010 A 
ATOM     39  C   UNL A   1      40.432  27.773  29.100  1.00  0.00    -0.014 A 
BRANCH  39  40
ATOM     40  C   UNL A   1      41.758  27.681  29.762  1.00  0.00     0.031 A 
ATOM     41  C   UNL A   1      42.903  26.895  29.226  1.00  0.00     0.074 A 
ATOM     42  C   UNL A   1      42.018  28.524  30.804  1.00  0.00     0.049 A 
ATOM     43  N   UNL A   1      43.888  26.511  29.967  1.00  0.00    -0.248 NA
ATOM     44  C   UNL A   1      43.066  26.447  27.845  1.00  0.00     0.031 C 
ATOM     45  C   UNL A   1      43.303  28.797  31.451  1.00  0.00     0.029 A 
ATOM     46  N   UNL A   1      41.164  29.358  31.519  1.00  0.00    -0.354 N 
ATOM     47  C   UNL A   1      44.934  26.162  29.148  1.00  0.00     0.074 A 
ATOM     48  C   UNL A   1      44.326  25.985  27.854  1.00  0.00     0.031 C 
ATOM     49  C   UNL A   1      43.116  29.549  32.549  1.00  0.00     0.029 A 
ATOM     50  C   UNL A   1      41.691  29.663  32.769  1.00  0.00     0.049 A 
ATOM     51  H   UNL A   1      40.299  29.688  31.184  1.00  0.00     0.167 HD
ATOM     52  C   UNL A   1      46.210  26.180  29.643  1.00  0.00     0.031 A 
ATOM     53  C   UNL A   1      41.054  29.231  33.893  1.00  0.00     0.031 A 
ATOM     54  C   UNL A   1      46.224  26.395  31.103  1.00  0.00     0.049 A 
ATOM     55  C   UNL A   1      41.723  27.975  34.454  1.00  0.00     0.074 A 
ATOM     56  C   UNL A   1      46.750  27.355  31.951  1.00  0.00     0.029 A 
ATOM     57  N   UNL A   1      45.362  25.632  31.900  1.00  0.00    -0.354 N 
ATOM     58  N   UNL A   1      42.855  27.506  33.986  1.00  0.00    -0.248 NA
ATOM     59  C   UNL A   1      41.236  27.137  35.545  1.00  0.00     0.031 C 
ATOM     60  C   UNL A   1      46.071  27.253  33.210  1.00  0.00     0.029 A 
ATOM     61  C   UNL A   1      45.176  26.196  33.152  1.00  0.00     0.049 A 
ATOM     62  H   UNL A   1      44.939  24.794  31.605  1.00  0.00     0.167 HD
ATOM     63  C   UNL A   1      43.188  26.314  34.556  1.00  0.00     0.074 A 
ATOM     64  C   UNL A   1      42.163  26.154  35.577  1.00  0.00     0.031 C 
ATOM     65  C   UNL A   1      44.247  25.564  34.106  1.00  0.00     0.031 A 
BRANCH  52  66
ATOM     66  C   UNL A   1      47.460  26.126  28.771  1.00  0.00    -0.014 A 
ATOM     67  C   UNL A   1      47.471  26.700  27.481  1.00  0.00     0.010 A 
ATOM     68  C   UNL A   1      48.654  25.468  29.147  1.00  0.00     0.010 A 
ATOM     69  C   UNL A   1      48.611  26.661  26.648  1.00  0.00     0.020 A 
ATOM     70  C   UNL A   1      49.810  25.455  28.348  1.00  0.00     0.020 A 
ATOM     71  C   UNL A   1      49.785  26.053  27.096  1.00  0.00     0.054 A 
BRANCH  71  72
ATOM     72  S   UNL A   1      51.266  26.042  26.045  1.00  0.00     0.124 S 
ATOM     73  O   UNL A   1      51.816  24.711  26.290  1.00  0.00    -0.237 OA
ATOM     74  O   UNL A   1      50.715  26.261  24.711  1.00  0.00    -0.237 OA
ATOM     75  O   UNL A   1      52.071  27.148  26.565  1.00  0.00    -0.744 OA
ENDBRANCH  71  72
ENDBRANCH  52  66
BRANCH  53  76
ATOM     76  C   UNL A   1      39.667  29.796  33.978  1.00  0.00    -0.014 A 
ATOM     77  C   UNL A   1      39.600  31.134  34.445  1.00  0.00     0.010 A 
ATOM     78  C   UNL A   1      38.590  29.338  33.194  1.00  0.00     0.010 A 
ATOM     79  C   UNL A   1      38.595  32.020  34.026  1.00  0.00     0.020 A 
ATOM     80  C   UNL A   1      37.571  30.228  32.776  1.00  0.00     0.020 A 
ATOM     81  C   UNL A   1      37.603  31.573  33.160  1.00  0.00     0.054 A 
BRANCH  81  82
ATOM     82  S   UNL A   1      36.478  32.779  32.379  1.00  0.00     0.124 S 
ATOM     83  O   UNL A   1      37.403  33.644  31.657  1.00  0.00    -0.237 OA
ATOM     84  O   UNL A   1      35.615  31.944  31.544  1.00  0.00    -0.237 OA
ATOM     85  O   UNL A   1      35.813  33.393  33.527  1.00  0.00    -0.744 OA
ENDBRANCH  81  82
ENDBRANCH  53  76
BRANCH  65  86
ATOM     86  C   UNL A   1      44.547  24.133  34.520  1.00  0.00    -0.014 A 
ATOM     87  C   UNL A   1      44.531  23.034  33.649  1.00  0.00     0.010 A 
ATOM     88  C   UNL A   1      45.005  23.887  35.841  1.00  0.00     0.010 A 
ATOM     89  C   UNL A   1      44.902  21.752  34.083  1.00  0.00     0.020 A 
ATOM     90  C   UNL A   1      45.433  22.627  36.268  1.00  0.00     0.020 A 
ATOM     91  C   UNL A   1      45.353  21.557  35.389  1.00  0.00     0.054 A 
BRANCH  91  92
ATOM     92  S   UNL A   1      45.898  19.912  35.914  1.00  0.00     0.124 S 
ATOM     93  O   UNL A   1      45.753  19.997  37.365  1.00  0.00    -0.237 OA
ATOM     94  O   UNL A   1      44.952  19.024  35.241  1.00  0.00    -0.237 OA
ATOM     95  O   UNL A   1      47.272  19.833  35.423  1.00  0.00    -0.744 OA
ENDBRANCH  91  92
ENDBRANCH  65  86
ENDBRANCH  39  40
ENDBRANCH  32  34
ENDBRANCH  31  32
ENDBRANCH  30  31
ENDBRANCH   1  30
TORSDOF 19
ENDMDL
MODEL 2
REMARK VINA RESULT:     -11.0      3.920      9.919
REMARK SMILES Cc1ccc(-c2cc(Cl)cc3c2O[C@@H](C(F)(F)F)C(C(=O)OCCOCCOC(=O)c2ccc(-c4c5nc(c(-c6ccc(S(=O)(=O)[O-])cc6)c6ccc([nH]6)c(-c6ccc(S(=O)(=O)[O-])cc6)c6nc(c(-c7ccc(S(=O)(=O)[O-])cc7)c7ccc4[nH]7)C=C6)C=C5)cc2)=C3)cc1
REMARK SMILES IDX 26 1 25 2 24 3 23 4 22 5 20 6 21 7 19 8 6 9 7 10 12 11 8 12
REMARK SMILES IDX 11 13 13 14 9 15 10 16 91 17 14 18 5 19 1 20 2 21 3 22 93 23
REMARK SMILES IDX 4 24 92 25 15 26 16 27 17 28 18 29 27 30 28 31 29 32 30 33
REMARK SMILES IDX 31 34 32 35 90 36 33 37 89 38 34 39 35 40 36 41 83 42 37 43
REMARK SMILES IDX 88 44 82 45 84 46 38 47 87 48 81 49 80 50 39 52 69 53 50 54
REMARK SMILES IDX 68 55 51 56 54 57 67 58 85 59 52 60 53 61 66 63 86 64 55 65
REMARK SMILES IDX 40 66 41 67 49 68 42 69 48 70 43 71 44 72 45 73 46 74 47 75
REMARK SMILES IDX 70 76 71 77 79 78 72 79 78 80 73 81 74 82 75 83 76 84 77 85
REMARK SMILES IDX 56 86 57 87 65 88 58 89 64 90 59 91 60 92 61 93 62 94 63 95
REMARK H PARENT 84 51 54 62
REMARK Flexibility Score: inf
ROOT
ATOM      1  C   UNL A   1      36.990  21.425  25.526  1.00  0.00     0.202 C 
ENDROOT
BRANCH   1   2
ATOM      2  O   UNL A   1      36.299  22.618  25.177  1.00  0.00    -0.374 OA
BRANCH   2   3
ATOM      3  C   UNL A   1      35.198  22.971  25.989  1.00  0.00     0.202 C 
BRANCH   3   4
ATOM      4  C   UNL A   1      34.635  24.395  25.997  1.00  0.00     0.261 C 
BRANCH   4   5
ATOM      5  O   UNL A   1      33.661  24.696  25.006  1.00  0.00    -0.460 OA
BRANCH   5   6
ATOM      6  C   UNL A   1      32.333  24.808  25.292  1.00  0.00     0.338 C 
ATOM      7  O   UNL A   1      31.810  25.477  26.145  1.00  0.00    -0.246 OA
BRANCH   6   8
ATOM      8  C   UNL A   1      31.569  24.124  24.151  1.00  0.00     0.087 C 
ATOM      9  C   UNL A   1      31.337  27.987  23.694  1.00  0.00     0.026 A 
ATOM     10  C   UNL A   1      30.093  28.633  23.551  1.00  0.00     0.033 A 
ATOM     11  C   UNL A   1      31.359  26.615  23.363  1.00  0.00     0.135 A 
ATOM     12  C   UNL A   1      28.915  27.901  23.384  1.00  0.00     0.042 A 
ATOM     13  C   UNL A   1      30.162  25.877  23.563  1.00  0.00     0.019 A 
ATOM     14  O   UNL A   1      32.509  25.926  22.902  1.00  0.00    -0.475 OA
ATOM     15  Cl  UNL A   1      27.415  28.728  23.245  1.00  0.00    -0.084 Cl
ATOM     16  C   UNL A   1      28.933  26.516  23.490  1.00  0.00     0.032 A 
ATOM     17  C   UNL A   1      30.266  24.449  23.997  1.00  0.00     0.027 C 
ATOM     18  C   UNL A   1      32.292  24.446  22.857  1.00  0.00     0.316 C 
BRANCH   9  19
ATOM     19  C   UNL A   1      32.180  28.609  24.773  1.00  0.00    -0.015 A 
ATOM     20  C   UNL A   1      34.817  30.118  27.929  1.00  0.00     0.044 C 
ATOM     21  C   UNL A   1      33.890  29.554  26.887  1.00  0.00    -0.051 A 
ATOM     22  C   UNL A   1      32.547  29.950  26.797  1.00  0.00     0.004 A 
ATOM     23  C   UNL A   1      34.367  28.655  25.938  1.00  0.00     0.004 A 
ATOM     24  C   UNL A   1      31.694  29.457  25.777  1.00  0.00     0.009 A 
ATOM     25  C   UNL A   1      33.527  28.194  24.911  1.00  0.00     0.009 A 
ENDBRANCH   9  19
BRANCH  18  26
ATOM     26  C   UNL A   1      33.403  23.390  22.588  1.00  0.00     0.430 C 
ATOM     27  F   UNL A   1      33.208  22.341  23.454  1.00  0.00    -0.167 F 
ATOM     28  F   UNL A   1      33.284  22.854  21.350  1.00  0.00    -0.167 F 
ATOM     29  F   UNL A   1      34.682  23.747  22.770  1.00  0.00    -0.167 F 
ENDBRANCH  18  26
ENDBRANCH   6   8
ENDBRANCH   5   6
ENDBRANCH   4   5
ENDBRANCH   3   4
ENDBRANCH   2   3
ENDBRANCH   1   2
BRANCH   1  30
ATOM     30  C   UNL A   1      38.525  21.459  25.545  1.00  0.00     0.261 C 
BRANCH  30  31
ATOM     31  O   UNL A   1      39.047  21.774  26.852  1.00  0.00    -0.460 OA
BRANCH  31  32
ATOM     32  C   UNL A   1      40.327  22.245  26.919  1.00  0.00     0.338 C 
ATOM     33  O   UNL A   1      41.368  21.615  26.955  1.00  0.00    -0.246 OA
BRANCH  32  34
ATOM     34  C   UNL A   1      40.236  23.665  26.495  1.00  0.00     0.060 A 
ATOM     35  C   UNL A   1      41.371  24.374  26.108  1.00  0.00     0.016 A 
ATOM     36  C   UNL A   1      39.102  24.341  26.939  1.00  0.00     0.016 A 
ATOM     37  C   UNL A   1      41.464  25.730  26.431  1.00  0.00     0.010 A 
ATOM     38  C   UNL A   1      39.249  25.651  27.378  1.00  0.00     0.010 A 
ATOM     39  C   UNL A   1      40.483  26.300  27.256  1.00  0.00    -0.014 A 
BRANCH  39  40
ATOM     40  C   UNL A   1      40.875  27.280  28.302  1.00  0.00     0.031 A 
ATOM     41  C   UNL A   1      40.107  28.516  28.615  1.00  0.00     0.074 A 
ATOM     42  C   UNL A   1      41.872  26.932  29.168  1.00  0.00     0.049 A 
ATOM     43  N   UNL A   1      40.634  29.523  29.226  1.00  0.00    -0.248 NA
ATOM     44  C   UNL A   1      38.708  28.767  28.276  1.00  0.00     0.031 C 
ATOM     45  C   UNL A   1      42.267  27.600  30.409  1.00  0.00     0.029 A 
ATOM     46  N   UNL A   1      42.761  25.862  29.132  1.00  0.00    -0.354 N 
ATOM     47  C   UNL A   1      39.620  30.319  29.701  1.00  0.00     0.074 A 
ATOM     48  C   UNL A   1      38.462  29.899  28.953  1.00  0.00     0.031 C 
ATOM     49  C   UNL A   1      43.401  27.057  30.883  1.00  0.00     0.029 A 
ATOM     50  C   UNL A   1      43.894  26.127  29.892  1.00  0.00     0.049 A 
ATOM     51  H   UNL A   1      42.608  25.028  28.632  1.00  0.00     0.167 HD
ATOM     52  C   UNL A   1      39.861  31.157  30.755  1.00  0.00     0.031 A 
ATOM     53  C   UNL A   1      45.107  26.232  29.280  1.00  0.00     0.031 A 
ATOM     54  C   UNL A   1      41.297  31.207  31.093  1.00  0.00     0.049 A 
ATOM     55  C   UNL A   1      45.493  27.699  29.078  1.00  0.00     0.074 A 
ATOM     56  C   UNL A   1      42.055  30.904  32.212  1.00  0.00     0.029 A 
ATOM     57  N   UNL A   1      42.221  31.385  30.058  1.00  0.00    -0.354 N 
ATOM     58  N   UNL A   1      44.803  28.691  29.589  1.00  0.00    -0.248 NA
ATOM     59  C   UNL A   1      46.633  28.207  28.321  1.00  0.00     0.031 C 
ATOM     60  C   UNL A   1      43.418  30.747  31.792  1.00  0.00     0.029 A 
ATOM     61  C   UNL A   1      43.502  31.011  30.435  1.00  0.00     0.049 A 
ATOM     62  H   UNL A   1      41.990  31.735  29.168  1.00  0.00     0.167 HD
ATOM     63  C   UNL A   1      45.264  29.902  29.169  1.00  0.00     0.074 A 
ATOM     64  C   UNL A   1      46.458  29.544  28.418  1.00  0.00     0.031 C 
ATOM     65  C   UNL A   1      44.598  31.070  29.451  1.00  0.00     0.031 A 
BRANCH  52  66
ATOM     66  C   UNL A   1      38.763  31.841  31.564  1.00  0.00    -0.014 A 
ATOM     67  C   UNL A   1      38.675  33.249  31.623  1.00  0.00     0.010 A 
ATOM     68  C   UNL A   1      37.811  31.145  32.344  1.00  0.00     0.010 A 
ATOM     69  C   UNL A   1      37.673  33.910  32.369  1.00  0.00     0.020 A 
ATOM     70  C   UNL A   1      36.784  31.786  33.057  1.00  0.00     0.020 A 
ATOM     71  C   UNL A   1      36.719  33.172  33.069  1.00  0.00     0.054 A 
BRANCH  71  72
ATOM     72  S   UNL A   1      35.404  34.020  33.991  1.00  0.00     0.124 S 
ATOM     73  O   UNL A   1      34.196  33.374  33.483  1.00  0.00    -0.237 OA
ATOM     74  O   UNL A   1      35.741  33.722  35.380  1.00  0.00    -0.237 OA
ATOM     75  O   UNL A   1      35.560  35.424  33.609  1.00  0.00    -0.744 OA
ENDBRANCH  71  72
ENDBRANCH  52  66
BRANCH  53  76
ATOM     76  C   UNL A   1      45.473  24.955  28.583  1.00  0.00    -0.014 A 
ATOM     77  C   UNL A   1      44.386  24.073  28.355  1.00  0.00     0.010 A 
ATOM     78  C   UNL A   1      46.593  24.822  27.739  1.00  0.00     0.010 A 
ATOM     79  C   UNL A   1      44.347  23.209  27.249  1.00  0.00     0.020 A 
ATOM     80  C   UNL A   1      46.559  23.947  26.627  1.00  0.00     0.020 A 
ATOM     81  C   UNL A   1      45.419  23.177  26.365  1.00  0.00     0.054 A 
BRANCH  81  82
ATOM     82  S   UNL A   1      45.253  22.292  24.778  1.00  0.00     0.124 S 
ATOM     83  O   UNL A   1      43.974  21.610  24.935  1.00  0.00    -0.237 OA
ATOM     84  O   UNL A   1      45.275  23.368  23.787  1.00  0.00    -0.237 OA
ATOM     85  O   UNL A   1      46.428  21.423  24.765  1.00  0.00    -0.744 OA
ENDBRANCH  81  82
ENDBRANCH  53  76
BRANCH  65  86
ATOM     86  C   UNL A   1      44.906  32.425  28.836  1.00  0.00    -0.014 A 
ATOM     87  C   UNL A   1      44.356  32.895  27.635  1.00  0.00     0.010 A 
ATOM     88  C   UNL A   1      45.696  33.345  29.574  1.00  0.00     0.010 A 
ATOM     89  C   UNL A   1      44.620  34.193  27.169  1.00  0.00     0.020 A 
ATOM     90  C   UNL A   1      45.917  34.658  29.150  1.00  0.00     0.020 A 
ATOM     91  C   UNL A   1      45.396  35.067  27.931  1.00  0.00     0.054 A 
BRANCH  91  92
ATOM     92  S   UNL A   1      45.667  36.762  27.354  1.00  0.00     0.124 S 
ATOM     93  O   UNL A   1      46.270  36.539  26.042  1.00  0.00    -0.237 OA
ATOM     94  O   UNL A   1      44.316  37.320  27.334  1.00  0.00    -0.237 OA
ATOM     95  O   UNL A   1      46.554  37.331  28.365  1.00  0.00    -0.744 OA
ENDBRANCH  91  92
ENDBRANCH  65  86
ENDBRANCH  39  40
ENDBRANCH  32  34
ENDBRANCH  31  32
ENDBRANCH  30  31
ENDBRANCH   1  30
TORSDOF 19
ENDMDL
MODEL 3
REMARK VINA RESULT:     -10.9      1.820      3.512
REMARK SMILES Cc1ccc(-c2cc(Cl)cc3c2O[C@@H](C(F)(F)F)C(C(=O)OCCOCCOC(=O)c2ccc(-c4c5nc(c(-c6ccc(S(=O)(=O)[O-])cc6)c6ccc([nH]6)c(-c6ccc(S(=O)(=O)[O-])cc6)c6nc(c(-c7ccc(S(=O)(=O)[O-])cc7)c7ccc4[nH]7)C=C6)C=C5)cc2)=C3)cc1
REMARK SMILES IDX 26 1 25 2 24 3 23 4 22 5 20 6 21 7 19 8 6 9 7 10 12 11 8 12
REMARK SMILES IDX 11 13 13 14 9 15 10 16 91 17 14 18 5 19 1 20 2 21 3 22 93 23
REMARK SMILES IDX 4 24 92 25 15 26 16 27 17 28 18 29 27 30 28 31 29 32 30 33
REMARK SMILES IDX 31 34 32 35 90 36 33 37 89 38 34 39 35 40 36 41 83 42 37 43
REMARK SMILES IDX 88 44 82 45 84 46 38 47 87 48 81 49 80 50 39 52 69 53 50 54
REMARK SMILES IDX 68 55 51 56 54 57 67 58 85 59 52 60 53 61 66 63 86 64 55 65
REMARK SMILES IDX 40 66 41 67 49 68 42 69 48 70 43 71 44 72 45 73 46 74 47 75
REMARK SMILES IDX 70 76 71 77 79 78 72 79 78 80 73 81 74 82 75 83 76 84 77 85
REMARK SMILES IDX 56 86 57 87 65 88 58 89 64 90 59 91 60 92 61 93 62 94 63 95
REMARK H PARENT 84 51 54 62
REMARK Flexibility Score: inf
ROOT
ATOM      1  C   UNL A   1      35.458  22.669  25.782  1.00  0.00     0.202 C 
ENDROOT
BRANCH   1   2
ATOM      2  O   UNL A   1      34.803  22.992  27.003  1.00  0.00    -0.374 OA
BRANCH   2   3
ATOM      3  C   UNL A   1      33.642  22.249  27.313  1.00  0.00     0.202 C 
BRANCH   3   4
ATOM      4  C   UNL A   1      32.292  22.569  26.666  1.00  0.00     0.261 C 
BRANCH   4   5
ATOM      5  O   UNL A   1      32.033  23.938  26.385  1.00  0.00    -0.460 OA
BRANCH   5   6
ATOM      6  C   UNL A   1      32.438  24.540  25.231  1.00  0.00     0.338 C 
ATOM      7  O   UNL A   1      33.359  25.298  25.071  1.00  0.00    -0.246 OA
BRANCH   6   8
ATOM      8  C   UNL A   1      31.668  23.872  24.083  1.00  0.00     0.087 C 
ATOM      9  C   UNL A   1      31.306  27.740  23.771  1.00  0.00     0.026 A 
ATOM     10  C   UNL A   1      30.039  28.350  23.680  1.00  0.00     0.033 A 
ATOM     11  C   UNL A   1      31.362  26.381  23.391  1.00  0.00     0.135 A 
ATOM     12  C   UNL A   1      28.881  27.588  23.514  1.00  0.00     0.042 A 
ATOM     13  C   UNL A   1      30.194  25.599  23.592  1.00  0.00     0.019 A 
ATOM     14  O   UNL A   1      32.522  25.746  22.879  1.00  0.00    -0.475 OA
ATOM     15  Cl  UNL A   1      27.353  28.371  23.439  1.00  0.00    -0.084 Cl
ATOM     16  C   UNL A   1      28.944  26.201  23.569  1.00  0.00     0.032 A 
ATOM     17  C   UNL A   1      30.353  24.160  23.970  1.00  0.00     0.027 C 
ATOM     18  C   UNL A   1      32.351  24.263  22.786  1.00  0.00     0.316 C 
BRANCH   9  19
ATOM     19  C   UNL A   1      32.155  28.350  24.852  1.00  0.00    -0.015 A 
ATOM     20  C   UNL A   1      34.907  29.971  27.851  1.00  0.00     0.044 C 
ATOM     21  C   UNL A   1      33.977  29.354  26.842  1.00  0.00    -0.051 A 
ATOM     22  C   UNL A   1      32.654  29.017  27.163  1.00  0.00     0.004 A 
ATOM     23  C   UNL A   1      34.399  29.154  25.531  1.00  0.00     0.004 A 
ATOM     24  C   UNL A   1      31.766  28.488  26.191  1.00  0.00     0.009 A 
ATOM     25  C   UNL A   1      33.507  28.659  24.565  1.00  0.00     0.009 A 
ENDBRANCH   9  19
BRANCH  18  26
ATOM     26  C   UNL A   1      33.486  23.253  22.453  1.00  0.00     0.430 C 
ATOM     27  F   UNL A   1      33.408  22.952  21.116  1.00  0.00    -0.167 F 
ATOM     28  F   UNL A   1      34.708  23.812  22.621  1.00  0.00    -0.167 F 
ATOM     29  F   UNL A   1      33.482  22.062  23.069  1.00  0.00    -0.167 F 
ENDBRANCH  18  26
ENDBRANCH   6   8
ENDBRANCH   5   6
ENDBRANCH   4   5
ENDBRANCH   3   4
ENDBRANCH   2   3
ENDBRANCH   1   2
BRANCH   1  30
ATOM     30  C   UNL A   1      36.954  22.325  25.834  1.00  0.00     0.261 C 
BRANCH  30  31
ATOM     31  O   UNL A   1      37.782  23.504  25.888  1.00  0.00    -0.460 OA
BRANCH  31  32
ATOM     32  C   UNL A   1      38.934  23.428  26.618  1.00  0.00     0.338 C 
ATOM     33  O   UNL A   1      39.755  22.531  26.650  1.00  0.00    -0.246 OA
BRANCH  32  34
ATOM     34  C   UNL A   1      39.221  24.826  27.027  1.00  0.00     0.060 A 
ATOM     35  C   UNL A   1      40.071  25.636  26.276  1.00  0.00     0.016 A 
ATOM     36  C   UNL A   1      38.991  25.106  28.372  1.00  0.00     0.016 A 
ATOM     37  C   UNL A   1      40.900  26.544  26.938  1.00  0.00     0.010 A 
ATOM     38  C   UNL A   1      39.905  25.910  29.040  1.00  0.00     0.010 A 
ATOM     39  C   UNL A   1      40.955  26.516  28.339  1.00  0.00    -0.014 A 
BRANCH  39  40
ATOM     40  C   UNL A   1      42.257  26.699  29.032  1.00  0.00     0.031 A 
ATOM     41  C   UNL A   1      43.517  26.016  28.629  1.00  0.00     0.074 A 
ATOM     42  C   UNL A   1      42.360  27.701  29.953  1.00  0.00     0.049 A 
ATOM     43  N   UNL A   1      44.516  25.876  29.435  1.00  0.00    -0.248 NA
ATOM     44  C   UNL A   1      43.790  25.415  27.326  1.00  0.00     0.031 C 
ATOM     45  C   UNL A   1      43.571  28.234  30.580  1.00  0.00     0.029 A 
ATOM     46  N   UNL A   1      41.375  28.496  30.531  1.00  0.00    -0.354 N 
ATOM     47  C   UNL A   1      45.630  25.570  28.691  1.00  0.00     0.074 A 
ATOM     48  C   UNL A   1      45.100  25.139  27.422  1.00  0.00     0.031 C 
ATOM     49  C   UNL A   1      43.243  29.092  31.560  1.00  0.00     0.029 A 
ATOM     50  C   UNL A   1      41.809  29.035  31.737  1.00  0.00     0.049 A 
ATOM     51  H   UNL A   1      40.486  28.654  30.138  1.00  0.00     0.167 HD
ATOM     52  C   UNL A   1      46.872  25.831  29.202  1.00  0.00     0.031 A 
ATOM     53  C   UNL A   1      41.195  28.672  32.898  1.00  0.00     0.031 A 
ATOM     54  C   UNL A   1      46.802  26.239  30.619  1.00  0.00     0.049 A 
ATOM     55  C   UNL A   1      42.007  27.608  33.638  1.00  0.00     0.074 A 
ATOM     56  C   UNL A   1      47.161  27.367  31.336  1.00  0.00     0.029 A 
ATOM     57  N   UNL A   1      46.023  25.476  31.496  1.00  0.00    -0.354 N 
ATOM     58  N   UNL A   1      43.209  27.243  33.260  1.00  0.00    -0.248 NA
ATOM     59  C   UNL A   1      41.598  26.863  34.824  1.00  0.00     0.031 C 
ATOM     60  C   UNL A   1      46.456  27.339  32.585  1.00  0.00     0.029 A 
ATOM     61  C   UNL A   1      45.715  26.171  32.656  1.00  0.00     0.049 A 
ATOM     62  H   UNL A   1      45.728  24.556  31.311  1.00  0.00     0.167 HD
ATOM     63  C   UNL A   1      43.679  26.195  33.993  1.00  0.00     0.074 A 
ATOM     64  C   UNL A   1      42.648  26.032  35.008  1.00  0.00     0.031 C 
ATOM     65  C   UNL A   1      44.846  25.547  33.670  1.00  0.00     0.031 A 
BRANCH  52  66
ATOM     66  C   UNL A   1      48.149  25.836  28.368  1.00  0.00    -0.014 A 
ATOM     67  C   UNL A   1      48.380  26.836  27.399  1.00  0.00     0.010 A 
ATOM     68  C   UNL A   1      49.149  24.839  28.454  1.00  0.00     0.010 A 
ATOM     69  C   UNL A   1      49.550  26.865  26.608  1.00  0.00     0.020 A 
ATOM     70  C   UNL A   1      50.337  24.875  27.705  1.00  0.00     0.020 A 
ATOM     71  C   UNL A   1      50.534  25.890  26.780  1.00  0.00     0.054 A 
BRANCH  71  72
ATOM     72  S   UNL A   1      52.060  25.951  25.797  1.00  0.00     0.124 S 
ATOM     73  O   UNL A   1      52.879  26.903  26.542  1.00  0.00    -0.237 OA
ATOM     74  O   UNL A   1      52.519  24.565  25.829  1.00  0.00    -0.237 OA
ATOM     75  O   UNL A   1      51.611  26.417  24.484  1.00  0.00    -0.744 OA
ENDBRANCH  71  72
ENDBRANCH  52  66
BRANCH  53  76
ATOM     76  C   UNL A   1      39.742  29.045  32.879  1.00  0.00    -0.014 A 
ATOM     77  C   UNL A   1      39.373  30.036  33.823  1.00  0.00     0.010 A 
ATOM     78  C   UNL A   1      38.916  28.901  31.747  1.00  0.00     0.010 A 
ATOM     79  C   UNL A   1      38.328  30.943  33.582  1.00  0.00     0.020 A 
ATOM     80  C   UNL A   1      37.858  29.809  31.505  1.00  0.00     0.020 A 
ATOM     81  C   UNL A   1      37.598  30.851  32.403  1.00  0.00     0.054 A 
BRANCH  81  82
ATOM     82  S   UNL A   1      36.451  32.194  31.946  1.00  0.00     0.124 S 
ATOM     83  O   UNL A   1      37.356  33.319  31.741  1.00  0.00    -0.237 OA
ATOM     84  O   UNL A   1      35.797  31.685  30.740  1.00  0.00    -0.237 OA
ATOM     85  O   UNL A   1      35.583  32.294  33.118  1.00  0.00    -0.744 OA
ENDBRANCH  81  82
ENDBRANCH  53  76
BRANCH  65  86
ATOM     86  C   UNL A   1      45.322  24.241  34.282  1.00  0.00    -0.014 A 
ATOM     87  C   UNL A   1      46.329  24.138  35.253  1.00  0.00     0.010 A 
ATOM     88  C   UNL A   1      44.627  23.045  33.963  1.00  0.00     0.010 A 
ATOM     89  C   UNL A   1      46.659  22.905  35.836  1.00  0.00     0.020 A 
ATOM     90  C   UNL A   1      44.907  21.823  34.579  1.00  0.00     0.020 A 
ATOM     91  C   UNL A   1      45.945  21.755  35.497  1.00  0.00     0.054 A 
BRANCH  91  92
ATOM     92  S   UNL A   1      46.332  20.185  36.312  1.00  0.00     0.124 S 
ATOM     93  O   UNL A   1      47.783  20.118  36.157  1.00  0.00    -0.237 OA
ATOM     94  O   UNL A   1      45.858  20.400  37.677  1.00  0.00    -0.237 OA
ATOM     95  O   UNL A   1      45.573  19.203  35.543  1.00  0.00    -0.744 OA
ENDBRANCH  91  92
ENDBRANCH  65  86
ENDBRANCH  39  40
ENDBRANCH  32  34
ENDBRANCH  31  32
ENDBRANCH  30  31
ENDBRANCH   1  30
TORSDOF 19
ENDMDL
