MODEL 1
REMARK VINA RESULT:     -10.5      0.000      0.000
REMARK SMILES CN(C(=O)c1cccn1CC(=O)OCCOCCOC(=O)c1ccc(-c2c3nc(c(-c4ccc(S(=O)(=O)[O-])cc4)c4ccc([nH]4)c(-c4ccc(S(=O)(=O)[O-])cc4)c4nc(c(-c5ccc(S(=O)(=O)[O-])cc5)c5ccc2[nH]5)C=C4)C=C3)cc1)c1ccc(F)cc1
REMARK SMILES IDX 15 1 14 2 13 3 11 4 12 5 10 6 9 7 5 8 6 9 7 10 8 11 3 12
REMARK SMILES IDX 4 13 2 14 1 15 82 16 83 17 88 18 84 19 87 20 85 21 86 22
REMARK SMILES IDX 16 23 17 24 18 25 19 26 20 27 21 28 22 29 23 30 81 31 24 32
REMARK SMILES IDX 80 33 25 34 26 35 27 36 74 37 28 38 79 39 73 40 75 41 29 42
REMARK SMILES IDX 78 43 72 44 71 45 30 47 60 48 41 49 59 50 42 51 45 52 58 53
REMARK SMILES IDX 76 54 43 55 44 56 57 58 77 59 46 60 31 61 32 62 40 63 33 64
REMARK SMILES IDX 39 65 34 66 35 67 36 68 37 69 38 70 61 71 62 72 70 73 63 74
REMARK SMILES IDX 69 75 64 76 65 77 66 78 67 79 68 80 47 81 48 82 56 83 49 84
REMARK SMILES IDX 55 85 50 86 51 87 52 88 53 89 54 90
REMARK H PARENT 75 46 45 57
REMARK Flexibility Score: inf
ROOT
ATOM      1  C   UNL A   1      37.259  21.400  24.613  1.00  0.00     0.202 C 
ENDROOT
BRANCH   1   2
ATOM      2  C   UNL A   1      36.032  21.121  25.483  1.00  0.00     0.261 C 
BRANCH   2   3
ATOM      3  O   UNL A   1      35.412  22.319  25.986  1.00  0.00    -0.462 OA
BRANCH   3   4
ATOM      4  C   UNL A   1      34.218  22.129  26.607  1.00  0.00     0.326 C 
ATOM      5  O   UNL A   1      34.093  21.558  27.689  1.00  0.00    -0.250 OA
BRANCH   4   6
ATOM      6  C   UNL A   1      33.024  22.742  25.926  1.00  0.00     0.244 C 
BRANCH   6   7
ATOM      7  N   UNL A   1      32.660  22.267  24.590  1.00  0.00    -0.332 N 
ATOM      8  C   UNL A   1      32.899  22.908  23.380  1.00  0.00     0.108 A 
ATOM      9  C   UNL A   1      32.535  22.010  22.382  1.00  0.00     0.033 A 
ATOM     10  C   UNL A   1      32.104  20.810  22.990  1.00  0.00     0.020 A 
ATOM     11  C   UNL A   1      32.239  20.979  24.346  1.00  0.00     0.087 A 
BRANCH   8  12
ATOM     12  C   UNL A   1      33.560  24.202  23.265  1.00  0.00     0.274 C 
ATOM     13  O   UNL A   1      34.790  24.221  23.216  1.00  0.00    -0.267 OA
BRANCH  12  14
ATOM     14  N   UNL A   1      32.804  25.394  23.274  1.00  0.00    -0.310 N 
ATOM     15  C   UNL A   1      32.194  25.985  22.081  1.00  0.00     0.153 C 
BRANCH  14  16
ATOM     16  C   UNL A   1      32.526  26.027  24.541  1.00  0.00     0.044 A 
ATOM     17  C   UNL A   1      31.224  26.028  25.075  1.00  0.00     0.029 A 
ATOM     18  C   UNL A   1      33.524  26.713  25.251  1.00  0.00     0.029 A 
ATOM     19  C   UNL A   1      30.910  26.744  26.231  1.00  0.00     0.041 A 
ATOM     20  C   UNL A   1      33.210  27.441  26.404  1.00  0.00     0.041 A 
ATOM     21  C   UNL A   1      31.905  27.460  26.876  1.00  0.00     0.123 A 
ATOM     22  F   UNL A   1      31.602  28.185  27.961  1.00  0.00    -0.207 F 
ENDBRANCH  14  16
ENDBRANCH  12  14
ENDBRANCH   8  12
ENDBRANCH   6   7
ENDBRANCH   4   6
ENDBRANCH   3   4
ENDBRANCH   2   3
ENDBRANCH   1   2
BRANCH   1  23
ATOM     23  O   UNL A   1      38.332  22.146  25.184  1.00  0.00    -0.374 OA
BRANCH  23  24
ATOM     24  C   UNL A   1      39.228  21.511  26.089  1.00  0.00     0.202 C 
BRANCH  24  25
ATOM     25  C   UNL A   1      39.613  20.059  25.845  1.00  0.00     0.261 C 
BRANCH  25  26
ATOM     26  O   UNL A   1      40.555  19.563  26.781  1.00  0.00    -0.460 OA
BRANCH  26  27
ATOM     27  C   UNL A   1      41.769  19.377  26.214  1.00  0.00     0.338 C 
ATOM     28  O   UNL A   1      42.184  18.363  25.683  1.00  0.00    -0.246 OA
BRANCH  27  29
ATOM     29  C   UNL A   1      42.633  20.514  26.513  1.00  0.00     0.060 A 
ATOM     30  C   UNL A   1      42.589  20.950  27.838  1.00  0.00     0.016 A 
ATOM     31  C   UNL A   1      43.104  21.315  25.463  1.00  0.00     0.016 A 
ATOM     32  C   UNL A   1      42.827  22.278  28.087  1.00  0.00     0.010 A 
ATOM     33  C   UNL A   1      43.306  22.654  25.707  1.00  0.00     0.010 A 
ATOM     34  C   UNL A   1      43.123  23.125  27.010  1.00  0.00    -0.014 A 
BRANCH  34  35
ATOM     35  C   UNL A   1      43.476  24.501  27.348  1.00  0.00     0.031 A 
ATOM     36  C   UNL A   1      42.158  25.299  27.496  1.00  0.00     0.074 A 
ATOM     37  C   UNL A   1      44.819  24.786  27.322  1.00  0.00     0.049 A 
ATOM     38  N   UNL A   1      41.912  26.534  27.207  1.00  0.00    -0.248 NA
ATOM     39  C   UNL A   1      40.894  24.606  27.912  1.00  0.00     0.031 C 
ATOM     40  C   UNL A   1      45.919  23.789  27.183  1.00  0.00     0.029 A 
ATOM     41  N   UNL A   1      45.553  25.949  27.392  1.00  0.00    -0.354 N 
ATOM     42  C   UNL A   1      40.581  26.816  27.589  1.00  0.00     0.074 A 
ATOM     43  C   UNL A   1      39.968  25.567  27.901  1.00  0.00     0.031 C 
ATOM     44  C   UNL A   1      47.129  24.393  27.082  1.00  0.00     0.029 A 
ATOM     45  C   UNL A   1      46.958  25.831  27.155  1.00  0.00     0.049 A 
ATOM     46  H   UNL A   1      45.132  26.814  27.595  1.00  0.00     0.167 HD
ATOM     47  C   UNL A   1      40.123  28.088  27.757  1.00  0.00     0.031 A 
ATOM     48  C   UNL A   1      47.878  26.837  26.979  1.00  0.00     0.031 A 
ATOM     49  C   UNL A   1      41.146  29.007  27.387  1.00  0.00     0.049 A 
ATOM     50  C   UNL A   1      47.105  28.063  27.228  1.00  0.00     0.074 A 
ATOM     51  C   UNL A   1      41.666  29.340  26.164  1.00  0.00     0.029 A 
ATOM     52  N   UNL A   1      42.043  29.335  28.378  1.00  0.00    -0.354 N 
ATOM     53  N   UNL A   1      46.691  28.460  28.393  1.00  0.00    -0.248 NA
ATOM     54  C   UNL A   1      46.656  28.852  26.073  1.00  0.00     0.031 C 
ATOM     55  C   UNL A   1      43.052  29.338  26.417  1.00  0.00     0.029 A 
ATOM     56  C   UNL A   1      43.285  29.316  27.798  1.00  0.00     0.049 A 
ATOM     57  H   UNL A   1      41.833  29.541  29.318  1.00  0.00     0.167 HD
ATOM     58  C   UNL A   1      45.645  29.281  28.061  1.00  0.00     0.074 A 
ATOM     59  C   UNL A   1      45.890  29.735  26.706  1.00  0.00     0.031 C 
ATOM     60  C   UNL A   1      44.431  29.106  28.647  1.00  0.00     0.031 A 
BRANCH  47  61
ATOM     61  C   UNL A   1      38.927  28.650  28.469  1.00  0.00    -0.014 A 
ATOM     62  C   UNL A   1      38.312  29.776  27.861  1.00  0.00     0.010 A 
ATOM     63  C   UNL A   1      38.624  28.385  29.810  1.00  0.00     0.010 A 
ATOM     64  C   UNL A   1      37.566  30.690  28.599  1.00  0.00     0.020 A 
ATOM     65  C   UNL A   1      37.831  29.281  30.550  1.00  0.00     0.020 A 
ATOM     66  C   UNL A   1      37.358  30.454  29.953  1.00  0.00     0.054 A 
BRANCH  66  67
ATOM     67  S   UNL A   1      36.526  31.743  30.916  1.00  0.00     0.124 S 
ATOM     68  O   UNL A   1      37.223  32.950  30.484  1.00  0.00    -0.237 OA
ATOM     69  O   UNL A   1      35.141  31.624  30.463  1.00  0.00    -0.237 OA
ATOM     70  O   UNL A   1      36.756  31.340  32.301  1.00  0.00    -0.744 OA
ENDBRANCH  66  67
ENDBRANCH  47  61
BRANCH  48  71
ATOM     71  C   UNL A   1      49.310  27.079  26.510  1.00  0.00    -0.014 A 
ATOM     72  C   UNL A   1      50.387  27.580  27.250  1.00  0.00     0.010 A 
ATOM     73  C   UNL A   1      49.643  26.667  25.181  1.00  0.00     0.010 A 
ATOM     74  C   UNL A   1      51.720  27.515  26.744  1.00  0.00     0.020 A 
ATOM     75  C   UNL A   1      50.945  26.543  24.692  1.00  0.00     0.020 A 
ATOM     76  C   UNL A   1      51.994  26.941  25.493  1.00  0.00     0.054 A 
BRANCH  76  77
ATOM     77  S   UNL A   1      53.695  26.577  24.955  1.00  0.00     0.124 S 
ATOM     78  O   UNL A   1      53.550  25.287  24.289  1.00  0.00    -0.237 OA
ATOM     79  O   UNL A   1      54.004  27.709  24.083  1.00  0.00    -0.237 OA
ATOM     80  O   UNL A   1      54.453  26.550  26.206  1.00  0.00    -0.744 OA
ENDBRANCH  76  77
ENDBRANCH  48  71
BRANCH  60  81
ATOM     81  C   UNL A   1      44.429  28.380  29.990  1.00  0.00    -0.014 A 
ATOM     82  C   UNL A   1      44.063  27.024  30.037  1.00  0.00     0.010 A 
ATOM     83  C   UNL A   1      44.706  29.006  31.225  1.00  0.00     0.010 A 
ATOM     84  C   UNL A   1      43.983  26.319  31.249  1.00  0.00     0.020 A 
ATOM     85  C   UNL A   1      44.620  28.313  32.451  1.00  0.00     0.020 A 
ATOM     86  C   UNL A   1      44.266  26.965  32.453  1.00  0.00     0.054 A 
BRANCH  86  87
ATOM     87  S   UNL A   1      44.175  26.010  34.000  1.00  0.00     0.124 S 
ATOM     88  O   UNL A   1      42.893  26.426  34.563  1.00  0.00    -0.237 OA
ATOM     89  O   UNL A   1      44.227  24.631  33.521  1.00  0.00    -0.237 OA
ATOM     90  O   UNL A   1      45.349  26.448  34.754  1.00  0.00    -0.744 OA
ENDBRANCH  86  87
ENDBRANCH  60  81
ENDBRANCH  34  35
ENDBRANCH  27  29
ENDBRANCH  26  27
ENDBRANCH  25  26
ENDBRANCH  24  25
ENDBRANCH  23  24
ENDBRANCH   1  23
TORSDOF 21
ENDMDL
MODEL 2
REMARK VINA RESULT:     -10.3      4.025      9.586
REMARK SMILES CN(C(=O)c1cccn1CC(=O)OCCOCCOC(=O)c1ccc(-c2c3nc(c(-c4ccc(S(=O)(=O)[O-])cc4)c4ccc([nH]4)c(-c4ccc(S(=O)(=O)[O-])cc4)c4nc(c(-c5ccc(S(=O)(=O)[O-])cc5)c5ccc2[nH]5)C=C4)C=C3)cc1)c1ccc(F)cc1
REMARK SMILES IDX 15 1 14 2 13 3 11 4 12 5 10 6 9 7 5 8 6 9 7 10 8 11 3 12
REMARK SMILES IDX 4 13 2 14 1 15 82 16 83 17 88 18 84 19 87 20 85 21 86 22
REMARK SMILES IDX 16 23 17 24 18 25 19 26 20 27 21 28 22 29 23 30 81 31 24 32
REMARK SMILES IDX 80 33 25 34 26 35 27 36 74 37 28 38 79 39 73 40 75 41 29 42
REMARK SMILES IDX 78 43 72 44 71 45 30 47 60 48 41 49 59 50 42 51 45 52 58 53
REMARK SMILES IDX 76 54 43 55 44 56 57 58 77 59 46 60 31 61 32 62 40 63 33 64
REMARK SMILES IDX 39 65 34 66 35 67 36 68 37 69 38 70 61 71 62 72 70 73 63 74
REMARK SMILES IDX 69 75 64 76 65 77 66 78 67 79 68 80 47 81 48 82 56 83 49 84
REMARK SMILES IDX 55 85 50 86 51 87 52 88 53 89 54 90
REMARK H PARENT 75 46 45 57
REMARK Flexibility Score: inf
ROOT
ATOM      1  C   UNL A   1      34.121  23.602  24.898  1.00  0.00     0.202 C 
ENDROOT
BRANCH   1   2
ATOM      2  C   UNL A   1      34.358  24.097  23.470  1.00  0.00     0.261 C 
BRANCH   2   3
ATOM      3  O   UNL A   1      33.839  25.420  23.238  1.00  0.00    -0.462 OA
BRANCH   3   4
ATOM      4  C   UNL A   1      32.970  25.520  22.198  1.00  0.00     0.326 C 
ATOM      5  O   UNL A   1      33.315  25.699  21.031  1.00  0.00    -0.250 OA
BRANCH   4   6
ATOM      6  C   UNL A   1      31.519  25.310  22.540  1.00  0.00     0.244 C 
BRANCH   6   7
ATOM      7  N   UNL A   1      31.109  25.413  23.942  1.00  0.00    -0.332 N 
ATOM      8  C   UNL A   1      30.786  26.572  24.637  1.00  0.00     0.108 A 
ATOM      9  C   UNL A   1      30.297  26.165  25.873  1.00  0.00     0.033 A 
ATOM     10  C   UNL A   1      30.296  24.753  25.915  1.00  0.00     0.020 A 
ATOM     11  C   UNL A   1      30.753  24.318  24.696  1.00  0.00     0.087 A 
BRANCH   8  12
ATOM     12  C   UNL A   1      30.823  27.905  24.049  1.00  0.00     0.274 C 
ATOM     13  O   UNL A   1      29.781  28.358  23.574  1.00  0.00    -0.267 OA
BRANCH  12  14
ATOM     14  N   UNL A   1      32.038  28.621  23.977  1.00  0.00    -0.310 N 
ATOM     15  C   UNL A   1      32.663  29.049  22.723  1.00  0.00     0.153 C 
BRANCH  14  16
ATOM     16  C   UNL A   1      32.662  29.048  25.206  1.00  0.00     0.044 A 
ATOM     17  C   UNL A   1      32.142  30.132  25.939  1.00  0.00     0.029 A 
ATOM     18  C   UNL A   1      33.836  28.444  25.679  1.00  0.00     0.029 A 
ATOM     19  C   UNL A   1      32.804  30.641  27.058  1.00  0.00     0.041 A 
ATOM     20  C   UNL A   1      34.509  28.959  26.793  1.00  0.00     0.041 A 
ATOM     21  C   UNL A   1      33.993  30.060  27.464  1.00  0.00     0.123 A 
ATOM     22  F   UNL A   1      34.657  30.570  28.510  1.00  0.00    -0.207 F 
ENDBRANCH  14  16
ENDBRANCH  12  14
ENDBRANCH   8  12
ENDBRANCH   6   7
ENDBRANCH   4   6
ENDBRANCH   3   4
ENDBRANCH   2   3
ENDBRANCH   1   2
BRANCH   1  23
ATOM     23  O   UNL A   1      34.765  22.397  25.308  1.00  0.00    -0.374 OA
BRANCH  23  24
ATOM     24  C   UNL A   1      35.826  22.452  26.254  1.00  0.00     0.202 C 
BRANCH  24  25
ATOM     25  C   UNL A   1      37.260  22.513  25.748  1.00  0.00     0.261 C 
BRANCH  25  26
ATOM     26  O   UNL A   1      37.993  23.609  26.271  1.00  0.00    -0.460 OA
BRANCH  26  27
ATOM     27  C   UNL A   1      39.320  23.346  26.306  1.00  0.00     0.338 C 
ATOM     28  O   UNL A   1      39.894  22.396  25.805  1.00  0.00    -0.246 OA
BRANCH  27  29
ATOM     29  C   UNL A   1      39.980  24.260  27.232  1.00  0.00     0.060 A 
ATOM     30  C   UNL A   1      39.215  24.625  28.341  1.00  0.00     0.016 A 
ATOM     31  C   UNL A   1      41.088  25.001  26.795  1.00  0.00     0.016 A 
ATOM     32  C   UNL A   1      39.436  25.858  28.899  1.00  0.00     0.010 A 
ATOM     33  C   UNL A   1      41.285  26.253  27.330  1.00  0.00     0.010 A 
ATOM     34  C   UNL A   1      40.428  26.681  28.347  1.00  0.00    -0.014 A 
BRANCH  34  35
ATOM     35  C   UNL A   1      40.693  27.934  29.050  1.00  0.00     0.031 A 
ATOM     36  C   UNL A   1      41.902  27.699  29.986  1.00  0.00     0.074 A 
ATOM     37  C   UNL A   1      39.775  28.933  28.832  1.00  0.00     0.049 A 
ATOM     38  N   UNL A   1      42.146  28.204  31.150  1.00  0.00    -0.248 NA
ATOM     39  C   UNL A   1      42.935  26.666  29.646  1.00  0.00     0.031 C 
ATOM     40  C   UNL A   1      38.686  28.910  27.815  1.00  0.00     0.029 A 
ATOM     41  N   UNL A   1      39.544  30.162  29.408  1.00  0.00    -0.354 N 
ATOM     42  C   UNL A   1      43.412  27.738  31.572  1.00  0.00     0.074 A 
ATOM     43  C   UNL A   1      43.793  26.704  30.667  1.00  0.00     0.031 C 
ATOM     44  C   UNL A   1      37.882  29.998  27.922  1.00  0.00     0.029 A 
ATOM     45  C   UNL A   1      38.358  30.845  28.998  1.00  0.00     0.049 A 
ATOM     46  H   UNL A   1      40.164  30.549  30.068  1.00  0.00     0.167 HD
ATOM     47  C   UNL A   1      44.120  28.346  32.565  1.00  0.00     0.031 A 
ATOM     48  C   UNL A   1      37.796  31.976  29.542  1.00  0.00     0.031 A 
ATOM     49  C   UNL A   1      43.338  29.395  33.124  1.00  0.00     0.049 A 
ATOM     50  C   UNL A   1      38.774  32.398  30.556  1.00  0.00     0.074 A 
ATOM     51  C   UNL A   1      42.221  29.369  33.918  1.00  0.00     0.029 A 
ATOM     52  N   UNL A   1      43.427  30.613  32.488  1.00  0.00    -0.354 N 
ATOM     53  N   UNL A   1      39.931  32.929  30.302  1.00  0.00    -0.248 NA
ATOM     54  C   UNL A   1      38.491  32.096  31.966  1.00  0.00     0.031 C 
ATOM     55  C   UNL A   1      41.398  30.339  33.310  1.00  0.00     0.029 A 
ATOM     56  C   UNL A   1      42.148  31.102  32.406  1.00  0.00     0.049 A 
ATOM     57  H   UNL A   1      44.247  31.046  32.158  1.00  0.00     0.167 HD
ATOM     58  C   UNL A   1      40.630  32.656  31.448  1.00  0.00     0.074 A 
ATOM     59  C   UNL A   1      39.648  32.477  32.499  1.00  0.00     0.031 C 
ATOM     60  C   UNL A   1      41.851  32.063  31.374  1.00  0.00     0.031 A 
BRANCH  47  61
ATOM     61  C   UNL A   1      45.568  28.293  32.956  1.00  0.00    -0.014 A 
ATOM     62  C   UNL A   1      46.504  28.498  31.909  1.00  0.00     0.010 A 
ATOM     63  C   UNL A   1      46.034  27.716  34.144  1.00  0.00     0.010 A 
ATOM     64  C   UNL A   1      47.801  27.998  31.977  1.00  0.00     0.020 A 
ATOM     65  C   UNL A   1      47.358  27.250  34.236  1.00  0.00     0.020 A 
ATOM     66  C   UNL A   1      48.211  27.343  33.132  1.00  0.00     0.054 A 
BRANCH  66  67
ATOM     67  S   UNL A   1      49.846  26.562  33.125  1.00  0.00     0.124 S 
ATOM     68  O   UNL A   1      50.256  26.692  34.520  1.00  0.00    -0.237 OA
ATOM     69  O   UNL A   1      49.539  25.202  32.687  1.00  0.00    -0.237 OA
ATOM     70  O   UNL A   1      50.604  27.361  32.166  1.00  0.00    -0.744 OA
ENDBRANCH  66  67
ENDBRANCH  47  61
BRANCH  48  71
ATOM     71  C   UNL A   1      36.512  32.800  29.525  1.00  0.00    -0.014 A 
ATOM     72  C   UNL A   1      35.682  33.128  30.603  1.00  0.00     0.010 A 
ATOM     73  C   UNL A   1      36.134  33.399  28.282  1.00  0.00     0.010 A 
ATOM     74  C   UNL A   1      34.655  34.110  30.469  1.00  0.00     0.020 A 
ATOM     75  C   UNL A   1      35.173  34.403  28.146  1.00  0.00     0.020 A 
ATOM     76  C   UNL A   1      34.449  34.783  29.256  1.00  0.00     0.054 A 
BRANCH  76  77
ATOM     77  S   UNL A   1      33.359  36.236  29.136  1.00  0.00     0.124 S 
ATOM     78  O   UNL A   1      34.101  37.120  28.243  1.00  0.00    -0.237 OA
ATOM     79  O   UNL A   1      32.129  35.669  28.589  1.00  0.00    -0.237 OA
ATOM     80  O   UNL A   1      33.250  36.699  30.520  1.00  0.00    -0.744 OA
ENDBRANCH  76  77
ENDBRANCH  48  71
BRANCH  60  81
ATOM     81  C   UNL A   1      42.595  32.214  30.049  1.00  0.00    -0.014 A 
ATOM     82  C   UNL A   1      42.879  31.067  29.287  1.00  0.00     0.010 A 
ATOM     83  C   UNL A   1      43.092  33.441  29.559  1.00  0.00     0.010 A 
ATOM     84  C   UNL A   1      43.613  31.134  28.092  1.00  0.00     0.020 A 
ATOM     85  C   UNL A   1      43.839  33.521  28.364  1.00  0.00     0.020 A 
ATOM     86  C   UNL A   1      44.086  32.362  27.631  1.00  0.00     0.054 A 
BRANCH  86  87
ATOM     87  S   UNL A   1      45.012  32.410  26.065  1.00  0.00     0.124 S 
ATOM     88  O   UNL A   1      43.981  32.749  25.088  1.00  0.00    -0.237 OA
ATOM     89  O   UNL A   1      46.002  33.454  26.317  1.00  0.00    -0.237 OA
ATOM     90  O   UNL A   1      45.558  31.059  25.937  1.00  0.00    -0.744 OA
ENDBRANCH  86  87
ENDBRANCH  60  81
ENDBRANCH  34  35
ENDBRANCH  27  29
ENDBRANCH  26  27
ENDBRANCH  25  26
ENDBRANCH  24  25
ENDBRANCH  23  24
ENDBRANCH   1  23
TORSDOF 21
ENDMDL
MODEL 3
REMARK VINA RESULT:     -10.2      1.753      2.589
REMARK SMILES CN(C(=O)c1cccn1CC(=O)OCCOCCOC(=O)c1ccc(-c2c3nc(c(-c4ccc(S(=O)(=O)[O-])cc4)c4ccc([nH]4)c(-c4ccc(S(=O)(=O)[O-])cc4)c4nc(c(-c5ccc(S(=O)(=O)[O-])cc5)c5ccc2[nH]5)C=C4)C=C3)cc1)c1ccc(F)cc1
REMARK SMILES IDX 15 1 14 2 13 3 11 4 12 5 10 6 9 7 5 8 6 9 7 10 8 11 3 12
REMARK SMILES IDX 4 13 2 14 1 15 82 16 83 17 88 18 84 19 87 20 85 21 86 22
REMARK SMILES IDX 16 23 17 24 18 25 19 26 20 27 21 28 22 29 23 30 81 31 24 32
REMARK SMILES IDX 80 33 25 34 26 35 27 36 74 37 28 38 79 39 73 40 75 41 29 42
REMARK SMILES IDX 78 43 72 44 71 45 30 47 60 48 41 49 59 50 42 51 45 52 58 53
REMARK SMILES IDX 76 54 43 55 44 56 57 58 77 59 46 60 31 61 32 62 40 63 33 64
REMARK SMILES IDX 39 65 34 66 35 67 36 68 37 69 38 70 61 71 62 72 70 73 63 74
REMARK SMILES IDX 69 75 64 76 65 77 66 78 67 79 68 80 47 81 48 82 56 83 49 84
REMARK SMILES IDX 55 85 50 86 51 87 52 88 53 89 54 90
REMARK H PARENT 75 46 45 57
REMARK Flexibility Score: inf
ROOT
ATOM      1  C   UNL A   1      36.797  21.937  24.525  1.00  0.00     0.202 C 
ENDROOT
BRANCH   1   2
ATOM      2  C   UNL A   1      36.252  23.329  24.201  1.00  0.00     0.261 C 
BRANCH   2   3
ATOM      3  O   UNL A   1      35.875  24.075  25.373  1.00  0.00    -0.462 OA
BRANCH   3   4
ATOM      4  C   UNL A   1      34.540  24.289  25.511  1.00  0.00     0.326 C 
ATOM      5  O   UNL A   1      33.862  23.821  26.423  1.00  0.00    -0.250 OA
BRANCH   4   6
ATOM      6  C   UNL A   1      33.923  25.225  24.505  1.00  0.00     0.244 C 
BRANCH   6   7
ATOM      7  N   UNL A   1      33.637  26.601  24.915  1.00  0.00    -0.332 N 
ATOM      8  C   UNL A   1      32.741  27.482  24.320  1.00  0.00     0.108 A 
ATOM      9  C   UNL A   1      32.682  28.598  25.148  1.00  0.00     0.033 A 
ATOM     10  C   UNL A   1      33.522  28.379  26.262  1.00  0.00     0.020 A 
ATOM     11  C   UNL A   1      34.056  27.123  26.118  1.00  0.00     0.087 A 
BRANCH   8  12
ATOM     12  C   UNL A   1      31.937  27.153  23.151  1.00  0.00     0.274 C 
ATOM     13  O   UNL A   1      32.510  27.039  22.067  1.00  0.00    -0.267 OA
BRANCH  12  14
ATOM     14  N   UNL A   1      30.534  27.031  23.259  1.00  0.00    -0.310 N 
ATOM     15  C   UNL A   1      29.856  25.869  23.838  1.00  0.00     0.153 C 
BRANCH  14  16
ATOM     16  C   UNL A   1      29.711  28.151  22.871  1.00  0.00     0.044 A 
ATOM     17  C   UNL A   1      30.282  29.292  22.275  1.00  0.00     0.029 A 
ATOM     18  C   UNL A   1      28.332  28.169  23.126  1.00  0.00     0.029 A 
ATOM     19  C   UNL A   1      29.524  30.434  22.012  1.00  0.00     0.041 A 
ATOM     20  C   UNL A   1      27.571  29.317  22.874  1.00  0.00     0.041 A 
ATOM     21  C   UNL A   1      28.177  30.442  22.331  1.00  0.00     0.123 A 
ATOM     22  F   UNL A   1      27.452  31.549  22.121  1.00  0.00    -0.207 F 
ENDBRANCH  14  16
ENDBRANCH  12  14
ENDBRANCH   8  12
ENDBRANCH   6   7
ENDBRANCH   4   6
ENDBRANCH   3   4
ENDBRANCH   2   3
ENDBRANCH   1   2
BRANCH   1  23
ATOM     23  O   UNL A   1      37.488  21.756  25.760  1.00  0.00    -0.374 OA
BRANCH  23  24
ATOM     24  C   UNL A   1      38.884  21.480  25.752  1.00  0.00     0.202 C 
BRANCH  24  25
ATOM     25  C   UNL A   1      39.348  20.039  25.595  1.00  0.00     0.261 C 
BRANCH  25  26
ATOM     26  O   UNL A   1      40.200  19.607  26.643  1.00  0.00    -0.460 OA
BRANCH  26  27
ATOM     27  C   UNL A   1      41.450  19.354  26.193  1.00  0.00     0.338 C 
ATOM     28  O   UNL A   1      41.872  18.302  25.749  1.00  0.00    -0.246 OA
BRANCH  27  29
ATOM     29  C   UNL A   1      42.327  20.476  26.514  1.00  0.00     0.060 A 
ATOM     30  C   UNL A   1      42.273  20.901  27.843  1.00  0.00     0.016 A 
ATOM     31  C   UNL A   1      42.822  21.280  25.478  1.00  0.00     0.016 A 
ATOM     32  C   UNL A   1      42.526  22.222  28.108  1.00  0.00     0.010 A 
ATOM     33  C   UNL A   1      43.040  22.613  25.737  1.00  0.00     0.010 A 
ATOM     34  C   UNL A   1      42.848  23.075  27.042  1.00  0.00    -0.014 A 
BRANCH  34  35
ATOM     35  C   UNL A   1      43.215  24.443  27.398  1.00  0.00     0.031 A 
ATOM     36  C   UNL A   1      41.907  25.252  27.561  1.00  0.00     0.074 A 
ATOM     37  C   UNL A   1      44.562  24.714  27.371  1.00  0.00     0.049 A 
ATOM     38  N   UNL A   1      41.672  26.493  27.289  1.00  0.00    -0.248 NA
ATOM     39  C   UNL A   1      40.637  24.567  27.971  1.00  0.00     0.031 C 
ATOM     40  C   UNL A   1      45.651  23.707  27.215  1.00  0.00     0.029 A 
ATOM     41  N   UNL A   1      45.308  25.868  27.455  1.00  0.00    -0.354 N 
ATOM     42  C   UNL A   1      40.345  26.784  27.680  1.00  0.00     0.074 A 
ATOM     43  C   UNL A   1      39.721  25.537  27.977  1.00  0.00     0.031 C 
ATOM     44  C   UNL A   1      46.867  24.301  27.118  1.00  0.00     0.029 A 
ATOM     45  C   UNL A   1      46.711  25.739  27.212  1.00  0.00     0.049 A 
ATOM     46  H   UNL A   1      44.897  26.735  27.671  1.00  0.00     0.167 HD
ATOM     47  C   UNL A   1      39.901  28.058  27.866  1.00  0.00     0.031 A 
ATOM     48  C   UNL A   1      47.641  26.738  27.046  1.00  0.00     0.031 A 
ATOM     49  C   UNL A   1      40.932  28.971  27.506  1.00  0.00     0.049 A 
ATOM     50  C   UNL A   1      46.881  27.969  27.314  1.00  0.00     0.074 A 
ATOM     51  C   UNL A   1      41.452  29.316  26.285  1.00  0.00     0.029 A 
ATOM     52  N   UNL A   1      41.836  29.276  28.497  1.00  0.00    -0.354 N 
ATOM     53  N   UNL A   1      46.474  28.354  28.485  1.00  0.00    -0.248 NA
ATOM     54  C   UNL A   1      46.437  28.778  26.171  1.00  0.00     0.031 C 
ATOM     55  C   UNL A   1      42.839  29.296  26.533  1.00  0.00     0.029 A 
ATOM     56  C   UNL A   1      43.076  29.253  27.913  1.00  0.00     0.049 A 
ATOM     57  H   UNL A   1      41.631  29.472  29.441  1.00  0.00     0.167 HD
ATOM     58  C   UNL A   1      45.436  29.190  28.168  1.00  0.00     0.074 A 
ATOM     59  C   UNL A   1      45.682  29.660  26.818  1.00  0.00     0.031 C 
ATOM     60  C   UNL A   1      44.223  29.019  28.755  1.00  0.00     0.031 A 
BRANCH  47  61
ATOM     61  C   UNL A   1      38.713  28.622  28.589  1.00  0.00    -0.014 A 
ATOM     62  C   UNL A   1      38.035  29.686  27.939  1.00  0.00     0.010 A 
ATOM     63  C   UNL A   1      38.471  28.431  29.956  1.00  0.00     0.010 A 
ATOM     64  C   UNL A   1      37.285  30.619  28.649  1.00  0.00     0.020 A 
ATOM     65  C   UNL A   1      37.675  29.344  30.670  1.00  0.00     0.020 A 
ATOM     66  C   UNL A   1      37.137  30.461  30.022  1.00  0.00     0.054 A 
BRANCH  66  67
ATOM     67  S   UNL A   1      36.295  31.779  30.937  1.00  0.00     0.124 S 
ATOM     68  O   UNL A   1      36.239  31.228  32.288  1.00  0.00    -0.237 OA
ATOM     69  O   UNL A   1      37.204  32.911  30.760  1.00  0.00    -0.237 OA
ATOM     70  O   UNL A   1      35.012  31.907  30.251  1.00  0.00    -0.744 OA
ENDBRANCH  66  67
ENDBRANCH  47  61
BRANCH  48  71
ATOM     71  C   UNL A   1      49.073  26.972  26.575  1.00  0.00    -0.014 A 
ATOM     72  C   UNL A   1      49.997  27.909  27.054  1.00  0.00     0.010 A 
ATOM     73  C   UNL A   1      49.593  26.077  25.588  1.00  0.00     0.010 A 
ATOM     74  C   UNL A   1      51.374  27.839  26.684  1.00  0.00     0.020 A 
ATOM     75  C   UNL A   1      50.945  25.957  25.259  1.00  0.00     0.020 A 
ATOM     76  C   UNL A   1      51.847  26.826  25.836  1.00  0.00     0.054 A 
BRANCH  76  77
ATOM     77  S   UNL A   1      53.626  26.535  25.587  1.00  0.00     0.124 S 
ATOM     78  O   UNL A   1      53.639  25.415  24.652  1.00  0.00    -0.237 OA
ATOM     79  O   UNL A   1      54.088  27.814  25.051  1.00  0.00    -0.237 OA
ATOM     80  O   UNL A   1      54.116  26.228  26.931  1.00  0.00    -0.744 OA
ENDBRANCH  76  77
ENDBRANCH  48  71
BRANCH  60  81
ATOM     81  C   UNL A   1      44.217  28.275  30.089  1.00  0.00    -0.014 A 
ATOM     82  C   UNL A   1      44.124  26.873  30.092  1.00  0.00     0.010 A 
ATOM     83  C   UNL A   1      44.227  28.914  31.348  1.00  0.00     0.010 A 
ATOM     84  C   UNL A   1      44.053  26.137  31.286  1.00  0.00     0.020 A 
ATOM     85  C   UNL A   1      44.147  28.188  32.555  1.00  0.00     0.020 A 
ATOM     86  C   UNL A   1      44.069  26.797  32.515  1.00  0.00     0.054 A 
BRANCH  86  87
ATOM     87  S   UNL A   1      44.000  25.806  34.040  1.00  0.00     0.124 S 
ATOM     88  O   UNL A   1      45.400  25.744  34.452  1.00  0.00    -0.237 OA
ATOM     89  O   UNL A   1      43.132  26.610  34.898  1.00  0.00    -0.237 OA
ATOM     90  O   UNL A   1      43.431  24.531  33.607  1.00  0.00    -0.744 OA
ENDBRANCH  86  87
ENDBRANCH  60  81
ENDBRANCH  34  35
ENDBRANCH  27  29
ENDBRANCH  26  27
ENDBRANCH  25  26
ENDBRANCH  24  25
ENDBRANCH  23  24
ENDBRANCH   1  23
TORSDOF 21
ENDMDL
