MODEL 1
REMARK VINA RESULT:     -10.3      0.000      0.000
REMARK SMILES COc1cc2c(cc1OC)[C@@H](CC(=O)OCCOCCOC(=O)c1ccc(-c3c4nc(c(-c5ccc(S(=O)(=O)[O-])cc5)c5ccc([nH]5)c(-c5ccc(S(=O)(=O)[O-])cc5)c5nc(c(-c6ccc(S(=O)(=O)[O-])cc6)c6ccc3[nH]6)C=C5)C=C4)cc1)N(C(=O)Nc1ccc(Cl)cc1)CC2
REMARK SMILES IDX 18 1 17 2 16 3 15 4 13 5 14 6 12 7 11 8 3 9 4 10 8 11 5 12
REMARK SMILES IDX 7 13 6 14 96 15 95 16 84 17 2 18 1 19 9 20 10 21 85 22 86 23
REMARK SMILES IDX 87 24 88 26 89 27 94 28 90 29 93 30 91 31 92 32 19 33 20 34
REMARK SMILES IDX 21 35 22 36 23 37 24 38 25 39 83 40 26 41 82 42 27 43 28 44
REMARK SMILES IDX 29 45 76 46 30 47 81 48 75 49 77 50 31 51 80 52 74 53 73 54
REMARK SMILES IDX 32 56 62 57 43 58 61 59 44 60 47 61 60 62 78 63 45 64 46 65
REMARK SMILES IDX 59 67 79 68 48 69 33 70 34 71 42 72 35 73 41 74 36 75 37 76
REMARK SMILES IDX 38 77 39 78 40 79 63 80 64 81 72 82 65 83 71 84 66 85 67 86
REMARK SMILES IDX 68 87 69 88 70 89 49 90 50 91 58 92 51 93 57 94 52 95 53 96
REMARK SMILES IDX 54 97 55 98 56 99
REMARK H PARENT 87 25 77 55 47 66
REMARK Flexibility Score: inf
ROOT
ATOM      1  O   UNL A   1      39.560  21.853  26.779  1.00  0.00    -0.374 OA
ENDROOT
BRANCH   1   2
ATOM      2  C   UNL A   1      38.732  21.687  25.625  1.00  0.00     0.202 C 
BRANCH   2   3
ATOM      3  C   UNL A   1      37.594  22.694  25.527  1.00  0.00     0.261 C 
BRANCH   3   4
ATOM      4  O   UNL A   1      36.651  22.225  24.550  1.00  0.00    -0.463 OA
BRANCH   4   5
ATOM      5  C   UNL A   1      36.112  23.162  23.749  1.00  0.00     0.308 C 
ATOM      6  O   UNL A   1      36.348  23.266  22.546  1.00  0.00    -0.252 OA
BRANCH   5   7
ATOM      7  C   UNL A   1      35.136  24.102  24.423  1.00  0.00     0.152 C 
BRANCH   7   8
ATOM      8  C   UNL A   1      33.629  23.777  24.590  1.00  0.00     0.128 C 
ATOM      9  C   UNL A   1      31.065  27.295  23.862  1.00  0.00     0.161 A 
ATOM     10  C   UNL A   1      30.537  26.102  24.347  1.00  0.00     0.054 A 
ATOM     11  C   UNL A   1      32.422  27.376  23.526  1.00  0.00     0.161 A 
ATOM     12  C   UNL A   1      31.364  24.986  24.530  1.00  0.00    -0.037 A 
ATOM     13  C   UNL A   1      33.236  26.244  23.711  1.00  0.00     0.056 A 
ATOM     14  C   UNL A   1      32.742  25.032  24.236  1.00  0.00    -0.018 A 
ATOM     15  C   UNL A   1      30.852  23.783  25.262  1.00  0.00     0.057 C 
ATOM     16  C   UNL A   1      31.853  23.593  26.393  1.00  0.00     0.127 C 
ATOM     17  N   UNL A   1      33.172  23.156  25.906  1.00  0.00    -0.317 N 
BRANCH   9  18
ATOM     18  O   UNL A   1      30.219  28.374  23.899  1.00  0.00    -0.493 OA
ATOM     19  C   UNL A   1      29.124  28.249  23.001  1.00  0.00     0.278 C 
ENDBRANCH   9  18
BRANCH  11  20
ATOM     20  O   UNL A   1      32.890  28.591  23.098  1.00  0.00    -0.493 OA
ATOM     21  C   UNL A   1      34.280  28.697  22.812  1.00  0.00     0.278 C 
ENDBRANCH  11  20
BRANCH  17  22
ATOM     22  C   UNL A   1      34.035  22.434  26.684  1.00  0.00     0.322 C 
ATOM     23  O   UNL A   1      34.507  22.895  27.729  1.00  0.00    -0.248 OA
ATOM     24  N   UNL A   1      34.359  21.139  26.496  1.00  0.00    -0.308 N 
ATOM     25  H   UNL A   1      34.997  20.829  27.179  1.00  0.00     0.171 HD
BRANCH  24  26
ATOM     26  C   UNL A   1      34.043  20.117  25.603  1.00  0.00     0.042 A 
ATOM     27  C   UNL A   1      35.152  19.460  25.056  1.00  0.00     0.028 A 
ATOM     28  C   UNL A   1      32.757  19.681  25.285  1.00  0.00     0.028 A 
ATOM     29  C   UNL A   1      34.989  18.284  24.332  1.00  0.00     0.022 A 
ATOM     30  C   UNL A   1      32.590  18.511  24.531  1.00  0.00     0.022 A 
ATOM     31  C   UNL A   1      33.708  17.800  24.091  1.00  0.00     0.041 A 
ATOM     32  Cl  UNL A   1      33.509  16.293  23.289  1.00  0.00    -0.084 Cl
ENDBRANCH  24  26
ENDBRANCH  17  22
ENDBRANCH   7   8
ENDBRANCH   5   7
ENDBRANCH   4   5
ENDBRANCH   3   4
ENDBRANCH   2   3
ENDBRANCH   1   2
BRANCH   1  33
ATOM     33  C   UNL A   1      40.864  22.392  26.560  1.00  0.00     0.202 C 
BRANCH  33  34
ATOM     34  C   UNL A   1      40.904  23.857  26.114  1.00  0.00     0.261 C 
BRANCH  34  35
ATOM     35  O   UNL A   1      42.198  24.459  26.298  1.00  0.00    -0.460 OA
BRANCH  35  36
ATOM     36  C   UNL A   1      42.240  25.794  26.076  1.00  0.00     0.338 C 
ATOM     37  O   UNL A   1      42.104  26.368  24.999  1.00  0.00    -0.246 OA
BRANCH  36  38
ATOM     38  C   UNL A   1      42.321  26.521  27.356  1.00  0.00     0.060 A 
ATOM     39  C   UNL A   1      41.749  25.934  28.491  1.00  0.00     0.016 A 
ATOM     40  C   UNL A   1      42.884  27.795  27.430  1.00  0.00     0.016 A 
ATOM     41  C   UNL A   1      41.693  26.641  29.692  1.00  0.00     0.010 A 
ATOM     42  C   UNL A   1      42.839  28.497  28.640  1.00  0.00     0.010 A 
ATOM     43  C   UNL A   1      42.204  27.943  29.766  1.00  0.00    -0.014 A 
BRANCH  43  44
ATOM     44  C   UNL A   1      41.906  28.798  30.945  1.00  0.00     0.031 A 
ATOM     45  C   UNL A   1      40.695  29.697  30.894  1.00  0.00     0.074 A 
ATOM     46  C   UNL A   1      42.669  28.763  32.053  1.00  0.00     0.049 A 
ATOM     47  N   UNL A   1      40.261  30.556  31.780  1.00  0.00    -0.248 NA
ATOM     48  C   UNL A   1      39.870  29.625  29.676  1.00  0.00     0.031 C 
ATOM     49  C   UNL A   1      43.849  27.920  32.248  1.00  0.00     0.029 A 
ATOM     50  N   UNL A   1      42.557  29.458  33.233  1.00  0.00    -0.354 N 
ATOM     51  C   UNL A   1      39.131  31.141  31.216  1.00  0.00     0.074 A 
ATOM     52  C   UNL A   1      38.970  30.569  29.899  1.00  0.00     0.031 C 
ATOM     53  C   UNL A   1      44.343  28.139  33.480  1.00  0.00     0.029 A 
ATOM     54  C   UNL A   1      43.537  29.159  34.149  1.00  0.00     0.049 A 
ATOM     55  H   UNL A   1      41.840  30.111  33.406  1.00  0.00     0.167 HD
ATOM     56  C   UNL A   1      38.290  32.059  31.749  1.00  0.00     0.031 A 
ATOM     57  C   UNL A   1      43.762  29.655  35.382  1.00  0.00     0.031 A 
ATOM     58  C   UNL A   1      38.430  32.613  33.067  1.00  0.00     0.049 A 
ATOM     59  C   UNL A   1      42.831  30.701  35.944  1.00  0.00     0.074 A 
ATOM     60  C   UNL A   1      37.617  33.533  33.705  1.00  0.00     0.029 A 
ATOM     61  N   UNL A   1      39.446  32.292  33.955  1.00  0.00    -0.354 N 
ATOM     62  N   UNL A   1      41.761  31.231  35.401  1.00  0.00    -0.248 NA
ATOM     63  C   UNL A   1      43.134  31.207  37.290  1.00  0.00     0.031 C 
ATOM     64  C   UNL A   1      38.163  33.798  34.964  1.00  0.00     0.029 A 
ATOM     65  C   UNL A   1      39.287  33.005  35.130  1.00  0.00     0.049 A 
ATOM     66  H   UNL A   1      40.173  31.653  33.775  1.00  0.00     0.167 HD
ATOM     67  C   UNL A   1      41.248  32.109  36.351  1.00  0.00     0.074 A 
ATOM     68  C   UNL A   1      42.117  32.030  37.506  1.00  0.00     0.031 C 
ATOM     69  C   UNL A   1      40.154  32.906  36.276  1.00  0.00     0.031 A 
BRANCH  56  70
ATOM     70  C   UNL A   1      37.145  32.528  30.892  1.00  0.00    -0.014 A 
ATOM     71  C   UNL A   1      35.870  31.947  31.001  1.00  0.00     0.010 A 
ATOM     72  C   UNL A   1      37.343  33.584  29.984  1.00  0.00     0.010 A 
ATOM     73  C   UNL A   1      34.822  32.384  30.187  1.00  0.00     0.020 A 
ATOM     74  C   UNL A   1      36.291  34.042  29.187  1.00  0.00     0.020 A 
ATOM     75  C   UNL A   1      35.041  33.427  29.282  1.00  0.00     0.054 A 
BRANCH  75  76
ATOM     76  S   UNL A   1      33.659  33.989  28.250  1.00  0.00     0.124 S 
ATOM     77  O   UNL A   1      33.173  32.731  27.689  1.00  0.00    -0.237 OA
ATOM     78  O   UNL A   1      32.772  34.627  29.220  1.00  0.00    -0.237 OA
ATOM     79  O   UNL A   1      34.287  34.896  27.294  1.00  0.00    -0.744 OA
ENDBRANCH  75  76
ENDBRANCH  56  70
BRANCH  57  80
ATOM     80  C   UNL A   1      44.924  29.178  36.182  1.00  0.00    -0.014 A 
ATOM     81  C   UNL A   1      46.180  29.799  36.063  1.00  0.00     0.010 A 
ATOM     82  C   UNL A   1      44.785  28.080  37.051  1.00  0.00     0.010 A 
ATOM     83  C   UNL A   1      47.280  29.317  36.779  1.00  0.00     0.020 A 
ATOM     84  C   UNL A   1      45.876  27.612  37.789  1.00  0.00     0.020 A 
ATOM     85  C   UNL A   1      47.121  28.226  37.637  1.00  0.00     0.054 A 
BRANCH  85  86
ATOM     86  S   UNL A   1      48.552  27.638  38.586  1.00  0.00     0.124 S 
ATOM     87  O   UNL A   1      48.016  26.448  39.237  1.00  0.00    -0.237 OA
ATOM     88  O   UNL A   1      49.546  27.399  37.543  1.00  0.00    -0.237 OA
ATOM     89  O   UNL A   1      48.852  28.758  39.476  1.00  0.00    -0.744 OA
ENDBRANCH  85  86
ENDBRANCH  57  80
BRANCH  69  90
ATOM     90  C   UNL A   1      39.799  33.724  37.488  1.00  0.00    -0.014 A 
ATOM     91  C   UNL A   1      39.055  33.177  38.548  1.00  0.00     0.010 A 
ATOM     92  C   UNL A   1      40.278  35.043  37.596  1.00  0.00     0.010 A 
ATOM     93  C   UNL A   1      38.773  33.944  39.682  1.00  0.00     0.020 A 
ATOM     94  C   UNL A   1      40.019  35.805  38.737  1.00  0.00     0.020 A 
ATOM     95  C   UNL A   1      39.255  35.254  39.769  1.00  0.00     0.054 A 
BRANCH  95  96
ATOM     96  S   UNL A   1      38.917  36.214  41.271  1.00  0.00     0.124 S 
ATOM     97  O   UNL A   1      38.638  37.539  40.727  1.00  0.00    -0.237 OA
ATOM     98  O   UNL A   1      37.770  35.516  41.848  1.00  0.00    -0.237 OA
ATOM     99  O   UNL A   1      40.156  36.103  42.038  1.00  0.00    -0.744 OA
ENDBRANCH  95  96
ENDBRANCH  69  90
ENDBRANCH  43  44
ENDBRANCH  36  38
ENDBRANCH  35  36
ENDBRANCH  34  35
ENDBRANCH  33  34
ENDBRANCH   1  33
TORSDOF 22
ENDMDL
MODEL 2
REMARK VINA RESULT:      -9.6      1.382      7.923
REMARK SMILES COc1cc2c(cc1OC)[C@@H](CC(=O)OCCOCCOC(=O)c1ccc(-c3c4nc(c(-c5ccc(S(=O)(=O)[O-])cc5)c5ccc([nH]5)c(-c5ccc(S(=O)(=O)[O-])cc5)c5nc(c(-c6ccc(S(=O)(=O)[O-])cc6)c6ccc3[nH]6)C=C5)C=C4)cc1)N(C(=O)Nc1ccc(Cl)cc1)CC2
REMARK SMILES IDX 18 1 17 2 16 3 15 4 13 5 14 6 12 7 11 8 3 9 4 10 8 11 5 12
REMARK SMILES IDX 7 13 6 14 96 15 95 16 84 17 2 18 1 19 9 20 10 21 85 22 86 23
REMARK SMILES IDX 87 24 88 26 89 27 94 28 90 29 93 30 91 31 92 32 19 33 20 34
REMARK SMILES IDX 21 35 22 36 23 37 24 38 25 39 83 40 26 41 82 42 27 43 28 44
REMARK SMILES IDX 29 45 76 46 30 47 81 48 75 49 77 50 31 51 80 52 74 53 73 54
REMARK SMILES IDX 32 56 62 57 43 58 61 59 44 60 47 61 60 62 78 63 45 64 46 65
REMARK SMILES IDX 59 67 79 68 48 69 33 70 34 71 42 72 35 73 41 74 36 75 37 76
REMARK SMILES IDX 38 77 39 78 40 79 63 80 64 81 72 82 65 83 71 84 66 85 67 86
REMARK SMILES IDX 68 87 69 88 70 89 49 90 50 91 58 92 51 93 57 94 52 95 53 96
REMARK SMILES IDX 54 97 55 98 56 99
REMARK H PARENT 87 25 77 55 47 66
REMARK Flexibility Score: inf
ROOT
ATOM      1  O   UNL A   1      39.856  21.175  26.732  1.00  0.00    -0.374 OA
ENDROOT
BRANCH   1   2
ATOM      2  C   UNL A   1      38.878  21.521  25.747  1.00  0.00     0.202 C 
BRANCH   2   3
ATOM      3  C   UNL A   1      38.020  22.723  26.119  1.00  0.00     0.261 C 
BRANCH   3   4
ATOM      4  O   UNL A   1      36.656  22.436  25.774  1.00  0.00    -0.463 OA
BRANCH   4   5
ATOM      5  C   UNL A   1      36.125  23.178  24.786  1.00  0.00     0.308 C 
ATOM      6  O   UNL A   1      36.476  23.118  23.608  1.00  0.00    -0.252 OA
BRANCH   5   7
ATOM      7  C   UNL A   1      35.007  24.108  25.207  1.00  0.00     0.152 C 
BRANCH   7   8
ATOM      8  C   UNL A   1      33.510  23.798  24.949  1.00  0.00     0.128 C 
ATOM      9  C   UNL A   1      31.192  27.426  23.978  1.00  0.00     0.161 A 
ATOM     10  C   UNL A   1      30.566  26.200  24.181  1.00  0.00     0.054 A 
ATOM     11  C   UNL A   1      32.589  27.514  24.009  1.00  0.00     0.161 A 
ATOM     12  C   UNL A   1      31.326  25.054  24.446  1.00  0.00    -0.037 A 
ATOM     13  C   UNL A   1      33.336  26.352  24.271  1.00  0.00     0.056 A 
ATOM     14  C   UNL A   1      32.734  25.102  24.520  1.00  0.00    -0.018 A 
ATOM     15  C   UNL A   1      30.653  23.791  24.890  1.00  0.00     0.057 C 
ATOM     16  C   UNL A   1      31.334  23.461  26.211  1.00  0.00     0.127 C 
ATOM     17  N   UNL A   1      32.736  23.051  26.031  1.00  0.00    -0.317 N 
BRANCH   9  18
ATOM     18  O   UNL A   1      30.357  28.513  23.915  1.00  0.00    -0.493 OA
ATOM     19  C   UNL A   1      29.786  28.698  22.627  1.00  0.00     0.278 C 
ENDBRANCH   9  18
BRANCH  11  20
ATOM     20  O   UNL A   1      33.142  28.757  23.848  1.00  0.00    -0.493 OA
ATOM     21  C   UNL A   1      34.018  28.950  22.743  1.00  0.00     0.278 C 
ENDBRANCH  11  20
BRANCH  17  22
ATOM     22  C   UNL A   1      33.378  22.232  26.921  1.00  0.00     0.322 C 
ATOM     23  O   UNL A   1      33.556  22.566  28.097  1.00  0.00    -0.248 OA
ATOM     24  N   UNL A   1      33.757  20.962  26.678  1.00  0.00    -0.308 N 
ATOM     25  H   UNL A   1      34.199  20.567  27.464  1.00  0.00     0.171 HD
BRANCH  24  26
ATOM     26  C   UNL A   1      33.698  20.050  25.625  1.00  0.00     0.042 A 
ATOM     27  C   UNL A   1      34.945  19.630  25.149  1.00  0.00     0.028 A 
ATOM     28  C   UNL A   1      32.533  19.505  25.084  1.00  0.00     0.028 A 
ATOM     29  C   UNL A   1      35.039  18.563  24.263  1.00  0.00     0.022 A 
ATOM     30  C   UNL A   1      32.626  18.448  24.168  1.00  0.00     0.022 A 
ATOM     31  C   UNL A   1      33.878  17.960  23.792  1.00  0.00     0.041 A 
ATOM     32  Cl  UNL A   1      33.994  16.576  22.780  1.00  0.00    -0.084 Cl
ENDBRANCH  24  26
ENDBRANCH  17  22
ENDBRANCH   7   8
ENDBRANCH   5   7
ENDBRANCH   4   5
ENDBRANCH   3   4
ENDBRANCH   2   3
ENDBRANCH   1   2
BRANCH   1  33
ATOM     33  C   UNL A   1      41.187  20.960  26.265  1.00  0.00     0.202 C 
BRANCH  33  34
ATOM     34  C   UNL A   1      41.949  22.220  25.845  1.00  0.00     0.261 C 
BRANCH  34  35
ATOM     35  O   UNL A   1      43.143  22.433  26.620  1.00  0.00    -0.460 OA
BRANCH  35  36
ATOM     36  C   UNL A   1      43.827  23.560  26.313  1.00  0.00     0.338 C 
ATOM     37  O   UNL A   1      44.306  23.858  25.222  1.00  0.00    -0.246 OA
BRANCH  36  38
ATOM     38  C   UNL A   1      43.800  24.498  27.449  1.00  0.00     0.060 A 
ATOM     39  C   UNL A   1      43.293  24.045  28.674  1.00  0.00     0.016 A 
ATOM     40  C   UNL A   1      44.196  25.827  27.300  1.00  0.00     0.016 A 
ATOM     41  C   UNL A   1      43.133  24.933  29.737  1.00  0.00     0.010 A 
ATOM     42  C   UNL A   1      44.048  26.713  28.373  1.00  0.00     0.010 A 
ATOM     43  C   UNL A   1      43.475  26.283  29.583  1.00  0.00    -0.014 A 
BRANCH  43  44
ATOM     44  C   UNL A   1      43.057  27.281  30.603  1.00  0.00     0.031 A 
ATOM     45  C   UNL A   1      43.896  27.433  31.848  1.00  0.00     0.074 A 
ATOM     46  C   UNL A   1      41.975  28.062  30.424  1.00  0.00     0.049 A 
ATOM     47  N   UNL A   1      43.707  28.203  32.888  1.00  0.00    -0.248 NA
ATOM     48  C   UNL A   1      45.103  26.593  31.936  1.00  0.00     0.031 C 
ATOM     49  C   UNL A   1      41.094  28.041  29.257  1.00  0.00     0.029 A 
ATOM     50  N   UNL A   1      41.436  29.034  31.232  1.00  0.00    -0.354 N 
ATOM     51  C   UNL A   1      44.754  27.924  33.759  1.00  0.00     0.074 A 
ATOM     52  C   UNL A   1      45.552  26.886  33.146  1.00  0.00     0.031 C 
ATOM     53  C   UNL A   1      40.132  28.968  29.419  1.00  0.00     0.029 A 
ATOM     54  C   UNL A   1      40.309  29.625  30.713  1.00  0.00     0.049 A 
ATOM     55  H   UNL A   1      41.823  29.285  32.102  1.00  0.00     0.167 HD
ATOM     56  C   UNL A   1      45.042  28.489  34.956  1.00  0.00     0.031 A 
ATOM     57  C   UNL A   1      39.508  30.580  31.225  1.00  0.00     0.031 A 
ATOM     58  C   UNL A   1      44.267  29.538  35.560  1.00  0.00     0.049 A 
ATOM     59  C   UNL A   1      39.828  31.174  32.575  1.00  0.00     0.074 A 
ATOM     60  C   UNL A   1      44.490  30.190  36.760  1.00  0.00     0.029 A 
ATOM     61  N   UNL A   1      43.125  30.095  35.006  1.00  0.00    -0.354 N 
ATOM     62  N   UNL A   1      40.830  30.905  33.378  1.00  0.00    -0.248 NA
ATOM     63  C   UNL A   1      38.913  32.206  33.082  1.00  0.00     0.031 C 
ATOM     64  C   UNL A   1      43.460  31.115  36.951  1.00  0.00     0.029 A 
ATOM     65  C   UNL A   1      42.625  31.075  35.846  1.00  0.00     0.049 A 
ATOM     66  H   UNL A   1      42.728  29.831  34.145  1.00  0.00     0.167 HD
ATOM     67  C   UNL A   1      40.683  31.757  34.468  1.00  0.00     0.074 A 
ATOM     68  C   UNL A   1      39.502  32.556  34.217  1.00  0.00     0.031 C 
ATOM     69  C   UNL A   1      41.455  31.871  35.576  1.00  0.00     0.031 A 
BRANCH  56  70
ATOM     70  C   UNL A   1      46.245  27.969  35.695  1.00  0.00    -0.014 A 
ATOM     71  C   UNL A   1      46.138  26.891  36.592  1.00  0.00     0.010 A 
ATOM     72  C   UNL A   1      47.506  28.551  35.469  1.00  0.00     0.010 A 
ATOM     73  C   UNL A   1      47.263  26.431  37.281  1.00  0.00     0.020 A 
ATOM     74  C   UNL A   1      48.638  28.076  36.137  1.00  0.00     0.020 A 
ATOM     75  C   UNL A   1      48.505  27.030  37.052  1.00  0.00     0.054 A 
BRANCH  75  76
ATOM     76  S   UNL A   1      49.952  26.402  37.946  1.00  0.00     0.124 S 
ATOM     77  O   UNL A   1      50.650  27.637  38.294  1.00  0.00    -0.237 OA
ATOM     78  O   UNL A   1      49.352  25.684  39.068  1.00  0.00    -0.237 OA
ATOM     79  O   UNL A   1      50.629  25.560  36.963  1.00  0.00    -0.744 OA
ENDBRANCH  75  76
ENDBRANCH  56  70
BRANCH  57  80
ATOM     80  C   UNL A   1      38.313  31.043  30.467  1.00  0.00    -0.014 A 
ATOM     81  C   UNL A   1      37.113  30.309  30.501  1.00  0.00     0.010 A 
ATOM     82  C   UNL A   1      38.377  32.210  29.685  1.00  0.00     0.010 A 
ATOM     83  C   UNL A   1      36.009  30.722  29.749  1.00  0.00     0.020 A 
ATOM     84  C   UNL A   1      37.266  32.641  28.952  1.00  0.00     0.020 A 
ATOM     85  C   UNL A   1      36.093  31.884  28.978  1.00  0.00     0.054 A 
BRANCH  85  86
ATOM     86  S   UNL A   1      34.637  32.423  28.038  1.00  0.00     0.124 S 
ATOM     87  O   UNL A   1      34.335  31.238  27.242  1.00  0.00    -0.237 OA
ATOM     88  O   UNL A   1      33.679  32.740  29.094  1.00  0.00    -0.237 OA
ATOM     89  O   UNL A   1      35.127  33.576  27.286  1.00  0.00    -0.744 OA
ENDBRANCH  85  86
ENDBRANCH  57  80
BRANCH  69  90
ATOM     90  C   UNL A   1      41.085  32.925  36.584  1.00  0.00    -0.014 A 
ATOM     91  C   UNL A   1      41.533  34.251  36.454  1.00  0.00     0.010 A 
ATOM     92  C   UNL A   1      40.217  32.595  37.641  1.00  0.00     0.010 A 
ATOM     93  C   UNL A   1      41.142  35.222  37.380  1.00  0.00     0.020 A 
ATOM     94  C   UNL A   1      39.804  33.568  38.555  1.00  0.00     0.020 A 
ATOM     95  C   UNL A   1      40.281  34.874  38.426  1.00  0.00     0.054 A 
BRANCH  95  96
ATOM     96  S   UNL A   1      39.750  36.163  39.588  1.00  0.00     0.124 S 
ATOM     97  O   UNL A   1      39.279  37.209  38.685  1.00  0.00    -0.237 OA
ATOM     98  O   UNL A   1      38.714  35.488  40.365  1.00  0.00    -0.237 OA
ATOM     99  O   UNL A   1      40.968  36.482  40.330  1.00  0.00    -0.744 OA
ENDBRANCH  95  96
ENDBRANCH  69  90
ENDBRANCH  43  44
ENDBRANCH  36  38
ENDBRANCH  35  36
ENDBRANCH  34  35
ENDBRANCH  33  34
ENDBRANCH   1  33
TORSDOF 22
ENDMDL
MODEL 3
REMARK VINA RESULT:      -9.0      5.884      9.550
REMARK SMILES COc1cc2c(cc1OC)[C@@H](CC(=O)OCCOCCOC(=O)c1ccc(-c3c4nc(c(-c5ccc(S(=O)(=O)[O-])cc5)c5ccc([nH]5)c(-c5ccc(S(=O)(=O)[O-])cc5)c5nc(c(-c6ccc(S(=O)(=O)[O-])cc6)c6ccc3[nH]6)C=C5)C=C4)cc1)N(C(=O)Nc1ccc(Cl)cc1)CC2
REMARK SMILES IDX 18 1 17 2 16 3 15 4 13 5 14 6 12 7 11 8 3 9 4 10 8 11 5 12
REMARK SMILES IDX 7 13 6 14 96 15 95 16 84 17 2 18 1 19 9 20 10 21 85 22 86 23
REMARK SMILES IDX 87 24 88 26 89 27 94 28 90 29 93 30 91 31 92 32 19 33 20 34
REMARK SMILES IDX 21 35 22 36 23 37 24 38 25 39 83 40 26 41 82 42 27 43 28 44
REMARK SMILES IDX 29 45 76 46 30 47 81 48 75 49 77 50 31 51 80 52 74 53 73 54
REMARK SMILES IDX 32 56 62 57 43 58 61 59 44 60 47 61 60 62 78 63 45 64 46 65
REMARK SMILES IDX 59 67 79 68 48 69 33 70 34 71 42 72 35 73 41 74 36 75 37 76
REMARK SMILES IDX 38 77 39 78 40 79 63 80 64 81 72 82 65 83 71 84 66 85 67 86
REMARK SMILES IDX 68 87 69 88 70 89 49 90 50 91 58 92 51 93 57 94 52 95 53 96
REMARK SMILES IDX 54 97 55 98 56 99
REMARK H PARENT 87 25 77 55 47 66
REMARK Flexibility Score: inf
ROOT
ATOM      1  O   UNL A   1      36.623  30.382  27.815  1.00  0.00    -0.374 OA
ENDROOT
BRANCH   1   2
ATOM      2  C   UNL A   1      35.342  30.774  28.316  1.00  0.00     0.202 C 
BRANCH   2   3
ATOM      3  C   UNL A   1      34.183  30.444  27.386  1.00  0.00     0.261 C 
BRANCH   3   4
ATOM      4  O   UNL A   1      34.275  29.060  27.012  1.00  0.00    -0.463 OA
BRANCH   4   5
ATOM      5  C   UNL A   1      33.664  28.714  25.864  1.00  0.00     0.308 C 
ATOM      6  O   UNL A   1      32.695  29.303  25.388  1.00  0.00    -0.252 OA
BRANCH   5   7
ATOM      7  C   UNL A   1      34.274  27.533  25.140  1.00  0.00     0.152 C 
BRANCH   7   8
ATOM      8  C   UNL A   1      33.429  26.502  24.347  1.00  0.00     0.128 C 
ATOM      9  C   UNL A   1      35.009  22.398  24.725  1.00  0.00     0.161 A 
ATOM     10  C   UNL A   1      33.972  22.696  23.847  1.00  0.00     0.054 A 
ATOM     11  C   UNL A   1      35.525  23.392  25.564  1.00  0.00     0.161 A 
ATOM     12  C   UNL A   1      33.459  23.998  23.775  1.00  0.00    -0.037 A 
ATOM     13  C   UNL A   1      34.995  24.692  25.483  1.00  0.00     0.056 A 
ATOM     14  C   UNL A   1      33.971  25.038  24.577  1.00  0.00    -0.018 A 
ATOM     15  C   UNL A   1      32.510  24.373  22.677  1.00  0.00     0.057 C 
ATOM     16  C   UNL A   1      33.184  25.559  22.004  1.00  0.00     0.127 C 
ATOM     17  N   UNL A   1      33.200  26.756  22.860  1.00  0.00    -0.317 N 
BRANCH   9  18
ATOM     18  O   UNL A   1      35.562  21.151  24.584  1.00  0.00    -0.493 OA
ATOM     19  C   UNL A   1      34.633  20.102  24.823  1.00  0.00     0.278 C 
ENDBRANCH   9  18
BRANCH  11  20
ATOM     20  O   UNL A   1      36.576  23.047  26.373  1.00  0.00    -0.493 OA
ATOM     21  C   UNL A   1      37.828  23.678  26.133  1.00  0.00     0.278 C 
ENDBRANCH  11  20
BRANCH  17  22
ATOM     22  C   UNL A   1      33.246  28.023  22.345  1.00  0.00     0.322 C 
ATOM     23  O   UNL A   1      34.297  28.509  21.913  1.00  0.00    -0.248 OA
ATOM     24  N   UNL A   1      32.179  28.815  22.123  1.00  0.00    -0.308 N 
ATOM     25  H   UNL A   1      32.452  29.682  21.746  1.00  0.00     0.171 HD
BRANCH  24  26
ATOM     26  C   UNL A   1      30.795  28.749  22.280  1.00  0.00     0.042 A 
ATOM     27  C   UNL A   1      30.334  27.574  22.886  1.00  0.00     0.028 A 
ATOM     28  C   UNL A   1      29.888  29.757  21.950  1.00  0.00     0.028 A 
ATOM     29  C   UNL A   1      29.013  27.469  23.307  1.00  0.00     0.022 A 
ATOM     30  C   UNL A   1      28.550  29.640  22.349  1.00  0.00     0.022 A 
ATOM     31  C   UNL A   1      28.130  28.513  23.058  1.00  0.00     0.041 A 
ATOM     32  Cl  UNL A   1      26.526  28.430  23.669  1.00  0.00    -0.084 Cl
ENDBRANCH  24  26
ENDBRANCH  17  22
ENDBRANCH   7   8
ENDBRANCH   5   7
ENDBRANCH   4   5
ENDBRANCH   3   4
ENDBRANCH   2   3
ENDBRANCH   1   2
BRANCH   1  33
ATOM     33  C   UNL A   1      37.414  29.549  28.662  1.00  0.00     0.202 C 
BRANCH  33  34
ATOM     34  C   UNL A   1      36.859  29.327  30.072  1.00  0.00     0.261 C 
BRANCH  34  35
ATOM     35  O   UNL A   1      37.807  28.694  30.950  1.00  0.00    -0.460 OA
BRANCH  35  36
ATOM     36  C   UNL A   1      37.777  29.134  32.230  1.00  0.00     0.338 C 
ATOM     37  O   UNL A   1      37.232  28.588  33.185  1.00  0.00    -0.246 OA
BRANCH  36  38
ATOM     38  C   UNL A   1      38.640  30.320  32.382  1.00  0.00     0.060 A 
ATOM     39  C   UNL A   1      39.995  30.122  32.675  1.00  0.00     0.016 A 
ATOM     40  C   UNL A   1      38.115  31.610  32.313  1.00  0.00     0.016 A 
ATOM     41  C   UNL A   1      40.818  31.214  32.951  1.00  0.00     0.010 A 
ATOM     42  C   UNL A   1      38.947  32.704  32.576  1.00  0.00     0.010 A 
ATOM     43  C   UNL A   1      40.292  32.512  32.940  1.00  0.00    -0.014 A 
BRANCH  43  44
ATOM     44  C   UNL A   1      41.080  33.643  33.494  1.00  0.00     0.031 A 
ATOM     45  C   UNL A   1      40.916  33.987  34.955  1.00  0.00     0.074 A 
ATOM     46  C   UNL A   1      41.948  34.338  32.736  1.00  0.00     0.049 A 
ATOM     47  N   UNL A   1      41.463  34.952  35.647  1.00  0.00    -0.248 NA
ATOM     48  C   UNL A   1      40.001  33.135  35.734  1.00  0.00     0.031 C 
ATOM     49  C   UNL A   1      42.226  34.093  31.321  1.00  0.00     0.029 A 
ATOM     50  N   UNL A   1      42.763  35.396  33.059  1.00  0.00    -0.354 N 
ATOM     51  C   UNL A   1      40.943  34.837  36.932  1.00  0.00     0.074 A 
ATOM     52  C   UNL A   1      40.007  33.735  36.914  1.00  0.00     0.031 C 
ATOM     53  C   UNL A   1      43.158  34.968  30.901  1.00  0.00     0.029 A 
ATOM     54  C   UNL A   1      43.519  35.855  32.007  1.00  0.00     0.049 A 
ATOM     55  H   UNL A   1      42.803  35.788  33.961  1.00  0.00     0.167 HD
ATOM     56  C   UNL A   1      41.227  35.567  38.037  1.00  0.00     0.031 A 
ATOM     57  C   UNL A   1      44.396  36.876  31.940  1.00  0.00     0.031 A 
ATOM     58  C   UNL A   1      42.175  36.648  38.068  1.00  0.00     0.049 A 
ATOM     59  C   UNL A   1      44.674  37.698  33.175  1.00  0.00     0.074 A 
ATOM     60  C   UNL A   1      42.547  37.434  39.143  1.00  0.00     0.029 A 
ATOM     61  N   UNL A   1      42.906  37.088  36.976  1.00  0.00    -0.354 N 
ATOM     62  N   UNL A   1      44.181  37.566  34.383  1.00  0.00    -0.248 NA
ATOM     63  C   UNL A   1      45.634  38.803  33.036  1.00  0.00     0.031 C 
ATOM     64  C   UNL A   1      43.476  38.377  38.693  1.00  0.00     0.029 A 
ATOM     65  C   UNL A   1      43.720  38.143  37.348  1.00  0.00     0.049 A 
ATOM     66  H   UNL A   1      42.854  36.707  36.069  1.00  0.00     0.167 HD
ATOM     67  C   UNL A   1      44.796  38.548  35.154  1.00  0.00     0.074 A 
ATOM     68  C   UNL A   1      45.703  39.260  34.279  1.00  0.00     0.031 C 
ATOM     69  C   UNL A   1      44.627  38.834  36.468  1.00  0.00     0.031 A 
BRANCH  56  70
ATOM     70  C   UNL A   1      40.490  35.224  39.303  1.00  0.00    -0.014 A 
ATOM     71  C   UNL A   1      39.270  35.845  39.625  1.00  0.00     0.010 A 
ATOM     72  C   UNL A   1      41.012  34.246  40.168  1.00  0.00     0.010 A 
ATOM     73  C   UNL A   1      38.607  35.525  40.812  1.00  0.00     0.020 A 
ATOM     74  C   UNL A   1      40.337  33.903  41.343  1.00  0.00     0.020 A 
ATOM     75  C   UNL A   1      39.147  34.559  41.666  1.00  0.00     0.054 A 
BRANCH  75  76
ATOM     76  S   UNL A   1      38.256  34.148  43.191  1.00  0.00     0.124 S 
ATOM     77  O   UNL A   1      37.485  35.367  43.425  1.00  0.00    -0.237 OA
ATOM     78  O   UNL A   1      37.474  32.977  42.802  1.00  0.00    -0.237 OA
ATOM     79  O   UNL A   1      39.321  33.889  44.156  1.00  0.00    -0.744 OA
ENDBRANCH  75  76
ENDBRANCH  56  70
BRANCH  57  80
ATOM     80  C   UNL A   1      45.082  37.194  30.657  1.00  0.00    -0.014 A 
ATOM     81  C   UNL A   1      46.325  36.615  30.345  1.00  0.00     0.010 A 
ATOM     82  C   UNL A   1      44.504  38.101  29.750  1.00  0.00     0.010 A 
ATOM     83  C   UNL A   1      46.987  36.953  29.161  1.00  0.00     0.020 A 
ATOM     84  C   UNL A   1      45.151  38.422  28.552  1.00  0.00     0.020 A 
ATOM     85  C   UNL A   1      46.397  37.855  28.272  1.00  0.00     0.054 A 
BRANCH  85  86
ATOM     86  S   UNL A   1      47.255  38.254  26.724  1.00  0.00     0.124 S 
ATOM     87  O   UNL A   1      46.154  38.687  25.870  1.00  0.00    -0.237 OA
ATOM     88  O   UNL A   1      48.186  39.300  27.140  1.00  0.00    -0.237 OA
ATOM     89  O   UNL A   1      47.881  36.988  26.348  1.00  0.00    -0.744 OA
ENDBRANCH  85  86
ENDBRANCH  57  80
BRANCH  69  90
ATOM     90  C   UNL A   1      45.470  39.931  37.061  1.00  0.00    -0.014 A 
ATOM     91  C   UNL A   1      46.747  39.669  37.587  1.00  0.00     0.010 A 
ATOM     92  C   UNL A   1      45.001  41.257  37.028  1.00  0.00     0.010 A 
ATOM     93  C   UNL A   1      47.528  40.710  38.095  1.00  0.00     0.020 A 
ATOM     94  C   UNL A   1      45.789  42.304  37.511  1.00  0.00     0.020 A 
ATOM     95  C   UNL A   1      47.044  42.022  38.055  1.00  0.00     0.054 A 
BRANCH  95  96
ATOM     96  S   UNL A   1      48.096  43.363  38.676  1.00  0.00     0.124 S 
ATOM     97  O   UNL A   1      49.342  43.131  37.953  1.00  0.00    -0.237 OA
ATOM     98  O   UNL A   1      47.355  44.560  38.287  1.00  0.00    -0.237 OA
ATOM     99  O   UNL A   1      48.155  43.117  40.116  1.00  0.00    -0.744 OA
ENDBRANCH  95  96
ENDBRANCH  69  90
ENDBRANCH  43  44
ENDBRANCH  36  38
ENDBRANCH  35  36
ENDBRANCH  34  35
ENDBRANCH  33  34
ENDBRANCH   1  33
TORSDOF 22
ENDMDL
