MODEL 1
REMARK VINA RESULT:     -10.5      0.000      0.000
REMARK SMILES CC[C@](C)(NC(=O)[C@](C)([NH3+])c1ccccc1)C(=O)OCCOCCOC(=O)c1ccc(-c2c3nc(c(-c4ccc(S(=O)(=O)[O-])cc4)c4ccc([nH]4)c(-c4ccc(S(=O)(=O)[O-])cc4)c4nc(c(-c5ccc(S(=O)(=O)[O-])cc5)c5ccc2[nH]5)C=C4)C=C3)cc1
REMARK SMILES IDX 22 1 21 2 20 3 19 4 17 5 18 6 3 7 4 8 2 9 1 10 5 11 6 12
REMARK SMILES IDX 7 14 8 15 9 16 10 17 11 21 12 22 16 23 13 24 15 25 14 26
REMARK SMILES IDX 23 27 24 28 25 29 26 30 27 31 28 32 29 33 87 34 30 35 86 36
REMARK SMILES IDX 31 37 32 38 33 39 80 40 34 41 85 42 79 43 81 44 35 45 84 46
REMARK SMILES IDX 78 47 77 48 36 50 66 51 47 52 65 53 48 54 51 55 64 56 82 57
REMARK SMILES IDX 49 58 50 59 63 61 83 62 52 63 37 64 38 65 46 66 39 67 45 68
REMARK SMILES IDX 40 69 41 70 42 71 43 72 44 73 67 74 68 75 76 76 69 77 75 78
REMARK SMILES IDX 70 79 71 80 72 81 73 82 74 83 53 84 54 85 62 86 55 87 61 88
REMARK SMILES IDX 56 89 57 90 58 91 59 92 60 93
REMARK H PARENT 5 13 10 18 10 19 10 20 81 49 51 60
REMARK Flexibility Score: inf
ROOT
ATOM      1  O   UNL A   1      39.341  21.885  26.518  1.00  0.00    -0.374 OA
ENDROOT
BRANCH   1   2
ATOM      2  C   UNL A   1      38.107  21.800  25.496  1.00  0.00     0.202 C 
BRANCH   2   3
ATOM      3  C   UNL A   1      37.404  23.115  25.139  1.00  0.00     0.261 C 
BRANCH   3   4
ATOM      4  O   UNL A   1      36.000  22.988  25.034  1.00  0.00    -0.462 OA
BRANCH   4   5
ATOM      5  C   UNL A   1      35.570  23.306  23.795  1.00  0.00     0.331 C 
ATOM      6  O   UNL A   1      36.184  23.063  22.757  1.00  0.00    -0.249 OA
BRANCH   5   7
ATOM      7  C   UNL A   1      34.289  24.147  23.822  1.00  0.00     0.135 C 
ATOM      8  C   UNL A   1      34.125  24.665  25.280  1.00  0.00     0.047 C 
BRANCH   7   9
ATOM      9  C   UNL A   1      33.162  23.092  23.527  1.00  0.00     0.037 C 
ATOM     10  C   UNL A   1      32.500  22.524  24.789  1.00  0.00     0.007 C 
ENDBRANCH   7   9
BRANCH   7  11
ATOM     11  N   UNL A   1      34.028  25.249  22.855  1.00  0.00    -0.335 N 
ATOM     12  C   UNL A   1      32.980  25.835  22.242  1.00  0.00     0.286 C 
ATOM     13  H   UNL A   1      34.871  25.678  22.584  1.00  0.00     0.164 HD
ATOM     14  O   UNL A   1      33.188  25.956  21.020  1.00  0.00    -0.267 OA
BRANCH  12  15
ATOM     15  C   UNL A   1      31.713  26.494  22.919  1.00  0.00     0.196 C 
ATOM     16  C   UNL A   1      30.759  25.286  23.065  1.00  0.00     0.096 C 
BRANCH  15  17
ATOM     17  N   UNL A   1      31.094  27.468  22.001  1.00  0.00    -0.341 N 
ATOM     18  H   UNL A   1      31.824  28.013  21.542  1.00  0.00     0.345 HD
ATOM     19  H   UNL A   1      30.485  28.093  22.529  1.00  0.00     0.345 HD
ATOM     20  H   UNL A   1      30.546  26.972  21.298  1.00  0.00     0.345 HD
ENDBRANCH  15  17
BRANCH  15  21
ATOM     21  C   UNL A   1      31.989  27.172  24.249  1.00  0.00     0.022 A 
ATOM     22  C   UNL A   1      33.156  28.524  24.230  1.00  0.00     0.011 A 
ATOM     23  C   UNL A   1      31.081  26.818  25.800  1.00  0.00     0.011 A 
ATOM     24  C   UNL A   1      33.408  29.536  25.674  1.00  0.00     0.001 A 
ATOM     25  C   UNL A   1      31.404  27.814  27.309  1.00  0.00     0.001 A 
ATOM     26  C   UNL A   1      32.532  29.217  27.188  1.00  0.00     0.000 A 
ENDBRANCH  15  21
ENDBRANCH  12  15
ENDBRANCH   7  11
ENDBRANCH   5   7
ENDBRANCH   4   5
ENDBRANCH   3   4
ENDBRANCH   2   3
ENDBRANCH   1   2
BRANCH   1  27
ATOM     27  C   UNL A   1      41.221  21.197  26.777  1.00  0.00     0.202 C 
BRANCH  27  28
ATOM     28  C   UNL A   1      42.001  19.667  26.373  1.00  0.00     0.261 C 
BRANCH  28  29
ATOM     29  O   UNL A   1      42.616  19.331  25.091  1.00  0.00    -0.460 OA
BRANCH  29  30
ATOM     30  C   UNL A   1      43.965  19.394  24.903  1.00  0.00     0.338 C 
ATOM     31  O   UNL A   1      44.653  18.484  24.469  1.00  0.00    -0.246 OA
BRANCH  30  32
ATOM     32  C   UNL A   1      44.461  20.830  24.991  1.00  0.00     0.060 A 
ATOM     33  C   UNL A   1      45.306  21.185  26.062  1.00  0.00     0.016 A 
ATOM     34  C   UNL A   1      44.155  21.818  24.052  1.00  0.00     0.016 A 
ATOM     35  C   UNL A   1      45.780  22.503  26.230  1.00  0.00     0.010 A 
ATOM     36  C   UNL A   1      44.657  23.130  24.199  1.00  0.00     0.010 A 
ATOM     37  C   UNL A   1      45.408  23.509  25.331  1.00  0.00    -0.014 A 
BRANCH  37  38
ATOM     38  C   UNL A   1      45.482  24.963  25.713  1.00  0.00     0.031 A 
ATOM     39  C   UNL A   1      46.846  25.625  25.638  1.00  0.00     0.074 A 
ATOM     40  C   UNL A   1      44.432  25.716  26.104  1.00  0.00     0.049 A 
ATOM     41  N   UNL A   1      47.231  26.815  26.027  1.00  0.00    -0.248 NA
ATOM     42  C   UNL A   1      47.929  24.808  25.065  1.00  0.00     0.031 C 
ATOM     43  C   UNL A   1      43.042  25.275  26.182  1.00  0.00     0.029 A 
ATOM     44  N   UNL A   1      44.386  27.030  26.531  1.00  0.00    -0.354 N 
ATOM     45  C   UNL A   1      48.603  26.864  25.791  1.00  0.00     0.074 A 
ATOM     46  C   UNL A   1      48.988  25.571  25.272  1.00  0.00     0.031 C 
ATOM     47  C   UNL A   1      42.285  26.290  26.641  1.00  0.00     0.029 A 
ATOM     48  C   UNL A   1      43.136  27.447  26.933  1.00  0.00     0.049 A 
ATOM     49  H   UNL A   1      45.177  27.616  26.547  1.00  0.00     0.167 HD
ATOM     50  C   UNL A   1      49.474  27.884  25.974  1.00  0.00     0.031 A 
ATOM     51  C   UNL A   1      42.722  28.606  27.494  1.00  0.00     0.031 A 
ATOM     52  C   UNL A   1      49.107  29.181  26.475  1.00  0.00     0.049 A 
ATOM     53  C   UNL A   1      43.709  29.724  27.749  1.00  0.00     0.074 A 
ATOM     54  C   UNL A   1      49.915  30.289  26.658  1.00  0.00     0.029 A 
ATOM     55  N   UNL A   1      47.831  29.543  26.876  1.00  0.00    -0.354 N 
ATOM     56  N   UNL A   1      44.999  29.756  27.507  1.00  0.00    -0.248 NA
ATOM     57  C   UNL A   1      43.184  30.965  28.344  1.00  0.00     0.031 C 
ATOM     58  C   UNL A   1      49.143  31.297  27.243  1.00  0.00     0.029 A 
ATOM     59  C   UNL A   1      47.836  30.848  27.338  1.00  0.00     0.049 A 
ATOM     60  H   UNL A   1      47.039  28.958  26.838  1.00  0.00     0.167 HD
ATOM     61  C   UNL A   1      45.429  31.028  27.884  1.00  0.00     0.074 A 
ATOM     62  C   UNL A   1      44.265  31.736  28.372  1.00  0.00     0.031 C 
ATOM     63  C   UNL A   1      46.675  31.559  27.817  1.00  0.00     0.031 A 
BRANCH  50  64
ATOM     64  C   UNL A   1      50.930  27.613  25.674  1.00  0.00    -0.014 A 
ATOM     65  C   UNL A   1      51.484  27.855  24.403  1.00  0.00     0.010 A 
ATOM     66  C   UNL A   1      51.758  27.097  26.689  1.00  0.00     0.010 A 
ATOM     67  C   UNL A   1      52.812  27.514  24.133  1.00  0.00     0.020 A 
ATOM     68  C   UNL A   1      53.098  26.796  26.435  1.00  0.00     0.020 A 
ATOM     69  C   UNL A   1      53.609  26.979  25.149  1.00  0.00     0.054 A 
BRANCH  69  70
ATOM     70  S   UNL A   1      55.323  26.529  24.766  1.00  0.00     0.124 S 
ATOM     71  O   UNL A   1      56.072  27.394  25.675  1.00  0.00    -0.237 OA
ATOM     72  O   UNL A   1      55.358  25.103  25.084  1.00  0.00    -0.237 OA
ATOM     73  O   UNL A   1      55.458  26.851  23.347  1.00  0.00    -0.744 OA
ENDBRANCH  69  70
ENDBRANCH  50  64
BRANCH  51  74
ATOM     74  C   UNL A   1      41.286  28.771  27.877  1.00  0.00    -0.014 A 
ATOM     75  C   UNL A   1      40.869  28.635  29.214  1.00  0.00     0.010 A 
ATOM     76  C   UNL A   1      40.327  29.096  26.898  1.00  0.00     0.010 A 
ATOM     77  C   UNL A   1      39.529  28.842  29.566  1.00  0.00     0.020 A 
ATOM     78  C   UNL A   1      38.993  29.332  27.251  1.00  0.00     0.020 A 
ATOM     79  C   UNL A   1      38.603  29.207  28.585  1.00  0.00     0.054 A 
BRANCH  79  80
ATOM     80  S   UNL A   1      36.900  29.591  29.085  1.00  0.00     0.124 S 
ATOM     81  O   UNL A   1      36.814  28.959  30.398  1.00  0.00    -0.237 OA
ATOM     82  O   UNL A   1      36.898  31.052  29.086  1.00  0.00    -0.237 OA
ATOM     83  O   UNL A   1      36.088  28.976  28.038  1.00  0.00    -0.744 OA
ENDBRANCH  79  80
ENDBRANCH  51  74
BRANCH  63  84
ATOM     84  C   UNL A   1      46.868  33.002  28.217  1.00  0.00    -0.014 A 
ATOM     85  C   UNL A   1      47.272  33.366  29.513  1.00  0.00     0.010 A 
ATOM     86  C   UNL A   1      46.747  34.005  27.235  1.00  0.00     0.010 A 
ATOM     87  C   UNL A   1      47.536  34.707  29.822  1.00  0.00     0.020 A 
ATOM     88  C   UNL A   1      47.038  35.340  27.531  1.00  0.00     0.020 A 
ATOM     89  C   UNL A   1      47.425  35.684  28.825  1.00  0.00     0.054 A 
BRANCH  89  90
ATOM     90  S   UNL A   1      47.844  37.402  29.233  1.00  0.00     0.124 S 
ATOM     91  O   UNL A   1      47.030  38.150  28.279  1.00  0.00    -0.237 OA
ATOM     92  O   UNL A   1      47.433  37.508  30.630  1.00  0.00    -0.237 OA
ATOM     93  O   UNL A   1      49.286  37.472  29.007  1.00  0.00    -0.744 OA
ENDBRANCH  89  90
ENDBRANCH  63  84
ENDBRANCH  37  38
ENDBRANCH  30  32
ENDBRANCH  29  30
ENDBRANCH  28  29
ENDBRANCH  27  28
ENDBRANCH   1  27
TORSDOF 22
ENDMDL
MODEL 2
REMARK VINA RESULT:     -10.3      7.008      9.210
REMARK SMILES CC[C@](C)(NC(=O)[C@](C)([NH3+])c1ccccc1)C(=O)OCCOCCOC(=O)c1ccc(-c2c3nc(c(-c4ccc(S(=O)(=O)[O-])cc4)c4ccc([nH]4)c(-c4ccc(S(=O)(=O)[O-])cc4)c4nc(c(-c5ccc(S(=O)(=O)[O-])cc5)c5ccc2[nH]5)C=C4)C=C3)cc1
REMARK SMILES IDX 22 1 21 2 20 3 19 4 17 5 18 6 3 7 4 8 2 9 1 10 5 11 6 12
REMARK SMILES IDX 7 14 8 15 9 16 10 17 11 21 12 22 16 23 13 24 15 25 14 26
REMARK SMILES IDX 23 27 24 28 25 29 26 30 27 31 28 32 29 33 87 34 30 35 86 36
REMARK SMILES IDX 31 37 32 38 33 39 80 40 34 41 85 42 79 43 81 44 35 45 84 46
REMARK SMILES IDX 78 47 77 48 36 50 66 51 47 52 65 53 48 54 51 55 64 56 82 57
REMARK SMILES IDX 49 58 50 59 63 61 83 62 52 63 37 64 38 65 46 66 39 67 45 68
REMARK SMILES IDX 40 69 41 70 42 71 43 72 44 73 67 74 68 75 76 76 69 77 75 78
REMARK SMILES IDX 70 79 71 80 72 81 73 82 74 83 53 84 54 85 62 86 55 87 61 88
REMARK SMILES IDX 56 89 57 90 58 91 59 92 60 93
REMARK H PARENT 5 13 10 18 10 19 10 20 81 49 51 60
REMARK Flexibility Score: inf
ROOT
ATOM      1  O   UNL A   1      38.365  21.810  25.910  1.00  0.00    -0.374 OA
ENDROOT
BRANCH   1   2
ATOM      2  C   UNL A   1      37.335  21.384  24.756  1.00  0.00     0.202 C 
BRANCH   2   3
ATOM      3  C   UNL A   1      35.897  21.070  25.184  1.00  0.00     0.261 C 
BRANCH   3   4
ATOM      4  O   UNL A   1      34.923  21.652  24.340  1.00  0.00    -0.462 OA
BRANCH   4   5
ATOM      5  C   UNL A   1      33.675  21.425  24.802  1.00  0.00     0.331 C 
ATOM      6  O   UNL A   1      33.198  20.310  25.009  1.00  0.00    -0.249 OA
BRANCH   5   7
ATOM      7  C   UNL A   1      32.849  22.711  24.901  1.00  0.00     0.135 C 
ATOM      8  C   UNL A   1      33.808  23.820  25.419  1.00  0.00     0.047 C 
BRANCH   7   9
ATOM      9  C   UNL A   1      31.803  22.378  26.026  1.00  0.00     0.037 C 
ATOM     10  C   UNL A   1      31.792  23.387  27.181  1.00  0.00     0.007 C 
ENDBRANCH   7   9
BRANCH   7  11
ATOM     11  N   UNL A   1      32.027  23.231  23.773  1.00  0.00    -0.335 N 
ATOM     12  C   UNL A   1      31.518  24.402  23.343  1.00  0.00     0.286 C 
ATOM     13  H   UNL A   1      31.784  22.502  23.158  1.00  0.00     0.164 HD
ATOM     14  O   UNL A   1      30.314  24.285  23.049  1.00  0.00    -0.267 OA
BRANCH  12  15
ATOM     15  C   UNL A   1      32.305  25.737  23.027  1.00  0.00     0.196 C 
ATOM     16  C   UNL A   1      31.455  26.353  21.892  1.00  0.00     0.096 C 
BRANCH  15  17
ATOM     17  N   UNL A   1      33.642  25.424  22.489  1.00  0.00    -0.341 N 
ATOM     18  H   UNL A   1      34.051  26.267  22.085  1.00  0.00     0.345 HD
ATOM     19  H   UNL A   1      33.559  24.708  21.768  1.00  0.00     0.345 HD
ATOM     20  H   UNL A   1      34.240  25.082  23.242  1.00  0.00     0.345 HD
ENDBRANCH  15  17
BRANCH  15  21
ATOM     21  C   UNL A   1      32.453  26.677  24.210  1.00  0.00     0.022 A 
ATOM     22  C   UNL A   1      31.205  26.563  25.482  1.00  0.00     0.011 A 
ATOM     23  C   UNL A   1      33.900  27.764  24.494  1.00  0.00     0.011 A 
ATOM     24  C   UNL A   1      31.377  27.454  27.014  1.00  0.00     0.001 A 
ATOM     25  C   UNL A   1      34.032  28.742  26.042  1.00  0.00     0.001 A 
ATOM     26  C   UNL A   1      32.777  28.509  27.317  1.00  0.00     0.000 A 
ENDBRANCH  15  21
ENDBRANCH  12  15
ENDBRANCH   7  11
ENDBRANCH   5   7
ENDBRANCH   4   5
ENDBRANCH   3   4
ENDBRANCH   2   3
ENDBRANCH   1   2
BRANCH   1  27
ATOM     27  C   UNL A   1      40.343  21.882  26.308  1.00  0.00     0.202 C 
BRANCH  27  28
ATOM     28  C   UNL A   1      41.507  23.206  26.348  1.00  0.00     0.261 C 
BRANCH  28  29
ATOM     29  O   UNL A   1      41.391  24.425  27.145  1.00  0.00    -0.460 OA
BRANCH  29  30
ATOM     30  C   UNL A   1      41.064  25.623  26.583  1.00  0.00     0.338 C 
ATOM     31  O   UNL A   1      40.894  25.811  25.388  1.00  0.00    -0.246 OA
BRANCH  30  32
ATOM     32  C   UNL A   1      40.623  26.621  27.643  1.00  0.00     0.060 A 
ATOM     33  C   UNL A   1      41.001  27.971  27.495  1.00  0.00     0.016 A 
ATOM     34  C   UNL A   1      39.832  26.287  28.746  1.00  0.00     0.016 A 
ATOM     35  C   UNL A   1      40.658  28.948  28.453  1.00  0.00     0.010 A 
ATOM     36  C   UNL A   1      39.458  27.270  29.687  1.00  0.00     0.010 A 
ATOM     37  C   UNL A   1      39.933  28.595  29.597  1.00  0.00    -0.014 A 
BRANCH  37  38
ATOM     38  C   UNL A   1      39.954  29.456  30.832  1.00  0.00     0.031 A 
ATOM     39  C   UNL A   1      41.092  29.226  31.810  1.00  0.00     0.074 A 
ATOM     40  C   UNL A   1      39.049  30.414  31.124  1.00  0.00     0.049 A 
ATOM     41  N   UNL A   1      41.291  29.721  33.005  1.00  0.00    -0.248 NA
ATOM     42  C   UNL A   1      42.133  28.279  31.377  1.00  0.00     0.031 C 
ATOM     43  C   UNL A   1      37.926  30.818  30.284  1.00  0.00     0.029 A 
ATOM     44  N   UNL A   1      38.931  31.219  32.242  1.00  0.00    -0.354 N 
ATOM     45  C   UNL A   1      42.448  29.107  33.480  1.00  0.00     0.074 A 
ATOM     46  C   UNL A   1      42.875  28.172  32.465  1.00  0.00     0.031 C 
ATOM     47  C   UNL A   1      37.227  31.779  30.918  1.00  0.00     0.029 A 
ATOM     48  C   UNL A   1      37.823  32.037  32.232  1.00  0.00     0.049 A 
ATOM     49  H   UNL A   1      39.583  31.208  32.981  1.00  0.00     0.167 HD
ATOM     50  C   UNL A   1      43.112  29.299  34.644  1.00  0.00     0.031 A 
ATOM     51  C   UNL A   1      37.326  32.874  33.171  1.00  0.00     0.031 A 
ATOM     52  C   UNL A   1      42.711  30.236  35.659  1.00  0.00     0.049 A 
ATOM     53  C   UNL A   1      38.040  33.044  34.494  1.00  0.00     0.074 A 
ATOM     54  C   UNL A   1      43.341  30.527  36.855  1.00  0.00     0.029 A 
ATOM     55  N   UNL A   1      41.575  31.028  35.601  1.00  0.00    -0.354 N 
ATOM     56  N   UNL A   1      39.139  32.465  34.918  1.00  0.00    -0.248 NA
ATOM     57  C   UNL A   1      37.452  33.987  35.461  1.00  0.00     0.031 C 
ATOM     58  C   UNL A   1      42.547  31.439  37.556  1.00  0.00     0.029 A 
ATOM     59  C   UNL A   1      41.469  31.784  36.756  1.00  0.00     0.049 A 
ATOM     60  H   UNL A   1      40.939  31.050  34.849  1.00  0.00     0.167 HD
ATOM     61  C   UNL A   1      39.392  33.000  36.181  1.00  0.00     0.074 A 
ATOM     62  C   UNL A   1      38.333  33.948  36.454  1.00  0.00     0.031 C 
ATOM     63  C   UNL A   1      40.419  32.736  37.027  1.00  0.00     0.031 A 
BRANCH  50  64
ATOM     64  C   UNL A   1      44.323  28.433  34.903  1.00  0.00    -0.014 A 
ATOM     65  C   UNL A   1      44.220  27.190  35.556  1.00  0.00     0.010 A 
ATOM     66  C   UNL A   1      45.591  28.880  34.489  1.00  0.00     0.010 A 
ATOM     67  C   UNL A   1      45.367  26.451  35.857  1.00  0.00     0.020 A 
ATOM     68  C   UNL A   1      46.736  28.123  34.748  1.00  0.00     0.020 A 
ATOM     69  C   UNL A   1      46.620  26.926  35.457  1.00  0.00     0.054 A 
BRANCH  69  70
ATOM     70  S   UNL A   1      48.093  25.956  35.877  1.00  0.00     0.124 S 
ATOM     71  O   UNL A   1      48.424  25.341  34.593  1.00  0.00    -0.237 OA
ATOM     72  O   UNL A   1      49.027  26.979  36.341  1.00  0.00    -0.237 OA
ATOM     73  O   UNL A   1      47.621  25.034  36.906  1.00  0.00    -0.744 OA
ENDBRANCH  69  70
ENDBRANCH  50  64
BRANCH  51  74
ATOM     74  C   UNL A   1      36.057  33.617  32.901  1.00  0.00    -0.014 A 
ATOM     75  C   UNL A   1      34.803  33.021  33.125  1.00  0.00     0.010 A 
ATOM     76  C   UNL A   1      36.102  34.948  32.442  1.00  0.00     0.010 A 
ATOM     77  C   UNL A   1      33.622  33.746  32.917  1.00  0.00     0.020 A 
ATOM     78  C   UNL A   1      34.926  35.685  32.261  1.00  0.00     0.020 A 
ATOM     79  C   UNL A   1      33.692  35.080  32.504  1.00  0.00     0.054 A 
BRANCH  79  80
ATOM     80  S   UNL A   1      32.154  36.035  32.360  1.00  0.00     0.124 S 
ATOM     81  O   UNL A   1      31.140  35.038  32.685  1.00  0.00    -0.237 OA
ATOM     82  O   UNL A   1      32.348  37.088  33.355  1.00  0.00    -0.237 OA
ATOM     83  O   UNL A   1      32.163  36.493  30.973  1.00  0.00    -0.744 OA
ENDBRANCH  79  80
ENDBRANCH  51  74
BRANCH  63  84
ATOM     84  C   UNL A   1      40.512  33.516  38.316  1.00  0.00    -0.014 A 
ATOM     85  C   UNL A   1      39.980  33.026  39.521  1.00  0.00     0.010 A 
ATOM     86  C   UNL A   1      41.249  34.718  38.336  1.00  0.00     0.010 A 
ATOM     87  C   UNL A   1      40.171  33.729  40.717  1.00  0.00     0.020 A 
ATOM     88  C   UNL A   1      41.466  35.407  39.532  1.00  0.00     0.020 A 
ATOM     89  C   UNL A   1      40.920  34.912  40.715  1.00  0.00     0.054 A 
BRANCH  89  90
ATOM     90  S   UNL A   1      41.214  35.765  42.290  1.00  0.00     0.124 S 
ATOM     91  O   UNL A   1      40.965  34.704  43.263  1.00  0.00    -0.237 OA
ATOM     92  O   UNL A   1      42.605  36.192  42.167  1.00  0.00    -0.237 OA
ATOM     93  O   UNL A   1      40.233  36.848  42.289  1.00  0.00    -0.744 OA
ENDBRANCH  89  90
ENDBRANCH  63  84
ENDBRANCH  37  38
ENDBRANCH  30  32
ENDBRANCH  29  30
ENDBRANCH  28  29
ENDBRANCH  27  28
ENDBRANCH   1  27
TORSDOF 22
ENDMDL
MODEL 3
REMARK VINA RESULT:     -10.3      2.302      9.180
REMARK SMILES CC[C@](C)(NC(=O)[C@](C)([NH3+])c1ccccc1)C(=O)OCCOCCOC(=O)c1ccc(-c2c3nc(c(-c4ccc(S(=O)(=O)[O-])cc4)c4ccc([nH]4)c(-c4ccc(S(=O)(=O)[O-])cc4)c4nc(c(-c5ccc(S(=O)(=O)[O-])cc5)c5ccc2[nH]5)C=C4)C=C3)cc1
REMARK SMILES IDX 22 1 21 2 20 3 19 4 17 5 18 6 3 7 4 8 2 9 1 10 5 11 6 12
REMARK SMILES IDX 7 14 8 15 9 16 10 17 11 21 12 22 16 23 13 24 15 25 14 26
REMARK SMILES IDX 23 27 24 28 25 29 26 30 27 31 28 32 29 33 87 34 30 35 86 36
REMARK SMILES IDX 31 37 32 38 33 39 80 40 34 41 85 42 79 43 81 44 35 45 84 46
REMARK SMILES IDX 78 47 77 48 36 50 66 51 47 52 65 53 48 54 51 55 64 56 82 57
REMARK SMILES IDX 49 58 50 59 63 61 83 62 52 63 37 64 38 65 46 66 39 67 45 68
REMARK SMILES IDX 40 69 41 70 42 71 43 72 44 73 67 74 68 75 76 76 69 77 75 78
REMARK SMILES IDX 70 79 71 80 72 81 73 82 74 83 53 84 54 85 62 86 55 87 61 88
REMARK SMILES IDX 56 89 57 90 58 91 59 92 60 93
REMARK H PARENT 5 13 10 18 10 19 10 20 81 49 51 60
REMARK Flexibility Score: inf
ROOT
ATOM      1  O   UNL A   1      33.365  30.612  27.207  1.00  0.00    -0.374 OA
ENDROOT
BRANCH   1   2
ATOM      2  C   UNL A   1      33.853  29.091  27.349  1.00  0.00     0.202 C 
BRANCH   2   3
ATOM      3  C   UNL A   1      34.149  28.328  26.053  1.00  0.00     0.261 C 
BRANCH   3   4
ATOM      4  O   UNL A   1      32.985  27.857  25.403  1.00  0.00    -0.462 OA
BRANCH   4   5
ATOM      5  C   UNL A   1      33.203  27.662  24.086  1.00  0.00     0.331 C 
ATOM      6  O   UNL A   1      33.905  28.384  23.378  1.00  0.00    -0.249 OA
BRANCH   5   7
ATOM      7  C   UNL A   1      32.355  26.520  23.518  1.00  0.00     0.135 C 
ATOM      8  C   UNL A   1      31.537  27.114  22.336  1.00  0.00     0.047 C 
BRANCH   7   9
ATOM      9  C   UNL A   1      31.372  26.183  24.698  1.00  0.00     0.037 C 
ATOM     10  C   UNL A   1      29.959  25.803  24.238  1.00  0.00     0.007 C 
ENDBRANCH   7   9
BRANCH   7  11
ATOM     11  N   UNL A   1      32.932  25.203  23.130  1.00  0.00    -0.335 N 
ATOM     12  C   UNL A   1      33.950  24.395  23.487  1.00  0.00     0.286 C 
ATOM     13  H   UNL A   1      32.416  24.803  22.393  1.00  0.00     0.164 HD
ATOM     14  O   UNL A   1      34.588  24.012  22.489  1.00  0.00    -0.267 OA
BRANCH  12  15
ATOM     15  C   UNL A   1      34.247  23.796  24.920  1.00  0.00     0.196 C 
ATOM     16  C   UNL A   1      33.090  22.785  25.094  1.00  0.00     0.096 C 
BRANCH  15  17
ATOM     17  N   UNL A   1      34.109  24.844  25.948  1.00  0.00    -0.341 N 
ATOM     18  H   UNL A   1      33.587  25.631  25.563  1.00  0.00     0.345 HD
ATOM     19  H   UNL A   1      35.035  25.159  26.238  1.00  0.00     0.345 HD
ATOM     20  H   UNL A   1      33.611  24.466  26.754  1.00  0.00     0.345 HD
ENDBRANCH  15  17
BRANCH  15  21
ATOM     21  C   UNL A   1      35.610  23.140  25.059  1.00  0.00     0.022 A 
ATOM     22  C   UNL A   1      36.881  24.102  25.863  1.00  0.00     0.011 A 
ATOM     23  C   UNL A   1      35.967  21.395  24.631  1.00  0.00     0.011 A 
ATOM     24  C   UNL A   1      38.453  23.375  26.278  1.00  0.00     0.001 A 
ATOM     25  C   UNL A   1      37.617  20.675  24.989  1.00  0.00     0.001 A 
ATOM     26  C   UNL A   1      38.821  21.681  25.880  1.00  0.00     0.000 A 
ENDBRANCH  15  21
ENDBRANCH  12  15
ENDBRANCH   7  11
ENDBRANCH   5   7
ENDBRANCH   4   5
ENDBRANCH   3   4
ENDBRANCH   2   3
ENDBRANCH   1   2
BRANCH   1  27
ATOM     27  C   UNL A   1      33.702  32.452  27.967  1.00  0.00     0.202 C 
BRANCH  27  28
ATOM     28  C   UNL A   1      34.822  33.053  29.190  1.00  0.00     0.261 C 
BRANCH  28  29
ATOM     29  O   UNL A   1      36.159  32.528  29.461  1.00  0.00    -0.460 OA
BRANCH  29  30
ATOM     30  C   UNL A   1      36.370  31.536  30.371  1.00  0.00     0.338 C 
ATOM     31  O   UNL A   1      35.603  31.241  31.275  1.00  0.00    -0.246 OA
BRANCH  30  32
ATOM     32  C   UNL A   1      37.513  30.632  29.937  1.00  0.00     0.060 A 
ATOM     33  C   UNL A   1      38.177  29.868  30.918  1.00  0.00     0.016 A 
ATOM     34  C   UNL A   1      37.929  30.485  28.611  1.00  0.00     0.016 A 
ATOM     35  C   UNL A   1      39.268  29.032  30.599  1.00  0.00     0.010 A 
ATOM     36  C   UNL A   1      38.998  29.621  28.284  1.00  0.00     0.010 A 
ATOM     37  C   UNL A   1      39.732  28.947  29.282  1.00  0.00    -0.014 A 
BRANCH  37  38
ATOM     38  C   UNL A   1      41.128  28.472  28.975  1.00  0.00     0.031 A 
ATOM     39  C   UNL A   1      42.240  29.501  29.068  1.00  0.00     0.074 A 
ATOM     40  C   UNL A   1      41.459  27.208  28.636  1.00  0.00     0.049 A 
ATOM     41  N   UNL A   1      43.503  29.412  28.736  1.00  0.00    -0.248 NA
ATOM     42  C   UNL A   1      41.853  30.825  29.585  1.00  0.00     0.031 C 
ATOM     43  C   UNL A   1      40.543  26.074  28.553  1.00  0.00     0.029 A 
ATOM     44  N   UNL A   1      42.681  26.672  28.278  1.00  0.00    -0.354 N 
ATOM     45  C   UNL A   1      44.042  30.677  28.957  1.00  0.00     0.074 A 
ATOM     46  C   UNL A   1      42.959  31.524  29.405  1.00  0.00     0.031 C 
ATOM     47  C   UNL A   1      41.228  24.985  28.155  1.00  0.00     0.029 A 
ATOM     48  C   UNL A   1      42.628  25.344  27.913  1.00  0.00     0.049 A 
ATOM     49  H   UNL A   1      43.517  27.193  28.283  1.00  0.00     0.167 HD
ATOM     50  C   UNL A   1      45.318  31.110  28.817  1.00  0.00     0.031 A 
ATOM     51  C   UNL A   1      43.578  24.518  27.418  1.00  0.00     0.031 A 
ATOM     52  C   UNL A   1      46.410  30.278  28.389  1.00  0.00     0.049 A 
ATOM     53  C   UNL A   1      44.990  25.020  27.210  1.00  0.00     0.074 A 
ATOM     54  C   UNL A   1      47.744  30.619  28.253  1.00  0.00     0.029 A 
ATOM     55  N   UNL A   1      46.296  28.947  28.022  1.00  0.00    -0.354 N 
ATOM     56  N   UNL A   1      45.483  26.215  27.437  1.00  0.00    -0.248 NA
ATOM     57  C   UNL A   1      45.977  24.060  26.686  1.00  0.00     0.031 C 
ATOM     58  C   UNL A   1      48.424  29.515  27.730  1.00  0.00     0.029 A 
ATOM     59  C   UNL A   1      47.530  28.460  27.627  1.00  0.00     0.049 A 
ATOM     60  H   UNL A   1      45.461  28.425  28.039  1.00  0.00     0.167 HD
ATOM     61  C   UNL A   1      46.839  26.139  27.121  1.00  0.00     0.074 A 
ATOM     62  C   UNL A   1      47.091  24.782  26.685  1.00  0.00     0.031 C 
ATOM     63  C   UNL A   1      47.787  27.106  27.200  1.00  0.00     0.031 A 
BRANCH  50  64
ATOM     64  C   UNL A   1      45.587  32.572  29.085  1.00  0.00    -0.014 A 
ATOM     65  C   UNL A   1      45.365  33.559  28.105  1.00  0.00     0.010 A 
ATOM     66  C   UNL A   1      46.082  32.963  30.343  1.00  0.00     0.010 A 
ATOM     67  C   UNL A   1      45.704  34.892  28.353  1.00  0.00     0.020 A 
ATOM     68  C   UNL A   1      46.381  34.301  30.609  1.00  0.00     0.020 A 
ATOM     69  C   UNL A   1      46.217  35.253  29.602  1.00  0.00     0.054 A 
BRANCH  69  70
ATOM     70  S   UNL A   1      46.666  36.986  29.890  1.00  0.00     0.124 S 
ATOM     71  O   UNL A   1      45.615  37.421  30.807  1.00  0.00    -0.237 OA
ATOM     72  O   UNL A   1      48.002  36.878  30.472  1.00  0.00    -0.237 OA
ATOM     73  O   UNL A   1      46.616  37.584  28.558  1.00  0.00    -0.744 OA
ENDBRANCH  69  70
ENDBRANCH  50  64
BRANCH  51  74
ATOM     74  C   UNL A   1      43.221  23.111  27.062  1.00  0.00    -0.014 A 
ATOM     75  C   UNL A   1      43.655  22.533  25.854  1.00  0.00     0.010 A 
ATOM     76  C   UNL A   1      42.462  22.327  27.953  1.00  0.00     0.010 A 
ATOM     77  C   UNL A   1      43.356  21.197  25.556  1.00  0.00     0.020 A 
ATOM     78  C   UNL A   1      42.187  20.984  27.671  1.00  0.00     0.020 A 
ATOM     79  C   UNL A   1      42.640  20.426  26.476  1.00  0.00     0.054 A 
BRANCH  79  80
ATOM     80  S   UNL A   1      42.372  18.664  26.124  1.00  0.00     0.124 S 
ATOM     81  O   UNL A   1      42.741  18.037  27.389  1.00  0.00    -0.237 OA
ATOM     82  O   UNL A   1      40.951  18.626  25.789  1.00  0.00    -0.237 OA
ATOM     83  O   UNL A   1      43.274  18.397  25.005  1.00  0.00    -0.744 OA
ENDBRANCH  79  80
ENDBRANCH  51  74
BRANCH  63  84
ATOM     84  C   UNL A   1      49.215  26.745  26.873  1.00  0.00    -0.014 A 
ATOM     85  C   UNL A   1      50.110  26.285  27.854  1.00  0.00     0.010 A 
ATOM     86  C   UNL A   1      49.633  26.765  25.526  1.00  0.00     0.010 A 
ATOM     87  C   UNL A   1      51.398  25.866  27.498  1.00  0.00     0.020 A 
ATOM     88  C   UNL A   1      50.907  26.320  25.163  1.00  0.00     0.020 A 
ATOM     89  C   UNL A   1      51.785  25.879  26.152  1.00  0.00     0.054 A 
BRANCH  89  90
ATOM     90  S   UNL A   1      53.433  25.262  25.709  1.00  0.00     0.124 S 
ATOM     91  O   UNL A   1      54.160  25.399  26.968  1.00  0.00    -0.237 OA
ATOM     92  O   UNL A   1      53.158  23.890  25.288  1.00  0.00    -0.237 OA
ATOM     93  O   UNL A   1      53.866  26.160  24.641  1.00  0.00    -0.744 OA
ENDBRANCH  89  90
ENDBRANCH  63  84
ENDBRANCH  37  38
ENDBRANCH  30  32
ENDBRANCH  29  30
ENDBRANCH  28  29
ENDBRANCH  27  28
ENDBRANCH   1  27
TORSDOF 22
ENDMDL
