MODEL 1
REMARK VINA RESULT:      -8.3      0.000      0.000
REMARK SMILES COCC[N@H+](C)[C@H](C(=O)OCCOCCOC(=O)c1ccc(-c2c3nc(c(-c4ccc(S(=O)(=O)[O-])cc4)c4ccc([nH]4)c(-c4ccc(S(=O)(=O)[O-])cc4)c4nc(c(-c5ccc(S(=O)(=O)[O-])cc5)c5ccc2[nH]5)C=C4)C=C3)cc1)c1ccc(OC)nc1
REMARK SMILES IDX 12 1 11 2 10 3 8 4 9 5 7 6 5 7 6 8 4 10 3 11 2 12 1 13 79 14
REMARK SMILES IDX 80 15 86 16 81 17 85 18 82 19 83 20 84 21 13 22 14 23 15 24
REMARK SMILES IDX 16 25 17 26 18 27 19 28 20 29 78 30 21 31 77 32 22 33 23 34
REMARK SMILES IDX 24 35 71 36 25 37 76 38 70 39 72 40 26 41 75 42 69 43 68 44
REMARK SMILES IDX 27 46 57 47 38 48 56 49 39 50 42 51 55 52 73 53 40 54 41 55
REMARK SMILES IDX 54 57 74 58 43 59 28 60 29 61 37 62 30 63 36 64 31 65 32 66
REMARK SMILES IDX 33 67 34 68 35 69 58 70 59 71 67 72 60 73 66 74 61 75 62 76
REMARK SMILES IDX 63 77 64 78 65 79 44 80 45 81 53 82 46 83 52 84 47 85 48 86
REMARK SMILES IDX 49 87 50 88 51 89
REMARK H PARENT 5 9 72 45 42 56
REMARK Flexibility Score: inf
ROOT
ATOM      1  C   UNL A   1      38.508  22.637  26.108  1.00  0.00     0.202 C 
ENDROOT
BRANCH   1   2
ATOM      2  C   UNL A   1      37.597  23.780  25.650  1.00  0.00     0.261 C 
BRANCH   2   3
ATOM      3  O   UNL A   1      36.310  23.272  25.257  1.00  0.00    -0.459 OA
BRANCH   3   4
ATOM      4  C   UNL A   1      36.030  23.319  23.930  1.00  0.00     0.370 C 
ATOM      5  O   UNL A   1      36.883  23.343  23.046  1.00  0.00    -0.245 OA
BRANCH   4   6
ATOM      6  C   UNL A   1      34.521  23.386  23.618  1.00  0.00     0.327 C 
BRANCH   6   7
ATOM      7  N   UNL A   1      33.630  22.296  24.154  1.00  0.00    -0.320 N 
ATOM      8  C   UNL A   1      34.277  21.068  24.617  1.00  0.00     0.333 C 
ATOM      9  H   UNL A   1      33.126  22.044  23.304  1.00  0.00     0.348 HD
BRANCH   7  10
ATOM     10  C   UNL A   1      32.678  22.758  25.200  1.00  0.00     0.291 C 
BRANCH  10  11
ATOM     11  C   UNL A   1      31.539  21.795  25.599  1.00  0.00     0.221 C 
BRANCH  11  12
ATOM     12  O   UNL A   1      30.279  22.441  25.789  1.00  0.00    -0.379 OA
ATOM     13  C   UNL A   1      30.264  23.343  26.885  1.00  0.00     0.195 C 
ENDBRANCH  11  12
ENDBRANCH  10  11
ENDBRANCH   7  10
ENDBRANCH   6   7
BRANCH   6  14
ATOM     14  C   UNL A   1      34.047  24.811  23.765  1.00  0.00     0.039 A 
ATOM     15  C   UNL A   1      34.160  25.535  24.948  1.00  0.00     0.018 A 
ATOM     16  C   UNL A   1      33.523  25.479  22.662  1.00  0.00     0.125 A 
ATOM     17  C   UNL A   1      33.702  26.848  24.997  1.00  0.00     0.069 A 
ATOM     18  N   UNL A   1      33.063  26.746  22.689  1.00  0.00    -0.222 NA
ATOM     19  C   UNL A   1      33.151  27.415  23.856  1.00  0.00     0.212 A 
BRANCH  19  20
ATOM     20  O   UNL A   1      32.648  28.679  23.767  1.00  0.00    -0.481 OA
ATOM     21  C   UNL A   1      32.122  29.234  24.962  1.00  0.00     0.280 C 
ENDBRANCH  19  20
ENDBRANCH   6  14
ENDBRANCH   4   6
ENDBRANCH   3   4
ENDBRANCH   2   3
ENDBRANCH   1   2
BRANCH   1  22
ATOM     22  O   UNL A   1      38.642  21.549  25.192  1.00  0.00    -0.374 OA
BRANCH  22  23
ATOM     23  C   UNL A   1      38.273  20.250  25.658  1.00  0.00     0.202 C 
BRANCH  23  24
ATOM     24  C   UNL A   1      39.367  19.180  25.633  1.00  0.00     0.261 C 
BRANCH  24  25
ATOM     25  O   UNL A   1      40.678  19.761  25.741  1.00  0.00    -0.460 OA
BRANCH  25  26
ATOM     26  C   UNL A   1      41.044  20.067  27.006  1.00  0.00     0.338 C 
ATOM     27  O   UNL A   1      40.781  19.430  28.018  1.00  0.00    -0.246 OA
BRANCH  26  28
ATOM     28  C   UNL A   1      41.988  21.203  27.012  1.00  0.00     0.060 A 
ATOM     29  C   UNL A   1      42.619  21.489  28.229  1.00  0.00     0.016 A 
ATOM     30  C   UNL A   1      42.195  22.018  25.897  1.00  0.00     0.016 A 
ATOM     31  C   UNL A   1      43.365  22.653  28.370  1.00  0.00     0.010 A 
ATOM     32  C   UNL A   1      42.951  23.188  26.039  1.00  0.00     0.010 A 
ATOM     33  C   UNL A   1      43.477  23.544  27.295  1.00  0.00    -0.014 A 
BRANCH  33  34
ATOM     34  C   UNL A   1      43.936  24.928  27.576  1.00  0.00     0.031 A 
ATOM     35  C   UNL A   1      45.369  25.287  27.270  1.00  0.00     0.074 A 
ATOM     36  C   UNL A   1      43.077  25.876  27.993  1.00  0.00     0.049 A 
ATOM     37  N   UNL A   1      45.968  26.448  27.349  1.00  0.00    -0.248 NA
ATOM     38  C   UNL A   1      46.242  24.194  26.808  1.00  0.00     0.031 C 
ATOM     39  C   UNL A   1      41.657  25.667  28.275  1.00  0.00     0.029 A 
ATOM     40  N   UNL A   1      43.275  27.212  28.232  1.00  0.00    -0.354 N 
ATOM     41  C   UNL A   1      47.285  26.222  26.961  1.00  0.00     0.074 A 
ATOM     42  C   UNL A   1      47.408  24.808  26.684  1.00  0.00     0.031 C 
ATOM     43  C   UNL A   1      41.107  26.841  28.634  1.00  0.00     0.029 A 
ATOM     44  C   UNL A   1      42.140  27.875  28.633  1.00  0.00     0.049 A 
ATOM     45  H   UNL A   1      44.148  27.655  28.126  1.00  0.00     0.167 HD
ATOM     46  C   UNL A   1      48.300  27.109  26.833  1.00  0.00     0.031 A 
ATOM     47  C   UNL A   1      41.956  29.170  28.962  1.00  0.00     0.031 A 
ATOM     48  C   UNL A   1      48.177  28.516  27.107  1.00  0.00     0.049 A 
ATOM     49  C   UNL A   1      43.115  30.129  28.865  1.00  0.00     0.074 A 
ATOM     50  C   UNL A   1      49.141  29.502  26.988  1.00  0.00     0.029 A 
ATOM     51  N   UNL A   1      47.024  29.136  27.560  1.00  0.00    -0.354 N 
ATOM     52  N   UNL A   1      44.346  29.902  28.472  1.00  0.00    -0.248 NA
ATOM     53  C   UNL A   1      42.850  31.525  29.238  1.00  0.00     0.031 C 
ATOM     54  C   UNL A   1      48.588  30.708  27.429  1.00  0.00     0.029 A 
ATOM     55  C   UNL A   1      47.258  30.488  27.751  1.00  0.00     0.049 A 
ATOM     56  H   UNL A   1      46.165  28.684  27.722  1.00  0.00     0.167 HD
ATOM     57  C   UNL A   1      44.989  31.136  28.511  1.00  0.00     0.074 A 
ATOM     58  C   UNL A   1      44.008  32.104  28.956  1.00  0.00     0.031 C 
ATOM     59  C   UNL A   1      46.273  31.442  28.195  1.00  0.00     0.031 A 
BRANCH  46  60
ATOM     60  C   UNL A   1      49.645  26.574  26.414  1.00  0.00    -0.014 A 
ATOM     61  C   UNL A   1      50.090  26.659  25.083  1.00  0.00     0.010 A 
ATOM     62  C   UNL A   1      50.491  26.001  27.382  1.00  0.00     0.010 A 
ATOM     63  C   UNL A   1      51.338  26.143  24.720  1.00  0.00     0.020 A 
ATOM     64  C   UNL A   1      51.752  25.513  27.029  1.00  0.00     0.020 A 
ATOM     65  C   UNL A   1      52.160  25.572  25.695  1.00  0.00     0.054 A 
BRANCH  65  66
ATOM     66  S   UNL A   1      53.782  24.928  25.201  1.00  0.00     0.124 S 
ATOM     67  O   UNL A   1      54.610  25.285  26.350  1.00  0.00    -0.237 OA
ATOM     68  O   UNL A   1      53.523  23.501  25.034  1.00  0.00    -0.237 OA
ATOM     69  O   UNL A   1      54.082  25.652  23.969  1.00  0.00    -0.744 OA
ENDBRANCH  65  66
ENDBRANCH  46  60
BRANCH  47  70
ATOM     70  C   UNL A   1      40.615  29.640  29.410  1.00  0.00    -0.014 A 
ATOM     71  C   UNL A   1      40.312  29.755  30.778  1.00  0.00     0.010 A 
ATOM     72  C   UNL A   1      39.628  29.964  28.462  1.00  0.00     0.010 A 
ATOM     73  C   UNL A   1      39.040  30.169  31.190  1.00  0.00     0.020 A 
ATOM     74  C   UNL A   1      38.366  30.407  28.869  1.00  0.00     0.020 A 
ATOM     75  C   UNL A   1      38.077  30.495  30.232  1.00  0.00     0.054 A 
BRANCH  75  76
ATOM     76  S   UNL A   1      36.451  31.078  30.786  1.00  0.00     0.124 S 
ATOM     77  O   UNL A   1      36.805  32.240  31.596  1.00  0.00    -0.237 OA
ATOM     78  O   UNL A   1      35.774  31.367  29.525  1.00  0.00    -0.237 OA
ATOM     79  O   UNL A   1      35.913  29.939  31.526  1.00  0.00    -0.744 OA
ENDBRANCH  75  76
ENDBRANCH  47  70
BRANCH  59  80
ATOM     80  C   UNL A   1      46.680  32.892  28.262  1.00  0.00    -0.014 A 
ATOM     81  C   UNL A   1      47.217  33.457  29.432  1.00  0.00     0.010 A 
ATOM     82  C   UNL A   1      46.549  33.696  27.113  1.00  0.00     0.010 A 
ATOM     83  C   UNL A   1      47.566  34.811  29.467  1.00  0.00     0.020 A 
ATOM     84  C   UNL A   1      46.928  35.040  27.134  1.00  0.00     0.020 A 
ATOM     85  C   UNL A   1      47.413  35.595  28.319  1.00  0.00     0.054 A 
BRANCH  85  86
ATOM     86  S   UNL A   1      47.881  37.346  28.386  1.00  0.00     0.124 S 
ATOM     87  O   UNL A   1      47.346  37.851  27.125  1.00  0.00    -0.237 OA
ATOM     88  O   UNL A   1      47.200  37.813  29.591  1.00  0.00    -0.237 OA
ATOM     89  O   UNL A   1      49.339  37.313  28.475  1.00  0.00    -0.744 OA
ENDBRANCH  85  86
ENDBRANCH  59  80
ENDBRANCH  33  34
ENDBRANCH  26  28
ENDBRANCH  25  26
ENDBRANCH  24  25
ENDBRANCH  23  24
ENDBRANCH  22  23
ENDBRANCH   1  22
TORSDOF 23
ENDMDL
MODEL 2
REMARK VINA RESULT:      -8.2      5.914     11.562
REMARK SMILES COCC[N@H+](C)[C@H](C(=O)OCCOCCOC(=O)c1ccc(-c2c3nc(c(-c4ccc(S(=O)(=O)[O-])cc4)c4ccc([nH]4)c(-c4ccc(S(=O)(=O)[O-])cc4)c4nc(c(-c5ccc(S(=O)(=O)[O-])cc5)c5ccc2[nH]5)C=C4)C=C3)cc1)c1ccc(OC)nc1
REMARK SMILES IDX 12 1 11 2 10 3 8 4 9 5 7 6 5 7 6 8 4 10 3 11 2 12 1 13 79 14
REMARK SMILES IDX 80 15 86 16 81 17 85 18 82 19 83 20 84 21 13 22 14 23 15 24
REMARK SMILES IDX 16 25 17 26 18 27 19 28 20 29 78 30 21 31 77 32 22 33 23 34
REMARK SMILES IDX 24 35 71 36 25 37 76 38 70 39 72 40 26 41 75 42 69 43 68 44
REMARK SMILES IDX 27 46 57 47 38 48 56 49 39 50 42 51 55 52 73 53 40 54 41 55
REMARK SMILES IDX 54 57 74 58 43 59 28 60 29 61 37 62 30 63 36 64 31 65 32 66
REMARK SMILES IDX 33 67 34 68 35 69 58 70 59 71 67 72 60 73 66 74 61 75 62 76
REMARK SMILES IDX 63 77 64 78 65 79 44 80 45 81 53 82 46 83 52 84 47 85 48 86
REMARK SMILES IDX 49 87 50 88 51 89
REMARK H PARENT 5 9 72 45 42 56
REMARK Flexibility Score: inf
ROOT
ATOM      1  C   UNL A   1      32.155  28.519  27.502  1.00  0.00     0.202 C 
ENDROOT
BRANCH   1   2
ATOM      2  C   UNL A   1      31.288  27.315  27.122  1.00  0.00     0.261 C 
BRANCH   2   3
ATOM      3  O   UNL A   1      31.980  26.472  26.185  1.00  0.00    -0.459 OA
BRANCH   3   4
ATOM      4  C   UNL A   1      31.203  25.815  25.286  1.00  0.00     0.370 C 
ATOM      5  O   UNL A   1      30.052  25.448  25.509  1.00  0.00    -0.245 OA
BRANCH   4   6
ATOM      6  C   UNL A   1      31.915  25.524  23.950  1.00  0.00     0.327 C 
BRANCH   6   7
ATOM      7  N   UNL A   1      32.675  26.643  23.284  1.00  0.00    -0.320 N 
ATOM      8  C   UNL A   1      33.290  26.357  21.988  1.00  0.00     0.333 C 
ATOM      9  H   UNL A   1      33.445  26.750  23.943  1.00  0.00     0.348 HD
BRANCH   7  10
ATOM     10  C   UNL A   1      31.906  27.912  23.179  1.00  0.00     0.291 C 
BRANCH  10  11
ATOM     11  C   UNL A   1      30.541  27.858  22.459  1.00  0.00     0.221 C 
BRANCH  11  12
ATOM     12  O   UNL A   1      29.620  28.859  22.897  1.00  0.00    -0.379 OA
ATOM     13  C   UNL A   1      29.505  29.954  22.001  1.00  0.00     0.195 C 
ENDBRANCH  11  12
ENDBRANCH  10  11
ENDBRANCH   7  10
ENDBRANCH   6   7
BRANCH   6  14
ATOM     14  C   UNL A   1      32.585  24.174  24.027  1.00  0.00     0.039 A 
ATOM     15  C   UNL A   1      32.086  23.038  23.397  1.00  0.00     0.018 A 
ATOM     16  C   UNL A   1      33.793  24.044  24.705  1.00  0.00     0.125 A 
ATOM     17  C   UNL A   1      32.770  21.831  23.515  1.00  0.00     0.069 A 
ATOM     18  N   UNL A   1      34.466  22.884  24.841  1.00  0.00    -0.222 NA
ATOM     19  C   UNL A   1      33.946  21.789  24.252  1.00  0.00     0.212 A 
BRANCH  19  20
ATOM     20  O   UNL A   1      34.704  20.677  24.464  1.00  0.00    -0.481 OA
ATOM     21  C   UNL A   1      35.844  20.838  25.292  1.00  0.00     0.280 C 
ENDBRANCH  19  20
ENDBRANCH   6  14
ENDBRANCH   4   6
ENDBRANCH   3   4
ENDBRANCH   2   3
ENDBRANCH   1   2
BRANCH   1  22
ATOM     22  O   UNL A   1      31.641  29.795  27.116  1.00  0.00    -0.374 OA
BRANCH  22  23
ATOM     23  C   UNL A   1      32.494  30.637  26.338  1.00  0.00     0.202 C 
BRANCH  23  24
ATOM     24  C   UNL A   1      33.690  31.256  27.066  1.00  0.00     0.261 C 
BRANCH  24  25
ATOM     25  O   UNL A   1      33.278  31.994  28.229  1.00  0.00    -0.460 OA
BRANCH  25  26
ATOM     26  C   UNL A   1      33.849  33.214  28.340  1.00  0.00     0.338 C 
ATOM     27  O   UNL A   1      33.455  34.256  27.831  1.00  0.00    -0.246 OA
BRANCH  26  28
ATOM     28  C   UNL A   1      34.942  33.187  29.332  1.00  0.00     0.060 A 
ATOM     29  C   UNL A   1      36.113  33.879  28.998  1.00  0.00     0.016 A 
ATOM     30  C   UNL A   1      34.871  32.445  30.515  1.00  0.00     0.016 A 
ATOM     31  C   UNL A   1      37.252  33.740  29.781  1.00  0.00     0.010 A 
ATOM     32  C   UNL A   1      36.019  32.311  31.305  1.00  0.00     0.010 A 
ATOM     33  C   UNL A   1      37.231  32.899  30.901  1.00  0.00    -0.014 A 
BRANCH  33  34
ATOM     34  C   UNL A   1      38.528  32.470  31.481  1.00  0.00     0.031 A 
ATOM     35  C   UNL A   1      38.922  33.002  32.838  1.00  0.00     0.074 A 
ATOM     36  C   UNL A   1      39.294  31.548  30.870  1.00  0.00     0.049 A 
ATOM     37  N   UNL A   1      39.959  32.702  33.577  1.00  0.00    -0.248 NA
ATOM     38  C   UNL A   1      38.024  34.001  33.442  1.00  0.00     0.031 C 
ATOM     39  C   UNL A   1      38.999  30.920  29.583  1.00  0.00     0.029 A 
ATOM     40  N   UNL A   1      40.471  30.964  31.267  1.00  0.00    -0.354 N 
ATOM     41  C   UNL A   1      39.844  33.482  34.724  1.00  0.00     0.074 A 
ATOM     42  C   UNL A   1      38.659  34.296  34.565  1.00  0.00     0.031 C 
ATOM     43  C   UNL A   1      39.963  30.025  29.304  1.00  0.00     0.029 A 
ATOM     44  C   UNL A   1      40.955  30.036  30.377  1.00  0.00     0.049 A 
ATOM     45  H   UNL A   1      40.925  31.189  32.111  1.00  0.00     0.167 HD
ATOM     46  C   UNL A   1      40.642  33.512  35.817  1.00  0.00     0.031 A 
ATOM     47  C   UNL A   1      42.071  29.281  30.423  1.00  0.00     0.031 A 
ATOM     48  C   UNL A   1      41.820  32.701  35.975  1.00  0.00     0.049 A 
ATOM     49  C   UNL A   1      42.975  29.372  31.626  1.00  0.00     0.074 A 
ATOM     50  C   UNL A   1      42.685  32.643  37.054  1.00  0.00     0.029 A 
ATOM     51  N   UNL A   1      42.302  31.812  35.027  1.00  0.00    -0.354 N 
ATOM     52  N   UNL A   1      42.837  30.097  32.711  1.00  0.00    -0.248 NA
ATOM     53  C   UNL A   1      44.176  28.526  31.616  1.00  0.00     0.031 C 
ATOM     54  C   UNL A   1      43.725  31.765  36.732  1.00  0.00     0.029 A 
ATOM     55  C   UNL A   1      43.467  31.219  35.485  1.00  0.00     0.049 A 
ATOM     56  H   UNL A   1      41.879  31.629  34.158  1.00  0.00     0.167 HD
ATOM     57  C   UNL A   1      43.911  29.760  33.531  1.00  0.00     0.074 A 
ATOM     58  C   UNL A   1      44.683  28.762  32.818  1.00  0.00     0.031 C 
ATOM     59  C   UNL A   1      44.226  30.227  34.766  1.00  0.00     0.031 A 
BRANCH  46  60
ATOM     60  C   UNL A   1      40.289  34.485  36.912  1.00  0.00    -0.014 A 
ATOM     61  C   UNL A   1      40.796  35.797  36.923  1.00  0.00     0.010 A 
ATOM     62  C   UNL A   1      39.408  34.085  37.933  1.00  0.00     0.010 A 
ATOM     63  C   UNL A   1      40.461  36.676  37.958  1.00  0.00     0.020 A 
ATOM     64  C   UNL A   1      39.046  34.969  38.952  1.00  0.00     0.020 A 
ATOM     65  C   UNL A   1      39.589  36.255  38.967  1.00  0.00     0.054 A 
BRANCH  65  66
ATOM     66  S   UNL A   1      39.156  37.421  40.287  1.00  0.00     0.124 S 
ATOM     67  O   UNL A   1      38.277  38.354  39.588  1.00  0.00    -0.237 OA
ATOM     68  O   UNL A   1      38.505  36.562  41.272  1.00  0.00    -0.237 OA
ATOM     69  O   UNL A   1      40.445  37.972  40.701  1.00  0.00    -0.744 OA
ENDBRANCH  65  66
ENDBRANCH  46  60
BRANCH  47  70
ATOM     70  C   UNL A   1      42.397  28.365  29.295  1.00  0.00    -0.014 A 
ATOM     71  C   UNL A   1      41.831  27.080  29.223  1.00  0.00     0.010 A 
ATOM     72  C   UNL A   1      43.289  28.776  28.287  1.00  0.00     0.010 A 
ATOM     73  C   UNL A   1      42.165  26.216  28.175  1.00  0.00     0.020 A 
ATOM     74  C   UNL A   1      43.602  27.927  27.222  1.00  0.00     0.020 A 
ATOM     75  C   UNL A   1      43.047  26.647  27.179  1.00  0.00     0.054 A 
BRANCH  75  76
ATOM     76  S   UNL A   1      43.428  25.530  25.802  1.00  0.00     0.124 S 
ATOM     77  O   UNL A   1      44.660  26.107  25.274  1.00  0.00    -0.237 OA
ATOM     78  O   UNL A   1      43.568  24.240  26.473  1.00  0.00    -0.237 OA
ATOM     79  O   UNL A   1      42.259  25.647  24.934  1.00  0.00    -0.744 OA
ENDBRANCH  75  76
ENDBRANCH  47  70
BRANCH  59  80
ATOM     80  C   UNL A   1      45.423  29.622  35.455  1.00  0.00    -0.014 A 
ATOM     81  C   UNL A   1      46.713  30.161  35.306  1.00  0.00     0.010 A 
ATOM     82  C   UNL A   1      45.240  28.508  36.296  1.00  0.00     0.010 A 
ATOM     83  C   UNL A   1      47.805  29.563  35.943  1.00  0.00     0.020 A 
ATOM     84  C   UNL A   1      46.324  27.929  36.961  1.00  0.00     0.020 A 
ATOM     85  C   UNL A   1      47.604  28.448  36.762  1.00  0.00     0.054 A 
BRANCH  85  86
ATOM     86  S   UNL A   1      49.035  27.696  37.586  1.00  0.00     0.124 S 
ATOM     87  O   UNL A   1      49.674  28.856  38.200  1.00  0.00    -0.237 OA
ATOM     88  O   UNL A   1      48.412  26.756  38.515  1.00  0.00    -0.237 OA
ATOM     89  O   UNL A   1      49.780  27.079  36.492  1.00  0.00    -0.744 OA
ENDBRANCH  85  86
ENDBRANCH  59  80
ENDBRANCH  33  34
ENDBRANCH  26  28
ENDBRANCH  25  26
ENDBRANCH  24  25
ENDBRANCH  23  24
ENDBRANCH  22  23
ENDBRANCH   1  22
TORSDOF 23
ENDMDL
MODEL 3
REMARK VINA RESULT:      -8.1      5.758      9.538
REMARK SMILES COCC[N@H+](C)[C@H](C(=O)OCCOCCOC(=O)c1ccc(-c2c3nc(c(-c4ccc(S(=O)(=O)[O-])cc4)c4ccc([nH]4)c(-c4ccc(S(=O)(=O)[O-])cc4)c4nc(c(-c5ccc(S(=O)(=O)[O-])cc5)c5ccc2[nH]5)C=C4)C=C3)cc1)c1ccc(OC)nc1
REMARK SMILES IDX 12 1 11 2 10 3 8 4 9 5 7 6 5 7 6 8 4 10 3 11 2 12 1 13 79 14
REMARK SMILES IDX 80 15 86 16 81 17 85 18 82 19 83 20 84 21 13 22 14 23 15 24
REMARK SMILES IDX 16 25 17 26 18 27 19 28 20 29 78 30 21 31 77 32 22 33 23 34
REMARK SMILES IDX 24 35 71 36 25 37 76 38 70 39 72 40 26 41 75 42 69 43 68 44
REMARK SMILES IDX 27 46 57 47 38 48 56 49 39 50 42 51 55 52 73 53 40 54 41 55
REMARK SMILES IDX 54 57 74 58 43 59 28 60 29 61 37 62 30 63 36 64 31 65 32 66
REMARK SMILES IDX 33 67 34 68 35 69 58 70 59 71 67 72 60 73 66 74 61 75 62 76
REMARK SMILES IDX 63 77 64 78 65 79 44 80 45 81 53 82 46 83 52 84 47 85 48 86
REMARK SMILES IDX 49 87 50 88 51 89
REMARK H PARENT 5 9 72 45 42 56
REMARK Flexibility Score: inf
ROOT
ATOM      1  C   UNL A   1      33.375  29.549  26.807  1.00  0.00     0.202 C 
ENDROOT
BRANCH   1   2
ATOM      2  C   UNL A   1      32.468  28.344  27.077  1.00  0.00     0.261 C 
BRANCH   2   3
ATOM      3  O   UNL A   1      32.911  27.201  26.325  1.00  0.00    -0.459 OA
BRANCH   3   4
ATOM      4  C   UNL A   1      31.962  26.278  26.028  1.00  0.00     0.370 C 
ATOM      5  O   UNL A   1      31.150  25.839  26.840  1.00  0.00    -0.245 OA
BRANCH   4   6
ATOM      6  C   UNL A   1      32.015  25.783  24.569  1.00  0.00     0.327 C 
BRANCH   6   7
ATOM      7  N   UNL A   1      31.665  26.753  23.470  1.00  0.00    -0.320 N 
ATOM      8  C   UNL A   1      31.440  26.201  22.134  1.00  0.00     0.333 C 
ATOM      9  H   UNL A   1      32.538  27.279  23.414  1.00  0.00     0.348 HD
BRANCH   7  10
ATOM     10  C   UNL A   1      30.537  27.663  23.808  1.00  0.00     0.291 C 
BRANCH  10  11
ATOM     11  C   UNL A   1      30.634  29.125  23.323  1.00  0.00     0.221 C 
BRANCH  11  12
ATOM     12  O   UNL A   1      29.366  29.771  23.188  1.00  0.00    -0.379 OA
ATOM     13  C   UNL A   1      29.271  30.597  22.038  1.00  0.00     0.195 C 
ENDBRANCH  11  12
ENDBRANCH  10  11
ENDBRANCH   7  10
ENDBRANCH   6   7
BRANCH   6  14
ATOM     14  C   UNL A   1      33.243  24.927  24.380  1.00  0.00     0.039 A 
ATOM     15  C   UNL A   1      33.834  24.203  25.411  1.00  0.00     0.018 A 
ATOM     16  C   UNL A   1      33.796  24.787  23.111  1.00  0.00     0.125 A 
ATOM     17  C   UNL A   1      34.963  23.432  25.150  1.00  0.00     0.069 A 
ATOM     18  N   UNL A   1      34.894  24.056  22.837  1.00  0.00    -0.222 NA
ATOM     19  C   UNL A   1      35.471  23.391  23.858  1.00  0.00     0.212 A 
BRANCH  19  20
ATOM     20  O   UNL A   1      36.576  22.697  23.467  1.00  0.00    -0.481 OA
ATOM     21  C   UNL A   1      37.154  21.834  24.433  1.00  0.00     0.280 C 
ENDBRANCH  19  20
ENDBRANCH   6  14
ENDBRANCH   4   6
ENDBRANCH   3   4
ENDBRANCH   2   3
ENDBRANCH   1   2
BRANCH   1  22
ATOM     22  O   UNL A   1      32.715  30.813  26.727  1.00  0.00    -0.374 OA
BRANCH  22  23
ATOM     23  C   UNL A   1      33.378  31.937  27.308  1.00  0.00     0.202 C 
BRANCH  23  24
ATOM     24  C   UNL A   1      32.486  33.093  27.769  1.00  0.00     0.261 C 
BRANCH  24  25
ATOM     25  O   UNL A   1      33.258  34.266  28.075  1.00  0.00    -0.460 OA
BRANCH  25  26
ATOM     26  C   UNL A   1      33.578  34.391  29.383  1.00  0.00     0.338 C 
ATOM     27  O   UNL A   1      32.875  34.864  30.267  1.00  0.00    -0.246 OA
BRANCH  26  28
ATOM     28  C   UNL A   1      34.849  33.698  29.674  1.00  0.00     0.060 A 
ATOM     29  C   UNL A   1      34.789  32.624  30.570  1.00  0.00     0.016 A 
ATOM     30  C   UNL A   1      36.076  34.125  29.160  1.00  0.00     0.016 A 
ATOM     31  C   UNL A   1      35.961  32.049  31.047  1.00  0.00     0.010 A 
ATOM     32  C   UNL A   1      37.256  33.540  29.637  1.00  0.00     0.010 A 
ATOM     33  C   UNL A   1      37.202  32.550  30.636  1.00  0.00    -0.014 A 
BRANCH  33  34
ATOM     34  C   UNL A   1      38.403  32.192  31.432  1.00  0.00     0.031 A 
ATOM     35  C   UNL A   1      39.406  31.236  30.833  1.00  0.00     0.074 A 
ATOM     36  C   UNL A   1      38.655  32.780  32.615  1.00  0.00     0.049 A 
ATOM     37  N   UNL A   1      40.563  30.848  31.302  1.00  0.00    -0.248 NA
ATOM     38  C   UNL A   1      39.058  30.644  29.530  1.00  0.00     0.031 C 
ATOM     39  C   UNL A   1      37.791  33.758  33.277  1.00  0.00     0.029 A 
ATOM     40  N   UNL A   1      39.728  32.653  33.462  1.00  0.00    -0.354 N 
ATOM     41  C   UNL A   1      41.075  29.960  30.361  1.00  0.00     0.074 A 
ATOM     42  C   UNL A   1      40.085  29.837  29.314  1.00  0.00     0.031 C 
ATOM     43  C   UNL A   1      38.378  34.154  34.420  1.00  0.00     0.029 A 
ATOM     44  C   UNL A   1      39.643  33.440  34.584  1.00  0.00     0.049 A 
ATOM     45  H   UNL A   1      40.488  32.054  33.280  1.00  0.00     0.167 HD
ATOM     46  C   UNL A   1      42.264  29.314  30.357  1.00  0.00     0.031 A 
ATOM     47  C   UNL A   1      40.489  33.570  35.626  1.00  0.00     0.031 A 
ATOM     48  C   UNL A   1      43.250  29.437  31.398  1.00  0.00     0.049 A 
ATOM     49  C   UNL A   1      41.783  32.797  35.627  1.00  0.00     0.074 A 
ATOM     50  C   UNL A   1      44.495  28.839  31.478  1.00  0.00     0.029 A 
ATOM     51  N   UNL A   1      43.101  30.205  32.542  1.00  0.00    -0.354 N 
ATOM     52  N   UNL A   1      42.260  31.981  34.717  1.00  0.00    -0.248 NA
ATOM     53  C   UNL A   1      42.661  32.980  36.791  1.00  0.00     0.031 C 
ATOM     54  C   UNL A   1      45.073  29.197  32.700  1.00  0.00     0.029 A 
ATOM     55  C   UNL A   1      44.220  30.077  33.347  1.00  0.00     0.049 A 
ATOM     56  H   UNL A   1      42.315  30.760  32.752  1.00  0.00     0.167 HD
ATOM     57  C   UNL A   1      43.513  31.589  35.180  1.00  0.00     0.074 A 
ATOM     58  C   UNL A   1      43.721  32.264  36.445  1.00  0.00     0.031 C 
ATOM     59  C   UNL A   1      44.416  30.754  34.604  1.00  0.00     0.031 A 
BRANCH  46  60
ATOM     60  C   UNL A   1      42.547  28.380  29.209  1.00  0.00    -0.014 A 
ATOM     61  C   UNL A   1      43.230  28.814  28.058  1.00  0.00     0.010 A 
ATOM     62  C   UNL A   1      42.147  27.035  29.298  1.00  0.00     0.010 A 
ATOM     63  C   UNL A   1      43.468  27.930  27.001  1.00  0.00     0.020 A 
ATOM     64  C   UNL A   1      42.411  26.140  28.258  1.00  0.00     0.020 A 
ATOM     65  C   UNL A   1      43.056  26.598  27.108  1.00  0.00     0.054 A 
BRANCH  65  66
ATOM     66  S   UNL A   1      43.395  25.467  25.731  1.00  0.00     0.124 S 
ATOM     67  O   UNL A   1      42.230  25.676  24.876  1.00  0.00    -0.237 OA
ATOM     68  O   UNL A   1      44.660  25.974  25.205  1.00  0.00    -0.237 OA
ATOM     69  O   UNL A   1      43.470  24.156  26.370  1.00  0.00    -0.744 OA
ENDBRANCH  65  66
ENDBRANCH  46  60
BRANCH  47  70
ATOM     70  C   UNL A   1      40.142  34.475  36.758  1.00  0.00    -0.014 A 
ATOM     71  C   UNL A   1      39.380  34.010  37.844  1.00  0.00     0.010 A 
ATOM     72  C   UNL A   1      40.567  35.816  36.745  1.00  0.00     0.010 A 
ATOM     73  C   UNL A   1      39.034  34.875  38.888  1.00  0.00     0.020 A 
ATOM     74  C   UNL A   1      40.249  36.675  37.801  1.00  0.00     0.020 A 
ATOM     75  C   UNL A   1      39.474  36.202  38.860  1.00  0.00     0.054 A 
BRANCH  75  76
ATOM     76  S   UNL A   1      39.058  37.293  40.249  1.00  0.00     0.124 S 
ATOM     77  O   UNL A   1      38.244  38.315  39.598  1.00  0.00    -0.237 OA
ATOM     78  O   UNL A   1      38.344  36.393  41.152  1.00  0.00    -0.237 OA
ATOM     79  O   UNL A   1      40.361  37.742  40.732  1.00  0.00    -0.744 OA
ENDBRANCH  75  76
ENDBRANCH  47  70
BRANCH  59  80
ATOM     80  C   UNL A   1      45.737  30.566  35.306  1.00  0.00    -0.014 A 
ATOM     81  C   UNL A   1      46.861  31.348  34.988  1.00  0.00     0.010 A 
ATOM     82  C   UNL A   1      45.840  29.605  36.329  1.00  0.00     0.010 A 
ATOM     83  C   UNL A   1      48.078  31.134  35.644  1.00  0.00     0.020 A 
ATOM     84  C   UNL A   1      47.045  29.412  37.010  1.00  0.00     0.020 A 
ATOM     85  C   UNL A   1      48.162  30.164  36.647  1.00  0.00     0.054 A 
BRANCH  85  86
ATOM     86  S   UNL A   1      49.749  29.912  37.490  1.00  0.00     0.124 S 
ATOM     87  O   UNL A   1      50.231  28.684  36.866  1.00  0.00    -0.237 OA
ATOM     88  O   UNL A   1      50.488  31.125  37.149  1.00  0.00    -0.237 OA
ATOM     89  O   UNL A   1      49.378  29.792  38.898  1.00  0.00    -0.744 OA
ENDBRANCH  85  86
ENDBRANCH  59  80
ENDBRANCH  33  34
ENDBRANCH  26  28
ENDBRANCH  25  26
ENDBRANCH  24  25
ENDBRANCH  23  24
ENDBRANCH  22  23
ENDBRANCH   1  22
TORSDOF 23
ENDMDL
