MODEL 1
REMARK VINA RESULT:     -12.2      0.000      0.000
REMARK SMILES CC(C)CCn1nc(C(=O)OCCOCCOC(=O)c2ccc(-c3c4nc(c(-c5ccc(S(=O)(=O)[O-])cc5)c5ccc([nH]5)c(-c5ccc(S(=O)(=O)[O-])cc5)c5nc(c(-c6ccc(S(=O)(=O)[O-])cc6)c6ccc3[nH]6)C=C5)C=C4)cc2)c2c1CCN(C(=O)[C@@H]1CCc3nn(C)c(=O)n3C1)C2
REMARK SMILES IDX 14 1 13 2 12 3 11 4 9 5 10 6 8 7 6 8 7 9 81 10 80 11 82 12
REMARK SMILES IDX 98 13 83 14 84 15 5 16 4 17 2 18 1 19 3 20 85 21 86 22 87 23
REMARK SMILES IDX 88 24 97 25 89 26 96 27 90 28 94 29 91 30 92 31 95 32 93 33
REMARK SMILES IDX 15 34 16 35 17 36 18 37 19 38 20 39 21 40 79 41 22 42 78 43
REMARK SMILES IDX 23 44 24 45 25 46 72 47 26 48 77 49 71 50 73 51 27 52 76 53
REMARK SMILES IDX 70 54 69 55 28 57 58 58 39 59 57 60 40 61 43 62 56 63 74 64
REMARK SMILES IDX 41 65 42 66 55 68 75 69 44 70 29 71 30 72 38 73 31 74 37 75
REMARK SMILES IDX 32 76 33 77 34 78 35 79 36 80 59 81 60 82 68 83 61 84 67 85
REMARK SMILES IDX 62 86 63 87 64 88 65 89 66 90 45 91 46 92 54 93 47 94 53 95
REMARK SMILES IDX 48 96 49 97 50 98 51 99 52 100
REMARK H PARENT 73 56 43 67
REMARK Flexibility Score: inf
ROOT
ATOM      1  O   UNL A   1      40.726  20.572  26.756  1.00  0.00    -0.374 OA
ENDROOT
BRANCH   1   2
ATOM      2  C   UNL A   1      39.945  21.458  25.953  1.00  0.00     0.202 C 
BRANCH   2   3
ATOM      3  C   UNL A   1      38.454  21.127  25.872  1.00  0.00     0.261 C 
BRANCH   3   4
ATOM      4  O   UNL A   1      37.831  21.908  24.845  1.00  0.00    -0.458 OA
BRANCH   4   5
ATOM      5  C   UNL A   1      36.857  22.781  25.240  1.00  0.00     0.359 C 
ATOM      6  O   UNL A   1      37.070  23.838  25.821  1.00  0.00    -0.244 OA
BRANCH   5   7
ATOM      7  C   UNL A   1      35.528  22.317  24.802  1.00  0.00     0.175 A 
ATOM      8  N   UNL A   1      33.849  21.008  24.512  1.00  0.00    -0.268 N 
ATOM      9  N   UNL A   1      35.040  21.102  25.141  1.00  0.00    -0.165 NA
ATOM     10  C   UNL A   1      33.644  22.069  23.690  1.00  0.00     0.046 A 
ATOM     11  C   UNL A   1      34.585  23.030  24.012  1.00  0.00     0.028 A 
ATOM     12  C   UNL A   1      32.706  22.232  22.563  1.00  0.00     0.078 C 
ATOM     13  C   UNL A   1      34.606  24.419  23.410  1.00  0.00     0.159 C 
ATOM     14  C   UNL A   1      33.379  23.256  21.639  1.00  0.00     0.126 C 
ATOM     15  N   UNL A   1      33.579  24.511  22.339  1.00  0.00    -0.338 N 
BRANCH   8  16
ATOM     16  C   UNL A   1      32.946  19.931  24.884  1.00  0.00     0.145 C 
BRANCH  16  17
ATOM     17  C   UNL A   1      33.489  18.497  24.863  1.00  0.00     0.027 C 
BRANCH  17  18
ATOM     18  C   UNL A   1      32.916  17.606  23.744  1.00  0.00    -0.016 C 
ATOM     19  C   UNL A   1      32.269  18.426  22.632  1.00  0.00     0.007 C 
ATOM     20  C   UNL A   1      34.019  16.710  23.170  1.00  0.00     0.007 C 
ENDBRANCH  17  18
ENDBRANCH  16  17
ENDBRANCH   8  16
BRANCH  15  21
ATOM     21  C   UNL A   1      32.948  25.712  22.092  1.00  0.00     0.227 C 
ATOM     22  O   UNL A   1      33.333  26.402  21.139  1.00  0.00    -0.274 OA
BRANCH  21  23
ATOM     23  C   UNL A   1      31.777  26.293  22.945  1.00  0.00     0.099 C 
ATOM     24  C   UNL A   1      32.099  27.466  23.883  1.00  0.00     0.023 C 
ATOM     25  C   UNL A   1      30.804  25.304  23.583  1.00  0.00     0.142 C 
ATOM     26  C   UNL A   1      32.417  27.111  25.332  1.00  0.00     0.078 C 
ATOM     27  N   UNL A   1      31.084  25.050  24.979  1.00  0.00    -0.278 N 
ATOM     28  C   UNL A   1      31.866  25.794  25.788  1.00  0.00     0.133 A 
ATOM     29  C   UNL A   1      30.961  23.823  25.587  1.00  0.00     0.345 A 
ATOM     30  N   UNL A   1      32.255  25.193  26.877  1.00  0.00    -0.155 NA
ATOM     31  N   UNL A   1      31.697  23.934  26.774  1.00  0.00    -0.216 N 
ATOM     32  O   UNL A   1      30.470  22.809  25.116  1.00  0.00    -0.246 OA
ATOM     33  C   UNL A   1      32.170  22.815  27.542  1.00  0.00     0.179 C 
ENDBRANCH  21  23
ENDBRANCH  15  21
ENDBRANCH   5   7
ENDBRANCH   4   5
ENDBRANCH   3   4
ENDBRANCH   2   3
ENDBRANCH   1   2
BRANCH   1  34
ATOM     34  C   UNL A   1      41.133  19.326  26.198  1.00  0.00     0.202 C 
BRANCH  34  35
ATOM     35  C   UNL A   1      42.596  19.179  25.817  1.00  0.00     0.261 C 
BRANCH  35  36
ATOM     36  O   UNL A   1      43.034  20.235  24.969  1.00  0.00    -0.460 OA
BRANCH  36  37
ATOM     37  C   UNL A   1      44.293  20.667  25.229  1.00  0.00     0.338 C 
ATOM     38  O   UNL A   1      45.282  19.982  25.386  1.00  0.00    -0.246 OA
BRANCH  37  39
ATOM     39  C   UNL A   1      44.230  22.112  25.495  1.00  0.00     0.060 A 
ATOM     40  C   UNL A   1      44.993  22.591  26.559  1.00  0.00     0.016 A 
ATOM     41  C   UNL A   1      43.266  22.914  24.865  1.00  0.00     0.016 A 
ATOM     42  C   UNL A   1      44.665  23.817  27.099  1.00  0.00     0.010 A 
ATOM     43  C   UNL A   1      42.940  24.138  25.403  1.00  0.00     0.010 A 
ATOM     44  C   UNL A   1      43.593  24.545  26.558  1.00  0.00    -0.014 A 
BRANCH  44  45
ATOM     45  C   UNL A   1      43.275  25.830  27.147  1.00  0.00     0.031 A 
ATOM     46  C   UNL A   1      44.295  26.851  26.834  1.00  0.00     0.074 A 
ATOM     47  C   UNL A   1      42.165  26.089  27.865  1.00  0.00     0.049 A 
ATOM     48  N   UNL A   1      45.218  27.269  27.632  1.00  0.00    -0.248 NA
ATOM     49  C   UNL A   1      44.448  27.299  25.442  1.00  0.00     0.031 C 
ATOM     50  C   UNL A   1      40.984  25.246  28.066  1.00  0.00     0.029 A 
ATOM     51  N   UNL A   1      41.838  27.232  28.526  1.00  0.00    -0.354 N 
ATOM     52  C   UNL A   1      45.936  28.211  26.914  1.00  0.00     0.074 A 
ATOM     53  C   UNL A   1      45.540  28.061  25.536  1.00  0.00     0.031 C 
ATOM     54  C   UNL A   1      39.990  25.989  28.613  1.00  0.00     0.029 A 
ATOM     55  C   UNL A   1      40.513  27.304  28.941  1.00  0.00     0.049 A 
ATOM     56  H   UNL A   1      42.488  27.952  28.699  1.00  0.00     0.167 HD
ATOM     57  C   UNL A   1      46.607  29.204  27.555  1.00  0.00     0.031 A 
ATOM     58  C   UNL A   1      39.900  28.378  29.504  1.00  0.00     0.031 A 
ATOM     59  C   UNL A   1      46.716  28.940  28.968  1.00  0.00     0.049 A 
ATOM     60  C   UNL A   1      40.967  29.204  30.115  1.00  0.00     0.074 A 
ATOM     61  C   UNL A   1      47.352  27.997  29.746  1.00  0.00     0.029 A 
ATOM     62  N   UNL A   1      45.741  29.509  29.752  1.00  0.00    -0.354 N 
ATOM     63  N   UNL A   1      41.677  28.806  31.133  1.00  0.00    -0.248 NA
ATOM     64  C   UNL A   1      41.544  30.289  29.339  1.00  0.00     0.031 C 
ATOM     65  C   UNL A   1      46.472  27.761  30.843  1.00  0.00     0.029 A 
ATOM     66  C   UNL A   1      45.372  28.615  30.722  1.00  0.00     0.049 A 
ATOM     67  H   UNL A   1      45.368  30.412  29.635  1.00  0.00     0.167 HD
ATOM     68  C   UNL A   1      42.960  29.257  30.863  1.00  0.00     0.074 A 
ATOM     69  C   UNL A   1      42.791  30.267  29.820  1.00  0.00     0.031 C 
ATOM     70  C   UNL A   1      44.050  28.570  31.317  1.00  0.00     0.031 A 
BRANCH  57  71
ATOM     71  C   UNL A   1      46.742  30.597  27.000  1.00  0.00    -0.014 A 
ATOM     72  C   UNL A   1      47.999  31.229  27.064  1.00  0.00     0.010 A 
ATOM     73  C   UNL A   1      45.628  31.406  26.694  1.00  0.00     0.010 A 
ATOM     74  C   UNL A   1      48.125  32.610  26.880  1.00  0.00     0.020 A 
ATOM     75  C   UNL A   1      45.749  32.777  26.470  1.00  0.00     0.020 A 
ATOM     76  C   UNL A   1      46.996  33.376  26.591  1.00  0.00     0.054 A 
BRANCH  76  77
ATOM     77  S   UNL A   1      47.160  35.170  26.427  1.00  0.00     0.124 S 
ATOM     78  O   UNL A   1      48.131  35.286  25.344  1.00  0.00    -0.237 OA
ATOM     79  O   UNL A   1      45.794  35.573  26.103  1.00  0.00    -0.237 OA
ATOM     80  O   UNL A   1      47.633  35.591  27.743  1.00  0.00    -0.744 OA
ENDBRANCH  76  77
ENDBRANCH  57  71
BRANCH  58  81
ATOM     81  C   UNL A   1      38.533  28.909  29.266  1.00  0.00    -0.014 A 
ATOM     82  C   UNL A   1      37.792  29.502  30.309  1.00  0.00     0.010 A 
ATOM     83  C   UNL A   1      38.089  29.127  27.946  1.00  0.00     0.010 A 
ATOM     84  C   UNL A   1      36.698  30.345  30.038  1.00  0.00     0.020 A 
ATOM     85  C   UNL A   1      36.998  29.962  27.669  1.00  0.00     0.020 A 
ATOM     86  C   UNL A   1      36.324  30.590  28.715  1.00  0.00     0.054 A 
BRANCH  86  87
ATOM     87  S   UNL A   1      35.041  31.832  28.359  1.00  0.00     0.124 S 
ATOM     88  O   UNL A   1      34.555  32.168  29.693  1.00  0.00    -0.237 OA
ATOM     89  O   UNL A   1      35.793  32.881  27.676  1.00  0.00    -0.237 OA
ATOM     90  O   UNL A   1      34.089  31.109  27.516  1.00  0.00    -0.744 OA
ENDBRANCH  86  87
ENDBRANCH  58  81
BRANCH  70  91
ATOM     91  C   UNL A   1      43.835  27.549  32.412  1.00  0.00    -0.014 A 
ATOM     92  C   UNL A   1      43.147  27.799  33.616  1.00  0.00     0.010 A 
ATOM     93  C   UNL A   1      44.266  26.238  32.148  1.00  0.00     0.010 A 
ATOM     94  C   UNL A   1      42.925  26.764  34.541  1.00  0.00     0.020 A 
ATOM     95  C   UNL A   1      44.031  25.202  33.052  1.00  0.00     0.020 A 
ATOM     96  C   UNL A   1      43.372  25.470  34.250  1.00  0.00     0.054 A 
BRANCH  96  97
ATOM     97  S   UNL A   1      43.064  24.125  35.430  1.00  0.00     0.124 S 
ATOM     98  O   UNL A   1      43.962  24.457  36.532  1.00  0.00    -0.237 OA
ATOM     99  O   UNL A   1      41.638  24.264  35.716  1.00  0.00    -0.237 OA
ATOM    100  O   UNL A   1      43.422  22.919  34.684  1.00  0.00    -0.744 OA
ENDBRANCH  96  97
ENDBRANCH  70  91
ENDBRANCH  44  45
ENDBRANCH  37  39
ENDBRANCH  36  37
ENDBRANCH  35  36
ENDBRANCH  34  35
ENDBRANCH   1  34
TORSDOF 22
ENDMDL
MODEL 2
REMARK VINA RESULT:     -10.7      1.313      1.949
REMARK SMILES CC(C)CCn1nc(C(=O)OCCOCCOC(=O)c2ccc(-c3c4nc(c(-c5ccc(S(=O)(=O)[O-])cc5)c5ccc([nH]5)c(-c5ccc(S(=O)(=O)[O-])cc5)c5nc(c(-c6ccc(S(=O)(=O)[O-])cc6)c6ccc3[nH]6)C=C5)C=C4)cc2)c2c1CCN(C(=O)[C@@H]1CCc3nn(C)c(=O)n3C1)C2
REMARK SMILES IDX 14 1 13 2 12 3 11 4 9 5 10 6 8 7 6 8 7 9 81 10 80 11 82 12
REMARK SMILES IDX 98 13 83 14 84 15 5 16 4 17 2 18 1 19 3 20 85 21 86 22 87 23
REMARK SMILES IDX 88 24 97 25 89 26 96 27 90 28 94 29 91 30 92 31 95 32 93 33
REMARK SMILES IDX 15 34 16 35 17 36 18 37 19 38 20 39 21 40 79 41 22 42 78 43
REMARK SMILES IDX 23 44 24 45 25 46 72 47 26 48 77 49 71 50 73 51 27 52 76 53
REMARK SMILES IDX 70 54 69 55 28 57 58 58 39 59 57 60 40 61 43 62 56 63 74 64
REMARK SMILES IDX 41 65 42 66 55 68 75 69 44 70 29 71 30 72 38 73 31 74 37 75
REMARK SMILES IDX 32 76 33 77 34 78 35 79 36 80 59 81 60 82 68 83 61 84 67 85
REMARK SMILES IDX 62 86 63 87 64 88 65 89 66 90 45 91 46 92 54 93 47 94 53 95
REMARK SMILES IDX 48 96 49 97 50 98 51 99 52 100
REMARK H PARENT 73 56 43 67
REMARK Flexibility Score: inf
ROOT
ATOM      1  O   UNL A   1      41.841  21.133  27.395  1.00  0.00    -0.374 OA
ENDROOT
BRANCH   1   2
ATOM      2  C   UNL A   1      40.705  21.801  26.842  1.00  0.00     0.202 C 
BRANCH   2   3
ATOM      3  C   UNL A   1      39.584  20.885  26.346  1.00  0.00     0.261 C 
BRANCH   3   4
ATOM      4  O   UNL A   1      38.804  21.559  25.351  1.00  0.00    -0.458 OA
BRANCH   4   5
ATOM      5  C   UNL A   1      37.820  22.393  25.801  1.00  0.00     0.359 C 
ATOM      6  O   UNL A   1      38.020  23.406  26.459  1.00  0.00    -0.244 OA
BRANCH   5   7
ATOM      7  C   UNL A   1      36.498  21.953  25.318  1.00  0.00     0.175 A 
ATOM      8  N   UNL A   1      34.898  20.632  24.759  1.00  0.00    -0.268 N 
ATOM      9  N   UNL A   1      36.123  20.654  25.328  1.00  0.00    -0.165 NA
ATOM     10  C   UNL A   1      34.559  21.857  24.280  1.00  0.00     0.046 A 
ATOM     11  C   UNL A   1      35.451  22.770  24.809  1.00  0.00     0.028 A 
ATOM     12  C   UNL A   1      33.532  22.241  23.292  1.00  0.00     0.078 C 
ATOM     13  C   UNL A   1      35.331  24.268  24.621  1.00  0.00     0.159 C 
ATOM     14  C   UNL A   1      34.062  23.535  22.659  1.00  0.00     0.126 C 
ATOM     15  N   UNL A   1      34.225  24.560  23.672  1.00  0.00    -0.338 N 
BRANCH   8  16
ATOM     16  C   UNL A   1      34.102  19.420  24.860  1.00  0.00     0.145 C 
BRANCH  16  17
ATOM     17  C   UNL A   1      34.710  18.114  24.333  1.00  0.00     0.027 C 
BRANCH  17  18
ATOM     18  C   UNL A   1      33.918  16.843  24.692  1.00  0.00    -0.016 C 
ATOM     19  C   UNL A   1      34.815  15.747  25.259  1.00  0.00     0.007 C 
ATOM     20  C   UNL A   1      32.801  17.182  25.684  1.00  0.00     0.007 C 
ENDBRANCH  17  18
ENDBRANCH  16  17
ENDBRANCH   8  16
BRANCH  15  21
ATOM     21  C   UNL A   1      33.494  25.723  23.805  1.00  0.00     0.227 C 
ATOM     22  O   UNL A   1      34.041  26.803  23.541  1.00  0.00    -0.274 OA
BRANCH  21  23
ATOM     23  C   UNL A   1      32.012  25.792  24.286  1.00  0.00     0.099 C 
ATOM     24  C   UNL A   1      30.953  26.221  23.260  1.00  0.00     0.023 C 
ATOM     25  C   UNL A   1      31.740  26.386  25.667  1.00  0.00     0.142 C 
ATOM     26  C   UNL A   1      30.575  27.699  23.249  1.00  0.00     0.078 C 
ATOM     27  N   UNL A   1      31.305  27.765  25.618  1.00  0.00    -0.278 N 
ATOM     28  C   UNL A   1      30.845  28.422  24.534  1.00  0.00     0.133 A 
ATOM     29  C   UNL A   1      31.678  28.731  26.522  1.00  0.00     0.345 A 
ATOM     30  N   UNL A   1      30.854  29.721  24.637  1.00  0.00    -0.155 NA
ATOM     31  N   UNL A   1      31.384  29.946  25.891  1.00  0.00    -0.216 N 
ATOM     32  O   UNL A   1      32.291  28.571  27.566  1.00  0.00    -0.246 OA
ATOM     33  C   UNL A   1      31.939  31.215  26.278  1.00  0.00     0.179 C 
ENDBRANCH  21  23
ENDBRANCH  15  21
ENDBRANCH   5   7
ENDBRANCH   4   5
ENDBRANCH   3   4
ENDBRANCH   2   3
ENDBRANCH   1   2
BRANCH   1  34
ATOM     34  C   UNL A   1      41.963  19.726  27.204  1.00  0.00     0.202 C 
BRANCH  34  35
ATOM     35  C   UNL A   1      42.736  19.255  25.985  1.00  0.00     0.261 C 
BRANCH  35  36
ATOM     36  O   UNL A   1      43.007  20.320  25.081  1.00  0.00    -0.460 OA
BRANCH  36  37
ATOM     37  C   UNL A   1      44.289  20.765  25.118  1.00  0.00     0.338 C 
ATOM     38  O   UNL A   1      45.296  20.088  25.097  1.00  0.00    -0.246 OA
BRANCH  37  39
ATOM     39  C   UNL A   1      44.259  22.208  25.395  1.00  0.00     0.060 A 
ATOM     40  C   UNL A   1      45.133  22.681  26.372  1.00  0.00     0.016 A 
ATOM     41  C   UNL A   1      43.236  23.016  24.875  1.00  0.00     0.016 A 
ATOM     42  C   UNL A   1      44.870  23.905  26.950  1.00  0.00     0.010 A 
ATOM     43  C   UNL A   1      42.974  24.239  25.451  1.00  0.00     0.010 A 
ATOM     44  C   UNL A   1      43.748  24.638  26.531  1.00  0.00    -0.014 A 
BRANCH  44  45
ATOM     45  C   UNL A   1      43.500  25.922  27.156  1.00  0.00     0.031 A 
ATOM     46  C   UNL A   1      44.561  26.902  26.849  1.00  0.00     0.074 A 
ATOM     47  C   UNL A   1      42.415  26.214  27.899  1.00  0.00     0.049 A 
ATOM     48  N   UNL A   1      45.515  27.258  27.640  1.00  0.00    -0.248 NA
ATOM     49  C   UNL A   1      44.711  27.377  25.466  1.00  0.00     0.031 C 
ATOM     50  C   UNL A   1      41.200  25.421  28.101  1.00  0.00     0.029 A 
ATOM     51  N   UNL A   1      42.152  27.354  28.593  1.00  0.00    -0.354 N 
ATOM     52  C   UNL A   1      46.264  28.183  26.932  1.00  0.00     0.074 A 
ATOM     53  C   UNL A   1      45.838  28.085  25.558  1.00  0.00     0.031 C 
ATOM     54  C   UNL A   1      40.251  26.194  28.682  1.00  0.00     0.029 A 
ATOM     55  C   UNL A   1      40.839  27.476  29.033  1.00  0.00     0.049 A 
ATOM     56  H   UNL A   1      42.838  28.038  28.771  1.00  0.00     0.167 HD
ATOM     57  C   UNL A   1      46.990  29.128  27.585  1.00  0.00     0.031 A 
ATOM     58  C   UNL A   1      40.286  28.563  29.632  1.00  0.00     0.031 A 
ATOM     59  C   UNL A   1      47.110  28.825  28.988  1.00  0.00     0.049 A 
ATOM     60  C   UNL A   1      41.400  29.323  30.244  1.00  0.00     0.074 A 
ATOM     61  C   UNL A   1      47.715  27.835  29.733  1.00  0.00     0.029 A 
ATOM     62  N   UNL A   1      46.176  29.418  29.803  1.00  0.00    -0.354 N 
ATOM     63  N   UNL A   1      42.108  28.869  31.239  1.00  0.00    -0.248 NA
ATOM     64  C   UNL A   1      42.014  30.400  29.483  1.00  0.00     0.031 C 
ATOM     65  C   UNL A   1      46.843  27.613  30.839  1.00  0.00     0.029 A 
ATOM     66  C   UNL A   1      45.782  28.519  30.758  1.00  0.00     0.049 A 
ATOM     67  H   UNL A   1      45.843  30.340  29.715  1.00  0.00     0.167 HD
ATOM     68  C   UNL A   1      43.406  29.267  30.957  1.00  0.00     0.074 A 
ATOM     69  C   UNL A   1      43.265  30.309  29.942  1.00  0.00     0.031 C 
ATOM     70  C   UNL A   1      44.470  28.520  31.375  1.00  0.00     0.031 A 
BRANCH  57  71
ATOM     71  C   UNL A   1      47.181  30.527  27.061  1.00  0.00    -0.014 A 
ATOM     72  C   UNL A   1      48.483  31.061  27.023  1.00  0.00     0.010 A 
ATOM     73  C   UNL A   1      46.109  31.427  26.887  1.00  0.00     0.010 A 
ATOM     74  C   UNL A   1      48.698  32.435  26.869  1.00  0.00     0.020 A 
ATOM     75  C   UNL A   1      46.313  32.793  26.693  1.00  0.00     0.020 A 
ATOM     76  C   UNL A   1      47.609  33.293  26.712  1.00  0.00     0.054 A 
BRANCH  76  77
ATOM     77  S   UNL A   1      47.895  35.074  26.587  1.00  0.00     0.124 S 
ATOM     78  O   UNL A   1      49.096  35.245  27.397  1.00  0.00    -0.237 OA
ATOM     79  O   UNL A   1      48.069  35.255  25.148  1.00  0.00    -0.237 OA
ATOM     80  O   UNL A   1      46.676  35.657  27.140  1.00  0.00    -0.744 OA
ENDBRANCH  76  77
ENDBRANCH  57  71
BRANCH  58  81
ATOM     81  C   UNL A   1      38.941  29.162  29.431  1.00  0.00    -0.014 A 
ATOM     82  C   UNL A   1      37.946  29.062  30.425  1.00  0.00     0.010 A 
ATOM     83  C   UNL A   1      38.744  30.107  28.404  1.00  0.00     0.010 A 
ATOM     84  C   UNL A   1      36.837  29.929  30.436  1.00  0.00     0.020 A 
ATOM     85  C   UNL A   1      37.641  30.971  28.407  1.00  0.00     0.020 A 
ATOM     86  C   UNL A   1      36.706  30.897  29.437  1.00  0.00     0.054 A 
BRANCH  86  87
ATOM     87  S   UNL A   1      35.385  32.143  29.562  1.00  0.00     0.124 S 
ATOM     88  O   UNL A   1      34.460  31.723  28.514  1.00  0.00    -0.237 OA
ATOM     89  O   UNL A   1      34.911  31.970  30.932  1.00  0.00    -0.237 OA
ATOM     90  O   UNL A   1      36.078  33.405  29.307  1.00  0.00    -0.744 OA
ENDBRANCH  86  87
ENDBRANCH  58  81
BRANCH  70  91
ATOM     91  C   UNL A   1      44.226  27.483  32.450  1.00  0.00    -0.014 A 
ATOM     92  C   UNL A   1      43.231  27.577  33.442  1.00  0.00     0.010 A 
ATOM     93  C   UNL A   1      44.985  26.303  32.372  1.00  0.00     0.010 A 
ATOM     94  C   UNL A   1      43.025  26.524  34.350  1.00  0.00     0.020 A 
ATOM     95  C   UNL A   1      44.772  25.245  33.257  1.00  0.00     0.020 A 
ATOM     96  C   UNL A   1      43.801  25.364  34.250  1.00  0.00     0.054 A 
BRANCH  96  97
ATOM     97  S   UNL A   1      43.520  23.990  35.404  1.00  0.00     0.124 S 
ATOM     98  O   UNL A   1      42.974  24.667  36.576  1.00  0.00    -0.237 OA
ATOM     99  O   UNL A   1      42.583  23.139  34.675  1.00  0.00    -0.237 OA
ATOM    100  O   UNL A   1      44.852  23.414  35.589  1.00  0.00    -0.744 OA
ENDBRANCH  96  97
ENDBRANCH  70  91
ENDBRANCH  44  45
ENDBRANCH  37  39
ENDBRANCH  36  37
ENDBRANCH  35  36
ENDBRANCH  34  35
ENDBRANCH   1  34
TORSDOF 22
ENDMDL
MODEL 3
REMARK VINA RESULT:     -10.0      9.175     17.396
REMARK SMILES CC(C)CCn1nc(C(=O)OCCOCCOC(=O)c2ccc(-c3c4nc(c(-c5ccc(S(=O)(=O)[O-])cc5)c5ccc([nH]5)c(-c5ccc(S(=O)(=O)[O-])cc5)c5nc(c(-c6ccc(S(=O)(=O)[O-])cc6)c6ccc3[nH]6)C=C5)C=C4)cc2)c2c1CCN(C(=O)[C@@H]1CCc3nn(C)c(=O)n3C1)C2
REMARK SMILES IDX 14 1 13 2 12 3 11 4 9 5 10 6 8 7 6 8 7 9 81 10 80 11 82 12
REMARK SMILES IDX 98 13 83 14 84 15 5 16 4 17 2 18 1 19 3 20 85 21 86 22 87 23
REMARK SMILES IDX 88 24 97 25 89 26 96 27 90 28 94 29 91 30 92 31 95 32 93 33
REMARK SMILES IDX 15 34 16 35 17 36 18 37 19 38 20 39 21 40 79 41 22 42 78 43
REMARK SMILES IDX 23 44 24 45 25 46 72 47 26 48 77 49 71 50 73 51 27 52 76 53
REMARK SMILES IDX 70 54 69 55 28 57 58 58 39 59 57 60 40 61 43 62 56 63 74 64
REMARK SMILES IDX 41 65 42 66 55 68 75 69 44 70 29 71 30 72 38 73 31 74 37 75
REMARK SMILES IDX 32 76 33 77 34 78 35 79 36 80 59 81 60 82 68 83 61 84 67 85
REMARK SMILES IDX 62 86 63 87 64 88 65 89 66 90 45 91 46 92 54 93 47 94 53 95
REMARK SMILES IDX 48 96 49 97 50 98 51 99 52 100
REMARK H PARENT 73 56 43 67
REMARK Flexibility Score: inf
ROOT
ATOM      1  O   UNL A   1      42.602  43.005  31.092  1.00  0.00    -0.374 OA
ENDROOT
BRANCH   1   2
ATOM      2  C   UNL A   1      43.349  42.119  30.258  1.00  0.00     0.202 C 
BRANCH   2   3
ATOM      3  C   UNL A   1      42.540  40.999  29.601  1.00  0.00     0.261 C 
BRANCH   3   4
ATOM      4  O   UNL A   1      43.286  40.418  28.525  1.00  0.00    -0.458 OA
BRANCH   4   5
ATOM      5  C   UNL A   1      42.832  40.659  27.259  1.00  0.00     0.359 C 
ATOM      6  O   UNL A   1      41.739  40.303  26.838  1.00  0.00    -0.244 OA
BRANCH   5   7
ATOM      7  C   UNL A   1      43.798  41.474  26.501  1.00  0.00     0.175 A 
ATOM      8  N   UNL A   1      45.594  42.566  26.052  1.00  0.00    -0.268 N 
ATOM      9  N   UNL A   1      45.033  41.757  26.977  1.00  0.00    -0.165 NA
ATOM     10  C   UNL A   1      44.701  42.897  25.084  1.00  0.00     0.046 A 
ATOM     11  C   UNL A   1      43.617  42.050  25.214  1.00  0.00     0.028 A 
ATOM     12  C   UNL A   1      44.726  44.001  24.106  1.00  0.00     0.078 C 
ATOM     13  C   UNL A   1      42.462  42.010  24.236  1.00  0.00     0.159 C 
ATOM     14  C   UNL A   1      43.249  44.287  23.801  1.00  0.00     0.126 C 
ATOM     15  N   UNL A   1      42.612  43.108  23.246  1.00  0.00    -0.338 N 
BRANCH   8  16
ATOM     16  C   UNL A   1      47.020  42.835  26.134  1.00  0.00     0.145 C 
BRANCH  16  17
ATOM     17  C   UNL A   1      47.520  43.729  27.276  1.00  0.00     0.027 C 
BRANCH  17  18
ATOM     18  C   UNL A   1      48.024  45.117  26.836  1.00  0.00    -0.016 C 
ATOM     19  C   UNL A   1      48.024  45.273  25.318  1.00  0.00     0.007 C 
ATOM     20  C   UNL A   1      47.173  46.214  27.483  1.00  0.00     0.007 C 
ENDBRANCH  17  18
ENDBRANCH  16  17
ENDBRANCH   8  16
BRANCH  15  21
ATOM     21  C   UNL A   1      42.146  42.943  21.958  1.00  0.00     0.227 C 
ATOM     22  O   UNL A   1      40.934  43.076  21.743  1.00  0.00    -0.274 OA
BRANCH  21  23
ATOM     23  C   UNL A   1      43.036  42.576  20.731  1.00  0.00     0.099 C 
ATOM     24  C   UNL A   1      44.543  42.849  20.843  1.00  0.00     0.023 C 
ATOM     25  C   UNL A   1      42.499  42.906  19.340  1.00  0.00     0.142 C 
ATOM     26  C   UNL A   1      45.040  44.173  20.272  1.00  0.00     0.078 C 
ATOM     27  N   UNL A   1      43.051  44.126  18.791  1.00  0.00    -0.278 N 
ATOM     28  C   UNL A   1      44.150  44.775  19.227  1.00  0.00     0.133 A 
ATOM     29  C   UNL A   1      42.339  45.035  18.045  1.00  0.00     0.345 A 
ATOM     30  N   UNL A   1      44.248  46.012  18.827  1.00  0.00    -0.155 NA
ATOM     31  N   UNL A   1      43.107  46.206  18.076  1.00  0.00    -0.216 N 
ATOM     32  O   UNL A   1      41.208  44.907  17.602  1.00  0.00    -0.246 OA
ATOM     33  C   UNL A   1      42.601  47.516  17.766  1.00  0.00     0.179 C 
ENDBRANCH  21  23
ENDBRANCH  15  21
ENDBRANCH   5   7
ENDBRANCH   4   5
ENDBRANCH   3   4
ENDBRANCH   2   3
ENDBRANCH   1   2
BRANCH   1  34
ATOM     34  C   UNL A   1      42.334  42.613  32.435  1.00  0.00     0.202 C 
BRANCH  34  35
ATOM     35  C   UNL A   1      43.368  41.737  33.123  1.00  0.00     0.261 C 
BRANCH  35  36
ATOM     36  O   UNL A   1      42.992  40.365  33.115  1.00  0.00    -0.460 OA
BRANCH  36  37
ATOM     37  C   UNL A   1      44.020  39.511  32.879  1.00  0.00     0.338 C 
ATOM     38  O   UNL A   1      44.991  39.714  32.181  1.00  0.00    -0.246 OA
BRANCH  37  39
ATOM     39  C   UNL A   1      43.665  38.206  33.454  1.00  0.00     0.060 A 
ATOM     40  C   UNL A   1      43.453  37.159  32.558  1.00  0.00     0.016 A 
ATOM     41  C   UNL A   1      43.321  38.089  34.810  1.00  0.00     0.016 A 
ATOM     42  C   UNL A   1      42.739  36.062  32.989  1.00  0.00     0.010 A 
ATOM     43  C   UNL A   1      42.608  36.993  35.241  1.00  0.00     0.010 A 
ATOM     44  C   UNL A   1      42.261  36.025  34.309  1.00  0.00    -0.014 A 
BRANCH  44  45
ATOM     45  C   UNL A   1      41.515  34.857  34.733  1.00  0.00     0.031 A 
ATOM     46  C   UNL A   1      41.964  33.632  34.042  1.00  0.00     0.074 A 
ATOM     47  C   UNL A   1      40.550  34.865  35.672  1.00  0.00     0.049 A 
ATOM     48  N   UNL A   1      41.361  33.051  33.062  1.00  0.00    -0.248 NA
ATOM     49  C   UNL A   1      43.314  33.118  34.313  1.00  0.00     0.031 C 
ATOM     50  C   UNL A   1      40.160  35.948  36.578  1.00  0.00     0.029 A 
ATOM     51  N   UNL A   1      39.742  33.841  36.059  1.00  0.00    -0.354 N 
ATOM     52  C   UNL A   1      42.142  31.954  32.737  1.00  0.00     0.074 A 
ATOM     53  C   UNL A   1      43.405  32.142  33.406  1.00  0.00     0.031 C 
ATOM     54  C   UNL A   1      39.348  35.454  37.545  1.00  0.00     0.029 A 
ATOM     55  C   UNL A   1      39.039  34.068  37.236  1.00  0.00     0.049 A 
ATOM     56  H   UNL A   1      39.661  33.004  35.544  1.00  0.00     0.167 HD
ATOM     57  C   UNL A   1      41.588  30.861  32.149  1.00  0.00     0.031 A 
ATOM     58  C   UNL A   1      38.269  33.169  37.903  1.00  0.00     0.031 A 
ATOM     59  C   UNL A   1      40.261  31.140  31.661  1.00  0.00     0.049 A 
ATOM     60  C   UNL A   1      37.846  32.153  36.911  1.00  0.00     0.074 A 
ATOM     61  C   UNL A   1      39.723  31.949  30.683  1.00  0.00     0.029 A 
ATOM     62  N   UNL A   1      39.237  30.819  32.519  1.00  0.00    -0.354 N 
ATOM     63  N   UNL A   1      37.047  32.421  35.918  1.00  0.00    -0.248 NA
ATOM     64  C   UNL A   1      38.642  30.945  36.764  1.00  0.00     0.031 C 
ATOM     65  C   UNL A   1      38.480  32.403  31.216  1.00  0.00     0.029 A 
ATOM     66  C   UNL A   1      38.284  31.801  32.462  1.00  0.00     0.049 A 
ATOM     67  H   UNL A   1      39.194  30.014  33.082  1.00  0.00     0.167 HD
ATOM     68  C   UNL A   1      37.558  31.697  34.851  1.00  0.00     0.074 A 
ATOM     69  C   UNL A   1      38.453  30.715  35.461  1.00  0.00     0.031 C 
ATOM     70  C   UNL A   1      37.416  32.148  33.571  1.00  0.00     0.031 A 
BRANCH  57  71
ATOM     71  C   UNL A   1      42.045  29.454  32.431  1.00  0.00    -0.014 A 
ATOM     72  C   UNL A   1      41.535  28.794  33.564  1.00  0.00     0.010 A 
ATOM     73  C   UNL A   1      43.166  28.877  31.798  1.00  0.00     0.010 A 
ATOM     74  C   UNL A   1      42.147  27.641  34.068  1.00  0.00     0.020 A 
ATOM     75  C   UNL A   1      43.760  27.707  32.269  1.00  0.00     0.020 A 
ATOM     76  C   UNL A   1      43.262  27.110  33.419  1.00  0.00     0.054 A 
BRANCH  76  77
ATOM     77  S   UNL A   1      44.088  25.662  34.120  1.00  0.00     0.124 S 
ATOM     78  O   UNL A   1      44.281  24.824  32.942  1.00  0.00    -0.237 OA
ATOM     79  O   UNL A   1      45.300  26.248  34.689  1.00  0.00    -0.237 OA
ATOM     80  O   UNL A   1      43.126  25.160  35.098  1.00  0.00    -0.744 OA
ENDBRANCH  76  77
ENDBRANCH  57  71
BRANCH  58  81
ATOM     81  C   UNL A   1      38.154  32.937  39.366  1.00  0.00    -0.014 A 
ATOM     82  C   UNL A   1      36.953  32.462  39.934  1.00  0.00     0.010 A 
ATOM     83  C   UNL A   1      39.318  32.871  40.156  1.00  0.00     0.010 A 
ATOM     84  C   UNL A   1      36.935  31.871  41.211  1.00  0.00     0.020 A 
ATOM     85  C   UNL A   1      39.307  32.286  41.430  1.00  0.00     0.020 A 
ATOM     86  C   UNL A   1      38.120  31.764  41.941  1.00  0.00     0.054 A 
BRANCH  86  87
ATOM     87  S   UNL A   1      38.133  30.824  43.500  1.00  0.00     0.124 S 
ATOM     88  O   UNL A   1      36.905  31.277  44.147  1.00  0.00    -0.237 OA
ATOM     89  O   UNL A   1      38.132  29.439  43.038  1.00  0.00    -0.237 OA
ATOM     90  O   UNL A   1      39.370  31.255  44.150  1.00  0.00    -0.744 OA
ENDBRANCH  86  87
ENDBRANCH  58  81
BRANCH  70  91
ATOM     91  C   UNL A   1      36.386  33.225  33.312  1.00  0.00    -0.014 A 
ATOM     92  C   UNL A   1      36.684  34.588  33.109  1.00  0.00     0.010 A 
ATOM     93  C   UNL A   1      35.054  32.803  33.161  1.00  0.00     0.010 A 
ATOM     94  C   UNL A   1      35.666  35.503  32.792  1.00  0.00     0.020 A 
ATOM     95  C   UNL A   1      34.042  33.703  32.826  1.00  0.00     0.020 A 
ATOM     96  C   UNL A   1      34.349  35.051  32.655  1.00  0.00     0.054 A 
BRANCH  96  97
ATOM     97  S   UNL A   1      33.035  36.227  32.220  1.00  0.00     0.124 S 
ATOM     98  O   UNL A   1      33.132  37.220  33.285  1.00  0.00    -0.237 OA
ATOM     99  O   UNL A   1      33.437  36.687  30.892  1.00  0.00    -0.237 OA
ATOM    100  O   UNL A   1      31.819  35.413  32.243  1.00  0.00    -0.744 OA
ENDBRANCH  96  97
ENDBRANCH  70  91
ENDBRANCH  44  45
ENDBRANCH  37  39
ENDBRANCH  36  37
ENDBRANCH  35  36
ENDBRANCH  34  35
ENDBRANCH   1  34
TORSDOF 22
ENDMDL
