MODEL 1
REMARK VINA RESULT:     -10.4      0.000      0.000
REMARK SMILES O=C(Nc1ccc2c(c1)OCO2)N[C@H]1C=C[C@@H](C(=O)OCCOCCOC(=O)c2ccc(-c3c4nc(c(-c5ccc(S(=O)(=O)[O-])cc5)c5ccc([nH]5)c(-c5ccc(S(=O)(=O)[O-])cc5)c5nc(c(-c6ccc(S(=O)(=O)[O-])cc6)c6ccc3[nH]6)C=C5)C=C4)cc2)C1
REMARK SMILES IDX 24 1 23 2 22 3 21 4 20 5 18 6 19 7 17 8 14 9 15 10 89 11
REMARK SMILES IDX 16 12 13 13 1 14 2 15 3 16 4 19 5 20 9 21 6 22 8 23 7 24
REMARK SMILES IDX 10 25 12 26 11 27 25 28 26 29 27 30 28 31 29 32 30 33 88 34
REMARK SMILES IDX 31 35 87 36 32 37 33 38 34 39 81 40 35 41 86 42 80 43 82 44
REMARK SMILES IDX 36 45 85 46 79 47 78 48 37 50 67 51 48 52 66 53 49 54 52 55
REMARK SMILES IDX 65 56 83 57 50 58 51 59 64 61 84 62 53 63 38 64 39 65 47 66
REMARK SMILES IDX 40 67 46 68 41 69 42 70 43 71 44 72 45 73 68 74 69 75 77 76
REMARK SMILES IDX 70 77 76 78 71 79 72 80 73 81 74 82 75 83 54 84 55 85 63 86
REMARK SMILES IDX 56 87 62 88 57 89 58 90 59 91 60 92 61 93
REMARK H PARENT 3 17 13 18 82 49 52 60
REMARK Flexibility Score: inf
ROOT
ATOM      1  C   UNL A   1      33.196  28.356  25.025  1.00  0.00     0.202 C 
ENDROOT
BRANCH   1   2
ATOM      2  O   UNL A   1      33.483  28.978  23.773  1.00  0.00    -0.374 OA
BRANCH   2   3
ATOM      3  C   UNL A   1      33.655  28.121  22.640  1.00  0.00     0.202 C 
BRANCH   3   4
ATOM      4  C   UNL A   1      33.252  26.658  22.853  1.00  0.00     0.261 C 
BRANCH   4   5
ATOM      5  O   UNL A   1      32.096  26.351  22.054  1.00  0.00    -0.463 OA
BRANCH   5   6
ATOM      6  C   UNL A   1      30.939  26.971  22.392  1.00  0.00     0.312 C 
ATOM      7  O   UNL A   1      30.561  28.044  21.934  1.00  0.00    -0.252 OA
BRANCH   6   8
ATOM      8  C   UNL A   1      30.122  26.187  23.416  1.00  0.00     0.124 C 
ATOM      9  C   UNL A   1      30.298  24.348  25.032  1.00  0.00     0.107 C 
ATOM     10  C   UNL A   1      30.436  25.684  25.688  1.00  0.00    -0.006 C 
ATOM     11  C   UNL A   1      30.407  24.684  23.541  1.00  0.00     0.048 C 
ATOM     12  C   UNL A   1      30.352  26.689  24.809  1.00  0.00    -0.014 C 
BRANCH   9  13
ATOM     13  N   UNL A   1      31.359  23.495  25.493  1.00  0.00    -0.332 N 
ATOM     14  O   UNL A   1      30.449  23.074  27.544  1.00  0.00    -0.248 OA
ATOM     15  C   UNL A   1      31.367  22.939  26.740  1.00  0.00     0.319 C 
ATOM     16  N   UNL A   1      32.414  22.098  27.004  1.00  0.00    -0.308 N 
ATOM     17  H   UNL A   1      32.247  21.416  27.693  1.00  0.00     0.171 HD
ATOM     18  H   UNL A   1      32.109  23.303  24.885  1.00  0.00     0.165 HD
BRANCH  16  19
ATOM     19  C   UNL A   1      33.694  22.074  26.425  1.00  0.00     0.046 A 
ATOM     20  C   UNL A   1      34.106  21.023  25.577  1.00  0.00     0.030 A 
ATOM     21  C   UNL A   1      34.552  23.149  26.674  1.00  0.00     0.076 A 
ATOM     22  C   UNL A   1      35.385  21.013  25.014  1.00  0.00     0.053 A 
ATOM     23  C   UNL A   1      35.821  23.092  26.135  1.00  0.00     0.167 A 
ATOM     24  C   UNL A   1      36.227  22.054  25.329  1.00  0.00     0.165 A 
ATOM     25  O   UNL A   1      36.806  24.009  26.330  1.00  0.00    -0.454 OA
ATOM     26  O   UNL A   1      37.511  22.194  24.909  1.00  0.00    -0.454 OA
ATOM     27  C   UNL A   1      37.899  23.390  25.621  1.00  0.00     0.468 C 
ENDBRANCH  16  19
ENDBRANCH   9  13
ENDBRANCH   6   8
ENDBRANCH   5   6
ENDBRANCH   4   5
ENDBRANCH   3   4
ENDBRANCH   2   3
ENDBRANCH   1   2
BRANCH   1  28
ATOM     28  C   UNL A   1      34.366  28.214  26.008  1.00  0.00     0.261 C 
BRANCH  28  29
ATOM     29  O   UNL A   1      34.017  28.587  27.352  1.00  0.00    -0.460 OA
BRANCH  29  30
ATOM     30  C   UNL A   1      34.421  29.828  27.713  1.00  0.00     0.338 C 
ATOM     31  O   UNL A   1      33.735  30.839  27.777  1.00  0.00    -0.246 OA
BRANCH  30  32
ATOM     32  C   UNL A   1      35.815  29.795  28.196  1.00  0.00     0.060 A 
ATOM     33  C   UNL A   1      36.822  30.079  27.265  1.00  0.00     0.016 A 
ATOM     34  C   UNL A   1      36.142  29.410  29.500  1.00  0.00     0.016 A 
ATOM     35  C   UNL A   1      38.160  29.920  27.615  1.00  0.00     0.010 A 
ATOM     36  C   UNL A   1      37.489  29.244  29.846  1.00  0.00     0.010 A 
ATOM     37  C   UNL A   1      38.501  29.458  28.893  1.00  0.00    -0.014 A 
BRANCH  37  38
ATOM     38  C   UNL A   1      39.904  29.055  29.162  1.00  0.00     0.031 A 
ATOM     39  C   UNL A   1      40.825  30.029  29.847  1.00  0.00     0.074 A 
ATOM     40  C   UNL A   1      40.338  27.819  28.855  1.00  0.00     0.049 A 
ATOM     41  N   UNL A   1      42.074  29.876  30.204  1.00  0.00    -0.248 NA
ATOM     42  C   UNL A   1      40.263  31.349  30.175  1.00  0.00     0.031 C 
ATOM     43  C   UNL A   1      39.533  26.770  28.231  1.00  0.00     0.029 A 
ATOM     44  N   UNL A   1      41.567  27.236  29.040  1.00  0.00    -0.354 N 
ATOM     45  C   UNL A   1      42.448  31.077  30.796  1.00  0.00     0.074 A 
ATOM     46  C   UNL A   1      41.305  31.960  30.721  1.00  0.00     0.031 C 
ATOM     47  C   UNL A   1      40.291  25.669  28.084  1.00  0.00     0.029 A 
ATOM     48  C   UNL A   1      41.638  25.943  28.582  1.00  0.00     0.049 A 
ATOM     49  H   UNL A   1      42.326  27.701  29.462  1.00  0.00     0.167 HD
ATOM     50  C   UNL A   1      43.634  31.416  31.358  1.00  0.00     0.031 A 
ATOM     51  C   UNL A   1      42.674  25.081  28.556  1.00  0.00     0.031 A 
ATOM     52  C   UNL A   1      44.776  30.544  31.424  1.00  0.00     0.049 A 
ATOM     53  C   UNL A   1      44.000  25.499  29.135  1.00  0.00     0.074 A 
ATOM     54  C   UNL A   1      46.019  30.794  31.980  1.00  0.00     0.029 A 
ATOM     55  N   UNL A   1      44.819  29.255  30.915  1.00  0.00    -0.354 N 
ATOM     56  N   UNL A   1      44.331  26.633  29.705  1.00  0.00    -0.248 NA
ATOM     57  C   UNL A   1      45.090  24.513  29.077  1.00  0.00     0.031 C 
ATOM     58  C   UNL A   1      46.829  29.673  31.763  1.00  0.00     0.029 A 
ATOM     59  C   UNL A   1      46.072  28.705  31.123  1.00  0.00     0.049 A 
ATOM     60  H   UNL A   1      44.068  28.799  30.470  1.00  0.00     0.167 HD
ATOM     61  C   UNL A   1      45.657  26.486  30.099  1.00  0.00     0.074 A 
ATOM     62  C   UNL A   1      46.064  25.151  29.711  1.00  0.00     0.031 C 
ATOM     63  C   UNL A   1      46.464  27.375  30.731  1.00  0.00     0.031 A 
BRANCH  50  64
ATOM     64  C   UNL A   1      43.760  32.806  31.920  1.00  0.00    -0.014 A 
ATOM     65  C   UNL A   1      44.173  33.883  31.114  1.00  0.00     0.010 A 
ATOM     66  C   UNL A   1      43.433  33.044  33.268  1.00  0.00     0.010 A 
ATOM     67  C   UNL A   1      44.297  35.165  31.656  1.00  0.00     0.020 A 
ATOM     68  C   UNL A   1      43.532  34.330  33.807  1.00  0.00     0.020 A 
ATOM     69  C   UNL A   1      43.981  35.379  33.002  1.00  0.00     0.054 A 
BRANCH  69  70
ATOM     70  S   UNL A   1      44.138  37.054  33.679  1.00  0.00     0.124 S 
ATOM     71  O   UNL A   1      44.989  36.829  34.845  1.00  0.00    -0.237 OA
ATOM     72  O   UNL A   1      44.760  37.789  32.580  1.00  0.00    -0.237 OA
ATOM     73  O   UNL A   1      42.760  37.436  33.979  1.00  0.00    -0.744 OA
ENDBRANCH  69  70
ENDBRANCH  50  64
BRANCH  51  74
ATOM     74  C   UNL A   1      42.500  23.732  27.952  1.00  0.00    -0.014 A 
ATOM     75  C   UNL A   1      42.037  22.652  28.722  1.00  0.00     0.010 A 
ATOM     76  C   UNL A   1      42.802  23.525  26.593  1.00  0.00     0.010 A 
ATOM     77  C   UNL A   1      41.892  21.385  28.148  1.00  0.00     0.020 A 
ATOM     78  C   UNL A   1      42.635  22.267  26.010  1.00  0.00     0.020 A 
ATOM     79  C   UNL A   1      42.191  21.201  26.794  1.00  0.00     0.054 A 
BRANCH  79  80
ATOM     80  S   UNL A   1      41.944  19.564  26.054  1.00  0.00     0.124 S 
ATOM     81  O   UNL A   1      42.383  18.677  27.126  1.00  0.00    -0.237 OA
ATOM     82  O   UNL A   1      40.510  19.556  25.771  1.00  0.00    -0.237 OA
ATOM     83  O   UNL A   1      42.803  19.592  24.872  1.00  0.00    -0.744 OA
ENDBRANCH  79  80
ENDBRANCH  51  74
BRANCH  63  84
ATOM     84  C   UNL A   1      47.858  26.923  31.077  1.00  0.00    -0.014 A 
ATOM     85  C   UNL A   1      48.121  26.206  32.258  1.00  0.00     0.010 A 
ATOM     86  C   UNL A   1      48.912  27.180  30.182  1.00  0.00     0.010 A 
ATOM     87  C   UNL A   1      49.422  25.787  32.554  1.00  0.00     0.020 A 
ATOM     88  C   UNL A   1      50.208  26.740  30.462  1.00  0.00     0.020 A 
ATOM     89  C   UNL A   1      50.458  26.059  31.656  1.00  0.00     0.054 A 
BRANCH  89  90
ATOM     90  S   UNL A   1      52.131  25.478  32.044  1.00  0.00     0.124 S 
ATOM     91  O   UNL A   1      52.443  26.237  33.252  1.00  0.00    -0.237 OA
ATOM     92  O   UNL A   1      51.937  24.043  32.238  1.00  0.00    -0.237 OA
ATOM     93  O   UNL A   1      52.908  25.842  30.862  1.00  0.00    -0.744 OA
ENDBRANCH  89  90
ENDBRANCH  63  84
ENDBRANCH  37  38
ENDBRANCH  30  32
ENDBRANCH  29  30
ENDBRANCH  28  29
ENDBRANCH   1  28
TORSDOF 19
ENDMDL
MODEL 2
REMARK VINA RESULT:     -10.4      5.721     11.562
REMARK SMILES O=C(Nc1ccc2c(c1)OCO2)N[C@H]1C=C[C@@H](C(=O)OCCOCCOC(=O)c2ccc(-c3c4nc(c(-c5ccc(S(=O)(=O)[O-])cc5)c5ccc([nH]5)c(-c5ccc(S(=O)(=O)[O-])cc5)c5nc(c(-c6ccc(S(=O)(=O)[O-])cc6)c6ccc3[nH]6)C=C5)C=C4)cc2)C1
REMARK SMILES IDX 24 1 23 2 22 3 21 4 20 5 18 6 19 7 17 8 14 9 15 10 89 11
REMARK SMILES IDX 16 12 13 13 1 14 2 15 3 16 4 19 5 20 9 21 6 22 8 23 7 24
REMARK SMILES IDX 10 25 12 26 11 27 25 28 26 29 27 30 28 31 29 32 30 33 88 34
REMARK SMILES IDX 31 35 87 36 32 37 33 38 34 39 81 40 35 41 86 42 80 43 82 44
REMARK SMILES IDX 36 45 85 46 79 47 78 48 37 50 67 51 48 52 66 53 49 54 52 55
REMARK SMILES IDX 65 56 83 57 50 58 51 59 64 61 84 62 53 63 38 64 39 65 47 66
REMARK SMILES IDX 40 67 46 68 41 69 42 70 43 71 44 72 45 73 68 74 69 75 77 76
REMARK SMILES IDX 70 77 76 78 71 79 72 80 73 81 74 82 75 83 54 84 55 85 63 86
REMARK SMILES IDX 56 87 62 88 57 89 58 90 59 91 60 92 61 93
REMARK H PARENT 3 17 13 18 82 49 52 60
REMARK Flexibility Score: inf
ROOT
ATOM      1  C   UNL A   1      43.945  25.473  25.009  1.00  0.00     0.202 C 
ENDROOT
BRANCH   1   2
ATOM      2  O   UNL A   1      44.792  25.607  26.150  1.00  0.00    -0.374 OA
BRANCH   2   3
ATOM      3  C   UNL A   1      45.157  26.934  26.541  1.00  0.00     0.202 C 
BRANCH   3   4
ATOM      4  C   UNL A   1      45.900  27.047  27.876  1.00  0.00     0.261 C 
BRANCH   4   5
ATOM      5  O   UNL A   1      45.895  25.775  28.546  1.00  0.00    -0.463 OA
BRANCH   5   6
ATOM      6  C   UNL A   1      45.596  25.784  29.868  1.00  0.00     0.312 C 
ATOM      7  O   UNL A   1      46.285  26.308  30.737  1.00  0.00    -0.252 OA
BRANCH   6   8
ATOM      8  C   UNL A   1      44.284  25.072  30.186  1.00  0.00     0.124 C 
ATOM      9  C   UNL A   1      42.702  23.432  29.273  1.00  0.00     0.107 C 
ATOM     10  C   UNL A   1      43.648  22.813  30.252  1.00  0.00    -0.006 C 
ATOM     11  C   UNL A   1      43.326  24.808  29.016  1.00  0.00     0.048 C 
ATOM     12  C   UNL A   1      44.518  23.702  30.744  1.00  0.00    -0.014 C 
BRANCH   9  13
ATOM     13  N   UNL A   1      42.654  22.611  28.094  1.00  0.00    -0.332 N 
ATOM     14  O   UNL A   1      40.378  22.581  27.921  1.00  0.00    -0.248 OA
ATOM     15  C   UNL A   1      41.479  22.219  27.518  1.00  0.00     0.319 C 
ATOM     16  N   UNL A   1      41.601  21.495  26.364  1.00  0.00    -0.308 N 
ATOM     17  H   UNL A   1      40.834  21.541  25.750  1.00  0.00     0.171 HD
ATOM     18  H   UNL A   1      43.501  22.319  27.686  1.00  0.00     0.165 HD
BRANCH  16  19
ATOM     19  C   UNL A   1      42.674  20.695  25.933  1.00  0.00     0.046 A 
ATOM     20  C   UNL A   1      42.605  19.285  25.957  1.00  0.00     0.030 A 
ATOM     21  C   UNL A   1      43.813  21.332  25.432  1.00  0.00     0.076 A 
ATOM     22  C   UNL A   1      43.684  18.505  25.529  1.00  0.00     0.053 A 
ATOM     23  C   UNL A   1      44.875  20.536  25.054  1.00  0.00     0.167 A 
ATOM     24  C   UNL A   1      44.813  19.163  25.101  1.00  0.00     0.165 A 
ATOM     25  O   UNL A   1      46.081  20.983  24.613  1.00  0.00    -0.454 OA
ATOM     26  O   UNL A   1      45.966  18.577  24.687  1.00  0.00    -0.454 OA
ATOM     27  C   UNL A   1      46.796  19.739  24.464  1.00  0.00     0.468 C 
ENDBRANCH  16  19
ENDBRANCH   9  13
ENDBRANCH   6   8
ENDBRANCH   5   6
ENDBRANCH   4   5
ENDBRANCH   3   4
ENDBRANCH   2   3
ENDBRANCH   1   2
BRANCH   1  28
ATOM     28  C   UNL A   1      42.570  24.834  25.242  1.00  0.00     0.261 C 
BRANCH  28  29
ATOM     29  O   UNL A   1      41.492  25.784  25.172  1.00  0.00    -0.460 OA
BRANCH  29  30
ATOM     30  C   UNL A   1      40.470  25.536  26.024  1.00  0.00     0.338 C 
ATOM     31  O   UNL A   1      39.580  24.707  25.890  1.00  0.00    -0.246 OA
BRANCH  30  32
ATOM     32  C   UNL A   1      40.641  26.305  27.271  1.00  0.00     0.060 A 
ATOM     33  C   UNL A   1      39.808  25.974  28.347  1.00  0.00     0.016 A 
ATOM     34  C   UNL A   1      41.528  27.381  27.366  1.00  0.00     0.016 A 
ATOM     35  C   UNL A   1      39.813  26.755  29.500  1.00  0.00     0.010 A 
ATOM     36  C   UNL A   1      41.526  28.170  28.525  1.00  0.00     0.010 A 
ATOM     37  C   UNL A   1      40.639  27.884  29.578  1.00  0.00    -0.014 A 
BRANCH  37  38
ATOM     38  C   UNL A   1      40.447  28.840  30.697  1.00  0.00     0.031 A 
ATOM     39  C   UNL A   1      41.334  28.732  31.909  1.00  0.00     0.074 A 
ATOM     40  C   UNL A   1      39.537  29.826  30.614  1.00  0.00     0.049 A 
ATOM     41  N   UNL A   1      41.361  29.477  32.984  1.00  0.00    -0.248 NA
ATOM     42  C   UNL A   1      42.324  27.643  31.907  1.00  0.00     0.031 C 
ATOM     43  C   UNL A   1      38.647  30.064  29.478  1.00  0.00     0.029 A 
ATOM     44  N   UNL A   1      39.218  30.821  31.506  1.00  0.00    -0.354 N 
ATOM     45  C   UNL A   1      42.365  28.948  33.786  1.00  0.00     0.074 A 
ATOM     46  C   UNL A   1      42.903  27.801  33.089  1.00  0.00     0.031 C 
ATOM     47  C   UNL A   1      37.883  31.138  29.741  1.00  0.00     0.029 A 
ATOM     48  C   UNL A   1      38.211  31.649  31.071  1.00  0.00     0.049 A 
ATOM     49  H   UNL A   1      39.670  30.931  32.374  1.00  0.00     0.167 HD
ATOM     50  C   UNL A   1      42.808  29.381  34.992  1.00  0.00     0.031 A 
ATOM     51  C   UNL A   1      37.614  32.692  31.680  1.00  0.00     0.031 A 
ATOM     52  C   UNL A   1      42.268  30.516  35.693  1.00  0.00     0.049 A 
ATOM     53  C   UNL A   1      38.084  33.121  33.046  1.00  0.00     0.074 A 
ATOM     54  C   UNL A   1      42.654  31.035  36.916  1.00  0.00     0.029 A 
ATOM     55  N   UNL A   1      41.224  31.304  35.235  1.00  0.00    -0.354 N 
ATOM     56  N   UNL A   1      39.045  32.618  33.783  1.00  0.00    -0.248 NA
ATOM     57  C   UNL A   1      37.392  34.265  33.657  1.00  0.00     0.031 C 
ATOM     58  C   UNL A   1      41.811  32.110  37.220  1.00  0.00     0.029 A 
ATOM     59  C   UNL A   1      40.937  32.293  36.161  1.00  0.00     0.049 A 
ATOM     60  H   UNL A   1      40.755  31.179  34.378  1.00  0.00     0.167 HD
ATOM     61  C   UNL A   1      39.095  33.404  34.930  1.00  0.00     0.074 A 
ATOM     62  C   UNL A   1      38.072  34.420  34.785  1.00  0.00     0.031 C 
ATOM     63  C   UNL A   1      39.916  33.297  36.005  1.00  0.00     0.031 A 
BRANCH  50  64
ATOM     64  C   UNL A   1      43.916  28.598  35.642  1.00  0.00    -0.014 A 
ATOM     65  C   UNL A   1      43.639  27.509  36.489  1.00  0.00     0.010 A 
ATOM     66  C   UNL A   1      45.256  28.939  35.381  1.00  0.00     0.010 A 
ATOM     67  C   UNL A   1      44.680  26.801  37.096  1.00  0.00     0.020 A 
ATOM     68  C   UNL A   1      46.300  28.217  35.965  1.00  0.00     0.020 A 
ATOM     69  C   UNL A   1      46.005  27.164  36.834  1.00  0.00     0.054 A 
BRANCH  69  70
ATOM     70  S   UNL A   1      47.340  26.223  37.622  1.00  0.00     0.124 S 
ATOM     71  O   UNL A   1      48.475  27.129  37.475  1.00  0.00    -0.237 OA
ATOM     72  O   UNL A   1      46.848  26.048  38.987  1.00  0.00    -0.237 OA
ATOM     73  O   UNL A   1      47.414  24.998  36.830  1.00  0.00    -0.744 OA
ENDBRANCH  69  70
ENDBRANCH  50  64
BRANCH  51  74
ATOM     74  C   UNL A   1      36.497  33.404  31.004  1.00  0.00    -0.014 A 
ATOM     75  C   UNL A   1      35.161  33.149  31.358  1.00  0.00     0.010 A 
ATOM     76  C   UNL A   1      36.770  34.347  29.996  1.00  0.00     0.010 A 
ATOM     77  C   UNL A   1      34.117  33.813  30.707  1.00  0.00     0.020 A 
ATOM     78  C   UNL A   1      35.731  35.030  29.359  1.00  0.00     0.020 A 
ATOM     79  C   UNL A   1      34.409  34.751  29.711  1.00  0.00     0.054 A 
BRANCH  79  80
ATOM     80  S   UNL A   1      33.044  35.642  28.915  1.00  0.00     0.124 S 
ATOM     81  O   UNL A   1      33.756  36.622  28.102  1.00  0.00    -0.237 OA
ATOM     82  O   UNL A   1      32.362  34.582  28.176  1.00  0.00    -0.237 OA
ATOM     83  O   UNL A   1      32.292  36.189  30.041  1.00  0.00    -0.744 OA
ENDBRANCH  79  80
ENDBRANCH  51  74
BRANCH  63  84
ATOM     84  C   UNL A   1      39.770  34.326  37.094  1.00  0.00    -0.014 A 
ATOM     85  C   UNL A   1      39.178  34.005  38.329  1.00  0.00     0.010 A 
ATOM     86  C   UNL A   1      40.279  35.623  36.894  1.00  0.00     0.010 A 
ATOM     87  C   UNL A   1      39.063  34.975  39.329  1.00  0.00     0.020 A 
ATOM     88  C   UNL A   1      40.189  36.587  37.902  1.00  0.00     0.020 A 
ATOM     89  C   UNL A   1      39.567  36.260  39.108  1.00  0.00     0.054 A 
BRANCH  89  90
ATOM     90  S   UNL A   1      39.437  37.493  40.433  1.00  0.00     0.124 S 
ATOM     91  O   UNL A   1      39.446  36.655  41.629  1.00  0.00    -0.237 OA
ATOM     92  O   UNL A   1      40.631  38.310  40.231  1.00  0.00    -0.237 OA
ATOM     93  O   UNL A   1      38.172  38.169  40.154  1.00  0.00    -0.744 OA
ENDBRANCH  89  90
ENDBRANCH  63  84
ENDBRANCH  37  38
ENDBRANCH  30  32
ENDBRANCH  29  30
ENDBRANCH  28  29
ENDBRANCH   1  28
TORSDOF 19
ENDMDL
MODEL 3
REMARK VINA RESULT:     -10.3      4.250     10.316
REMARK SMILES O=C(Nc1ccc2c(c1)OCO2)N[C@H]1C=C[C@@H](C(=O)OCCOCCOC(=O)c2ccc(-c3c4nc(c(-c5ccc(S(=O)(=O)[O-])cc5)c5ccc([nH]5)c(-c5ccc(S(=O)(=O)[O-])cc5)c5nc(c(-c6ccc(S(=O)(=O)[O-])cc6)c6ccc3[nH]6)C=C5)C=C4)cc2)C1
REMARK SMILES IDX 24 1 23 2 22 3 21 4 20 5 18 6 19 7 17 8 14 9 15 10 89 11
REMARK SMILES IDX 16 12 13 13 1 14 2 15 3 16 4 19 5 20 9 21 6 22 8 23 7 24
REMARK SMILES IDX 10 25 12 26 11 27 25 28 26 29 27 30 28 31 29 32 30 33 88 34
REMARK SMILES IDX 31 35 87 36 32 37 33 38 34 39 81 40 35 41 86 42 80 43 82 44
REMARK SMILES IDX 36 45 85 46 79 47 78 48 37 50 67 51 48 52 66 53 49 54 52 55
REMARK SMILES IDX 65 56 83 57 50 58 51 59 64 61 84 62 53 63 38 64 39 65 47 66
REMARK SMILES IDX 40 67 46 68 41 69 42 70 43 71 44 72 45 73 68 74 69 75 77 76
REMARK SMILES IDX 70 77 76 78 71 79 72 80 73 81 74 82 75 83 54 84 55 85 63 86
REMARK SMILES IDX 56 87 62 88 57 89 58 90 59 91 60 92 61 93
REMARK H PARENT 3 17 13 18 82 49 52 60
REMARK Flexibility Score: inf
ROOT
ATOM      1  C   UNL A   1      41.862  21.863  26.890  1.00  0.00     0.202 C 
ENDROOT
BRANCH   1   2
ATOM      2  O   UNL A   1      40.440  21.942  26.994  1.00  0.00    -0.374 OA
BRANCH   2   3
ATOM      3  C   UNL A   1      39.674  21.377  25.925  1.00  0.00     0.202 C 
BRANCH   3   4
ATOM      4  C   UNL A   1      38.205  21.807  25.870  1.00  0.00     0.261 C 
BRANCH   4   5
ATOM      5  O   UNL A   1      37.755  21.828  24.504  1.00  0.00    -0.463 OA
BRANCH   5   6
ATOM      6  C   UNL A   1      36.515  22.329  24.279  1.00  0.00     0.312 C 
ATOM      7  O   UNL A   1      36.197  22.994  23.299  1.00  0.00    -0.252 OA
BRANCH   6   8
ATOM      8  C   UNL A   1      35.521  21.971  25.380  1.00  0.00     0.124 C 
ATOM      9  C   UNL A   1      33.400  22.695  26.382  1.00  0.00     0.107 C 
ATOM     10  C   UNL A   1      33.205  21.584  25.400  1.00  0.00    -0.006 C 
ATOM     11  C   UNL A   1      34.846  23.132  26.123  1.00  0.00     0.048 C 
ATOM     12  C   UNL A   1      34.357  21.194  24.844  1.00  0.00    -0.014 C 
BRANCH   9  13
ATOM     13  N   UNL A   1      32.444  23.731  26.104  1.00  0.00    -0.332 N 
ATOM     14  O   UNL A   1      30.895  23.038  27.631  1.00  0.00    -0.248 OA
ATOM     15  C   UNL A   1      31.236  23.808  26.737  1.00  0.00     0.319 C 
ATOM     16  N   UNL A   1      30.466  24.889  26.409  1.00  0.00    -0.308 N 
ATOM     17  H   UNL A   1      29.818  25.172  27.094  1.00  0.00     0.171 HD
ATOM     18  H   UNL A   1      32.668  24.413  25.430  1.00  0.00     0.165 HD
BRANCH  16  19
ATOM     19  C   UNL A   1      30.473  25.653  25.230  1.00  0.00     0.046 A 
ATOM     20  C   UNL A   1      30.245  25.068  23.965  1.00  0.00     0.030 A 
ATOM     21  C   UNL A   1      30.672  27.033  25.338  1.00  0.00     0.076 A 
ATOM     22  C   UNL A   1      30.261  25.844  22.802  1.00  0.00     0.053 A 
ATOM     23  C   UNL A   1      30.720  27.764  24.169  1.00  0.00     0.167 A 
ATOM     24  C   UNL A   1      30.522  27.188  22.936  1.00  0.00     0.165 A 
ATOM     25  O   UNL A   1      30.972  29.098  24.079  1.00  0.00    -0.454 OA
ATOM     26  O   UNL A   1      30.614  28.085  21.921  1.00  0.00    -0.454 OA
ATOM     27  C   UNL A   1      30.989  29.277  22.648  1.00  0.00     0.468 C 
ENDBRANCH  16  19
ENDBRANCH   9  13
ENDBRANCH   6   8
ENDBRANCH   5   6
ENDBRANCH   4   5
ENDBRANCH   3   4
ENDBRANCH   2   3
ENDBRANCH   1   2
BRANCH   1  28
ATOM     28  C   UNL A   1      42.565  23.016  26.162  1.00  0.00     0.261 C 
BRANCH  28  29
ATOM     29  O   UNL A   1      42.629  24.219  26.948  1.00  0.00    -0.460 OA
BRANCH  29  30
ATOM     30  C   UNL A   1      42.210  25.334  26.303  1.00  0.00     0.338 C 
ATOM     31  O   UNL A   1      42.170  25.516  25.094  1.00  0.00    -0.246 OA
BRANCH  30  32
ATOM     32  C   UNL A   1      41.630  26.295  27.260  1.00  0.00     0.060 A 
ATOM     33  C   UNL A   1      42.178  27.584  27.284  1.00  0.00     0.016 A 
ATOM     34  C   UNL A   1      40.638  25.929  28.175  1.00  0.00     0.016 A 
ATOM     35  C   UNL A   1      41.781  28.493  28.262  1.00  0.00     0.010 A 
ATOM     36  C   UNL A   1      40.246  26.843  29.161  1.00  0.00     0.010 A 
ATOM     37  C   UNL A   1      40.846  28.113  29.233  1.00  0.00    -0.014 A 
BRANCH  37  38
ATOM     38  C   UNL A   1      40.628  28.997  30.406  1.00  0.00     0.031 A 
ATOM     39  C   UNL A   1      41.522  28.847  31.608  1.00  0.00     0.074 A 
ATOM     40  C   UNL A   1      39.689  29.959  30.380  1.00  0.00     0.049 A 
ATOM     41  N   UNL A   1      41.530  29.530  32.724  1.00  0.00    -0.248 NA
ATOM     42  C   UNL A   1      42.544  27.790  31.543  1.00  0.00     0.031 C 
ATOM     43  C   UNL A   1      38.790  30.236  29.260  1.00  0.00     0.029 A 
ATOM     44  N   UNL A   1      39.344  30.892  31.327  1.00  0.00    -0.354 N 
ATOM     45  C   UNL A   1      42.551  28.986  33.494  1.00  0.00     0.074 A 
ATOM     46  C   UNL A   1      43.121  27.896  32.732  1.00  0.00     0.031 C 
ATOM     47  C   UNL A   1      37.994  31.270  29.586  1.00  0.00     0.029 A 
ATOM     48  C   UNL A   1      38.312  31.712  30.942  1.00  0.00     0.049 A 
ATOM     49  H   UNL A   1      39.794  30.965  32.200  1.00  0.00     0.167 HD
ATOM     50  C   UNL A   1      42.984  29.362  34.722  1.00  0.00     0.031 A 
ATOM     51  C   UNL A   1      37.686  32.702  31.611  1.00  0.00     0.031 A 
ATOM     52  C   UNL A   1      42.413  30.438  35.487  1.00  0.00     0.049 A 
ATOM     53  C   UNL A   1      38.147  33.065  32.998  1.00  0.00     0.074 A 
ATOM     54  C   UNL A   1      42.787  30.898  36.738  1.00  0.00     0.029 A 
ATOM     55  N   UNL A   1      41.344  31.220  35.077  1.00  0.00    -0.354 N 
ATOM     56  N   UNL A   1      39.124  32.550  33.704  1.00  0.00    -0.248 NA
ATOM     57  C   UNL A   1      37.423  34.152  33.674  1.00  0.00     0.031 C 
ATOM     58  C   UNL A   1      41.913  31.928  37.104  1.00  0.00     0.029 A 
ATOM     59  C   UNL A   1      41.031  32.145  36.057  1.00  0.00     0.049 A 
ATOM     60  H   UNL A   1      40.877  31.130  34.214  1.00  0.00     0.167 HD
ATOM     61  C   UNL A   1      39.153  33.270  34.894  1.00  0.00     0.074 A 
ATOM     62  C   UNL A   1      38.101  34.261  34.809  1.00  0.00     0.031 C 
ATOM     63  C   UNL A   1      39.980  33.126  35.960  1.00  0.00     0.031 A 
BRANCH  50  64
ATOM     64  C   UNL A   1      44.117  28.576  35.325  1.00  0.00    -0.014 A 
ATOM     65  C   UNL A   1      45.455  28.975  35.152  1.00  0.00     0.010 A 
ATOM     66  C   UNL A   1      43.837  27.435  36.100  1.00  0.00     0.010 A 
ATOM     67  C   UNL A   1      46.494  28.225  35.708  1.00  0.00     0.020 A 
ATOM     68  C   UNL A   1      44.872  26.697  36.679  1.00  0.00     0.020 A 
ATOM     69  C   UNL A   1      46.196  27.086  36.464  1.00  0.00     0.054 A 
BRANCH  69  70
ATOM     70  S   UNL A   1      47.561  26.136  37.187  1.00  0.00     0.124 S 
ATOM     71  O   UNL A   1      47.178  24.765  36.864  1.00  0.00    -0.237 OA
ATOM     72  O   UNL A   1      48.726  26.648  36.468  1.00  0.00    -0.237 OA
ATOM     73  O   UNL A   1      47.509  26.480  38.606  1.00  0.00    -0.744 OA
ENDBRANCH  69  70
ENDBRANCH  50  64
BRANCH  51  74
ATOM     74  C   UNL A   1      36.546  33.417  30.978  1.00  0.00    -0.014 A 
ATOM     75  C   UNL A   1      35.333  33.593  31.666  1.00  0.00     0.010 A 
ATOM     76  C   UNL A   1      36.672  33.929  29.673  1.00  0.00     0.010 A 
ATOM     77  C   UNL A   1      34.262  34.254  31.057  1.00  0.00     0.020 A 
ATOM     78  C   UNL A   1      35.614  34.612  29.070  1.00  0.00     0.020 A 
ATOM     79  C   UNL A   1      34.410  34.761  29.762  1.00  0.00     0.054 A 
BRANCH  79  80
ATOM     80  S   UNL A   1      33.029  35.664  29.008  1.00  0.00     0.124 S 
ATOM     81  O   UNL A   1      33.722  36.701  28.252  1.00  0.00    -0.237 OA
ATOM     82  O   UNL A   1      32.372  34.631  28.211  1.00  0.00    -0.237 OA
ATOM     83  O   UNL A   1      32.261  36.134  30.159  1.00  0.00    -0.744 OA
ENDBRANCH  79  80
ENDBRANCH  51  74
BRANCH  63  84
ATOM     84  C   UNL A   1      39.808  34.086  37.107  1.00  0.00    -0.014 A 
ATOM     85  C   UNL A   1      40.443  35.341  37.111  1.00  0.00     0.010 A 
ATOM     86  C   UNL A   1      38.957  33.745  38.174  1.00  0.00     0.010 A 
ATOM     87  C   UNL A   1      40.260  36.221  38.182  1.00  0.00     0.020 A 
ATOM     88  C   UNL A   1      38.751  34.633  39.234  1.00  0.00     0.020 A 
ATOM     89  C   UNL A   1      39.417  35.860  39.238  1.00  0.00     0.054 A 
BRANCH  89  90
ATOM     90  S   UNL A   1      39.168  37.031  40.601  1.00  0.00     0.124 S 
ATOM     91  O   UNL A   1      38.574  36.178  41.627  1.00  0.00    -0.237 OA
ATOM     92  O   UNL A   1      40.525  37.494  40.879  1.00  0.00    -0.237 OA
ATOM     93  O   UNL A   1      38.277  38.039  40.034  1.00  0.00    -0.744 OA
ENDBRANCH  89  90
ENDBRANCH  63  84
ENDBRANCH  37  38
ENDBRANCH  30  32
ENDBRANCH  29  30
ENDBRANCH  28  29
ENDBRANCH   1  28
TORSDOF 19
ENDMDL
