MODEL 1
REMARK VINA RESULT:      -9.6      0.000      0.000
REMARK SMILES CCCCCCNC(=O)Oc1cccc(-c2ccc([C@@H](C)C(=O)OCCOCCOC(=O)c3ccc(-c4c5nc(c(-c6ccc(S(=O)(=O)[O-])cc6)c6ccc([nH]6)c(-c6ccc(S(=O)(=O)[O-])cc6)c6nc(c(-c7ccc(S(=O)(=O)[O-])cc7)c7ccc4[nH]7)C=C6)C=C5)cc3)cc2[N+](=O)[O-])c1
REMARK SMILES IDX 24 1 22 2 23 3 20 4 21 5 19 6 16 7 17 8 94 9 18 10 93 11
REMARK SMILES IDX 15 12 11 13 12 14 98 15 13 16 14 17 10 18 8 19 7 20 9 22
REMARK SMILES IDX 6 23 5 24 4 25 3 26 2 27 1 28 95 29 96 30 97 31 25 32 26 33
REMARK SMILES IDX 27 34 28 35 29 36 30 37 31 38 32 39 33 40 34 41 92 42 35 43
REMARK SMILES IDX 91 44 36 45 37 46 38 47 85 48 39 49 90 50 84 51 86 52 40 53
REMARK SMILES IDX 89 54 83 55 82 56 41 58 71 59 52 60 70 61 53 62 56 63 69 64
REMARK SMILES IDX 87 65 54 66 55 67 68 69 88 70 57 71 42 72 43 73 51 74 44 75
REMARK SMILES IDX 50 76 45 77 46 78 47 79 48 80 49 81 72 82 73 83 81 84 74 85
REMARK SMILES IDX 80 86 75 87 76 88 77 89 78 90 79 91 58 92 59 93 67 94 60 95
REMARK SMILES IDX 66 96 61 97 62 98 63 99 64 100 65 101
REMARK H PARENT 7 21 86 57 56 68
REMARK Flexibility Score: inf
ROOT
ATOM      1  O   UNL A   1      34.613  20.334  25.464  1.00  0.00    -0.463 OA
ENDROOT
BRANCH   1   2
ATOM      2  C   UNL A   1      33.933  19.361  24.804  1.00  0.00     0.313 C 
ATOM      3  O   UNL A   1      34.380  18.245  24.553  1.00  0.00    -0.252 OA
BRANCH   2   4
ATOM      4  C   UNL A   1      32.542  19.779  24.355  1.00  0.00     0.126 C 
ATOM      5  C   UNL A   1      32.183  19.040  23.070  1.00  0.00     0.025 C 
BRANCH   4   6
ATOM      6  C   UNL A   1      32.228  21.270  24.265  1.00  0.00    -0.027 A 
ATOM      7  C   UNL A   1      31.426  24.031  24.146  1.00  0.00     0.060 A 
ATOM      8  C   UNL A   1      31.888  23.343  23.009  1.00  0.00     0.016 A 
ATOM      9  C   UNL A   1      31.394  23.298  25.344  1.00  0.00     0.277 A 
ATOM     10  C   UNL A   1      32.273  21.991  23.063  1.00  0.00     0.006 A 
ATOM     11  C   UNL A   1      31.797  21.950  25.415  1.00  0.00     0.091 A 
BRANCH   7  12
ATOM     12  C   UNL A   1      30.989  25.436  24.030  1.00  0.00    -0.008 A 
ATOM     13  C   UNL A   1      31.417  27.819  24.224  1.00  0.00     0.133 A 
ATOM     14  C   UNL A   1      30.083  28.110  23.949  1.00  0.00     0.047 A 
ATOM     15  C   UNL A   1      31.876  26.499  24.265  1.00  0.00     0.056 A 
ATOM     16  C   UNL A   1      29.200  27.068  23.689  1.00  0.00     0.004 A 
ATOM     17  C   UNL A   1      29.649  25.743  23.731  1.00  0.00     0.009 A 
BRANCH  13  18
ATOM     18  O   UNL A   1      32.235  28.901  24.597  1.00  0.00    -0.410 OA
BRANCH  18  19
ATOM     19  C   UNL A   1      33.608  28.787  24.454  1.00  0.00     0.412 C 
ATOM     20  N   UNL A   1      34.289  28.948  25.628  1.00  0.00    -0.321 N 
ATOM     21  H   UNL A   1      35.272  28.905  25.573  1.00  0.00     0.167 HD
ATOM     22  O   UNL A   1      34.205  28.562  23.403  1.00  0.00    -0.224 OA
BRANCH  20  23
ATOM     23  C   UNL A   1      33.724  29.175  26.943  1.00  0.00     0.119 C 
BRANCH  23  24
ATOM     24  C   UNL A   1      34.541  30.185  27.751  1.00  0.00     0.021 C 
BRANCH  24  25
ATOM     25  C   UNL A   1      36.042  30.205  27.435  1.00  0.00     0.002 C 
BRANCH  25  26
ATOM     26  C   UNL A   1      36.930  29.403  28.392  1.00  0.00    -0.000 C 
BRANCH  26  27
ATOM     27  C   UNL A   1      38.322  29.051  27.858  1.00  0.00    -0.003 C 
ATOM     28  C   UNL A   1      38.906  27.793  28.484  1.00  0.00     0.004 C 
ENDBRANCH  26  27
ENDBRANCH  25  26
ENDBRANCH  24  25
ENDBRANCH  23  24
ENDBRANCH  20  23
ENDBRANCH  18  19
ENDBRANCH  13  18
ENDBRANCH   7  12
BRANCH   9  29
ATOM     29  N   UNL A   1      30.888  23.888  26.575  1.00  0.00     0.063 N 
ATOM     30  O   UNL A   1      29.688  23.705  26.829  1.00  0.00    -0.258 OA
ATOM     31  O   UNL A   1      31.664  24.579  27.247  1.00  0.00    -0.258 OA
ENDBRANCH   9  29
ENDBRANCH   4   6
ENDBRANCH   2   4
ENDBRANCH   1   2
BRANCH   1  32
ATOM     32  C   UNL A   1      35.946  20.601  24.989  1.00  0.00     0.261 C 
BRANCH  32  33
ATOM     33  C   UNL A   1      36.519  21.875  25.614  1.00  0.00     0.202 C 
BRANCH  33  34
ATOM     34  O   UNL A   1      37.839  22.244  25.213  1.00  0.00    -0.374 OA
BRANCH  34  35
ATOM     35  C   UNL A   1      38.733  22.708  26.222  1.00  0.00     0.202 C 
BRANCH  35  36
ATOM     36  C   UNL A   1      39.803  21.730  26.724  1.00  0.00     0.261 C 
BRANCH  36  37
ATOM     37  O   UNL A   1      40.590  21.168  25.659  1.00  0.00    -0.460 OA
BRANCH  37  38
ATOM     38  C   UNL A   1      41.810  20.717  26.047  1.00  0.00     0.338 C 
ATOM     39  O   UNL A   1      42.176  19.554  26.109  1.00  0.00    -0.246 OA
BRANCH  38  40
ATOM     40  C   UNL A   1      42.750  21.843  26.207  1.00  0.00     0.060 A 
ATOM     41  C   UNL A   1      43.326  22.015  27.472  1.00  0.00     0.016 A 
ATOM     42  C   UNL A   1      42.996  22.764  25.186  1.00  0.00     0.016 A 
ATOM     43  C   UNL A   1      44.091  23.145  27.745  1.00  0.00     0.010 A 
ATOM     44  C   UNL A   1      43.767  23.902  25.463  1.00  0.00     0.010 A 
ATOM     45  C   UNL A   1      44.278  24.120  26.756  1.00  0.00    -0.014 A 
BRANCH  45  46
ATOM     46  C   UNL A   1      44.859  25.431  27.143  1.00  0.00     0.031 A 
ATOM     47  C   UNL A   1      44.080  26.330  28.069  1.00  0.00     0.074 A 
ATOM     48  C   UNL A   1      46.096  25.783  26.746  1.00  0.00     0.049 A 
ATOM     49  N   UNL A   1      44.415  27.491  28.572  1.00  0.00    -0.248 NA
ATOM     50  C   UNL A   1      42.751  25.856  28.486  1.00  0.00     0.031 C 
ATOM     51  C   UNL A   1      46.974  24.977  25.899  1.00  0.00     0.029 A 
ATOM     52  N   UNL A   1      46.832  26.910  27.018  1.00  0.00    -0.354 N 
ATOM     53  C   UNL A   1      43.341  27.885  29.362  1.00  0.00     0.074 A 
ATOM     54  C   UNL A   1      42.329  26.859  29.240  1.00  0.00     0.031 C 
ATOM     55  C   UNL A   1      48.136  25.631  25.729  1.00  0.00     0.029 A 
ATOM     56  C   UNL A   1      48.074  26.913  26.429  1.00  0.00     0.049 A 
ATOM     57  H   UNL A   1      46.501  27.646  27.582  1.00  0.00     0.167 HD
ATOM     58  C   UNL A   1      43.210  28.994  30.129  1.00  0.00     0.031 A 
ATOM     59  C   UNL A   1      49.046  27.846  26.444  1.00  0.00     0.031 A 
ATOM     60  C   UNL A   1      44.209  30.023  30.238  1.00  0.00     0.049 A 
ATOM     61  C   UNL A   1      48.844  29.113  27.234  1.00  0.00     0.074 A 
ATOM     62  C   UNL A   1      44.171  31.185  30.990  1.00  0.00     0.029 A 
ATOM     63  N   UNL A   1      45.426  30.018  29.573  1.00  0.00    -0.354 N 
ATOM     64  N   UNL A   1      47.826  29.464  27.985  1.00  0.00    -0.248 NA
ATOM     65  C   UNL A   1      49.926  30.106  27.184  1.00  0.00     0.031 C 
ATOM     66  C   UNL A   1      45.340  31.909  30.735  1.00  0.00     0.029 A 
ATOM     67  C   UNL A   1      46.136  31.169  29.875  1.00  0.00     0.049 A 
ATOM     68  H   UNL A   1      45.739  29.303  28.974  1.00  0.00     0.167 HD
ATOM     69  C   UNL A   1      48.161  30.703  28.523  1.00  0.00     0.074 A 
ATOM     70  C   UNL A   1      49.477  31.035  28.018  1.00  0.00     0.031 C 
ATOM     71  C   UNL A   1      47.445  31.490  29.364  1.00  0.00     0.031 A 
BRANCH  58  72
ATOM     72  C   UNL A   1      41.917  29.164  30.884  1.00  0.00    -0.014 A 
ATOM     73  C   UNL A   1      41.657  28.439  32.061  1.00  0.00     0.010 A 
ATOM     74  C   UNL A   1      40.953  30.078  30.417  1.00  0.00     0.010 A 
ATOM     75  C   UNL A   1      40.440  28.590  32.732  1.00  0.00     0.020 A 
ATOM     76  C   UNL A   1      39.746  30.252  31.101  1.00  0.00     0.020 A 
ATOM     77  C   UNL A   1      39.489  29.492  32.244  1.00  0.00     0.054 A 
BRANCH  77  78
ATOM     78  S   UNL A   1      37.920  29.672  33.135  1.00  0.00     0.124 S 
ATOM     79  O   UNL A   1      37.401  28.306  33.110  1.00  0.00    -0.237 OA
ATOM     80  O   UNL A   1      38.348  30.157  34.445  1.00  0.00    -0.237 OA
ATOM     81  O   UNL A   1      37.172  30.635  32.331  1.00  0.00    -0.744 OA
ENDBRANCH  77  78
ENDBRANCH  58  72
BRANCH  59  82
ATOM     82  C   UNL A   1      50.305  27.619  25.682  1.00  0.00    -0.014 A 
ATOM     83  C   UNL A   1      51.465  27.161  26.331  1.00  0.00     0.010 A 
ATOM     84  C   UNL A   1      50.348  27.861  24.296  1.00  0.00     0.010 A 
ATOM     85  C   UNL A   1      52.647  26.959  25.611  1.00  0.00     0.020 A 
ATOM     86  C   UNL A   1      51.518  27.635  23.568  1.00  0.00     0.020 A 
ATOM     87  C   UNL A   1      52.664  27.194  24.233  1.00  0.00     0.054 A 
BRANCH  87  88
ATOM     88  S   UNL A   1      54.192  26.870  23.308  1.00  0.00     0.124 S 
ATOM     89  O   UNL A   1      54.790  28.200  23.234  1.00  0.00    -0.237 OA
ATOM     90  O   UNL A   1      54.882  25.912  24.167  1.00  0.00    -0.237 OA
ATOM     91  O   UNL A   1      53.713  26.325  22.039  1.00  0.00    -0.744 OA
ENDBRANCH  87  88
ENDBRANCH  59  82
BRANCH  71  92
ATOM     92  C   UNL A   1      48.081  32.775  29.827  1.00  0.00    -0.014 A 
ATOM     93  C   UNL A   1      47.882  33.982  29.133  1.00  0.00     0.010 A 
ATOM     94  C   UNL A   1      48.847  32.782  31.007  1.00  0.00     0.010 A 
ATOM     95  C   UNL A   1      48.464  35.166  29.594  1.00  0.00     0.020 A 
ATOM     96  C   UNL A   1      49.408  33.970  31.487  1.00  0.00     0.020 A 
ATOM     97  C   UNL A   1      49.224  35.152  30.769  1.00  0.00     0.054 A 
BRANCH  97  98
ATOM     98  S   UNL A   1      49.933  36.709  31.371  1.00  0.00     0.124 S 
ATOM     99  O   UNL A   1      50.374  36.344  32.715  1.00  0.00    -0.237 OA
ATOM    100  O   UNL A   1      51.002  36.968  30.409  1.00  0.00    -0.237 OA
ATOM    101  O   UNL A   1      48.813  37.646  31.314  1.00  0.00    -0.744 OA
ENDBRANCH  97  98
ENDBRANCH  71  92
ENDBRANCH  45  46
ENDBRANCH  38  40
ENDBRANCH  37  38
ENDBRANCH  36  37
ENDBRANCH  35  36
ENDBRANCH  34  35
ENDBRANCH  33  34
ENDBRANCH  32  33
ENDBRANCH   1  32
TORSDOF 27
ENDMDL
MODEL 2
REMARK VINA RESULT:      -9.2      1.556      2.317
REMARK SMILES CCCCCCNC(=O)Oc1cccc(-c2ccc([C@@H](C)C(=O)OCCOCCOC(=O)c3ccc(-c4c5nc(c(-c6ccc(S(=O)(=O)[O-])cc6)c6ccc([nH]6)c(-c6ccc(S(=O)(=O)[O-])cc6)c6nc(c(-c7ccc(S(=O)(=O)[O-])cc7)c7ccc4[nH]7)C=C6)C=C5)cc3)cc2[N+](=O)[O-])c1
REMARK SMILES IDX 24 1 22 2 23 3 20 4 21 5 19 6 16 7 17 8 94 9 18 10 93 11
REMARK SMILES IDX 15 12 11 13 12 14 98 15 13 16 14 17 10 18 8 19 7 20 9 22
REMARK SMILES IDX 6 23 5 24 4 25 3 26 2 27 1 28 95 29 96 30 97 31 25 32 26 33
REMARK SMILES IDX 27 34 28 35 29 36 30 37 31 38 32 39 33 40 34 41 92 42 35 43
REMARK SMILES IDX 91 44 36 45 37 46 38 47 85 48 39 49 90 50 84 51 86 52 40 53
REMARK SMILES IDX 89 54 83 55 82 56 41 58 71 59 52 60 70 61 53 62 56 63 69 64
REMARK SMILES IDX 87 65 54 66 55 67 68 69 88 70 57 71 42 72 43 73 51 74 44 75
REMARK SMILES IDX 50 76 45 77 46 78 47 79 48 80 49 81 72 82 73 83 81 84 74 85
REMARK SMILES IDX 80 86 75 87 76 88 77 89 78 90 79 91 58 92 59 93 67 94 60 95
REMARK SMILES IDX 66 96 61 97 62 98 63 99 64 100 65 101
REMARK H PARENT 7 21 86 57 56 68
REMARK Flexibility Score: inf
ROOT
ATOM      1  O   UNL A   1      34.654  20.296  25.401  1.00  0.00    -0.463 OA
ENDROOT
BRANCH   1   2
ATOM      2  C   UNL A   1      33.778  19.543  24.688  1.00  0.00     0.313 C 
ATOM      3  O   UNL A   1      33.911  18.343  24.464  1.00  0.00    -0.252 OA
BRANCH   2   4
ATOM      4  C   UNL A   1      32.595  20.326  24.142  1.00  0.00     0.126 C 
ATOM      5  C   UNL A   1      32.232  19.795  22.759  1.00  0.00     0.025 C 
BRANCH   4   6
ATOM      6  C   UNL A   1      32.661  21.851  24.170  1.00  0.00    -0.027 A 
ATOM      7  C   UNL A   1      32.569  24.727  24.181  1.00  0.00     0.060 A 
ATOM      8  C   UNL A   1      33.308  24.012  23.221  1.00  0.00     0.016 A 
ATOM      9  C   UNL A   1      31.894  23.957  25.143  1.00  0.00     0.277 A 
ATOM     10  C   UNL A   1      33.348  22.606  23.209  1.00  0.00     0.006 A 
ATOM     11  C   UNL A   1      31.943  22.549  25.154  1.00  0.00     0.091 A 
BRANCH   7  12
ATOM     12  C   UNL A   1      32.520  26.201  24.125  1.00  0.00    -0.008 A 
ATOM     13  C   UNL A   1      33.147  28.384  24.986  1.00  0.00     0.133 A 
ATOM     14  C   UNL A   1      32.285  29.015  24.092  1.00  0.00     0.047 A 
ATOM     15  C   UNL A   1      33.271  26.992  25.009  1.00  0.00     0.056 A 
ATOM     16  C   UNL A   1      31.554  28.245  23.193  1.00  0.00     0.004 A 
ATOM     17  C   UNL A   1      31.670  26.851  23.212  1.00  0.00     0.009 A 
BRANCH  13  18
ATOM     18  O   UNL A   1      33.767  29.201  25.948  1.00  0.00    -0.410 OA
BRANCH  18  19
ATOM     19  C   UNL A   1      33.066  29.540  27.095  1.00  0.00     0.412 C 
ATOM     20  N   UNL A   1      33.765  30.361  27.933  1.00  0.00    -0.321 N 
ATOM     21  H   UNL A   1      33.321  30.607  28.777  1.00  0.00     0.167 HD
ATOM     22  O   UNL A   1      31.929  29.169  27.377  1.00  0.00    -0.224 OA
BRANCH  20  23
ATOM     23  C   UNL A   1      35.089  30.912  27.716  1.00  0.00     0.119 C 
BRANCH  23  24
ATOM     24  C   UNL A   1      35.348  32.140  28.590  1.00  0.00     0.021 C 
BRANCH  24  25
ATOM     25  C   UNL A   1      34.225  33.186  28.588  1.00  0.00     0.002 C 
BRANCH  25  26
ATOM     26  C   UNL A   1      34.538  34.490  27.847  1.00  0.00    -0.000 C 
BRANCH  26  27
ATOM     27  C   UNL A   1      34.105  35.773  28.563  1.00  0.00    -0.003 C 
ATOM     28  C   UNL A   1      33.008  35.547  29.592  1.00  0.00     0.004 C 
ENDBRANCH  26  27
ENDBRANCH  25  26
ENDBRANCH  24  25
ENDBRANCH  23  24
ENDBRANCH  20  23
ENDBRANCH  18  19
ENDBRANCH  13  18
ENDBRANCH   7  12
BRANCH   9  29
ATOM     29  N   UNL A   1      31.057  24.583  26.157  1.00  0.00     0.063 N 
ATOM     30  O   UNL A   1      30.278  25.466  25.769  1.00  0.00    -0.258 OA
ATOM     31  O   UNL A   1      31.221  24.242  27.335  1.00  0.00    -0.258 OA
ENDBRANCH   9  29
ENDBRANCH   4   6
ENDBRANCH   2   4
ENDBRANCH   1   2
BRANCH   1  32
ATOM     32  C   UNL A   1      36.019  20.276  24.940  1.00  0.00     0.261 C 
BRANCH  32  33
ATOM     33  C   UNL A   1      36.777  21.530  25.381  1.00  0.00     0.202 C 
BRANCH  33  34
ATOM     34  O   UNL A   1      38.164  21.586  25.047  1.00  0.00    -0.374 OA
BRANCH  34  35
ATOM     35  C   UNL A   1      39.101  21.150  26.031  1.00  0.00     0.202 C 
BRANCH  35  36
ATOM     36  C   UNL A   1      39.932  19.901  25.712  1.00  0.00     0.261 C 
BRANCH  36  37
ATOM     37  O   UNL A   1      41.333  20.189  25.549  1.00  0.00    -0.460 OA
BRANCH  37  38
ATOM     38  C   UNL A   1      42.031  20.230  26.712  1.00  0.00     0.338 C 
ATOM     39  O   UNL A   1      42.519  19.283  27.307  1.00  0.00    -0.246 OA
BRANCH  38  40
ATOM     40  C   UNL A   1      42.317  21.626  27.094  1.00  0.00     0.060 A 
ATOM     41  C   UNL A   1      42.303  22.581  26.069  1.00  0.00     0.016 A 
ATOM     42  C   UNL A   1      42.683  21.987  28.393  1.00  0.00     0.016 A 
ATOM     43  C   UNL A   1      42.722  23.884  26.321  1.00  0.00     0.010 A 
ATOM     44  C   UNL A   1      43.106  23.300  28.643  1.00  0.00     0.010 A 
ATOM     45  C   UNL A   1      43.171  24.241  27.598  1.00  0.00    -0.014 A 
BRANCH  45  46
ATOM     46  C   UNL A   1      43.864  25.542  27.777  1.00  0.00     0.031 A 
ATOM     47  C   UNL A   1      43.132  26.672  28.457  1.00  0.00     0.074 A 
ATOM     48  C   UNL A   1      45.151  25.696  27.416  1.00  0.00     0.049 A 
ATOM     49  N   UNL A   1      43.558  27.872  28.759  1.00  0.00    -0.248 NA
ATOM     50  C   UNL A   1      41.739  26.411  28.854  1.00  0.00     0.031 C 
ATOM     51  C   UNL A   1      45.986  24.665  26.803  1.00  0.00     0.029 A 
ATOM     52  N   UNL A   1      45.984  26.782  27.528  1.00  0.00    -0.354 N 
ATOM     53  C   UNL A   1      42.488  28.508  29.379  1.00  0.00     0.074 A 
ATOM     54  C   UNL A   1      41.382  27.575  29.374  1.00  0.00     0.031 C 
ATOM     55  C   UNL A   1      47.218  25.164  26.602  1.00  0.00     0.029 A 
ATOM     56  C   UNL A   1      47.251  26.557  27.043  1.00  0.00     0.049 A 
ATOM     57  H   UNL A   1      45.701  27.640  27.918  1.00  0.00     0.167 HD
ATOM     58  C   UNL A   1      42.430  29.751  29.913  1.00  0.00     0.031 A 
ATOM     59  C   UNL A   1      48.314  27.382  26.958  1.00  0.00     0.031 A 
ATOM     60  C   UNL A   1      43.525  30.686  29.904  1.00  0.00     0.049 A 
ATOM     61  C   UNL A   1      48.201  28.790  27.480  1.00  0.00     0.074 A 
ATOM     62  C   UNL A   1      43.566  31.969  30.421  1.00  0.00     0.029 A 
ATOM     63  N   UNL A   1      44.770  30.441  29.345  1.00  0.00    -0.354 N 
ATOM     64  N   UNL A   1      47.185  29.371  28.074  1.00  0.00    -0.248 NA
ATOM     65  C   UNL A   1      49.383  29.651  27.328  1.00  0.00     0.031 C 
ATOM     66  C   UNL A   1      44.817  32.520  30.124  1.00  0.00     0.029 A 
ATOM     67  C   UNL A   1      45.578  31.557  29.480  1.00  0.00     0.049 A 
ATOM     68  H   UNL A   1      45.040  29.597  28.915  1.00  0.00     0.167 HD
ATOM     69  C   UNL A   1      47.617  30.655  28.396  1.00  0.00     0.074 A 
ATOM     70  C   UNL A   1      48.987  30.761  27.938  1.00  0.00     0.031 C 
ATOM     71  C   UNL A   1      46.940  31.652  29.019  1.00  0.00     0.031 A 
BRANCH  58  72
ATOM     72  C   UNL A   1      41.122  30.182  30.523  1.00  0.00    -0.014 A 
ATOM     73  C   UNL A   1      40.869  30.024  31.898  1.00  0.00     0.010 A 
ATOM     74  C   UNL A   1      40.136  30.772  29.711  1.00  0.00     0.010 A 
ATOM     75  C   UNL A   1      39.638  30.404  32.440  1.00  0.00     0.020 A 
ATOM     76  C   UNL A   1      38.914  31.179  30.255  1.00  0.00     0.020 A 
ATOM     77  C   UNL A   1      38.665  30.974  31.613  1.00  0.00     0.054 A 
BRANCH  77  78
ATOM     78  S   UNL A   1      37.078  31.463  32.343  1.00  0.00     0.124 S 
ATOM     79  O   UNL A   1      37.383  31.437  33.772  1.00  0.00    -0.237 OA
ATOM     80  O   UNL A   1      36.856  32.788  31.771  1.00  0.00    -0.237 OA
ATOM     81  O   UNL A   1      36.153  30.428  31.887  1.00  0.00    -0.744 OA
ENDBRANCH  77  78
ENDBRANCH  58  72
BRANCH  59  82
ATOM     82  C   UNL A   1      49.583  26.897  26.348  1.00  0.00    -0.014 A 
ATOM     83  C   UNL A   1      49.856  27.119  24.987  1.00  0.00     0.010 A 
ATOM     84  C   UNL A   1      50.527  26.209  27.132  1.00  0.00     0.010 A 
ATOM     85  C   UNL A   1      51.046  26.653  24.419  1.00  0.00     0.020 A 
ATOM     86  C   UNL A   1      51.729  25.765  26.574  1.00  0.00     0.020 A 
ATOM     87  C   UNL A   1      51.976  25.981  25.217  1.00  0.00     0.054 A 
BRANCH  87  88
ATOM     88  S   UNL A   1      53.538  25.436  24.472  1.00  0.00     0.124 S 
ATOM     89  O   UNL A   1      53.551  24.014  24.800  1.00  0.00    -0.237 OA
ATOM     90  O   UNL A   1      53.345  25.759  23.062  1.00  0.00    -0.237 OA
ATOM     91  O   UNL A   1      54.544  26.246  25.157  1.00  0.00    -0.744 OA
ENDBRANCH  87  88
ENDBRANCH  59  82
BRANCH  71  92
ATOM     92  C   UNL A   1      47.681  32.938  29.280  1.00  0.00    -0.014 A 
ATOM     93  C   UNL A   1      47.579  34.034  28.404  1.00  0.00     0.010 A 
ATOM     94  C   UNL A   1      48.448  33.068  30.452  1.00  0.00     0.010 A 
ATOM     95  C   UNL A   1      48.256  35.224  28.680  1.00  0.00     0.020 A 
ATOM     96  C   UNL A   1      49.106  34.267  30.745  1.00  0.00     0.020 A 
ATOM     97  C   UNL A   1      49.016  35.333  29.849  1.00  0.00     0.054 A 
BRANCH  97  98
ATOM     98  S   UNL A   1      49.852  36.903  30.207  1.00  0.00     0.124 S 
ATOM     99  O   UNL A   1      49.476  37.717  29.054  1.00  0.00    -0.237 OA
ATOM    100  O   UNL A   1      49.255  37.302  31.479  1.00  0.00    -0.237 OA
ATOM    101  O   UNL A   1      51.265  36.536  30.277  1.00  0.00    -0.744 OA
ENDBRANCH  97  98
ENDBRANCH  71  92
ENDBRANCH  45  46
ENDBRANCH  38  40
ENDBRANCH  37  38
ENDBRANCH  36  37
ENDBRANCH  35  36
ENDBRANCH  34  35
ENDBRANCH  33  34
ENDBRANCH  32  33
ENDBRANCH   1  32
TORSDOF 27
ENDMDL
MODEL 3
REMARK VINA RESULT:      -9.0      1.944      8.238
REMARK SMILES CCCCCCNC(=O)Oc1cccc(-c2ccc([C@@H](C)C(=O)OCCOCCOC(=O)c3ccc(-c4c5nc(c(-c6ccc(S(=O)(=O)[O-])cc6)c6ccc([nH]6)c(-c6ccc(S(=O)(=O)[O-])cc6)c6nc(c(-c7ccc(S(=O)(=O)[O-])cc7)c7ccc4[nH]7)C=C6)C=C5)cc3)cc2[N+](=O)[O-])c1
REMARK SMILES IDX 24 1 22 2 23 3 20 4 21 5 19 6 16 7 17 8 94 9 18 10 93 11
REMARK SMILES IDX 15 12 11 13 12 14 98 15 13 16 14 17 10 18 8 19 7 20 9 22
REMARK SMILES IDX 6 23 5 24 4 25 3 26 2 27 1 28 95 29 96 30 97 31 25 32 26 33
REMARK SMILES IDX 27 34 28 35 29 36 30 37 31 38 32 39 33 40 34 41 92 42 35 43
REMARK SMILES IDX 91 44 36 45 37 46 38 47 85 48 39 49 90 50 84 51 86 52 40 53
REMARK SMILES IDX 89 54 83 55 82 56 41 58 71 59 52 60 70 61 53 62 56 63 69 64
REMARK SMILES IDX 87 65 54 66 55 67 68 69 88 70 57 71 42 72 43 73 51 74 44 75
REMARK SMILES IDX 50 76 45 77 46 78 47 79 48 80 49 81 72 82 73 83 81 84 74 85
REMARK SMILES IDX 80 86 75 87 76 88 77 89 78 90 79 91 58 92 59 93 67 94 60 95
REMARK SMILES IDX 66 96 61 97 62 98 63 99 64 100 65 101
REMARK H PARENT 7 21 86 57 56 68
REMARK Flexibility Score: inf
ROOT
ATOM      1  O   UNL A   1      34.888  19.426  24.963  1.00  0.00    -0.463 OA
ENDROOT
BRANCH   1   2
ATOM      2  C   UNL A   1      33.870  18.607  24.596  1.00  0.00     0.313 C 
ATOM      3  O   UNL A   1      33.944  17.382  24.542  1.00  0.00    -0.252 OA
BRANCH   2   4
ATOM      4  C   UNL A   1      32.595  19.342  24.213  1.00  0.00     0.126 C 
ATOM      5  C   UNL A   1      32.233  19.008  22.770  1.00  0.00     0.025 C 
BRANCH   4   6
ATOM      6  C   UNL A   1      32.513  20.841  24.491  1.00  0.00    -0.027 A 
ATOM      7  C   UNL A   1      32.577  23.672  25.001  1.00  0.00     0.060 A 
ATOM      8  C   UNL A   1      32.107  22.756  25.960  1.00  0.00     0.016 A 
ATOM      9  C   UNL A   1      32.997  23.127  23.776  1.00  0.00     0.277 A 
ATOM     10  C   UNL A   1      32.082  21.371  25.715  1.00  0.00     0.006 A 
ATOM     11  C   UNL A   1      32.958  21.744  23.512  1.00  0.00     0.091 A 
BRANCH   7  12
ATOM     12  C   UNL A   1      32.627  25.112  25.321  1.00  0.00    -0.008 A 
ATOM     13  C   UNL A   1      31.753  27.369  25.112  1.00  0.00     0.133 A 
ATOM     14  C   UNL A   1      32.836  27.884  25.821  1.00  0.00     0.047 A 
ATOM     15  C   UNL A   1      31.641  25.998  24.859  1.00  0.00     0.056 A 
ATOM     16  C   UNL A   1      33.808  27.015  26.305  1.00  0.00     0.004 A 
ATOM     17  C   UNL A   1      33.704  25.642  26.055  1.00  0.00     0.009 A 
BRANCH  13  18
ATOM     18  O   UNL A   1      30.869  28.304  24.545  1.00  0.00    -0.410 OA
BRANCH  18  19
ATOM     19  C   UNL A   1      31.249  28.977  23.395  1.00  0.00     0.412 C 
ATOM     20  N   UNL A   1      30.698  30.223  23.290  1.00  0.00    -0.321 N 
ATOM     21  H   UNL A   1      30.914  30.731  22.475  1.00  0.00     0.167 HD
ATOM     22  O   UNL A   1      32.004  28.546  22.526  1.00  0.00    -0.224 OA
BRANCH  20  23
ATOM     23  C   UNL A   1      29.830  30.879  24.248  1.00  0.00     0.119 C 
BRANCH  23  24
ATOM     24  C   UNL A   1      29.122  32.092  23.643  1.00  0.00     0.021 C 
BRANCH  24  25
ATOM     25  C   UNL A   1      27.786  31.786  22.954  1.00  0.00     0.002 C 
BRANCH  25  26
ATOM     26  C   UNL A   1      27.005  30.597  23.526  1.00  0.00    -0.000 C 
BRANCH  26  27
ATOM     27  C   UNL A   1      27.382  29.227  22.955  1.00  0.00    -0.003 C 
ATOM     28  C   UNL A   1      26.687  28.071  23.657  1.00  0.00     0.004 C 
ENDBRANCH  26  27
ENDBRANCH  25  26
ENDBRANCH  24  25
ENDBRANCH  23  24
ENDBRANCH  20  23
ENDBRANCH  18  19
ENDBRANCH  13  18
ENDBRANCH   7  12
BRANCH   9  29
ATOM     29  N   UNL A   1      33.550  23.971  22.727  1.00  0.00     0.063 N 
ATOM     30  O   UNL A   1      34.714  24.369  22.886  1.00  0.00    -0.258 OA
ATOM     31  O   UNL A   1      32.810  24.284  21.785  1.00  0.00    -0.258 OA
ENDBRANCH   9  29
ENDBRANCH   4   6
ENDBRANCH   2   4
ENDBRANCH   1   2
BRANCH   1  32
ATOM     32  C   UNL A   1      36.214  18.955  24.659  1.00  0.00     0.261 C 
BRANCH  32  33
ATOM     33  C   UNL A   1      37.267  20.031  24.931  1.00  0.00     0.202 C 
BRANCH  33  34
ATOM     34  O   UNL A   1      38.630  19.602  24.936  1.00  0.00    -0.374 OA
BRANCH  34  35
ATOM     35  C   UNL A   1      39.528  20.261  25.827  1.00  0.00     0.202 C 
BRANCH  35  36
ATOM     36  C   UNL A   1      40.715  19.451  26.362  1.00  0.00     0.261 C 
BRANCH  36  37
ATOM     37  O   UNL A   1      41.736  19.233  25.372  1.00  0.00    -0.460 OA
BRANCH  37  38
ATOM     38  C   UNL A   1      42.985  19.576  25.776  1.00  0.00     0.338 C 
ATOM     39  O   UNL A   1      44.007  18.926  25.627  1.00  0.00    -0.246 OA
BRANCH  38  40
ATOM     40  C   UNL A   1      43.008  20.970  26.261  1.00  0.00     0.060 A 
ATOM     41  C   UNL A   1      43.065  21.979  25.291  1.00  0.00     0.016 A 
ATOM     42  C   UNL A   1      43.067  21.289  27.619  1.00  0.00     0.016 A 
ATOM     43  C   UNL A   1      43.254  23.304  25.671  1.00  0.00     0.010 A 
ATOM     44  C   UNL A   1      43.259  22.625  27.999  1.00  0.00     0.010 A 
ATOM     45  C   UNL A   1      43.400  23.631  27.025  1.00  0.00    -0.014 A 
BRANCH  45  46
ATOM     46  C   UNL A   1      43.869  24.993  27.387  1.00  0.00     0.031 A 
ATOM     47  C   UNL A   1      45.320  25.345  27.180  1.00  0.00     0.074 A 
ATOM     48  C   UNL A   1      43.004  25.931  27.817  1.00  0.00     0.049 A 
ATOM     49  N   UNL A   1      45.933  26.484  27.382  1.00  0.00    -0.248 NA
ATOM     50  C   UNL A   1      46.193  24.274  26.673  1.00  0.00     0.031 C 
ATOM     51  C   UNL A   1      41.567  25.734  28.004  1.00  0.00     0.029 A 
ATOM     52  N   UNL A   1      43.211  27.244  28.160  1.00  0.00    -0.354 N 
ATOM     53  C   UNL A   1      47.260  26.266  27.028  1.00  0.00     0.074 A 
ATOM     54  C   UNL A   1      47.370  24.878  26.637  1.00  0.00     0.031 C 
ATOM     55  C   UNL A   1      41.020  26.889  28.418  1.00  0.00     0.029 A 
ATOM     56  C   UNL A   1      42.068  27.898  28.555  1.00  0.00     0.049 A 
ATOM     57  H   UNL A   1      44.095  27.676  28.127  1.00  0.00     0.167 HD
ATOM     58  C   UNL A   1      48.293  27.142  27.018  1.00  0.00     0.031 A 
ATOM     59  C   UNL A   1      41.889  29.163  28.985  1.00  0.00     0.031 A 
ATOM     60  C   UNL A   1      48.188  28.520  27.422  1.00  0.00     0.049 A 
ATOM     61  C   UNL A   1      43.070  30.096  29.049  1.00  0.00     0.074 A 
ATOM     62  C   UNL A   1      49.177  29.487  27.447  1.00  0.00     0.029 A 
ATOM     63  N   UNL A   1      47.026  29.124  27.877  1.00  0.00    -0.354 N 
ATOM     64  N   UNL A   1      44.316  29.877  28.700  1.00  0.00    -0.248 NA
ATOM     65  C   UNL A   1      42.816  31.452  29.558  1.00  0.00     0.031 C 
ATOM     66  C   UNL A   1      48.625  30.662  27.970  1.00  0.00     0.029 A 
ATOM     67  C   UNL A   1      47.278  30.444  28.211  1.00  0.00     0.049 A 
ATOM     68  H   UNL A   1      46.150  28.680  27.952  1.00  0.00     0.167 HD
ATOM     69  C   UNL A   1      44.987  31.077  28.916  1.00  0.00     0.074 A 
ATOM     70  C   UNL A   1      44.008  32.019  29.418  1.00  0.00     0.031 C 
ATOM     71  C   UNL A   1      46.295  31.372  28.711  1.00  0.00     0.031 A 
BRANCH  58  72
ATOM     72  C   UNL A   1      49.639  26.620  26.587  1.00  0.00    -0.014 A 
ATOM     73  C   UNL A   1      50.526  26.035  27.508  1.00  0.00     0.010 A 
ATOM     74  C   UNL A   1      50.014  26.698  25.232  1.00  0.00     0.010 A 
ATOM     75  C   UNL A   1      51.781  25.582  27.093  1.00  0.00     0.020 A 
ATOM     76  C   UNL A   1      51.258  26.221  24.809  1.00  0.00     0.020 A 
ATOM     77  C   UNL A   1      52.142  25.683  25.746  1.00  0.00     0.054 A 
BRANCH  77  78
ATOM     78  S   UNL A   1      53.775  25.084  25.233  1.00  0.00     0.124 S 
ATOM     79  O   UNL A   1      54.628  25.565  26.317  1.00  0.00    -0.237 OA
ATOM     80  O   UNL A   1      53.584  23.636  25.179  1.00  0.00    -0.237 OA
ATOM     81  O   UNL A   1      53.992  25.729  23.940  1.00  0.00    -0.744 OA
ENDBRANCH  77  78
ENDBRANCH  58  72
BRANCH  59  82
ATOM     82  C   UNL A   1      40.533  29.623  29.394  1.00  0.00    -0.014 A 
ATOM     83  C   UNL A   1      40.267  29.977  30.728  1.00  0.00     0.010 A 
ATOM     84  C   UNL A   1      39.498  29.709  28.445  1.00  0.00     0.010 A 
ATOM     85  C   UNL A   1      38.989  30.399  31.108  1.00  0.00     0.020 A 
ATOM     86  C   UNL A   1      38.227  30.156  28.813  1.00  0.00     0.020 A 
ATOM     87  C   UNL A   1      37.978  30.489  30.146  1.00  0.00     0.054 A 
BRANCH  87  88
ATOM     88  S   UNL A   1      36.343  31.094  30.649  1.00  0.00     0.124 S 
ATOM     89  O   UNL A   1      35.919  30.070  31.599  1.00  0.00    -0.237 OA
ATOM     90  O   UNL A   1      36.653  32.401  31.222  1.00  0.00    -0.237 OA
ATOM     91  O   UNL A   1      35.593  31.135  29.395  1.00  0.00    -0.744 OA
ENDBRANCH  87  88
ENDBRANCH  59  82
BRANCH  71  92
ATOM     92  C   UNL A   1      46.743  32.783  28.993  1.00  0.00    -0.014 A 
ATOM     93  C   UNL A   1      47.317  33.137  30.227  1.00  0.00     0.010 A 
ATOM     94  C   UNL A   1      46.635  33.757  27.983  1.00  0.00     0.010 A 
ATOM     95  C   UNL A   1      47.747  34.447  30.456  1.00  0.00     0.020 A 
ATOM     96  C   UNL A   1      47.088  35.062  28.199  1.00  0.00     0.020 A 
ATOM     97  C   UNL A   1      47.629  35.402  29.440  1.00  0.00     0.054 A 
BRANCH  97  98
ATOM     98  S   UNL A   1      48.232  37.085  29.747  1.00  0.00     0.124 S 
ATOM     99  O   UNL A   1      48.557  37.542  28.398  1.00  0.00    -0.237 OA
ATOM    100  O   UNL A   1      47.078  37.731  30.368  1.00  0.00    -0.237 OA
ATOM    101  O   UNL A   1      49.378  36.887  30.632  1.00  0.00    -0.744 OA
ENDBRANCH  97  98
ENDBRANCH  71  92
ENDBRANCH  45  46
ENDBRANCH  38  40
ENDBRANCH  37  38
ENDBRANCH  36  37
ENDBRANCH  35  36
ENDBRANCH  34  35
ENDBRANCH  33  34
ENDBRANCH  32  33
ENDBRANCH   1  32
TORSDOF 27
ENDMDL
