MODEL 1
REMARK VINA RESULT:     -11.6      0.000      0.000
REMARK SMILES O=C(Cc1ccc(NC(=O)c2ccc(N3C(=O)c4ccccc4C3=O)cc2)cc1)OCCOCCOC(=O)c1ccc(-c2c3nc(c(-c4ccc(S(=O)(=O)[O-])cc4)c4ccc([nH]4)c(-c4ccc(S(=O)(=O)[O-])cc4)c4nc(c(-c5ccc(S(=O)(=O)[O-])cc5)c5ccc2[nH]5)C=C4)C=C3)cc1
REMARK SMILES IDX 32 1 31 2 30 3 2 4 1 5 3 6 4 7 5 8 29 9 6 10 28 11 7 12 8 13
REMARK SMILES IDX 9 14 10 16 11 17 12 18 27 19 13 20 26 21 14 22 15 23 16 24
REMARK SMILES IDX 24 25 17 26 18 27 23 28 25 29 19 30 22 31 20 32 21 33 33 34
REMARK SMILES IDX 34 35 35 36 36 37 37 38 38 39 39 40 40 41 98 42 41 43 97 44
REMARK SMILES IDX 42 45 43 46 44 47 91 48 45 49 96 50 90 51 92 52 46 53 95 54
REMARK SMILES IDX 89 55 88 56 47 58 77 59 58 60 76 61 59 62 62 63 75 64 93 65
REMARK SMILES IDX 60 66 61 67 74 69 94 70 63 71 48 72 49 73 57 74 50 75 56 76
REMARK SMILES IDX 51 77 52 78 53 79 54 80 55 81 78 82 79 83 87 84 80 85 86 86
REMARK SMILES IDX 81 87 82 88 83 89 84 90 85 91 64 92 65 93 73 94 66 95 72 96
REMARK SMILES IDX 67 97 68 98 69 99 70 100 71 101
REMARK H PARENT 8 15 92 57 62 68
REMARK Flexibility Score: inf
ROOT
ATOM      1  C   UNL A   1      34.730  32.720  27.990  1.00  0.00     0.202 C 
ENDROOT
BRANCH   1   2
ATOM      2  C   UNL A   1      34.567  31.220  27.736  1.00  0.00     0.261 C 
BRANCH   2   3
ATOM      3  O   UNL A   1      33.301  30.801  27.207  1.00  0.00    -0.463 OA
BRANCH   3   4
ATOM      4  C   UNL A   1      33.094  29.795  26.324  1.00  0.00     0.310 C 
ATOM      5  O   UNL A   1      32.034  29.759  25.698  1.00  0.00    -0.252 OA
BRANCH   4   6
ATOM      6  C   UNL A   1      34.072  28.649  26.204  1.00  0.00     0.158 C 
BRANCH   6   7
ATOM      7  C   UNL A   1      33.572  27.406  25.530  1.00  0.00    -0.037 A 
ATOM      8  C   UNL A   1      33.004  26.383  26.295  1.00  0.00     0.006 A 
ATOM      9  C   UNL A   1      33.734  27.219  24.154  1.00  0.00     0.006 A 
ATOM     10  C   UNL A   1      32.611  25.193  25.687  1.00  0.00     0.026 A 
ATOM     11  C   UNL A   1      33.289  26.044  23.546  1.00  0.00     0.026 A 
ATOM     12  C   UNL A   1      32.658  25.051  24.300  1.00  0.00     0.041 A 
BRANCH  12  13
ATOM     13  N   UNL A   1      32.075  23.978  23.599  1.00  0.00    -0.322 N 
ATOM     14  C   UNL A   1      32.595  22.763  23.195  1.00  0.00     0.255 C 
ATOM     15  H   UNL A   1      31.132  24.118  23.352  1.00  0.00     0.170 HD
ATOM     16  O   UNL A   1      31.928  21.998  22.502  1.00  0.00    -0.269 OA
BRANCH  14  17
ATOM     17  C   UNL A   1      33.940  22.327  23.631  1.00  0.00     0.040 A 
ATOM     18  C   UNL A   1      35.059  22.972  23.111  1.00  0.00     0.016 A 
ATOM     19  C   UNL A   1      34.098  21.353  24.613  1.00  0.00     0.016 A 
ATOM     20  C   UNL A   1      36.324  22.736  23.674  1.00  0.00     0.028 A 
ATOM     21  C   UNL A   1      35.359  21.145  25.187  1.00  0.00     0.028 A 
ATOM     22  C   UNL A   1      36.494  21.857  24.760  1.00  0.00     0.052 A 
BRANCH  22  23
ATOM     23  N   UNL A   1      37.753  21.708  25.424  1.00  0.00    -0.242 N 
ATOM     24  C   UNL A   1      38.353  22.680  26.199  1.00  0.00     0.266 C 
ATOM     25  C   UNL A   1      38.564  20.587  25.361  1.00  0.00     0.266 C 
ATOM     26  O   UNL A   1      38.019  23.814  26.505  1.00  0.00    -0.268 OA
ATOM     27  C   UNL A   1      39.609  22.135  26.689  1.00  0.00     0.053 A 
ATOM     28  C   UNL A   1      39.749  20.869  26.170  1.00  0.00     0.053 A 
ATOM     29  O   UNL A   1      38.440  19.522  24.791  1.00  0.00    -0.268 OA
ATOM     30  C   UNL A   1      40.551  22.697  27.530  1.00  0.00     0.015 A 
ATOM     31  C   UNL A   1      40.858  20.091  26.450  1.00  0.00     0.015 A 
ATOM     32  C   UNL A   1      41.675  21.928  27.839  1.00  0.00     0.001 A 
ATOM     33  C   UNL A   1      41.830  20.636  27.299  1.00  0.00     0.001 A 
ENDBRANCH  22  23
ENDBRANCH  14  17
ENDBRANCH  12  13
ENDBRANCH   6   7
ENDBRANCH   4   6
ENDBRANCH   3   4
ENDBRANCH   2   3
ENDBRANCH   1   2
BRANCH   1  34
ATOM     34  O   UNL A   1      34.816  33.194  29.328  1.00  0.00    -0.374 OA
BRANCH  34  35
ATOM     35  C   UNL A   1      35.141  32.257  30.359  1.00  0.00     0.202 C 
BRANCH  35  36
ATOM     36  C   UNL A   1      36.611  32.042  30.729  1.00  0.00     0.261 C 
BRANCH  36  37
ATOM     37  O   UNL A   1      37.295  31.215  29.779  1.00  0.00    -0.460 OA
BRANCH  37  38
ATOM     38  C   UNL A   1      37.398  29.916  30.147  1.00  0.00     0.338 C 
ATOM     39  O   UNL A   1      36.585  29.269  30.786  1.00  0.00    -0.246 OA
BRANCH  38  40
ATOM     40  C   UNL A   1      38.553  29.299  29.470  1.00  0.00     0.060 A 
ATOM     41  C   UNL A   1      39.454  28.583  30.269  1.00  0.00     0.016 A 
ATOM     42  C   UNL A   1      38.790  29.480  28.106  1.00  0.00     0.016 A 
ATOM     43  C   UNL A   1      40.655  28.146  29.732  1.00  0.00     0.010 A 
ATOM     44  C   UNL A   1      40.000  29.041  27.567  1.00  0.00     0.010 A 
ATOM     45  C   UNL A   1      40.962  28.440  28.398  1.00  0.00    -0.014 A 
BRANCH  45  46
ATOM     46  C   UNL A   1      42.374  28.347  27.964  1.00  0.00     0.031 A 
ATOM     47  C   UNL A   1      43.273  29.529  28.217  1.00  0.00     0.074 A 
ATOM     48  C   UNL A   1      42.858  27.212  27.435  1.00  0.00     0.049 A 
ATOM     49  N   UNL A   1      44.547  29.671  27.963  1.00  0.00    -0.248 NA
ATOM     50  C   UNL A   1      42.651  30.713  28.837  1.00  0.00     0.031 C 
ATOM     51  C   UNL A   1      42.085  25.992  27.200  1.00  0.00     0.029 A 
ATOM     52  N   UNL A   1      44.122  26.899  27.012  1.00  0.00    -0.354 N 
ATOM     53  C   UNL A   1      44.873  30.959  28.374  1.00  0.00     0.074 A 
ATOM     54  C   UNL A   1      43.659  31.571  28.863  1.00  0.00     0.031 C 
ATOM     55  C   UNL A   1      42.899  25.057  26.681  1.00  0.00     0.029 A 
ATOM     56  C   UNL A   1      44.236  25.622  26.519  1.00  0.00     0.049 A 
ATOM     57  H   UNL A   1      44.877  27.530  27.057  1.00  0.00     0.167 HD
ATOM     58  C   UNL A   1      46.079  31.574  28.354  1.00  0.00     0.031 A 
ATOM     59  C   UNL A   1      45.302  24.989  25.990  1.00  0.00     0.031 A 
ATOM     60  C   UNL A   1      47.280  30.954  27.863  1.00  0.00     0.049 A 
ATOM     61  C   UNL A   1      46.620  25.715  25.927  1.00  0.00     0.074 A 
ATOM     62  C   UNL A   1      48.560  31.474  27.815  1.00  0.00     0.029 A 
ATOM     63  N   UNL A   1      47.345  29.673  27.331  1.00  0.00    -0.354 N 
ATOM     64  N   UNL A   1      46.920  26.926  26.339  1.00  0.00    -0.248 NA
ATOM     65  C   UNL A   1      47.750  24.979  25.344  1.00  0.00     0.031 C 
ATOM     66  C   UNL A   1      49.388  30.534  27.191  1.00  0.00     0.029 A 
ATOM     67  C   UNL A   1      48.639  29.398  26.925  1.00  0.00     0.049 A 
ATOM     68  H   UNL A   1      46.585  29.054  27.255  1.00  0.00     0.167 HD
ATOM     69  C   UNL A   1      48.282  27.081  26.101  1.00  0.00     0.074 A 
ATOM     70  C   UNL A   1      48.746  25.836  25.521  1.00  0.00     0.031 C 
ATOM     71  C   UNL A   1      49.079  28.151  26.348  1.00  0.00     0.031 A 
BRANCH  58  72
ATOM     72  C   UNL A   1      46.144  33.002  28.832  1.00  0.00    -0.014 A 
ATOM     73  C   UNL A   1      45.801  34.080  27.995  1.00  0.00     0.010 A 
ATOM     74  C   UNL A   1      46.530  33.267  30.158  1.00  0.00     0.010 A 
ATOM     75  C   UNL A   1      45.883  35.395  28.463  1.00  0.00     0.020 A 
ATOM     76  C   UNL A   1      46.583  34.578  30.641  1.00  0.00     0.020 A 
ATOM     77  C   UNL A   1      46.275  35.635  29.783  1.00  0.00     0.054 A 
BRANCH  77  78
ATOM     78  S   UNL A   1      46.349  37.350  30.371  1.00  0.00     0.124 S 
ATOM     79  O   UNL A   1      46.177  38.102  29.131  1.00  0.00    -0.237 OA
ATOM     80  O   UNL A   1      45.229  37.415  31.307  1.00  0.00    -0.237 OA
ATOM     81  O   UNL A   1      47.673  37.451  30.981  1.00  0.00    -0.744 OA
ENDBRANCH  77  78
ENDBRANCH  58  72
BRANCH  59  82
ATOM     82  C   UNL A   1      45.164  23.596  25.485  1.00  0.00    -0.014 A 
ATOM     83  C   UNL A   1      44.588  23.341  24.228  1.00  0.00     0.010 A 
ATOM     84  C   UNL A   1      45.611  22.513  26.263  1.00  0.00     0.010 A 
ATOM     85  C   UNL A   1      44.444  22.029  23.768  1.00  0.00     0.020 A 
ATOM     86  C   UNL A   1      45.498  21.202  25.794  1.00  0.00     0.020 A 
ATOM     87  C   UNL A   1      44.904  20.967  24.553  1.00  0.00     0.054 A 
BRANCH  87  88
ATOM     88  S   UNL A   1      44.748  19.276  23.915  1.00  0.00     0.124 S 
ATOM     89  O   UNL A   1      46.016  18.681  24.318  1.00  0.00    -0.237 OA
ATOM     90  O   UNL A   1      43.564  18.785  24.617  1.00  0.00    -0.237 OA
ATOM     91  O   UNL A   1      44.574  19.469  22.477  1.00  0.00    -0.744 OA
ENDBRANCH  87  88
ENDBRANCH  59  82
BRANCH  71  92
ATOM     92  C   UNL A   1      50.548  28.002  26.044  1.00  0.00    -0.014 A 
ATOM     93  C   UNL A   1      51.086  28.367  24.798  1.00  0.00     0.010 A 
ATOM     94  C   UNL A   1      51.408  27.513  27.045  1.00  0.00     0.010 A 
ATOM     95  C   UNL A   1      52.449  28.195  24.540  1.00  0.00     0.020 A 
ATOM     96  C   UNL A   1      52.776  27.374  26.804  1.00  0.00     0.020 A 
ATOM     97  C   UNL A   1      53.284  27.696  25.544  1.00  0.00     0.054 A 
BRANCH  97  98
ATOM     98  S   UNL A   1      55.051  27.492  25.190  1.00  0.00     0.124 S 
ATOM     99  O   UNL A   1      55.068  26.231  24.454  1.00  0.00    -0.237 OA
ATOM    100  O   UNL A   1      55.359  28.683  24.403  1.00  0.00    -0.237 OA
ATOM    101  O   UNL A   1      55.668  27.449  26.513  1.00  0.00    -0.744 OA
ENDBRANCH  97  98
ENDBRANCH  71  92
ENDBRANCH  45  46
ENDBRANCH  38  40
ENDBRANCH  37  38
ENDBRANCH  36  37
ENDBRANCH  35  36
ENDBRANCH  34  35
ENDBRANCH   1  34
TORSDOF 21
ENDMDL
MODEL 2
REMARK VINA RESULT:     -10.2      5.579      7.796
REMARK SMILES O=C(Cc1ccc(NC(=O)c2ccc(N3C(=O)c4ccccc4C3=O)cc2)cc1)OCCOCCOC(=O)c1ccc(-c2c3nc(c(-c4ccc(S(=O)(=O)[O-])cc4)c4ccc([nH]4)c(-c4ccc(S(=O)(=O)[O-])cc4)c4nc(c(-c5ccc(S(=O)(=O)[O-])cc5)c5ccc2[nH]5)C=C4)C=C3)cc1
REMARK SMILES IDX 32 1 31 2 30 3 2 4 1 5 3 6 4 7 5 8 29 9 6 10 28 11 7 12 8 13
REMARK SMILES IDX 9 14 10 16 11 17 12 18 27 19 13 20 26 21 14 22 15 23 16 24
REMARK SMILES IDX 24 25 17 26 18 27 23 28 25 29 19 30 22 31 20 32 21 33 33 34
REMARK SMILES IDX 34 35 35 36 36 37 37 38 38 39 39 40 40 41 98 42 41 43 97 44
REMARK SMILES IDX 42 45 43 46 44 47 91 48 45 49 96 50 90 51 92 52 46 53 95 54
REMARK SMILES IDX 89 55 88 56 47 58 77 59 58 60 76 61 59 62 62 63 75 64 93 65
REMARK SMILES IDX 60 66 61 67 74 69 94 70 63 71 48 72 49 73 57 74 50 75 56 76
REMARK SMILES IDX 51 77 52 78 53 79 54 80 55 81 78 82 79 83 87 84 80 85 86 86
REMARK SMILES IDX 81 87 82 88 83 89 84 90 85 91 64 92 65 93 73 94 66 95 72 96
REMARK SMILES IDX 67 97 68 98 69 99 70 100 71 101
REMARK H PARENT 8 15 92 57 62 68
REMARK Flexibility Score: inf
ROOT
ATOM      1  C   UNL A   1      34.240  31.796  27.783  1.00  0.00     0.202 C 
ENDROOT
BRANCH   1   2
ATOM      2  C   UNL A   1      34.752  30.356  27.693  1.00  0.00     0.261 C 
BRANCH   2   3
ATOM      3  O   UNL A   1      33.760  29.324  27.785  1.00  0.00    -0.463 OA
BRANCH   3   4
ATOM      4  C   UNL A   1      33.492  28.383  26.850  1.00  0.00     0.310 C 
ATOM      5  O   UNL A   1      34.429  27.856  26.248  1.00  0.00    -0.252 OA
BRANCH   4   6
ATOM      6  C   UNL A   1      32.072  28.079  26.435  1.00  0.00     0.158 C 
BRANCH   6   7
ATOM      7  C   UNL A   1      31.857  26.827  25.636  1.00  0.00    -0.037 A 
ATOM      8  C   UNL A   1      31.694  25.604  26.292  1.00  0.00     0.006 A 
ATOM      9  C   UNL A   1      31.893  26.853  24.238  1.00  0.00     0.006 A 
ATOM     10  C   UNL A   1      31.575  24.428  25.556  1.00  0.00     0.026 A 
ATOM     11  C   UNL A   1      31.720  25.674  23.508  1.00  0.00     0.026 A 
ATOM     12  C   UNL A   1      31.488  24.463  24.164  1.00  0.00     0.041 A 
BRANCH  12  13
ATOM     13  N   UNL A   1      31.144  23.353  23.369  1.00  0.00    -0.322 N 
ATOM     14  C   UNL A   1      31.903  22.296  22.902  1.00  0.00     0.255 C 
ATOM     15  H   UNL A   1      30.198  23.324  23.098  1.00  0.00     0.170 HD
ATOM     16  O   UNL A   1      31.415  21.470  22.133  1.00  0.00    -0.269 OA
BRANCH  14  17
ATOM     17  C   UNL A   1      33.297  22.099  23.355  1.00  0.00     0.040 A 
ATOM     18  C   UNL A   1      34.289  22.950  22.875  1.00  0.00     0.016 A 
ATOM     19  C   UNL A   1      33.613  21.143  24.317  1.00  0.00     0.016 A 
ATOM     20  C   UNL A   1      35.566  22.932  23.459  1.00  0.00     0.028 A 
ATOM     21  C   UNL A   1      34.881  21.151  24.912  1.00  0.00     0.028 A 
ATOM     22  C   UNL A   1      35.875  22.068  24.527  1.00  0.00     0.052 A 
BRANCH  22  23
ATOM     23  N   UNL A   1      37.128  22.132  25.214  1.00  0.00    -0.242 N 
ATOM     24  C   UNL A   1      38.045  21.102  25.277  1.00  0.00     0.266 C 
ATOM     25  C   UNL A   1      37.588  23.219  25.940  1.00  0.00     0.266 C 
ATOM     26  O   UNL A   1      38.048  19.972  24.816  1.00  0.00    -0.268 OA
ATOM     27  C   UNL A   1      39.175  21.570  26.063  1.00  0.00     0.053 A 
ATOM     28  C   UNL A   1      38.897  22.851  26.481  1.00  0.00     0.053 A 
ATOM     29  O   UNL A   1      37.109  24.312  26.162  1.00  0.00    -0.268 OA
ATOM     30  C   UNL A   1      40.360  20.931  26.380  1.00  0.00     0.015 A 
ATOM     31  C   UNL A   1      39.786  23.566  27.262  1.00  0.00     0.015 A 
ATOM     32  C   UNL A   1      41.281  21.636  27.158  1.00  0.00     0.001 A 
ATOM     33  C   UNL A   1      40.993  22.943  27.600  1.00  0.00     0.001 A 
ENDBRANCH  22  23
ENDBRANCH  14  17
ENDBRANCH  12  13
ENDBRANCH   6   7
ENDBRANCH   4   6
ENDBRANCH   3   4
ENDBRANCH   2   3
ENDBRANCH   1   2
BRANCH   1  34
ATOM     34  O   UNL A   1      32.902  32.085  27.397  1.00  0.00    -0.374 OA
BRANCH  34  35
ATOM     35  C   UNL A   1      32.449  33.439  27.487  1.00  0.00     0.202 C 
BRANCH  35  36
ATOM     36  C   UNL A   1      33.234  34.426  28.356  1.00  0.00     0.261 C 
BRANCH  36  37
ATOM     37  O   UNL A   1      32.850  34.360  29.736  1.00  0.00    -0.460 OA
BRANCH  37  38
ATOM     38  C   UNL A   1      33.741  34.924  30.586  1.00  0.00     0.338 C 
ATOM     39  O   UNL A   1      33.543  35.859  31.343  1.00  0.00    -0.246 OA
BRANCH  38  40
ATOM     40  C   UNL A   1      34.960  34.097  30.643  1.00  0.00     0.060 A 
ATOM     41  C   UNL A   1      34.888  32.902  31.373  1.00  0.00     0.016 A 
ATOM     42  C   UNL A   1      36.162  34.513  30.066  1.00  0.00     0.016 A 
ATOM     43  C   UNL A   1      36.043  32.178  31.629  1.00  0.00     0.010 A 
ATOM     44  C   UNL A   1      37.324  33.785  30.327  1.00  0.00     0.010 A 
ATOM     45  C   UNL A   1      37.274  32.660  31.169  1.00  0.00    -0.014 A 
BRANCH  45  46
ATOM     46  C   UNL A   1      38.511  32.130  31.784  1.00  0.00     0.031 A 
ATOM     47  C   UNL A   1      38.833  32.542  33.197  1.00  0.00     0.074 A 
ATOM     48  C   UNL A   1      39.280  31.244  31.130  1.00  0.00     0.049 A 
ATOM     49  N   UNL A   1      39.832  32.181  33.958  1.00  0.00    -0.248 NA
ATOM     50  C   UNL A   1      37.904  33.488  33.838  1.00  0.00     0.031 C 
ATOM     51  C   UNL A   1      39.027  30.738  29.781  1.00  0.00     0.029 A 
ATOM     52  N   UNL A   1      40.425  30.604  31.524  1.00  0.00    -0.354 N 
ATOM     53  C   UNL A   1      39.663  32.869  35.155  1.00  0.00     0.074 A 
ATOM     54  C   UNL A   1      38.484  33.693  35.010  1.00  0.00     0.031 C 
ATOM     55  C   UNL A   1      39.989  29.855  29.461  1.00  0.00     0.029 A 
ATOM     56  C   UNL A   1      40.938  29.760  30.568  1.00  0.00     0.049 A 
ATOM     57  H   UNL A   1      40.841  30.736  32.406  1.00  0.00     0.167 HD
ATOM     58  C   UNL A   1      40.416  32.812  36.278  1.00  0.00     0.031 A 
ATOM     59  C   UNL A   1      42.053  29.004  30.589  1.00  0.00     0.031 A 
ATOM     60  C   UNL A   1      41.587  31.988  36.409  1.00  0.00     0.049 A 
ATOM     61  C   UNL A   1      42.906  29.001  31.830  1.00  0.00     0.074 A 
ATOM     62  C   UNL A   1      42.415  31.835  37.506  1.00  0.00     0.029 A 
ATOM     63  N   UNL A   1      42.099  31.180  35.403  1.00  0.00    -0.354 N 
ATOM     64  N   UNL A   1      42.722  29.640  32.962  1.00  0.00    -0.248 NA
ATOM     65  C   UNL A   1      44.108  28.158  31.801  1.00  0.00     0.031 C 
ATOM     66  C   UNL A   1      43.466  30.986  37.142  1.00  0.00     0.029 A 
ATOM     67  C   UNL A   1      43.248  30.548  35.845  1.00  0.00     0.049 A 
ATOM     68  H   UNL A   1      41.704  31.072  34.509  1.00  0.00     0.167 HD
ATOM     69  C   UNL A   1      43.764  29.243  33.795  1.00  0.00     0.074 A 
ATOM     70  C   UNL A   1      44.565  28.302  33.037  1.00  0.00     0.031 C 
ATOM     71  C   UNL A   1      44.032  29.615  35.072  1.00  0.00     0.031 A 
BRANCH  58  72
ATOM     72  C   UNL A   1      40.022  33.699  37.431  1.00  0.00    -0.014 A 
ATOM     73  C   UNL A   1      40.466  35.031  37.526  1.00  0.00     0.010 A 
ATOM     74  C   UNL A   1      39.164  33.196  38.425  1.00  0.00     0.010 A 
ATOM     75  C   UNL A   1      40.094  35.826  38.614  1.00  0.00     0.020 A 
ATOM     76  C   UNL A   1      38.763  33.997  39.498  1.00  0.00     0.020 A 
ATOM     77  C   UNL A   1      39.245  35.303  39.594  1.00  0.00     0.054 A 
BRANCH  77  78
ATOM     78  S   UNL A   1      38.758  36.365  40.982  1.00  0.00     0.124 S 
ATOM     79  O   UNL A   1      37.711  35.570  41.618  1.00  0.00    -0.237 OA
ATOM     80  O   UNL A   1      40.001  36.488  41.740  1.00  0.00    -0.237 OA
ATOM     81  O   UNL A   1      38.301  37.593  40.337  1.00  0.00    -0.744 OA
ENDBRANCH  77  78
ENDBRANCH  58  72
BRANCH  59  82
ATOM     82  C   UNL A   1      42.419  28.189  29.399  1.00  0.00    -0.014 A 
ATOM     83  C   UNL A   1      41.884  26.901  29.218  1.00  0.00     0.010 A 
ATOM     84  C   UNL A   1      43.309  28.699  28.436  1.00  0.00     0.010 A 
ATOM     85  C   UNL A   1      42.248  26.132  28.107  1.00  0.00     0.020 A 
ATOM     86  C   UNL A   1      43.650  27.948  27.309  1.00  0.00     0.020 A 
ATOM     87  C   UNL A   1      43.126  26.663  27.158  1.00  0.00     0.054 A 
BRANCH  87  88
ATOM     88  S   UNL A   1      43.546  25.665  25.703  1.00  0.00     0.124 S 
ATOM     89  O   UNL A   1      44.575  26.477  25.064  1.00  0.00    -0.237 OA
ATOM     90  O   UNL A   1      44.006  24.415  26.303  1.00  0.00    -0.237 OA
ATOM     91  O   UNL A   1      42.282  25.570  24.977  1.00  0.00    -0.744 OA
ENDBRANCH  87  88
ENDBRANCH  59  82
BRANCH  71  92
ATOM     92  C   UNL A   1      45.207  28.960  35.751  1.00  0.00    -0.014 A 
ATOM     93  C   UNL A   1      45.075  27.748  36.451  1.00  0.00     0.010 A 
ATOM     94  C   UNL A   1      46.476  29.562  35.656  1.00  0.00     0.010 A 
ATOM     95  C   UNL A   1      46.181  27.178  37.089  1.00  0.00     0.020 A 
ATOM     96  C   UNL A   1      47.589  28.977  36.261  1.00  0.00     0.020 A 
ATOM     97  C   UNL A   1      47.430  27.800  36.994  1.00  0.00     0.054 A 
BRANCH  97  98
ATOM     98  S   UNL A   1      48.851  27.036  37.821  1.00  0.00     0.124 S 
ATOM     99  O   UNL A   1      49.974  27.722  37.187  1.00  0.00    -0.237 OA
ATOM    100  O   UNL A   1      48.622  27.370  39.224  1.00  0.00    -0.237 OA
ATOM    101  O   UNL A   1      48.723  25.618  37.495  1.00  0.00    -0.744 OA
ENDBRANCH  97  98
ENDBRANCH  71  92
ENDBRANCH  45  46
ENDBRANCH  38  40
ENDBRANCH  37  38
ENDBRANCH  36  37
ENDBRANCH  35  36
ENDBRANCH  34  35
ENDBRANCH   1  34
TORSDOF 21
ENDMDL
MODEL 3
REMARK VINA RESULT:      -9.9      2.509      3.650
REMARK SMILES O=C(Cc1ccc(NC(=O)c2ccc(N3C(=O)c4ccccc4C3=O)cc2)cc1)OCCOCCOC(=O)c1ccc(-c2c3nc(c(-c4ccc(S(=O)(=O)[O-])cc4)c4ccc([nH]4)c(-c4ccc(S(=O)(=O)[O-])cc4)c4nc(c(-c5ccc(S(=O)(=O)[O-])cc5)c5ccc2[nH]5)C=C4)C=C3)cc1
REMARK SMILES IDX 32 1 31 2 30 3 2 4 1 5 3 6 4 7 5 8 29 9 6 10 28 11 7 12 8 13
REMARK SMILES IDX 9 14 10 16 11 17 12 18 27 19 13 20 26 21 14 22 15 23 16 24
REMARK SMILES IDX 24 25 17 26 18 27 23 28 25 29 19 30 22 31 20 32 21 33 33 34
REMARK SMILES IDX 34 35 35 36 36 37 37 38 38 39 39 40 40 41 98 42 41 43 97 44
REMARK SMILES IDX 42 45 43 46 44 47 91 48 45 49 96 50 90 51 92 52 46 53 95 54
REMARK SMILES IDX 89 55 88 56 47 58 77 59 58 60 76 61 59 62 62 63 75 64 93 65
REMARK SMILES IDX 60 66 61 67 74 69 94 70 63 71 48 72 49 73 57 74 50 75 56 76
REMARK SMILES IDX 51 77 52 78 53 79 54 80 55 81 78 82 79 83 87 84 80 85 86 86
REMARK SMILES IDX 81 87 82 88 83 89 84 90 85 91 64 92 65 93 73 94 66 95 72 96
REMARK SMILES IDX 67 97 68 98 69 99 70 100 71 101
REMARK H PARENT 8 15 92 57 62 68
REMARK Flexibility Score: inf
ROOT
ATOM      1  C   UNL A   1      34.420  32.949  28.134  1.00  0.00     0.202 C 
ENDROOT
BRANCH   1   2
ATOM      2  C   UNL A   1      34.013  31.478  28.018  1.00  0.00     0.261 C 
BRANCH   2   3
ATOM      3  O   UNL A   1      33.090  31.157  26.968  1.00  0.00    -0.463 OA
BRANCH   3   4
ATOM      4  C   UNL A   1      32.905  29.938  26.408  1.00  0.00     0.310 C 
ATOM      5  O   UNL A   1      31.781  29.435  26.432  1.00  0.00    -0.252 OA
BRANCH   4   6
ATOM      6  C   UNL A   1      34.074  29.133  25.890  1.00  0.00     0.158 C 
BRANCH   6   7
ATOM      7  C   UNL A   1      33.754  27.803  25.273  1.00  0.00    -0.037 A 
ATOM      8  C   UNL A   1      33.594  26.680  26.090  1.00  0.00     0.006 A 
ATOM      9  C   UNL A   1      33.687  27.652  23.885  1.00  0.00     0.006 A 
ATOM     10  C   UNL A   1      33.376  25.428  25.521  1.00  0.00     0.026 A 
ATOM     11  C   UNL A   1      33.415  26.401  23.326  1.00  0.00     0.026 A 
ATOM     12  C   UNL A   1      33.188  25.293  24.146  1.00  0.00     0.041 A 
BRANCH  12  13
ATOM     13  N   UNL A   1      32.744  24.109  23.525  1.00  0.00    -0.322 N 
ATOM     14  C   UNL A   1      33.363  22.887  23.344  1.00  0.00     0.255 C 
ATOM     15  H   UNL A   1      31.833  24.161  23.154  1.00  0.00     0.170 HD
ATOM     16  O   UNL A   1      32.821  22.005  22.682  1.00  0.00    -0.269 OA
BRANCH  14  17
ATOM     17  C   UNL A   1      34.662  22.589  23.986  1.00  0.00     0.040 A 
ATOM     18  C   UNL A   1      35.837  22.854  23.286  1.00  0.00     0.016 A 
ATOM     19  C   UNL A   1      34.729  22.137  25.301  1.00  0.00     0.016 A 
ATOM     20  C   UNL A   1      37.072  22.796  23.951  1.00  0.00     0.028 A 
ATOM     21  C   UNL A   1      35.962  22.110  25.964  1.00  0.00     0.028 A 
ATOM     22  C   UNL A   1      37.158  22.474  25.319  1.00  0.00     0.052 A 
BRANCH  22  23
ATOM     23  N   UNL A   1      38.394  22.540  26.036  1.00  0.00    -0.242 N 
ATOM     24  C   UNL A   1      38.877  23.667  26.672  1.00  0.00     0.266 C 
ATOM     25  C   UNL A   1      39.299  21.499  26.169  1.00  0.00     0.266 C 
ATOM     26  O   UNL A   1      38.435  24.798  26.791  1.00  0.00    -0.268 OA
ATOM     27  C   UNL A   1      40.151  23.315  27.277  1.00  0.00     0.053 A 
ATOM     28  C   UNL A   1      40.420  22.004  26.962  1.00  0.00     0.053 A 
ATOM     29  O   UNL A   1      39.290  20.355  25.764  1.00  0.00    -0.268 OA
ATOM     30  C   UNL A   1      41.005  24.079  28.051  1.00  0.00     0.015 A 
ATOM     31  C   UNL A   1      41.577  21.379  27.391  1.00  0.00     0.015 A 
ATOM     32  C   UNL A   1      42.175  23.469  28.508  1.00  0.00     0.001 A 
ATOM     33  C   UNL A   1      42.462  22.129  28.175  1.00  0.00     0.001 A 
ENDBRANCH  22  23
ENDBRANCH  14  17
ENDBRANCH  12  13
ENDBRANCH   6   7
ENDBRANCH   4   6
ENDBRANCH   3   4
ENDBRANCH   2   3
ENDBRANCH   1   2
BRANCH   1  34
ATOM     34  O   UNL A   1      33.729  33.793  29.047  1.00  0.00    -0.374 OA
BRANCH  34  35
ATOM     35  C   UNL A   1      34.008  33.651  30.443  1.00  0.00     0.202 C 
BRANCH  35  36
ATOM     36  C   UNL A   1      35.366  33.091  30.875  1.00  0.00     0.261 C 
BRANCH  36  37
ATOM     37  O   UNL A   1      35.237  31.980  31.771  1.00  0.00    -0.460 OA
BRANCH  37  38
ATOM     38  C   UNL A   1      36.275  31.836  32.628  1.00  0.00     0.338 C 
ATOM     39  O   UNL A   1      36.229  31.856  33.847  1.00  0.00    -0.246 OA
BRANCH  38  40
ATOM     40  C   UNL A   1      37.478  31.421  31.883  1.00  0.00     0.060 A 
ATOM     41  C   UNL A   1      38.609  31.079  32.637  1.00  0.00     0.016 A 
ATOM     42  C   UNL A   1      37.524  31.439  30.488  1.00  0.00     0.016 A 
ATOM     43  C   UNL A   1      39.823  30.868  32.001  1.00  0.00     0.010 A 
ATOM     44  C   UNL A   1      38.747  31.229  29.850  1.00  0.00     0.010 A 
ATOM     45  C   UNL A   1      39.910  31.017  30.612  1.00  0.00    -0.014 A 
BRANCH  45  46
ATOM     46  C   UNL A   1      41.246  31.203  30.006  1.00  0.00     0.031 A 
ATOM     47  C   UNL A   1      41.962  32.505  30.254  1.00  0.00     0.074 A 
ATOM     48  C   UNL A   1      41.837  30.208  29.324  1.00  0.00     0.049 A 
ATOM     49  N   UNL A   1      43.150  32.885  29.863  1.00  0.00    -0.248 NA
ATOM     50  C   UNL A   1      41.241  33.516  31.047  1.00  0.00     0.031 C 
ATOM     51  C   UNL A   1      41.254  28.890  29.075  1.00  0.00     0.029 A 
ATOM     52  N   UNL A   1      43.069  30.152  28.727  1.00  0.00    -0.354 N 
ATOM     53  C   UNL A   1      43.310  34.180  30.346  1.00  0.00     0.074 A 
ATOM     54  C   UNL A   1      42.087  34.534  31.029  1.00  0.00     0.031 C 
ATOM     55  C   UNL A   1      42.135  28.150  28.381  1.00  0.00     0.029 A 
ATOM     56  C   UNL A   1      43.326  28.951  28.112  1.00  0.00     0.049 A 
ATOM     57  H   UNL A   1      43.708  30.901  28.738  1.00  0.00     0.167 HD
ATOM     58  C   UNL A   1      44.383  34.997  30.236  1.00  0.00     0.031 A 
ATOM     59  C   UNL A   1      44.402  28.553  27.405  1.00  0.00     0.031 A 
ATOM     60  C   UNL A   1      45.594  34.632  29.553  1.00  0.00     0.049 A 
ATOM     61  C   UNL A   1      45.562  29.502  27.250  1.00  0.00     0.074 A 
ATOM     62  C   UNL A   1      46.753  35.371  29.399  1.00  0.00     0.029 A 
ATOM     63  N   UNL A   1      45.800  33.422  28.905  1.00  0.00    -0.354 N 
ATOM     64  N   UNL A   1      45.708  30.715  27.729  1.00  0.00    -0.248 NA
ATOM     65  C   UNL A   1      46.710  29.017  26.474  1.00  0.00     0.031 C 
ATOM     66  C   UNL A   1      47.635  34.636  28.600  1.00  0.00     0.029 A 
ATOM     67  C   UNL A   1      47.057  33.406  28.325  1.00  0.00     0.049 A 
ATOM     68  H   UNL A   1      45.150  32.685  28.865  1.00  0.00     0.167 HD
ATOM     69  C   UNL A   1      46.982  31.124  27.346  1.00  0.00     0.074 A 
ATOM     70  C   UNL A   1      47.565  30.022  26.606  1.00  0.00     0.031 C 
ATOM     71  C   UNL A   1      47.616  32.298  27.590  1.00  0.00     0.031 A 
BRANCH  58  72
ATOM     72  C   UNL A   1      44.273  36.379  30.829  1.00  0.00    -0.014 A 
ATOM     73  C   UNL A   1      43.878  37.486  30.057  1.00  0.00     0.010 A 
ATOM     74  C   UNL A   1      44.546  36.565  32.196  1.00  0.00     0.010 A 
ATOM     75  C   UNL A   1      43.797  38.759  30.631  1.00  0.00     0.020 A 
ATOM     76  C   UNL A   1      44.436  37.829  32.783  1.00  0.00     0.020 A 
ATOM     77  C   UNL A   1      44.078  38.922  31.991  1.00  0.00     0.054 A 
BRANCH  77  78
ATOM     78  S   UNL A   1      43.942  40.579  32.716  1.00  0.00     0.124 S 
ATOM     79  O   UNL A   1      44.501  40.373  34.049  1.00  0.00    -0.237 OA
ATOM     80  O   UNL A   1      44.755  41.390  31.813  1.00  0.00    -0.237 OA
ATOM     81  O   UNL A   1      42.509  40.858  32.679  1.00  0.00    -0.744 OA
ENDBRANCH  77  78
ENDBRANCH  58  72
BRANCH  59  82
ATOM     82  C   UNL A   1      44.431  27.194  26.798  1.00  0.00    -0.014 A 
ATOM     83  C   UNL A   1      45.009  26.112  27.486  1.00  0.00     0.010 A 
ATOM     84  C   UNL A   1      43.876  26.975  25.524  1.00  0.00     0.010 A 
ATOM     85  C   UNL A   1      45.050  24.842  26.902  1.00  0.00     0.020 A 
ATOM     86  C   UNL A   1      43.886  25.701  24.951  1.00  0.00     0.020 A 
ATOM     87  C   UNL A   1      44.485  24.644  25.639  1.00  0.00     0.054 A 
BRANCH  87  88
ATOM     88  S   UNL A   1      44.509  22.979  24.921  1.00  0.00     0.124 S 
ATOM     89  O   UNL A   1      45.267  23.187  23.694  1.00  0.00    -0.237 OA
ATOM     90  O   UNL A   1      45.181  22.201  25.959  1.00  0.00    -0.237 OA
ATOM     91  O   UNL A   1      43.093  22.665  24.738  1.00  0.00    -0.744 OA
ENDBRANCH  87  88
ENDBRANCH  59  82
BRANCH  71  92
ATOM     92  C   UNL A   1      49.036  32.430  27.101  1.00  0.00    -0.014 A 
ATOM     93  C   UNL A   1      50.062  31.592  27.573  1.00  0.00     0.010 A 
ATOM     94  C   UNL A   1      49.337  33.398  26.125  1.00  0.00     0.010 A 
ATOM     95  C   UNL A   1      51.373  31.756  27.117  1.00  0.00     0.020 A 
ATOM     96  C   UNL A   1      50.638  33.541  25.640  1.00  0.00     0.020 A 
ATOM     97  C   UNL A   1      51.652  32.733  26.156  1.00  0.00     0.054 A 
BRANCH  97  98
ATOM     98  S   UNL A   1      53.358  32.920  25.571  1.00  0.00     0.124 S 
ATOM     99  O   UNL A   1      53.548  34.366  25.648  1.00  0.00    -0.237 OA
ATOM    100  O   UNL A   1      54.117  32.134  26.541  1.00  0.00    -0.237 OA
ATOM    101  O   UNL A   1      53.325  32.367  24.219  1.00  0.00    -0.744 OA
ENDBRANCH  97  98
ENDBRANCH  71  92
ENDBRANCH  45  46
ENDBRANCH  38  40
ENDBRANCH  37  38
ENDBRANCH  36  37
ENDBRANCH  35  36
ENDBRANCH  34  35
ENDBRANCH   1  34
TORSDOF 21
ENDMDL
