MODEL 1
REMARK VINA RESULT:     -10.5      0.000      0.000
REMARK SMILES Cc1cc(C)c2c(c1)C=C(C(=O)OCCOCCOC(=O)c1ccc(-c3c4nc(c(-c5ccc(S(=O)(=O)[O-])cc5)c5ccc([nH]5)c(-c5ccc(S(=O)(=O)[O-])cc5)c5nc(c(-c6ccc(S(=O)(=O)[O-])cc6)c6ccc3[nH]6)C=C5)C=C4)cc1)[C@@H](C(F)(F)F)O2
REMARK SMILES IDX 17 1 16 2 15 3 14 4 13 5 11 6 12 7 10 8 1 9 2 10 3 11 8 12
REMARK SMILES IDX 4 13 7 14 5 15 6 16 9 17 87 18 82 19 83 20 84 21 85 22 86 23
REMARK SMILES IDX 18 24 19 25 20 26 21 27 22 28 23 29 81 30 24 31 80 32 25 33
REMARK SMILES IDX 26 34 27 35 74 36 28 37 79 38 73 39 75 40 29 41 78 42 72 43
REMARK SMILES IDX 71 44 30 46 60 47 41 48 59 49 42 50 45 51 58 52 76 53 43 54
REMARK SMILES IDX 44 55 57 57 77 58 46 59 31 60 32 61 40 62 33 63 39 64 34 65
REMARK SMILES IDX 35 66 36 67 37 68 38 69 61 70 62 71 70 72 63 73 69 74 64 75
REMARK SMILES IDX 65 76 66 77 67 78 68 79 47 80 48 81 56 82 49 83 55 84 50 85
REMARK SMILES IDX 51 86 52 87 53 88 54 89
REMARK H PARENT 75 45 45 56
REMARK Flexibility Score: inf
ROOT
ATOM      1  C   UNL A   1      31.861  30.038  25.695  1.00  0.00     0.202 C 
ENDROOT
BRANCH   1   2
ATOM      2  O   UNL A   1      32.719  29.624  24.632  1.00  0.00    -0.374 OA
BRANCH   2   3
ATOM      3  C   UNL A   1      32.125  28.891  23.559  1.00  0.00     0.202 C 
BRANCH   3   4
ATOM      4  C   UNL A   1      32.641  27.463  23.357  1.00  0.00     0.261 C 
BRANCH   4   5
ATOM      5  O   UNL A   1      33.244  26.961  24.562  1.00  0.00    -0.460 OA
BRANCH   5   6
ATOM      6  C   UNL A   1      32.480  26.091  25.260  1.00  0.00     0.338 C 
ATOM      7  O   UNL A   1      31.346  26.284  25.678  1.00  0.00    -0.246 OA
BRANCH   6   8
ATOM      8  C   UNL A   1      33.155  24.784  25.344  1.00  0.00     0.087 C 
ATOM      9  C   UNL A   1      38.819  22.517  26.046  1.00  0.00     0.044 C 
ATOM     10  C   UNL A   1      37.341  22.459  25.796  1.00  0.00    -0.050 A 
ATOM     11  C   UNL A   1      36.713  21.267  25.420  1.00  0.00     0.010 A 
ATOM     12  C   UNL A   1      36.571  23.616  25.940  1.00  0.00     0.015 A 
ATOM     13  C   UNL A   1      35.328  21.223  25.183  1.00  0.00    -0.008 A 
ATOM     14  C   UNL A   1      35.196  23.591  25.686  1.00  0.00     0.018 A 
ATOM     15  C   UNL A   1      34.684  19.938  24.743  1.00  0.00     0.048 C 
ATOM     16  C   UNL A   1      34.569  22.395  25.329  1.00  0.00     0.130 A 
ATOM     17  C   UNL A   1      34.438  24.826  25.722  1.00  0.00     0.027 C 
ATOM     18  O   UNL A   1      33.220  22.299  25.119  1.00  0.00    -0.475 OA
ATOM     19  C   UNL A   1      32.430  23.515  24.987  1.00  0.00     0.316 C 
BRANCH  19  20
ATOM     20  C   UNL A   1      31.834  23.553  23.572  1.00  0.00     0.430 C 
ATOM     21  F   UNL A   1      31.684  22.303  23.072  1.00  0.00    -0.167 F 
ATOM     22  F   UNL A   1      30.612  24.130  23.559  1.00  0.00    -0.167 F 
ATOM     23  F   UNL A   1      32.620  24.243  22.714  1.00  0.00    -0.167 F 
ENDBRANCH  19  20
ENDBRANCH   6   8
ENDBRANCH   5   6
ENDBRANCH   4   5
ENDBRANCH   3   4
ENDBRANCH   2   3
ENDBRANCH   1   2
BRANCH   1  24
ATOM     24  C   UNL A   1      32.537  30.478  26.999  1.00  0.00     0.261 C 
BRANCH  24  25
ATOM     25  O   UNL A   1      33.970  30.538  26.881  1.00  0.00    -0.460 OA
BRANCH  25  26
ATOM     26  C   UNL A   1      34.607  31.002  27.982  1.00  0.00     0.338 C 
ATOM     27  O   UNL A   1      34.170  31.799  28.805  1.00  0.00    -0.246 OA
BRANCH  26  28
ATOM     28  C   UNL A   1      35.877  30.282  28.180  1.00  0.00     0.060 A 
ATOM     29  C   UNL A   1      36.122  29.737  29.448  1.00  0.00     0.016 A 
ATOM     30  C   UNL A   1      36.845  30.207  27.176  1.00  0.00     0.016 A 
ATOM     31  C   UNL A   1      37.358  29.161  29.733  1.00  0.00     0.010 A 
ATOM     32  C   UNL A   1      38.089  29.640  27.468  1.00  0.00     0.010 A 
ATOM     33  C   UNL A   1      38.362  29.147  28.758  1.00  0.00    -0.014 A 
BRANCH  33  34
ATOM     34  C   UNL A   1      39.741  28.747  29.125  1.00  0.00     0.031 A 
ATOM     35  C   UNL A   1      40.614  29.732  29.854  1.00  0.00     0.074 A 
ATOM     36  C   UNL A   1      40.200  27.516  28.834  1.00  0.00     0.049 A 
ATOM     37  N   UNL A   1      41.867  29.618  30.211  1.00  0.00    -0.248 NA
ATOM     38  C   UNL A   1      39.992  31.011  30.235  1.00  0.00     0.031 C 
ATOM     39  C   UNL A   1      39.426  26.456  28.190  1.00  0.00     0.029 A 
ATOM     40  N   UNL A   1      41.434  26.955  29.043  1.00  0.00    -0.354 N 
ATOM     41  C   UNL A   1      42.185  30.809  30.855  1.00  0.00     0.074 A 
ATOM     42  C   UNL A   1      41.002  31.639  30.821  1.00  0.00     0.031 C 
ATOM     43  C   UNL A   1      40.208  25.371  28.049  1.00  0.00     0.029 A 
ATOM     44  C   UNL A   1      41.545  25.675  28.558  1.00  0.00     0.049 A 
ATOM     45  H   UNL A   1      42.171  27.426  29.496  1.00  0.00     0.167 HD
ATOM     46  C   UNL A   1      43.358  31.175  31.425  1.00  0.00     0.031 A 
ATOM     47  C   UNL A   1      42.609  24.850  28.510  1.00  0.00     0.031 A 
ATOM     48  C   UNL A   1      44.539  30.353  31.440  1.00  0.00     0.049 A 
ATOM     49  C   UNL A   1      43.926  25.312  29.073  1.00  0.00     0.074 A 
ATOM     50  C   UNL A   1      45.783  30.644  31.971  1.00  0.00     0.029 A 
ATOM     51  N   UNL A   1      44.623  29.079  30.899  1.00  0.00    -0.354 N 
ATOM     52  N   UNL A   1      44.220  26.452  29.652  1.00  0.00    -0.248 NA
ATOM     53  C   UNL A   1      45.053  24.374  28.984  1.00  0.00     0.031 C 
ATOM     54  C   UNL A   1      46.632  29.562  31.714  1.00  0.00     0.029 A 
ATOM     55  C   UNL A   1      45.900  28.574  31.074  1.00  0.00     0.049 A 
ATOM     56  H   UNL A   1      43.883  28.603  30.456  1.00  0.00     0.167 HD
ATOM     57  C   UNL A   1      45.557  26.355  30.025  1.00  0.00     0.074 A 
ATOM     58  C   UNL A   1      46.011  25.043  29.612  1.00  0.00     0.031 C 
ATOM     59  C   UNL A   1      46.336  27.266  30.657  1.00  0.00     0.031 A 
BRANCH  46  60
ATOM     60  C   UNL A   1      43.432  32.536  32.061  1.00  0.00    -0.014 A 
ATOM     61  C   UNL A   1      43.665  33.686  31.286  1.00  0.00     0.010 A 
ATOM     62  C   UNL A   1      43.202  32.674  33.442  1.00  0.00     0.010 A 
ATOM     63  C   UNL A   1      43.686  34.949  31.885  1.00  0.00     0.020 A 
ATOM     64  C   UNL A   1      43.199  33.937  34.041  1.00  0.00     0.020 A 
ATOM     65  C   UNL A   1      43.450  35.066  33.258  1.00  0.00     0.054 A 
BRANCH  65  66
ATOM     66  S   UNL A   1      43.434  36.723  34.000  1.00  0.00     0.124 S 
ATOM     67  O   UNL A   1      43.580  37.579  32.826  1.00  0.00    -0.237 OA
ATOM     68  O   UNL A   1      42.129  36.768  34.652  1.00  0.00    -0.237 OA
ATOM     69  O   UNL A   1      44.580  36.710  34.905  1.00  0.00    -0.744 OA
ENDBRANCH  65  66
ENDBRANCH  46  60
BRANCH  47  70
ATOM     70  C   UNL A   1      42.475  23.503  27.891  1.00  0.00    -0.014 A 
ATOM     71  C   UNL A   1      42.770  23.307  26.531  1.00  0.00     0.010 A 
ATOM     72  C   UNL A   1      42.061  22.404  28.667  1.00  0.00     0.010 A 
ATOM     73  C   UNL A   1      42.642  22.041  25.954  1.00  0.00     0.020 A 
ATOM     74  C   UNL A   1      41.959  21.131  28.100  1.00  0.00     0.020 A 
ATOM     75  C   UNL A   1      42.241  20.959  26.744  1.00  0.00     0.054 A 
BRANCH  75  76
ATOM     76  S   UNL A   1      42.142  19.312  25.986  1.00  0.00     0.124 S 
ATOM     77  O   UNL A   1      43.013  19.459  24.825  1.00  0.00    -0.237 OA
ATOM     78  O   UNL A   1      42.645  18.447  27.050  1.00  0.00    -0.237 OA
ATOM     79  O   UNL A   1      40.719  19.160  25.689  1.00  0.00    -0.744 OA
ENDBRANCH  75  76
ENDBRANCH  47  70
BRANCH  59  80
ATOM     80  C   UNL A   1      47.748  26.861  30.987  1.00  0.00    -0.014 A 
ATOM     81  C   UNL A   1      48.803  27.082  30.086  1.00  0.00     0.010 A 
ATOM     82  C   UNL A   1      48.026  26.294  32.245  1.00  0.00     0.010 A 
ATOM     83  C   UNL A   1      50.107  26.706  30.422  1.00  0.00     0.020 A 
ATOM     84  C   UNL A   1      49.331  25.941  32.595  1.00  0.00     0.020 A 
ATOM     85  C   UNL A   1      50.362  26.134  31.673  1.00  0.00     0.054 A 
BRANCH  85  86
ATOM     86  S   UNL A   1      52.066  25.678  32.095  1.00  0.00     0.124 S 
ATOM     87  O   UNL A   1      52.215  26.257  33.427  1.00  0.00    -0.237 OA
ATOM     88  O   UNL A   1      52.029  24.218  32.045  1.00  0.00    -0.237 OA
ATOM     89  O   UNL A   1      52.864  26.311  31.047  1.00  0.00    -0.744 OA
ENDBRANCH  85  86
ENDBRANCH  59  80
ENDBRANCH  33  34
ENDBRANCH  26  28
ENDBRANCH  25  26
ENDBRANCH  24  25
ENDBRANCH   1  24
TORSDOF 18
ENDMDL
MODEL 2
REMARK VINA RESULT:     -10.2      3.143      3.789
REMARK SMILES Cc1cc(C)c2c(c1)C=C(C(=O)OCCOCCOC(=O)c1ccc(-c3c4nc(c(-c5ccc(S(=O)(=O)[O-])cc5)c5ccc([nH]5)c(-c5ccc(S(=O)(=O)[O-])cc5)c5nc(c(-c6ccc(S(=O)(=O)[O-])cc6)c6ccc3[nH]6)C=C5)C=C4)cc1)[C@@H](C(F)(F)F)O2
REMARK SMILES IDX 17 1 16 2 15 3 14 4 13 5 11 6 12 7 10 8 1 9 2 10 3 11 8 12
REMARK SMILES IDX 4 13 7 14 5 15 6 16 9 17 87 18 82 19 83 20 84 21 85 22 86 23
REMARK SMILES IDX 18 24 19 25 20 26 21 27 22 28 23 29 81 30 24 31 80 32 25 33
REMARK SMILES IDX 26 34 27 35 74 36 28 37 79 38 73 39 75 40 29 41 78 42 72 43
REMARK SMILES IDX 71 44 30 46 60 47 41 48 59 49 42 50 45 51 58 52 76 53 43 54
REMARK SMILES IDX 44 55 57 57 77 58 46 59 31 60 32 61 40 62 33 63 39 64 34 65
REMARK SMILES IDX 35 66 36 67 37 68 38 69 61 70 62 71 70 72 63 73 69 74 64 75
REMARK SMILES IDX 65 76 66 77 67 78 68 79 47 80 48 81 56 82 49 83 55 84 50 85
REMARK SMILES IDX 51 86 52 87 53 88 54 89
REMARK H PARENT 75 45 45 56
REMARK Flexibility Score: inf
ROOT
ATOM      1  C   UNL A   1      33.374  30.168  27.254  1.00  0.00     0.202 C 
ENDROOT
BRANCH   1   2
ATOM      2  O   UNL A   1      33.035  30.103  25.868  1.00  0.00    -0.374 OA
BRANCH   2   3
ATOM      3  C   UNL A   1      31.682  29.782  25.539  1.00  0.00     0.202 C 
BRANCH   3   4
ATOM      4  C   UNL A   1      31.486  28.577  24.614  1.00  0.00     0.261 C 
BRANCH   4   5
ATOM      5  O   UNL A   1      32.346  27.491  24.997  1.00  0.00    -0.460 OA
BRANCH   5   6
ATOM      6  C   UNL A   1      31.845  26.680  25.955  1.00  0.00     0.338 C 
ATOM      7  O   UNL A   1      31.064  26.992  26.845  1.00  0.00    -0.246 OA
BRANCH   6   8
ATOM      8  C   UNL A   1      32.266  25.290  25.708  1.00  0.00     0.087 C 
ATOM      9  C   UNL A   1      37.428  21.970  25.477  1.00  0.00     0.044 C 
ATOM     10  C   UNL A   1      35.957  22.229  25.335  1.00  0.00    -0.050 A 
ATOM     11  C   UNL A   1      35.103  21.279  24.765  1.00  0.00     0.010 A 
ATOM     12  C   UNL A   1      35.423  23.441  25.779  1.00  0.00     0.015 A 
ATOM     13  C   UNL A   1      33.727  21.530  24.631  1.00  0.00    -0.008 A 
ATOM     14  C   UNL A   1      34.059  23.713  25.632  1.00  0.00     0.018 A 
ATOM     15  C   UNL A   1      32.838  20.508  23.980  1.00  0.00     0.048 C 
ATOM     16  C   UNL A   1      33.207  22.754  25.080  1.00  0.00     0.130 A 
ATOM     17  C   UNL A   1      33.547  25.022  25.987  1.00  0.00     0.027 C 
ATOM     18  O   UNL A   1      31.857  22.945  24.959  1.00  0.00    -0.475 OA
ATOM     19  C   UNL A   1      31.304  24.278  25.148  1.00  0.00     0.316 C 
BRANCH  19  20
ATOM     20  C   UNL A   1      30.674  24.733  23.824  1.00  0.00     0.430 C 
ATOM     21  F   UNL A   1      30.155  23.682  23.144  1.00  0.00    -0.167 F 
ATOM     22  F   UNL A   1      29.663  25.608  24.024  1.00  0.00    -0.167 F 
ATOM     23  F   UNL A   1      31.579  25.333  23.016  1.00  0.00    -0.167 F 
ENDBRANCH  19  20
ENDBRANCH   6   8
ENDBRANCH   5   6
ENDBRANCH   4   5
ENDBRANCH   3   4
ENDBRANCH   2   3
ENDBRANCH   1   2
BRANCH   1  24
ATOM     24  C   UNL A   1      34.586  29.346  27.709  1.00  0.00     0.261 C 
BRANCH  24  25
ATOM     25  O   UNL A   1      35.694  30.174  28.104  1.00  0.00    -0.460 OA
BRANCH  25  26
ATOM     26  C   UNL A   1      36.326  29.770  29.231  1.00  0.00     0.338 C 
ATOM     27  O   UNL A   1      35.802  29.387  30.271  1.00  0.00    -0.246 OA
BRANCH  26  28
ATOM     28  C   UNL A   1      37.778  29.680  29.001  1.00  0.00     0.060 A 
ATOM     29  C   UNL A   1      38.219  29.601  27.673  1.00  0.00     0.016 A 
ATOM     30  C   UNL A   1      38.687  29.595  30.057  1.00  0.00     0.016 A 
ATOM     31  C   UNL A   1      39.567  29.383  27.397  1.00  0.00     0.010 A 
ATOM     32  C   UNL A   1      40.037  29.363  29.779  1.00  0.00     0.010 A 
ATOM     33  C   UNL A   1      40.477  29.220  28.450  1.00  0.00    -0.014 A 
BRANCH  33  34
ATOM     34  C   UNL A   1      41.858  28.763  28.167  1.00  0.00     0.031 A 
ATOM     35  C   UNL A   1      42.975  29.771  28.184  1.00  0.00     0.074 A 
ATOM     36  C   UNL A   1      42.116  27.466  27.922  1.00  0.00     0.049 A 
ATOM     37  N   UNL A   1      44.241  29.606  27.902  1.00  0.00    -0.248 NA
ATOM     38  C   UNL A   1      42.619  31.145  28.576  1.00  0.00     0.031 C 
ATOM     39  C   UNL A   1      41.127  26.389  27.944  1.00  0.00     0.029 A 
ATOM     40  N   UNL A   1      43.293  26.839  27.604  1.00  0.00    -0.354 N 
ATOM     41  C   UNL A   1      44.833  30.851  28.078  1.00  0.00     0.074 A 
ATOM     42  C   UNL A   1      43.785  31.767  28.471  1.00  0.00     0.031 C 
ATOM     43  C   UNL A   1      41.740  25.230  27.643  1.00  0.00     0.029 A 
ATOM     44  C   UNL A   1      43.153  25.492  27.372  1.00  0.00     0.049 A 
ATOM     45  H   UNL A   1      44.156  27.308  27.547  1.00  0.00     0.167 HD
ATOM     46  C   UNL A   1      46.133  31.198  27.928  1.00  0.00     0.031 A 
ATOM     47  C   UNL A   1      44.056  24.578  26.966  1.00  0.00     0.031 A 
ATOM     48  C   UNL A   1      47.169  30.288  27.518  1.00  0.00     0.049 A 
ATOM     49  C   UNL A   1      45.479  25.006  26.722  1.00  0.00     0.074 A 
ATOM     50  C   UNL A   1      48.513  30.548  27.314  1.00  0.00     0.029 A 
ATOM     51  N   UNL A   1      46.978  28.940  27.249  1.00  0.00    -0.354 N 
ATOM     52  N   UNL A   1      46.017  26.193  26.864  1.00  0.00    -0.248 NA
ATOM     53  C   UNL A   1      46.416  23.969  26.271  1.00  0.00     0.031 C 
ATOM     54  C   UNL A   1      49.126  29.368  26.881  1.00  0.00     0.029 A 
ATOM     55  C   UNL A   1      48.176  28.359  26.872  1.00  0.00     0.049 A 
ATOM     56  H   UNL A   1      46.117  28.468  27.319  1.00  0.00     0.167 HD
ATOM     57  C   UNL A   1      47.365  26.039  26.551  1.00  0.00     0.074 A 
ATOM     58  C   UNL A   1      47.558  24.642  26.219  1.00  0.00     0.031 C 
ATOM     59  C   UNL A   1      48.352  26.967  26.545  1.00  0.00     0.031 A 
BRANCH  46  60
ATOM     60  C   UNL A   1      46.509  32.632  28.184  1.00  0.00    -0.014 A 
ATOM     61  C   UNL A   1      46.436  33.594  27.161  1.00  0.00     0.010 A 
ATOM     62  C   UNL A   1      46.879  33.035  29.480  1.00  0.00     0.010 A 
ATOM     63  C   UNL A   1      46.744  34.932  27.427  1.00  0.00     0.020 A 
ATOM     64  C   UNL A   1      47.165  34.375  29.755  1.00  0.00     0.020 A 
ATOM     65  C   UNL A   1      47.104  35.314  28.723  1.00  0.00     0.054 A 
BRANCH  65  66
ATOM     66  S   UNL A   1      47.451  37.065  29.048  1.00  0.00     0.124 S 
ATOM     67  O   UNL A   1      48.510  37.347  28.083  1.00  0.00    -0.237 OA
ATOM     68  O   UNL A   1      46.166  37.702  28.775  1.00  0.00    -0.237 OA
ATOM     69  O   UNL A   1      47.867  37.083  30.448  1.00  0.00    -0.744 OA
ENDBRANCH  65  66
ENDBRANCH  46  60
BRANCH  47  70
ATOM     70  C   UNL A   1      43.638  23.167  26.751  1.00  0.00    -0.014 A 
ATOM     71  C   UNL A   1      43.863  22.533  25.516  1.00  0.00     0.010 A 
ATOM     72  C   UNL A   1      43.019  22.444  27.788  1.00  0.00     0.010 A 
ATOM     73  C   UNL A   1      43.467  21.207  25.319  1.00  0.00     0.020 A 
ATOM     74  C   UNL A   1      42.646  21.110  27.603  1.00  0.00     0.020 A 
ATOM     75  C   UNL A   1      42.865  20.503  26.365  1.00  0.00     0.054 A 
BRANCH  75  76
ATOM     76  S   UNL A   1      42.416  18.763  26.103  1.00  0.00     0.124 S 
ATOM     77  O   UNL A   1      42.663  18.185  27.420  1.00  0.00    -0.237 OA
ATOM     78  O   UNL A   1      41.013  18.858  25.706  1.00  0.00    -0.237 OA
ATOM     79  O   UNL A   1      43.328  18.331  25.046  1.00  0.00    -0.744 OA
ENDBRANCH  75  76
ENDBRANCH  47  70
BRANCH  59  80
ATOM     80  C   UNL A   1      49.744  26.497  26.215  1.00  0.00    -0.014 A 
ATOM     81  C   UNL A   1      50.293  26.675  24.934  1.00  0.00     0.010 A 
ATOM     82  C   UNL A   1      50.530  25.911  27.225  1.00  0.00     0.010 A 
ATOM     83  C   UNL A   1      51.592  26.238  24.658  1.00  0.00     0.020 A 
ATOM     84  C   UNL A   1      51.837  25.496  26.960  1.00  0.00     0.020 A 
ATOM     85  C   UNL A   1      52.355  25.648  25.672  1.00  0.00     0.054 A 
BRANCH  85  86
ATOM     86  S   UNL A   1      54.046  25.112  25.294  1.00  0.00     0.124 S 
ATOM     87  O   UNL A   1      53.858  23.693  25.010  1.00  0.00    -0.237 OA
ATOM     88  O   UNL A   1      54.397  25.942  24.144  1.00  0.00    -0.237 OA
ATOM     89  O   UNL A   1      54.785  25.410  26.518  1.00  0.00    -0.744 OA
ENDBRANCH  85  86
ENDBRANCH  59  80
ENDBRANCH  33  34
ENDBRANCH  26  28
ENDBRANCH  25  26
ENDBRANCH  24  25
ENDBRANCH   1  24
TORSDOF 18
ENDMDL
MODEL 3
REMARK VINA RESULT:     -10.1      3.513      5.227
REMARK SMILES Cc1cc(C)c2c(c1)C=C(C(=O)OCCOCCOC(=O)c1ccc(-c3c4nc(c(-c5ccc(S(=O)(=O)[O-])cc5)c5ccc([nH]5)c(-c5ccc(S(=O)(=O)[O-])cc5)c5nc(c(-c6ccc(S(=O)(=O)[O-])cc6)c6ccc3[nH]6)C=C5)C=C4)cc1)[C@@H](C(F)(F)F)O2
REMARK SMILES IDX 17 1 16 2 15 3 14 4 13 5 11 6 12 7 10 8 1 9 2 10 3 11 8 12
REMARK SMILES IDX 4 13 7 14 5 15 6 16 9 17 87 18 82 19 83 20 84 21 85 22 86 23
REMARK SMILES IDX 18 24 19 25 20 26 21 27 22 28 23 29 81 30 24 31 80 32 25 33
REMARK SMILES IDX 26 34 27 35 74 36 28 37 79 38 73 39 75 40 29 41 78 42 72 43
REMARK SMILES IDX 71 44 30 46 60 47 41 48 59 49 42 50 45 51 58 52 76 53 43 54
REMARK SMILES IDX 44 55 57 57 77 58 46 59 31 60 32 61 40 62 33 63 39 64 34 65
REMARK SMILES IDX 35 66 36 67 37 68 38 69 61 70 62 71 70 72 63 73 69 74 64 75
REMARK SMILES IDX 65 76 66 77 67 78 68 79 47 80 48 81 56 82 49 83 55 84 50 85
REMARK SMILES IDX 51 86 52 87 53 88 54 89
REMARK H PARENT 75 45 45 56
REMARK Flexibility Score: inf
ROOT
ATOM      1  C   UNL A   1      34.124  30.976  27.285  1.00  0.00     0.202 C 
ENDROOT
BRANCH   1   2
ATOM      2  O   UNL A   1      33.631  29.635  27.280  1.00  0.00    -0.374 OA
BRANCH   2   3
ATOM      3  C   UNL A   1      34.481  28.628  26.730  1.00  0.00     0.202 C 
BRANCH   3   4
ATOM      4  C   UNL A   1      33.772  27.428  26.095  1.00  0.00     0.261 C 
BRANCH   4   5
ATOM      5  O   UNL A   1      33.560  27.642  24.689  1.00  0.00    -0.460 OA
BRANCH   5   6
ATOM      6  C   UNL A   1      32.916  26.640  24.052  1.00  0.00     0.338 C 
ATOM      7  O   UNL A   1      33.339  25.509  23.848  1.00  0.00    -0.246 OA
BRANCH   6   8
ATOM      8  C   UNL A   1      31.536  27.048  23.738  1.00  0.00     0.087 C 
ATOM      9  C   UNL A   1      28.539  31.865  21.388  1.00  0.00     0.044 C 
ATOM     10  C   UNL A   1      28.675  30.523  22.043  1.00  0.00    -0.050 A 
ATOM     11  C   UNL A   1      27.561  29.840  22.541  1.00  0.00     0.010 A 
ATOM     12  C   UNL A   1      29.939  29.938  22.162  1.00  0.00     0.015 A 
ATOM     13  C   UNL A   1      27.698  28.585  23.158  1.00  0.00    -0.008 A 
ATOM     14  C   UNL A   1      30.091  28.699  22.793  1.00  0.00     0.018 A 
ATOM     15  C   UNL A   1      26.488  27.889  23.720  1.00  0.00     0.048 C 
ATOM     16  C   UNL A   1      28.974  28.012  23.272  1.00  0.00     0.130 A 
ATOM     17  C   UNL A   1      31.422  28.167  23.014  1.00  0.00     0.027 C 
ATOM     18  O   UNL A   1      29.058  26.775  23.851  1.00  0.00    -0.475 OA
ATOM     19  C   UNL A   1      30.361  26.256  24.242  1.00  0.00     0.316 C 
BRANCH  19  20
ATOM     20  C   UNL A   1      30.375  26.085  25.768  1.00  0.00     0.430 C 
ATOM     21  F   UNL A   1      31.291  25.161  26.146  1.00  0.00    -0.167 F 
ATOM     22  F   UNL A   1      30.698  27.236  26.398  1.00  0.00    -0.167 F 
ATOM     23  F   UNL A   1      29.173  25.683  26.241  1.00  0.00    -0.167 F 
ENDBRANCH  19  20
ENDBRANCH   6   8
ENDBRANCH   5   6
ENDBRANCH   4   5
ENDBRANCH   3   4
ENDBRANCH   2   3
ENDBRANCH   1   2
BRANCH   1  24
ATOM     24  C   UNL A   1      34.623  31.525  28.627  1.00  0.00     0.261 C 
BRANCH  24  25
ATOM     25  O   UNL A   1      36.058  31.505  28.729  1.00  0.00    -0.460 OA
BRANCH  25  26
ATOM     26  C   UNL A   1      36.538  30.806  29.785  1.00  0.00     0.338 C 
ATOM     27  O   UNL A   1      35.995  30.651  30.873  1.00  0.00    -0.246 OA
BRANCH  26  28
ATOM     28  C   UNL A   1      37.764  30.083  29.405  1.00  0.00     0.060 A 
ATOM     29  C   UNL A   1      38.620  29.673  30.436  1.00  0.00     0.016 A 
ATOM     30  C   UNL A   1      38.113  29.878  28.068  1.00  0.00     0.016 A 
ATOM     31  C   UNL A   1      39.854  29.102  30.133  1.00  0.00     0.010 A 
ATOM     32  C   UNL A   1      39.358  29.318  27.767  1.00  0.00     0.010 A 
ATOM     33  C   UNL A   1      40.247  28.960  28.797  1.00  0.00    -0.014 A 
BRANCH  33  34
ATOM     34  C   UNL A   1      41.640  28.571  28.475  1.00  0.00     0.031 A 
ATOM     35  C   UNL A   1      42.715  29.624  28.502  1.00  0.00     0.074 A 
ATOM     36  C   UNL A   1      41.948  27.293  28.187  1.00  0.00     0.049 A 
ATOM     37  N   UNL A   1      43.981  29.521  28.192  1.00  0.00    -0.248 NA
ATOM     38  C   UNL A   1      42.310  30.970  28.941  1.00  0.00     0.031 C 
ATOM     39  C   UNL A   1      41.006  26.175  28.195  1.00  0.00     0.029 A 
ATOM     40  N   UNL A   1      43.144  26.726  27.830  1.00  0.00    -0.354 N 
ATOM     41  C   UNL A   1      44.524  30.785  28.394  1.00  0.00     0.074 A 
ATOM     42  C   UNL A   1      43.447  31.643  28.834  1.00  0.00     0.031 C 
ATOM     43  C   UNL A   1      41.661  25.052  27.849  1.00  0.00     0.029 A 
ATOM     44  C   UNL A   1      43.056  25.381  27.560  1.00  0.00     0.049 A 
ATOM     45  H   UNL A   1      43.986  27.233  27.771  1.00  0.00     0.167 HD
ATOM     46  C   UNL A   1      45.805  31.190  28.231  1.00  0.00     0.031 A 
ATOM     47  C   UNL A   1      43.988  24.519  27.110  1.00  0.00     0.031 A 
ATOM     48  C   UNL A   1      46.870  30.337  27.776  1.00  0.00     0.049 A 
ATOM     49  C   UNL A   1      45.387  25.013  26.854  1.00  0.00     0.074 A 
ATOM     50  C   UNL A   1      48.198  30.660  27.555  1.00  0.00     0.029 A 
ATOM     51  N   UNL A   1      46.731  28.991  27.471  1.00  0.00    -0.354 N 
ATOM     52  N   UNL A   1      45.878  26.218  27.021  1.00  0.00    -0.248 NA
ATOM     53  C   UNL A   1      46.358  24.031  26.355  1.00  0.00     0.031 C 
ATOM     54  C   UNL A   1      48.851  29.520  27.076  1.00  0.00     0.029 A 
ATOM     55  C   UNL A   1      47.944  28.472  27.054  1.00  0.00     0.049 A 
ATOM     56  H   UNL A   1      45.891  28.480  27.541  1.00  0.00     0.167 HD
ATOM     57  C   UNL A   1      47.224  26.130  26.679  1.00  0.00     0.074 A 
ATOM     58  C   UNL A   1      47.469  24.753  26.302  1.00  0.00     0.031 C 
ATOM     59  C   UNL A   1      48.172  27.099  26.683  1.00  0.00     0.031 A 
BRANCH  46  60
ATOM     60  C   UNL A   1      46.125  32.631  28.523  1.00  0.00    -0.014 A 
ATOM     61  C   UNL A   1      46.563  33.032  29.798  1.00  0.00     0.010 A 
ATOM     62  C   UNL A   1      46.047  33.585  27.493  1.00  0.00     0.010 A 
ATOM     63  C   UNL A   1      46.900  34.367  30.041  1.00  0.00     0.020 A 
ATOM     64  C   UNL A   1      46.406  34.916  27.725  1.00  0.00     0.020 A 
ATOM     65  C   UNL A   1      46.821  35.300  29.002  1.00  0.00     0.054 A 
BRANCH  65  66
ATOM     66  S   UNL A   1      47.313  37.015  29.335  1.00  0.00     0.124 S 
ATOM     67  O   UNL A   1      47.847  36.918  30.690  1.00  0.00    -0.237 OA
ATOM     68  O   UNL A   1      48.297  37.274  28.288  1.00  0.00    -0.237 OA
ATOM     69  O   UNL A   1      46.065  37.764  29.212  1.00  0.00    -0.744 OA
ENDBRANCH  65  66
ENDBRANCH  46  60
BRANCH  47  70
ATOM     70  C   UNL A   1      43.625  23.098  26.861  1.00  0.00    -0.014 A 
ATOM     71  C   UNL A   1      42.911  22.362  27.822  1.00  0.00     0.010 A 
ATOM     72  C   UNL A   1      43.984  22.476  25.650  1.00  0.00     0.010 A 
ATOM     73  C   UNL A   1      42.572  21.027  27.584  1.00  0.00     0.020 A 
ATOM     74  C   UNL A   1      43.623  21.150  25.397  1.00  0.00     0.020 A 
ATOM     75  C   UNL A   1      42.927  20.430  26.370  1.00  0.00     0.054 A 
BRANCH  75  76
ATOM     76  S   UNL A   1      42.423  18.715  26.059  1.00  0.00     0.124 S 
ATOM     77  O   UNL A   1      41.010  18.869  25.726  1.00  0.00    -0.237 OA
ATOM     78  O   UNL A   1      43.296  18.326  24.954  1.00  0.00    -0.237 OA
ATOM     79  O   UNL A   1      42.699  18.043  27.327  1.00  0.00    -0.744 OA
ENDBRANCH  75  76
ENDBRANCH  47  70
BRANCH  59  80
ATOM     80  C   UNL A   1      49.575  26.698  26.314  1.00  0.00    -0.014 A 
ATOM     81  C   UNL A   1      50.432  26.088  27.247  1.00  0.00     0.010 A 
ATOM     82  C   UNL A   1      50.023  26.893  24.994  1.00  0.00     0.010 A 
ATOM     83  C   UNL A   1      51.727  25.716  26.875  1.00  0.00     0.020 A 
ATOM     84  C   UNL A   1      51.308  26.499  24.612  1.00  0.00     0.020 A 
ATOM     85  C   UNL A   1      52.158  25.927  25.561  1.00  0.00     0.054 A 
BRANCH  85  86
ATOM     86  S   UNL A   1      53.834  25.413  25.097  1.00  0.00     0.124 S 
ATOM     87  O   UNL A   1      54.659  26.250  25.963  1.00  0.00    -0.237 OA
ATOM     88  O   UNL A   1      53.833  23.988  25.418  1.00  0.00    -0.237 OA
ATOM     89  O   UNL A   1      53.911  25.725  23.672  1.00  0.00    -0.744 OA
ENDBRANCH  85  86
ENDBRANCH  59  80
ENDBRANCH  33  34
ENDBRANCH  26  28
ENDBRANCH  25  26
ENDBRANCH  24  25
ENDBRANCH   1  24
TORSDOF 18
ENDMDL
