MODEL 1
REMARK VINA RESULT:      -8.1      0.000      0.000
REMARK SMILES NC(=O)c1ccnc(N(CC(=O)OCCOCCOC(=O)c2ccc(-c3c4nc(c(-c5ccc(S(=O)(=O)[O-])cc5)c5ccc([nH]5)c(-c5ccc(S(=O)(=O)[O-])cc5)c5nc(c(-c6ccc(S(=O)(=O)[O-])cc6)c6ccc3[nH]6)C=C5)C=C4)cc2)CC(F)(F)F)c1
REMARK SMILES IDX 16 1 15 2 14 3 13 4 11 5 12 6 10 7 9 8 8 9 4 10 5 11 87 12
REMARK SMILES IDX 6 13 7 14 2 15 1 16 3 19 82 20 83 21 84 22 85 23 86 24 17 25
REMARK SMILES IDX 18 26 19 27 20 28 21 29 22 30 23 31 81 32 24 33 80 34 25 35
REMARK SMILES IDX 26 36 27 37 74 38 28 39 79 40 73 41 75 42 29 43 78 44 72 45
REMARK SMILES IDX 71 46 30 48 60 49 41 50 59 51 42 52 45 53 58 54 76 55 43 56
REMARK SMILES IDX 44 57 57 59 77 60 46 61 31 62 32 63 40 64 33 65 39 66 34 67
REMARK SMILES IDX 35 68 36 69 37 70 38 71 61 72 62 73 70 74 63 75 69 76 64 77
REMARK SMILES IDX 65 78 66 79 67 80 68 81 47 82 48 83 56 84 49 85 55 86 50 87
REMARK SMILES IDX 51 88 52 89 53 90 54 91
REMARK H PARENT 1 17 1 18 75 47 45 58
REMARK Flexibility Score: inf
ROOT
ATOM      1  O   UNL A   1      42.452  20.207  25.416  1.00  0.00    -0.374 OA
ENDROOT
BRANCH   1   2
ATOM      2  C   UNL A   1      43.853  20.340  25.183  1.00  0.00     0.202 C 
BRANCH   2   3
ATOM      3  C   UNL A   1      44.373  21.762  24.945  1.00  0.00     0.261 C 
BRANCH   3   4
ATOM      4  O   UNL A   1      45.784  21.918  25.206  1.00  0.00    -0.462 OA
BRANCH   4   5
ATOM      5  C   UNL A   1      46.272  23.176  25.022  1.00  0.00     0.325 C 
ATOM      6  O   UNL A   1      46.416  23.704  23.919  1.00  0.00    -0.250 OA
BRANCH   5   7
ATOM      7  C   UNL A   1      46.512  23.980  26.296  1.00  0.00     0.241 C 
BRANCH   7   8
ATOM      8  N   UNL A   1      45.478  24.941  26.730  1.00  0.00    -0.336 N 
BRANCH   8   9
ATOM      9  C   UNL A   1      45.771  26.286  26.595  1.00  0.00     0.130 A 
ATOM     10  C   UNL A   1      45.133  28.621  26.583  1.00  0.00     0.044 A 
ATOM     11  C   UNL A   1      46.453  28.989  26.390  1.00  0.00     0.034 A 
ATOM     12  C   UNL A   1      44.795  27.270  26.654  1.00  0.00     0.060 A 
ATOM     13  C   UNL A   1      47.369  27.963  26.286  1.00  0.00     0.114 A 
ATOM     14  N   UNL A   1      47.053  26.647  26.378  1.00  0.00    -0.239 NA
BRANCH  10  15
ATOM     15  C   UNL A   1      44.036  29.598  26.776  1.00  0.00     0.248 C 
ATOM     16  N   UNL A   1      42.845  29.347  26.165  1.00  0.00    -0.366 N 
ATOM     17  H   UNL A   1      42.094  29.975  26.272  1.00  0.00     0.159 HD
ATOM     18  H   UNL A   1      42.734  28.536  25.616  1.00  0.00     0.159 HD
ATOM     19  O   UNL A   1      44.177  30.576  27.496  1.00  0.00    -0.270 OA
ENDBRANCH  10  15
ENDBRANCH   8   9
BRANCH   8  20
ATOM     20  C   UNL A   1      44.107  24.431  26.965  1.00  0.00     0.234 C 
BRANCH  20  21
ATOM     21  C   UNL A   1      43.843  23.590  28.231  1.00  0.00     0.405 C 
ATOM     22  F   UNL A   1      44.624  23.968  29.267  1.00  0.00    -0.169 F 
ATOM     23  F   UNL A   1      42.566  23.785  28.649  1.00  0.00    -0.169 F 
ATOM     24  F   UNL A   1      44.018  22.271  28.034  1.00  0.00    -0.169 F 
ENDBRANCH  20  21
ENDBRANCH   8  20
ENDBRANCH   7   8
ENDBRANCH   5   7
ENDBRANCH   4   5
ENDBRANCH   3   4
ENDBRANCH   2   3
ENDBRANCH   1   2
BRANCH   1  25
ATOM     25  C   UNL A   1      42.035  20.052  26.773  1.00  0.00     0.202 C 
BRANCH  25  26
ATOM     26  C   UNL A   1      41.022  21.082  27.288  1.00  0.00     0.261 C 
BRANCH  26  27
ATOM     27  O   UNL A   1      41.012  22.266  26.466  1.00  0.00    -0.460 OA
BRANCH  27  28
ATOM     28  C   UNL A   1      39.795  22.836  26.304  1.00  0.00     0.338 C 
ATOM     29  O   UNL A   1      38.785  22.288  25.879  1.00  0.00    -0.246 OA
BRANCH  28  30
ATOM     30  C   UNL A   1      39.757  24.189  26.895  1.00  0.00     0.060 A 
ATOM     31  C   UNL A   1      40.460  25.201  26.229  1.00  0.00     0.016 A 
ATOM     32  C   UNL A   1      39.159  24.447  28.129  1.00  0.00     0.016 A 
ATOM     33  C   UNL A   1      40.624  26.452  26.825  1.00  0.00     0.010 A 
ATOM     34  C   UNL A   1      39.317  25.708  28.723  1.00  0.00     0.010 A 
ATOM     35  C   UNL A   1      40.094  26.700  28.099  1.00  0.00    -0.014 A 
BRANCH  35  36
ATOM     36  C   UNL A   1      40.510  27.921  28.839  1.00  0.00     0.031 A 
ATOM     37  C   UNL A   1      41.906  27.990  29.406  1.00  0.00     0.074 A 
ATOM     38  C   UNL A   1      39.687  28.980  28.965  1.00  0.00     0.049 A 
ATOM     39  N   UNL A   1      42.483  28.955  30.078  1.00  0.00    -0.248 NA
ATOM     40  C   UNL A   1      42.766  26.817  29.183  1.00  0.00     0.031 C 
ATOM     41  C   UNL A   1      38.331  29.067  28.425  1.00  0.00     0.029 A 
ATOM     42  N   UNL A   1      39.879  30.189  29.587  1.00  0.00    -0.354 N 
ATOM     43  C   UNL A   1      43.766  28.502  30.364  1.00  0.00     0.074 A 
ATOM     44  C   UNL A   1      43.874  27.166  29.821  1.00  0.00     0.031 C 
ATOM     45  C   UNL A   1      37.813  30.267  28.740  1.00  0.00     0.029 A 
ATOM     46  C   UNL A   1      38.786  31.021  29.530  1.00  0.00     0.049 A 
ATOM     47  H   UNL A   1      40.722  30.437  30.033  1.00  0.00     0.167 HD
ATOM     48  C   UNL A   1      44.769  29.141  31.012  1.00  0.00     0.031 A 
ATOM     49  C   UNL A   1      38.585  32.243  30.066  1.00  0.00     0.031 A 
ATOM     50  C   UNL A   1      44.666  30.467  31.563  1.00  0.00     0.049 A 
ATOM     51  C   UNL A   1      39.691  32.905  30.847  1.00  0.00     0.074 A 
ATOM     52  C   UNL A   1      45.634  31.199  32.229  1.00  0.00     0.029 A 
ATOM     53  N   UNL A   1      43.527  31.255  31.520  1.00  0.00    -0.354 N 
ATOM     54  N   UNL A   1      40.905  32.471  31.091  1.00  0.00    -0.248 NA
ATOM     55  C   UNL A   1      39.401  34.229  31.420  1.00  0.00     0.031 C 
ATOM     56  C   UNL A   1      45.063  32.409  32.634  1.00  0.00     0.029 A 
ATOM     57  C   UNL A   1      43.759  32.456  32.167  1.00  0.00     0.049 A 
ATOM     58  H   UNL A   1      42.678  30.999  31.091  1.00  0.00     0.167 HD
ATOM     59  C   UNL A   1      41.531  33.480  31.816  1.00  0.00     0.074 A 
ATOM     60  C   UNL A   1      40.567  34.549  31.965  1.00  0.00     0.031 C 
ATOM     61  C   UNL A   1      42.795  33.519  32.306  1.00  0.00     0.031 A 
BRANCH  48  62
ATOM     62  C   UNL A   1      46.065  28.393  31.192  1.00  0.00    -0.014 A 
ATOM     63  C   UNL A   1      47.010  28.310  30.154  1.00  0.00     0.010 A 
ATOM     64  C   UNL A   1      46.353  27.791  32.430  1.00  0.00     0.010 A 
ATOM     65  C   UNL A   1      48.202  27.603  30.338  1.00  0.00     0.020 A 
ATOM     66  C   UNL A   1      47.556  27.105  32.626  1.00  0.00     0.020 A 
ATOM     67  C   UNL A   1      48.465  27.000  31.572  1.00  0.00     0.054 A 
BRANCH  67  68
ATOM     68  S   UNL A   1      50.025  26.100  31.788  1.00  0.00     0.124 S 
ATOM     69  O   UNL A   1      50.614  26.195  30.456  1.00  0.00    -0.237 OA
ATOM     70  O   UNL A   1      50.700  26.873  32.829  1.00  0.00    -0.237 OA
ATOM     71  O   UNL A   1      49.600  24.761  32.189  1.00  0.00    -0.744 OA
ENDBRANCH  67  68
ENDBRANCH  48  62
BRANCH  49  72
ATOM     72  C   UNL A   1      37.270  32.920  29.895  1.00  0.00    -0.014 A 
ATOM     73  C   UNL A   1      36.225  32.707  30.812  1.00  0.00     0.010 A 
ATOM     74  C   UNL A   1      37.056  33.782  28.804  1.00  0.00     0.010 A 
ATOM     75  C   UNL A   1      34.988  33.334  30.634  1.00  0.00     0.020 A 
ATOM     76  C   UNL A   1      35.829  34.431  28.637  1.00  0.00     0.020 A 
ATOM     77  C   UNL A   1      34.798  34.194  29.548  1.00  0.00     0.054 A 
BRANCH  77  78
ATOM     78  S   UNL A   1      33.202  35.038  29.365  1.00  0.00     0.124 S 
ATOM     79  O   UNL A   1      32.660  34.959  30.718  1.00  0.00    -0.237 OA
ATOM     80  O   UNL A   1      33.599  36.371  28.918  1.00  0.00    -0.237 OA
ATOM     81  O   UNL A   1      32.505  34.235  28.362  1.00  0.00    -0.744 OA
ENDBRANCH  77  78
ENDBRANCH  49  72
BRANCH  61  82
ATOM     82  C   UNL A   1      43.236  34.773  33.016  1.00  0.00    -0.014 A 
ATOM     83  C   UNL A   1      43.744  35.877  32.310  1.00  0.00     0.010 A 
ATOM     84  C   UNL A   1      43.072  34.870  34.411  1.00  0.00     0.010 A 
ATOM     85  C   UNL A   1      44.102  37.046  32.988  1.00  0.00     0.020 A 
ATOM     86  C   UNL A   1      43.403  36.046  35.089  1.00  0.00     0.020 A 
ATOM     87  C   UNL A   1      43.929  37.124  34.374  1.00  0.00     0.054 A 
BRANCH  87  88
ATOM     88  S   UNL A   1      44.352  38.670  35.224  1.00  0.00     0.124 S 
ATOM     89  O   UNL A   1      45.809  38.680  35.130  1.00  0.00    -0.237 OA
ATOM     90  O   UNL A   1      43.664  39.678  34.420  1.00  0.00    -0.237 OA
ATOM     91  O   UNL A   1      43.816  38.483  36.570  1.00  0.00    -0.744 OA
ENDBRANCH  87  88
ENDBRANCH  61  82
ENDBRANCH  35  36
ENDBRANCH  28  30
ENDBRANCH  27  28
ENDBRANCH  26  27
ENDBRANCH  25  26
ENDBRANCH   1  25
TORSDOF 22
ENDMDL
MODEL 2
REMARK VINA RESULT:      -8.0      5.137     11.236
REMARK SMILES NC(=O)c1ccnc(N(CC(=O)OCCOCCOC(=O)c2ccc(-c3c4nc(c(-c5ccc(S(=O)(=O)[O-])cc5)c5ccc([nH]5)c(-c5ccc(S(=O)(=O)[O-])cc5)c5nc(c(-c6ccc(S(=O)(=O)[O-])cc6)c6ccc3[nH]6)C=C5)C=C4)cc2)CC(F)(F)F)c1
REMARK SMILES IDX 16 1 15 2 14 3 13 4 11 5 12 6 10 7 9 8 8 9 4 10 5 11 87 12
REMARK SMILES IDX 6 13 7 14 2 15 1 16 3 19 82 20 83 21 84 22 85 23 86 24 17 25
REMARK SMILES IDX 18 26 19 27 20 28 21 29 22 30 23 31 81 32 24 33 80 34 25 35
REMARK SMILES IDX 26 36 27 37 74 38 28 39 79 40 73 41 75 42 29 43 78 44 72 45
REMARK SMILES IDX 71 46 30 48 60 49 41 50 59 51 42 52 45 53 58 54 76 55 43 56
REMARK SMILES IDX 44 57 57 59 77 60 46 61 31 62 32 63 40 64 33 65 39 66 34 67
REMARK SMILES IDX 35 68 36 69 37 70 38 71 61 72 62 73 70 74 63 75 69 76 64 77
REMARK SMILES IDX 65 78 66 79 67 80 68 81 47 82 48 83 56 84 49 85 55 86 50 87
REMARK SMILES IDX 51 88 52 89 53 90 54 91
REMARK H PARENT 1 17 1 18 75 47 45 58
REMARK Flexibility Score: inf
ROOT
ATOM      1  O   UNL A   1      32.199  26.476  25.003  1.00  0.00    -0.374 OA
ENDROOT
BRANCH   1   2
ATOM      2  C   UNL A   1      31.750  27.149  23.828  1.00  0.00     0.202 C 
BRANCH   2   3
ATOM      3  C   UNL A   1      32.042  26.455  22.492  1.00  0.00     0.261 C 
BRANCH   3   4
ATOM      4  O   UNL A   1      31.735  25.045  22.489  1.00  0.00    -0.462 OA
BRANCH   4   5
ATOM      5  C   UNL A   1      32.811  24.217  22.602  1.00  0.00     0.325 C 
ATOM      6  O   UNL A   1      33.979  24.591  22.501  1.00  0.00    -0.250 OA
BRANCH   5   7
ATOM      7  C   UNL A   1      32.495  22.782  23.011  1.00  0.00     0.241 C 
BRANCH   7   8
ATOM      8  N   UNL A   1      32.854  22.341  24.374  1.00  0.00    -0.336 N 
BRANCH   8   9
ATOM      9  C   UNL A   1      33.589  21.174  24.486  1.00  0.00     0.130 A 
ATOM     10  C   UNL A   1      33.831  18.774  24.289  1.00  0.00     0.044 A 
ATOM     11  C   UNL A   1      35.160  18.870  24.661  1.00  0.00     0.034 A 
ATOM     12  C   UNL A   1      33.044  19.924  24.234  1.00  0.00     0.060 A 
ATOM     13  C   UNL A   1      35.629  20.134  24.952  1.00  0.00     0.114 A 
ATOM     14  N   UNL A   1      34.878  21.261  24.877  1.00  0.00    -0.239 NA
BRANCH  10  15
ATOM     15  C   UNL A   1      33.188  17.502  23.885  1.00  0.00     0.248 C 
ATOM     16  N   UNL A   1      32.022  17.155  24.498  1.00  0.00    -0.366 N 
ATOM     17  H   UNL A   1      31.567  16.317  24.254  1.00  0.00     0.159 HD
ATOM     18  H   UNL A   1      31.632  17.745  25.184  1.00  0.00     0.159 HD
ATOM     19  O   UNL A   1      33.663  16.804  23.000  1.00  0.00    -0.270 OA
ENDBRANCH  10  15
ENDBRANCH   8   9
BRANCH   8  20
ATOM     20  C   UNL A   1      32.700  23.310  25.484  1.00  0.00     0.234 C 
BRANCH  20  21
ATOM     21  C   UNL A   1      31.587  23.066  26.524  1.00  0.00     0.405 C 
ATOM     22  F   UNL A   1      30.714  22.116  26.124  1.00  0.00    -0.169 F 
ATOM     23  F   UNL A   1      32.134  22.596  27.673  1.00  0.00    -0.169 F 
ATOM     24  F   UNL A   1      30.890  24.178  26.820  1.00  0.00    -0.169 F 
ENDBRANCH  20  21
ENDBRANCH   8  20
ENDBRANCH   7   8
ENDBRANCH   5   7
ENDBRANCH   4   5
ENDBRANCH   3   4
ENDBRANCH   2   3
ENDBRANCH   1   2
BRANCH   1  25
ATOM     25  C   UNL A   1      33.449  26.897  25.549  1.00  0.00     0.202 C 
BRANCH  25  26
ATOM     26  C   UNL A   1      33.528  28.360  26.001  1.00  0.00     0.261 C 
BRANCH  26  27
ATOM     27  O   UNL A   1      34.108  28.475  27.315  1.00  0.00    -0.460 OA
BRANCH  27  28
ATOM     28  C   UNL A   1      34.483  29.728  27.665  1.00  0.00     0.338 C 
ATOM     29  O   UNL A   1      33.757  30.713  27.734  1.00  0.00    -0.246 OA
BRANCH  28  30
ATOM     30  C   UNL A   1      35.873  29.748  28.161  1.00  0.00     0.060 A 
ATOM     31  C   UNL A   1      36.881  30.063  27.239  1.00  0.00     0.016 A 
ATOM     32  C   UNL A   1      36.209  29.352  29.457  1.00  0.00     0.016 A 
ATOM     33  C   UNL A   1      38.223  29.918  27.588  1.00  0.00     0.010 A 
ATOM     34  C   UNL A   1      37.560  29.216  29.809  1.00  0.00     0.010 A 
ATOM     35  C   UNL A   1      38.573  29.448  28.862  1.00  0.00    -0.014 A 
BRANCH  35  36
ATOM     36  C   UNL A   1      39.976  29.030  29.128  1.00  0.00     0.031 A 
ATOM     37  C   UNL A   1      40.912  30.004  29.797  1.00  0.00     0.074 A 
ATOM     38  C   UNL A   1      40.405  27.788  28.833  1.00  0.00     0.049 A 
ATOM     39  N   UNL A   1      42.170  29.851  30.130  1.00  0.00    -0.248 NA
ATOM     40  C   UNL A   1      40.358  31.324  30.138  1.00  0.00     0.031 C 
ATOM     41  C   UNL A   1      39.594  26.732  28.230  1.00  0.00     0.029 A 
ATOM     42  N   UNL A   1      41.637  27.206  29.008  1.00  0.00    -0.354 N 
ATOM     43  C   UNL A   1      42.556  31.055  30.710  1.00  0.00     0.074 A 
ATOM     44  C   UNL A   1      41.412  31.937  30.656  1.00  0.00     0.031 C 
ATOM     45  C   UNL A   1      40.350  25.630  28.085  1.00  0.00     0.029 A 
ATOM     46  C   UNL A   1      41.707  25.910  28.555  1.00  0.00     0.049 A 
ATOM     47  H   UNL A   1      42.399  27.674  29.420  1.00  0.00     0.167 HD
ATOM     48  C   UNL A   1      43.752  31.396  31.248  1.00  0.00     0.031 A 
ATOM     49  C   UNL A   1      42.747  25.052  28.508  1.00  0.00     0.031 A 
ATOM     50  C   UNL A   1      44.898  30.527  31.297  1.00  0.00     0.049 A 
ATOM     51  C   UNL A   1      44.089  25.478  29.044  1.00  0.00     0.074 A 
ATOM     52  C   UNL A   1      46.149  30.782  31.831  1.00  0.00     0.029 A 
ATOM     53  N   UNL A   1      44.936  29.238  30.787  1.00  0.00    -0.354 N 
ATOM     54  N   UNL A   1      44.431  26.613  29.608  1.00  0.00    -0.248 NA
ATOM     55  C   UNL A   1      45.186  24.503  28.947  1.00  0.00     0.031 C 
ATOM     56  C   UNL A   1      46.960  29.667  31.597  1.00  0.00     0.029 A 
ATOM     57  C   UNL A   1      46.195  28.695  30.973  1.00  0.00     0.049 A 
ATOM     58  H   UNL A   1      44.179  28.777  30.358  1.00  0.00     0.167 HD
ATOM     59  C   UNL A   1      45.771  26.474  29.959  1.00  0.00     0.074 A 
ATOM     60  C   UNL A   1      46.175  25.145  29.553  1.00  0.00     0.031 C 
ATOM     61  C   UNL A   1      46.588  27.367  30.571  1.00  0.00     0.031 A 
BRANCH  48  62
ATOM     62  C   UNL A   1      43.892  32.791  31.799  1.00  0.00    -0.014 A 
ATOM     63  C   UNL A   1      44.282  33.865  30.979  1.00  0.00     0.010 A 
ATOM     64  C   UNL A   1      43.600  33.035  33.154  1.00  0.00     0.010 A 
ATOM     65  C   UNL A   1      44.416  35.150  31.512  1.00  0.00     0.020 A 
ATOM     66  C   UNL A   1      43.708  34.324  33.684  1.00  0.00     0.020 A 
ATOM     67  C   UNL A   1      44.133  35.370  32.864  1.00  0.00     0.054 A 
BRANCH  67  68
ATOM     68  S   UNL A   1      44.303  37.050  33.527  1.00  0.00     0.124 S 
ATOM     69  O   UNL A   1      42.923  37.377  33.875  1.00  0.00    -0.237 OA
ATOM     70  O   UNL A   1      45.206  36.858  34.660  1.00  0.00    -0.237 OA
ATOM     71  O   UNL A   1      44.861  37.809  32.411  1.00  0.00    -0.744 OA
ENDBRANCH  67  68
ENDBRANCH  48  62
BRANCH  49  72
ATOM     72  C   UNL A   1      42.565  23.699  27.912  1.00  0.00    -0.014 A 
ATOM     73  C   UNL A   1      42.049  22.638  28.677  1.00  0.00     0.010 A 
ATOM     74  C   UNL A   1      42.914  23.467  26.569  1.00  0.00     0.010 A 
ATOM     75  C   UNL A   1      41.898  21.367  28.113  1.00  0.00     0.020 A 
ATOM     76  C   UNL A   1      42.740  22.204  25.995  1.00  0.00     0.020 A 
ATOM     77  C   UNL A   1      42.244  21.159  26.774  1.00  0.00     0.054 A 
BRANCH  77  78
ATOM     78  S   UNL A   1      41.990  19.515  26.048  1.00  0.00     0.124 S 
ATOM     79  O   UNL A   1      42.461  18.636  27.114  1.00  0.00    -0.237 OA
ATOM     80  O   UNL A   1      40.550  19.497  25.801  1.00  0.00    -0.237 OA
ATOM     81  O   UNL A   1      42.820  19.543  24.846  1.00  0.00    -0.744 OA
ENDBRANCH  77  78
ENDBRANCH  49  72
BRANCH  61  82
ATOM     82  C   UNL A   1      47.996  26.931  30.884  1.00  0.00    -0.014 A 
ATOM     83  C   UNL A   1      49.052  27.150  29.981  1.00  0.00     0.010 A 
ATOM     84  C   UNL A   1      48.278  26.354  32.137  1.00  0.00     0.010 A 
ATOM     85  C   UNL A   1      50.357  26.777  30.315  1.00  0.00     0.020 A 
ATOM     86  C   UNL A   1      49.585  26.005  32.485  1.00  0.00     0.020 A 
ATOM     87  C   UNL A   1      50.616  26.208  31.567  1.00  0.00     0.054 A 
BRANCH  87  88
ATOM     88  S   UNL A   1      52.326  25.781  31.997  1.00  0.00     0.124 S 
ATOM     89  O   UNL A   1      53.063  26.263  30.832  1.00  0.00    -0.237 OA
ATOM     90  O   UNL A   1      52.544  26.531  33.232  1.00  0.00    -0.237 OA
ATOM     91  O   UNL A   1      52.292  24.329  32.154  1.00  0.00    -0.744 OA
ENDBRANCH  87  88
ENDBRANCH  61  82
ENDBRANCH  35  36
ENDBRANCH  28  30
ENDBRANCH  27  28
ENDBRANCH  26  27
ENDBRANCH  25  26
ENDBRANCH   1  25
TORSDOF 22
ENDMDL
MODEL 3
REMARK VINA RESULT:      -7.8      4.785     11.141
REMARK SMILES NC(=O)c1ccnc(N(CC(=O)OCCOCCOC(=O)c2ccc(-c3c4nc(c(-c5ccc(S(=O)(=O)[O-])cc5)c5ccc([nH]5)c(-c5ccc(S(=O)(=O)[O-])cc5)c5nc(c(-c6ccc(S(=O)(=O)[O-])cc6)c6ccc3[nH]6)C=C5)C=C4)cc2)CC(F)(F)F)c1
REMARK SMILES IDX 16 1 15 2 14 3 13 4 11 5 12 6 10 7 9 8 8 9 4 10 5 11 87 12
REMARK SMILES IDX 6 13 7 14 2 15 1 16 3 19 82 20 83 21 84 22 85 23 86 24 17 25
REMARK SMILES IDX 18 26 19 27 20 28 21 29 22 30 23 31 81 32 24 33 80 34 25 35
REMARK SMILES IDX 26 36 27 37 74 38 28 39 79 40 73 41 75 42 29 43 78 44 72 45
REMARK SMILES IDX 71 46 30 48 60 49 41 50 59 51 42 52 45 53 58 54 76 55 43 56
REMARK SMILES IDX 44 57 57 59 77 60 46 61 31 62 32 63 40 64 33 65 39 66 34 67
REMARK SMILES IDX 35 68 36 69 37 70 38 71 61 72 62 73 70 74 63 75 69 76 64 77
REMARK SMILES IDX 65 78 66 79 67 80 68 81 47 82 48 83 56 84 49 85 55 86 50 87
REMARK SMILES IDX 51 88 52 89 53 90 54 91
REMARK H PARENT 1 17 1 18 75 47 45 58
REMARK Flexibility Score: inf
ROOT
ATOM      1  O   UNL A   1      31.698  27.907  24.324  1.00  0.00    -0.374 OA
ENDROOT
BRANCH   1   2
ATOM      2  C   UNL A   1      32.102  26.540  24.382  1.00  0.00     0.202 C 
BRANCH   2   3
ATOM      3  C   UNL A   1      31.012  25.522  24.741  1.00  0.00     0.261 C 
BRANCH   3   4
ATOM      4  O   UNL A   1      31.513  24.187  24.962  1.00  0.00    -0.462 OA
BRANCH   4   5
ATOM      5  C   UNL A   1      31.989  23.945  26.215  1.00  0.00     0.325 C 
ATOM      6  O   UNL A   1      31.284  23.912  27.223  1.00  0.00    -0.250 OA
BRANCH   5   7
ATOM      7  C   UNL A   1      33.466  23.571  26.297  1.00  0.00     0.241 C 
BRANCH   7   8
ATOM      8  N   UNL A   1      34.053  22.774  25.200  1.00  0.00    -0.336 N 
BRANCH   8   9
ATOM      9  C   UNL A   1      33.528  21.512  24.986  1.00  0.00     0.130 A 
ATOM     10  C   UNL A   1      32.557  19.816  23.558  1.00  0.00     0.044 A 
ATOM     11  C   UNL A   1      32.555  18.919  24.612  1.00  0.00     0.034 A 
ATOM     12  C   UNL A   1      33.016  21.118  23.759  1.00  0.00     0.060 A 
ATOM     13  C   UNL A   1      33.026  19.388  25.821  1.00  0.00     0.114 A 
ATOM     14  N   UNL A   1      33.497  20.645  26.020  1.00  0.00    -0.239 NA
BRANCH  10  15
ATOM     15  C   UNL A   1      32.143  19.456  22.183  1.00  0.00     0.248 C 
ATOM     16  N   UNL A   1      31.741  20.461  21.355  1.00  0.00    -0.366 N 
ATOM     17  H   UNL A   1      31.459  20.258  20.434  1.00  0.00     0.159 HD
ATOM     18  H   UNL A   1      31.735  21.392  21.678  1.00  0.00     0.159 HD
ATOM     19  O   UNL A   1      32.199  18.301  21.785  1.00  0.00    -0.270 OA
ENDBRANCH  10  15
ENDBRANCH   8   9
BRANCH   8  20
ATOM     20  C   UNL A   1      34.911  23.472  24.214  1.00  0.00     0.234 C 
BRANCH  20  21
ATOM     21  C   UNL A   1      36.369  22.998  24.044  1.00  0.00     0.405 C 
ATOM     22  F   UNL A   1      36.597  21.816  24.658  1.00  0.00    -0.169 F 
ATOM     23  F   UNL A   1      36.626  22.779  22.730  1.00  0.00    -0.169 F 
ATOM     24  F   UNL A   1      37.269  23.888  24.501  1.00  0.00    -0.169 F 
ENDBRANCH  20  21
ENDBRANCH   8  20
ENDBRANCH   7   8
ENDBRANCH   5   7
ENDBRANCH   4   5
ENDBRANCH   3   4
ENDBRANCH   2   3
ENDBRANCH   1   2
BRANCH   1  25
ATOM     25  C   UNL A   1      32.310  28.801  25.254  1.00  0.00     0.202 C 
BRANCH  25  26
ATOM     26  C   UNL A   1      33.795  28.555  25.545  1.00  0.00     0.261 C 
BRANCH  26  27
ATOM     27  O   UNL A   1      34.060  28.552  26.961  1.00  0.00    -0.460 OA
BRANCH  27  28
ATOM     28  C   UNL A   1      34.324  29.769  27.495  1.00  0.00     0.338 C 
ATOM     29  O   UNL A   1      33.523  30.682  27.656  1.00  0.00    -0.246 OA
BRANCH  28  30
ATOM     30  C   UNL A   1      35.686  29.818  28.061  1.00  0.00     0.060 A 
ATOM     31  C   UNL A   1      36.744  30.054  27.172  1.00  0.00     0.016 A 
ATOM     32  C   UNL A   1      35.949  29.521  29.399  1.00  0.00     0.016 A 
ATOM     33  C   UNL A   1      38.065  29.928  27.603  1.00  0.00     0.010 A 
ATOM     34  C   UNL A   1      37.278  29.404  29.833  1.00  0.00     0.010 A 
ATOM     35  C   UNL A   1      38.342  29.555  28.926  1.00  0.00    -0.014 A 
BRANCH  35  36
ATOM     36  C   UNL A   1      39.724  29.150  29.298  1.00  0.00     0.031 A 
ATOM     37  C   UNL A   1      40.572  30.103  30.102  1.00  0.00     0.074 A 
ATOM     38  C   UNL A   1      40.208  27.935  28.978  1.00  0.00     0.049 A 
ATOM     39  N   UNL A   1      41.797  29.956  30.541  1.00  0.00    -0.248 NA
ATOM     40  C   UNL A   1      39.957  31.392  30.460  1.00  0.00     0.031 C 
ATOM     41  C   UNL A   1      39.481  26.898  28.247  1.00  0.00     0.029 A 
ATOM     42  N   UNL A   1      41.433  27.368  29.235  1.00  0.00    -0.354 N 
ATOM     43  C   UNL A   1      42.100  31.133  31.217  1.00  0.00     0.074 A 
ATOM     44  C   UNL A   1      40.944  31.995  31.104  1.00  0.00     0.031 C 
ATOM     45  C   UNL A   1      40.273  25.820  28.115  1.00  0.00     0.029 A 
ATOM     46  C   UNL A   1      41.574  26.100  28.722  1.00  0.00     0.049 A 
ATOM     47  H   UNL A   1      42.143  27.826  29.740  1.00  0.00     0.167 HD
ATOM     48  C   UNL A   1      43.233  31.467  31.881  1.00  0.00     0.031 A 
ATOM     49  C   UNL A   1      42.635  25.266  28.726  1.00  0.00     0.031 A 
ATOM     50  C   UNL A   1      44.390  30.618  31.989  1.00  0.00     0.049 A 
ATOM     51  C   UNL A   1      43.912  25.687  29.406  1.00  0.00     0.074 A 
ATOM     52  C   UNL A   1      45.581  30.867  32.650  1.00  0.00     0.029 A 
ATOM     53  N   UNL A   1      44.505  29.361  31.417  1.00  0.00    -0.354 N 
ATOM     54  N   UNL A   1      44.174  26.795  30.058  1.00  0.00    -0.248 NA
ATOM     55  C   UNL A   1      45.036  24.739  29.359  1.00  0.00     0.031 C 
ATOM     56  C   UNL A   1      46.436  29.783  32.433  1.00  0.00     0.029 A 
ATOM     57  C   UNL A   1      45.755  28.831  31.689  1.00  0.00     0.049 A 
ATOM     58  H   UNL A   1      43.802  28.910  30.896  1.00  0.00     0.167 HD
ATOM     59  C   UNL A   1      45.479  26.663  30.524  1.00  0.00     0.074 A 
ATOM     60  C   UNL A   1      45.950  25.366  30.087  1.00  0.00     0.031 C 
ATOM     61  C   UNL A   1      46.215  27.536  31.255  1.00  0.00     0.031 A 
BRANCH  48  62
ATOM     62  C   UNL A   1      43.289  32.832  32.516  1.00  0.00    -0.014 A 
ATOM     63  C   UNL A   1      43.781  33.946  31.812  1.00  0.00     0.010 A 
ATOM     64  C   UNL A   1      42.814  33.007  33.829  1.00  0.00     0.010 A 
ATOM     65  C   UNL A   1      43.833  35.201  32.423  1.00  0.00     0.020 A 
ATOM     66  C   UNL A   1      42.841  34.267  34.434  1.00  0.00     0.020 A 
ATOM     67  C   UNL A   1      43.368  35.353  33.733  1.00  0.00     0.054 A 
BRANCH  67  68
ATOM     68  S   UNL A   1      43.436  36.996  34.498  1.00  0.00     0.124 S 
ATOM     69  O   UNL A   1      44.868  37.167  34.720  1.00  0.00    -0.237 OA
ATOM     70  O   UNL A   1      42.854  37.854  33.468  1.00  0.00    -0.237 OA
ATOM     71  O   UNL A   1      42.630  36.849  35.708  1.00  0.00    -0.744 OA
ENDBRANCH  67  68
ENDBRANCH  48  62
BRANCH  49  72
ATOM     72  C   UNL A   1      42.541  23.945  28.045  1.00  0.00    -0.014 A 
ATOM     73  C   UNL A   1      42.716  23.837  26.654  1.00  0.00     0.010 A 
ATOM     74  C   UNL A   1      42.271  22.783  28.791  1.00  0.00     0.010 A 
ATOM     75  C   UNL A   1      42.609  22.594  26.021  1.00  0.00     0.020 A 
ATOM     76  C   UNL A   1      42.189  21.536  28.165  1.00  0.00     0.020 A 
ATOM     77  C   UNL A   1      42.348  21.451  26.782  1.00  0.00     0.054 A 
BRANCH  77  78
ATOM     78  S   UNL A   1      42.266  19.841  25.947  1.00  0.00     0.124 S 
ATOM     79  O   UNL A   1      40.891  19.821  25.459  1.00  0.00    -0.237 OA
ATOM     80  O   UNL A   1      43.302  19.963  24.924  1.00  0.00    -0.237 OA
ATOM     81  O   UNL A   1      42.567  18.889  27.015  1.00  0.00    -0.744 OA
ENDBRANCH  77  78
ENDBRANCH  49  72
BRANCH  61  82
ATOM     82  C   UNL A   1      47.599  27.110  31.674  1.00  0.00    -0.014 A 
ATOM     83  C   UNL A   1      47.819  26.398  32.866  1.00  0.00     0.010 A 
ATOM     84  C   UNL A   1      48.689  27.368  30.820  1.00  0.00     0.010 A 
ATOM     85  C   UNL A   1      49.107  25.975  33.208  1.00  0.00     0.020 A 
ATOM     86  C   UNL A   1      49.972  26.923  31.146  1.00  0.00     0.020 A 
ATOM     87  C   UNL A   1      50.176  26.238  32.345  1.00  0.00     0.054 A 
BRANCH  87  88
ATOM     88  S   UNL A   1      51.828  25.632  32.787  1.00  0.00     0.124 S 
ATOM     89  O   UNL A   1      52.397  25.317  31.479  1.00  0.00    -0.237 OA
ATOM     90  O   UNL A   1      52.420  26.780  33.470  1.00  0.00    -0.237 OA
ATOM     91  O   UNL A   1      51.556  24.478  33.642  1.00  0.00    -0.744 OA
ENDBRANCH  87  88
ENDBRANCH  61  82
ENDBRANCH  35  36
ENDBRANCH  28  30
ENDBRANCH  27  28
ENDBRANCH  26  27
ENDBRANCH  25  26
ENDBRANCH   1  25
TORSDOF 22
ENDMDL
