MODEL 1
REMARK VINA RESULT:     -10.3      0.000      0.000
REMARK SMILES O=C1NC[C@@H](CSc2ccnc(C(=O)OCCOCCOC(=O)c3ccc(-c4c5nc(c(-c6ccc(S(=O)(=O)[O-])cc6)c6ccc([nH]6)c(-c6ccc(S(=O)(=O)[O-])cc6)c6nc(c(-c7ccc(S(=O)(=O)[O-])cc7)c7ccc4[nH]7)C=C6)C=C5)cc3)c2)O1
REMARK SMILES IDX 18 1 17 2 16 3 15 4 13 5 14 6 12 7 8 8 9 9 84 10 10 11 11 12
REMARK SMILES IDX 7 13 6 14 5 15 1 16 2 17 3 18 85 19 4 20 19 22 20 23 21 24
REMARK SMILES IDX 22 25 23 26 24 27 25 28 83 29 26 30 82 31 27 32 28 33 29 34
REMARK SMILES IDX 76 35 30 36 81 37 75 38 77 39 31 40 80 41 74 42 73 43 32 45
REMARK SMILES IDX 62 46 43 47 61 48 44 49 47 50 60 51 78 52 45 53 46 54 59 56
REMARK SMILES IDX 79 57 48 58 33 59 34 60 42 61 35 62 41 63 36 64 37 65 38 66
REMARK SMILES IDX 39 67 40 68 63 69 64 70 72 71 65 72 71 73 66 74 67 75 68 76
REMARK SMILES IDX 69 77 70 78 49 79 50 80 58 81 51 82 57 83 52 84 53 85 54 86
REMARK SMILES IDX 55 87 56 88
REMARK H PARENT 3 21 77 44 47 55
REMARK Flexibility Score: inf
ROOT
ATOM      1  O   UNL A   1      39.685  21.677  26.962  1.00  0.00    -0.374 OA
ENDROOT
BRANCH   1   2
ATOM      2  C   UNL A   1      40.027  20.509  26.219  1.00  0.00     0.202 C 
BRANCH   2   3
ATOM      3  C   UNL A   1      41.115  19.592  26.783  1.00  0.00     0.261 C 
BRANCH   3   4
ATOM      4  O   UNL A   1      41.734  18.805  25.753  1.00  0.00    -0.459 OA
BRANCH   4   5
ATOM      5  C   UNL A   1      42.931  18.278  26.115  1.00  0.00     0.357 C 
ATOM      6  O   UNL A   1      43.097  17.274  26.793  1.00  0.00    -0.244 OA
BRANCH   5   7
ATOM      7  C   UNL A   1      44.059  19.000  25.456  1.00  0.00     0.149 A 
ATOM      8  C   UNL A   1      45.111  20.916  24.499  1.00  0.00     0.011 A 
ATOM      9  C   UNL A   1      46.324  20.265  24.687  1.00  0.00     0.035 A 
ATOM     10  C   UNL A   1      43.939  20.277  24.912  1.00  0.00     0.051 A 
ATOM     11  C   UNL A   1      46.340  18.961  25.129  1.00  0.00     0.113 A 
ATOM     12  N   UNL A   1      45.233  18.313  25.502  1.00  0.00    -0.249 NA
BRANCH   8  13
ATOM     13  S   UNL A   1      45.103  22.617  23.966  1.00  0.00    -0.122 SA
BRANCH  13  14
ATOM     14  C   UNL A   1      46.338  23.444  25.061  1.00  0.00     0.122 C 
BRANCH  14  15
ATOM     15  C   UNL A   1      46.058  23.607  26.567  1.00  0.00     0.208 C 
ATOM     16  O   UNL A   1      47.776  25.721  28.701  1.00  0.00    -0.225 OA
ATOM     17  C   UNL A   1      46.967  25.113  28.016  1.00  0.00     0.407 C 
ATOM     18  N   UNL A   1      45.678  25.505  27.813  1.00  0.00    -0.318 N 
ATOM     19  O   UNL A   1      47.228  23.975  27.318  1.00  0.00    -0.443 OA
ATOM     20  C   UNL A   1      44.992  24.623  26.934  1.00  0.00     0.165 C 
ATOM     21  H   UNL A   1      45.271  26.302  28.224  1.00  0.00     0.167 HD
ENDBRANCH  14  15
ENDBRANCH  13  14
ENDBRANCH   8  13
ENDBRANCH   5   7
ENDBRANCH   4   5
ENDBRANCH   3   4
ENDBRANCH   2   3
ENDBRANCH   1   2
BRANCH   1  22
ATOM     22  C   UNL A   1      40.736  22.440  27.551  1.00  0.00     0.202 C 
BRANCH  22  23
ATOM     23  C   UNL A   1      41.476  23.456  26.670  1.00  0.00     0.261 C 
BRANCH  23  24
ATOM     24  O   UNL A   1      40.626  24.515  26.197  1.00  0.00    -0.460 OA
BRANCH  24  25
ATOM     25  C   UNL A   1      41.234  25.726  26.138  1.00  0.00     0.338 C 
ATOM     26  O   UNL A   1      41.542  26.345  25.133  1.00  0.00    -0.246 OA
BRANCH  25  27
ATOM     27  C   UNL A   1      41.313  26.326  27.484  1.00  0.00     0.060 A 
ATOM     28  C   UNL A   1      40.229  26.112  28.345  1.00  0.00     0.016 A 
ATOM     29  C   UNL A   1      42.362  27.168  27.854  1.00  0.00     0.016 A 
ATOM     30  C   UNL A   1      40.148  26.807  29.547  1.00  0.00     0.010 A 
ATOM     31  C   UNL A   1      42.276  27.869  29.061  1.00  0.00     0.010 A 
ATOM     32  C   UNL A   1      41.140  27.736  29.881  1.00  0.00    -0.014 A 
BRANCH  32  33
ATOM     33  C   UNL A   1      40.870  28.704  30.971  1.00  0.00     0.031 A 
ATOM     34  C   UNL A   1      41.732  28.659  32.208  1.00  0.00     0.074 A 
ATOM     35  C   UNL A   1      39.929  29.655  30.836  1.00  0.00     0.049 A 
ATOM     36  N   UNL A   1      41.701  29.423  33.269  1.00  0.00    -0.248 NA
ATOM     37  C   UNL A   1      42.764  27.610  32.254  1.00  0.00     0.031 C 
ATOM     38  C   UNL A   1      39.065  29.831  29.668  1.00  0.00     0.029 A 
ATOM     39  N   UNL A   1      39.551  30.660  31.690  1.00  0.00    -0.354 N 
ATOM     40  C   UNL A   1      42.699  28.942  34.110  1.00  0.00     0.074 A 
ATOM     41  C   UNL A   1      43.289  27.795  33.456  1.00  0.00     0.031 C 
ATOM     42  C   UNL A   1      38.260  30.888  29.879  1.00  0.00     0.029 A 
ATOM     43  C   UNL A   1      38.531  31.441  31.205  1.00  0.00     0.049 A 
ATOM     44  H   UNL A   1      39.971  30.807  32.569  1.00  0.00     0.167 HD
ATOM     45  C   UNL A   1      43.098  29.417  35.315  1.00  0.00     0.031 A 
ATOM     46  C   UNL A   1      37.883  32.479  31.769  1.00  0.00     0.031 A 
ATOM     47  C   UNL A   1      42.504  30.554  35.966  1.00  0.00     0.049 A 
ATOM     48  C   UNL A   1      38.307  32.956  33.134  1.00  0.00     0.074 A 
ATOM     49  C   UNL A   1      42.841  31.124  37.181  1.00  0.00     0.029 A 
ATOM     50  N   UNL A   1      41.448  31.296  35.457  1.00  0.00    -0.354 N 
ATOM     51  N   UNL A   1      39.261  32.498  33.911  1.00  0.00    -0.248 NA
ATOM     52  C   UNL A   1      37.578  34.105  33.688  1.00  0.00     0.031 C 
ATOM     53  C   UNL A   1      41.949  32.171  37.436  1.00  0.00     0.029 A 
ATOM     54  C   UNL A   1      41.107  32.304  36.344  1.00  0.00     0.049 A 
ATOM     55  H   UNL A   1      41.006  31.130  34.593  1.00  0.00     0.167 HD
ATOM     56  C   UNL A   1      39.273  33.331  35.027  1.00  0.00     0.074 A 
ATOM     57  C   UNL A   1      38.240  34.324  34.815  1.00  0.00     0.031 C 
ATOM     58  C   UNL A   1      40.073  33.284  36.123  1.00  0.00     0.031 A 
BRANCH  45  59
ATOM     59  C   UNL A   1      44.207  28.680  36.022  1.00  0.00    -0.014 A 
ATOM     60  C   UNL A   1      43.936  27.654  36.947  1.00  0.00     0.010 A 
ATOM     61  C   UNL A   1      45.546  29.002  35.736  1.00  0.00     0.010 A 
ATOM     62  C   UNL A   1      44.980  26.996  37.602  1.00  0.00     0.020 A 
ATOM     63  C   UNL A   1      46.595  28.324  36.363  1.00  0.00     0.020 A 
ATOM     64  C   UNL A   1      46.304  27.336  37.307  1.00  0.00     0.054 A 
BRANCH  64  65
ATOM     65  S   UNL A   1      47.640  26.453  38.158  1.00  0.00     0.124 S 
ATOM     66  O   UNL A   1      48.798  26.797  37.337  1.00  0.00    -0.237 OA
ATOM     67  O   UNL A   1      47.617  27.046  39.492  1.00  0.00    -0.237 OA
ATOM     68  O   UNL A   1      47.227  25.053  38.093  1.00  0.00    -0.744 OA
ENDBRANCH  64  65
ENDBRANCH  45  59
BRANCH  46  69
ATOM     69  C   UNL A   1      36.764  33.141  31.043  1.00  0.00    -0.014 A 
ATOM     70  C   UNL A   1      37.008  33.939  29.911  1.00  0.00     0.010 A 
ATOM     71  C   UNL A   1      35.438  32.976  31.488  1.00  0.00     0.010 A 
ATOM     72  C   UNL A   1      35.952  34.576  29.252  1.00  0.00     0.020 A 
ATOM     73  C   UNL A   1      34.378  33.584  30.813  1.00  0.00     0.020 A 
ATOM     74  C   UNL A   1      34.643  34.391  29.705  1.00  0.00     0.054 A 
BRANCH  74  75
ATOM     75  S   UNL A   1      33.285  35.188  28.805  1.00  0.00     0.124 S 
ATOM     76  O   UNL A   1      33.989  36.199  28.023  1.00  0.00    -0.237 OA
ATOM     77  O   UNL A   1      32.719  34.077  28.043  1.00  0.00    -0.237 OA
ATOM     78  O   UNL A   1      32.427  35.705  29.869  1.00  0.00    -0.744 OA
ENDBRANCH  74  75
ENDBRANCH  46  69
BRANCH  58  79
ATOM     79  C   UNL A   1      39.902  34.374  37.151  1.00  0.00    -0.014 A 
ATOM     80  C   UNL A   1      39.040  34.229  38.252  1.00  0.00     0.010 A 
ATOM     81  C   UNL A   1      40.639  35.566  37.015  1.00  0.00     0.010 A 
ATOM     82  C   UNL A   1      38.870  35.278  39.161  1.00  0.00     0.020 A 
ATOM     83  C   UNL A   1      40.501  36.602  37.942  1.00  0.00     0.020 A 
ATOM     84  C   UNL A   1      39.596  36.461  38.996  1.00  0.00     0.054 A 
BRANCH  84  85
ATOM     85  S   UNL A   1      39.357  37.809  40.184  1.00  0.00     0.124 S 
ATOM     86  O   UNL A   1      40.623  38.531  40.082  1.00  0.00    -0.237 OA
ATOM     87  O   UNL A   1      38.190  38.505  39.650  1.00  0.00    -0.237 OA
ATOM     88  O   UNL A   1      39.135  37.118  41.453  1.00  0.00    -0.744 OA
ENDBRANCH  84  85
ENDBRANCH  58  79
ENDBRANCH  32  33
ENDBRANCH  25  27
ENDBRANCH  24  25
ENDBRANCH  23  24
ENDBRANCH  22  23
ENDBRANCH   1  22
TORSDOF 20
ENDMDL
MODEL 2
REMARK VINA RESULT:     -10.0      1.712      2.234
REMARK SMILES O=C1NC[C@@H](CSc2ccnc(C(=O)OCCOCCOC(=O)c3ccc(-c4c5nc(c(-c6ccc(S(=O)(=O)[O-])cc6)c6ccc([nH]6)c(-c6ccc(S(=O)(=O)[O-])cc6)c6nc(c(-c7ccc(S(=O)(=O)[O-])cc7)c7ccc4[nH]7)C=C6)C=C5)cc3)c2)O1
REMARK SMILES IDX 18 1 17 2 16 3 15 4 13 5 14 6 12 7 8 8 9 9 84 10 10 11 11 12
REMARK SMILES IDX 7 13 6 14 5 15 1 16 2 17 3 18 85 19 4 20 19 22 20 23 21 24
REMARK SMILES IDX 22 25 23 26 24 27 25 28 83 29 26 30 82 31 27 32 28 33 29 34
REMARK SMILES IDX 76 35 30 36 81 37 75 38 77 39 31 40 80 41 74 42 73 43 32 45
REMARK SMILES IDX 62 46 43 47 61 48 44 49 47 50 60 51 78 52 45 53 46 54 59 56
REMARK SMILES IDX 79 57 48 58 33 59 34 60 42 61 35 62 41 63 36 64 37 65 38 66
REMARK SMILES IDX 39 67 40 68 63 69 64 70 72 71 65 72 71 73 66 74 67 75 68 76
REMARK SMILES IDX 69 77 70 78 49 79 50 80 58 81 51 82 57 83 52 84 53 85 54 86
REMARK SMILES IDX 55 87 56 88
REMARK H PARENT 3 21 77 44 47 55
REMARK Flexibility Score: inf
ROOT
ATOM      1  O   UNL A   1      39.099  21.592  26.394  1.00  0.00    -0.374 OA
ENDROOT
BRANCH   1   2
ATOM      2  C   UNL A   1      40.441  21.163  26.181  1.00  0.00     0.202 C 
BRANCH   2   3
ATOM      3  C   UNL A   1      40.754  19.674  26.343  1.00  0.00     0.261 C 
BRANCH   3   4
ATOM      4  O   UNL A   1      42.087  19.459  26.831  1.00  0.00    -0.459 OA
BRANCH   4   5
ATOM      5  C   UNL A   1      42.801  18.567  26.097  1.00  0.00     0.357 C 
ATOM      6  O   UNL A   1      42.462  17.421  25.835  1.00  0.00    -0.244 OA
BRANCH   5   7
ATOM      7  C   UNL A   1      44.016  19.202  25.509  1.00  0.00     0.149 A 
ATOM      8  C   UNL A   1      45.330  21.059  24.789  1.00  0.00     0.011 A 
ATOM      9  C   UNL A   1      46.435  20.218  24.849  1.00  0.00     0.035 A 
ATOM     10  C   UNL A   1      44.081  20.546  25.148  1.00  0.00     0.051 A 
ATOM     11  C   UNL A   1      46.262  18.877  25.109  1.00  0.00     0.113 A 
ATOM     12  N   UNL A   1      45.075  18.352  25.425  1.00  0.00    -0.249 NA
BRANCH   8  13
ATOM     13  S   UNL A   1      45.569  22.800  24.493  1.00  0.00    -0.122 SA
BRANCH  13  14
ATOM     14  C   UNL A   1      45.027  23.608  26.062  1.00  0.00     0.122 C 
BRANCH  14  15
ATOM     15  C   UNL A   1      45.272  25.112  26.289  1.00  0.00     0.208 C 
ATOM     16  O   UNL A   1      43.453  27.674  24.838  1.00  0.00    -0.225 OA
ATOM     17  C   UNL A   1      44.014  26.871  25.569  1.00  0.00     0.407 C 
ATOM     18  N   UNL A   1      43.813  26.779  26.914  1.00  0.00    -0.318 N 
ATOM     19  O   UNL A   1      44.895  25.918  25.159  1.00  0.00    -0.443 OA
ATOM     20  C   UNL A   1      44.570  25.722  27.487  1.00  0.00     0.165 C 
ATOM     21  H   UNL A   1      43.218  27.373  27.425  1.00  0.00     0.167 HD
ENDBRANCH  14  15
ENDBRANCH  13  14
ENDBRANCH   8  13
ENDBRANCH   5   7
ENDBRANCH   4   5
ENDBRANCH   3   4
ENDBRANCH   2   3
ENDBRANCH   1   2
BRANCH   1  22
ATOM     22  C   UNL A   1      38.637  22.749  25.699  1.00  0.00     0.202 C 
BRANCH  22  23
ATOM     23  C   UNL A   1      38.529  24.067  26.477  1.00  0.00     0.261 C 
BRANCH  23  24
ATOM     24  O   UNL A   1      39.601  24.257  27.416  1.00  0.00    -0.460 OA
BRANCH  24  25
ATOM     25  C   UNL A   1      40.325  25.385  27.206  1.00  0.00     0.338 C 
ATOM     26  O   UNL A   1      41.064  25.618  26.263  1.00  0.00    -0.246 OA
BRANCH  25  27
ATOM     27  C   UNL A   1      39.956  26.420  28.189  1.00  0.00     0.060 A 
ATOM     28  C   UNL A   1      40.676  27.621  28.156  1.00  0.00     0.016 A 
ATOM     29  C   UNL A   1      39.012  26.182  29.189  1.00  0.00     0.016 A 
ATOM     30  C   UNL A   1      40.517  28.556  29.172  1.00  0.00     0.010 A 
ATOM     31  C   UNL A   1      38.857  27.122  30.213  1.00  0.00     0.010 A 
ATOM     32  C   UNL A   1      39.652  28.283  30.239  1.00  0.00    -0.014 A 
BRANCH  32  33
ATOM     33  C   UNL A   1      39.752  29.110  31.466  1.00  0.00     0.031 A 
ATOM     34  C   UNL A   1      40.912  28.879  32.401  1.00  0.00     0.074 A 
ATOM     35  C   UNL A   1      38.874  30.100  31.707  1.00  0.00     0.049 A 
ATOM     36  N   UNL A   1      41.220  29.500  33.510  1.00  0.00    -0.248 NA
ATOM     37  C   UNL A   1      41.846  27.800  32.038  1.00  0.00     0.031 C 
ATOM     38  C   UNL A   1      37.740  30.453  30.853  1.00  0.00     0.029 A 
ATOM     39  N   UNL A   1      38.809  30.998  32.743  1.00  0.00    -0.354 N 
ATOM     40  C   UNL A   1      42.375  28.883  33.980  1.00  0.00     0.074 A 
ATOM     41  C   UNL A   1      42.688  27.813  33.061  1.00  0.00     0.031 C 
ATOM     42  C   UNL A   1      37.094  31.499  31.398  1.00  0.00     0.029 A 
ATOM     43  C   UNL A   1      37.750  31.868  32.652  1.00  0.00     0.049 A 
ATOM     44  H   UNL A   1      39.461  31.017  33.481  1.00  0.00     0.167 HD
ATOM     45  C   UNL A   1      43.116  29.186  35.074  1.00  0.00     0.031 A 
ATOM     46  C   UNL A   1      37.349  32.844  33.489  1.00  0.00     0.031 A 
ATOM     47  C   UNL A   1      42.797  30.248  35.990  1.00  0.00     0.049 A 
ATOM     48  C   UNL A   1      38.158  33.127  34.729  1.00  0.00     0.074 A 
ATOM     49  C   UNL A   1      43.488  30.645  37.122  1.00  0.00     0.029 A 
ATOM     50  N   UNL A   1      41.694  31.083  35.883  1.00  0.00    -0.354 N 
ATOM     51  N   UNL A   1      39.254  32.543  35.153  1.00  0.00    -0.248 NA
ATOM     52  C   UNL A   1      37.683  34.217  35.592  1.00  0.00     0.031 C 
ATOM     53  C   UNL A   1      42.770  31.679  37.733  1.00  0.00     0.029 A 
ATOM     54  C   UNL A   1      41.673  31.978  36.940  1.00  0.00     0.049 A 
ATOM     55  H   UNL A   1      41.025  31.044  35.163  1.00  0.00     0.167 HD
ATOM     56  C   UNL A   1      39.623  33.224  36.310  1.00  0.00     0.074 A 
ATOM     57  C   UNL A   1      38.640  34.268  36.509  1.00  0.00     0.031 C 
ATOM     58  C   UNL A   1      40.685  33.011  37.129  1.00  0.00     0.031 A 
BRANCH  45  59
ATOM     59  C   UNL A   1      44.324  28.329  35.356  1.00  0.00    -0.014 A 
ATOM     60  C   UNL A   1      45.592  28.650  34.836  1.00  0.00     0.010 A 
ATOM     61  C   UNL A   1      44.192  27.195  36.178  1.00  0.00     0.010 A 
ATOM     62  C   UNL A   1      46.693  27.831  35.098  1.00  0.00     0.020 A 
ATOM     63  C   UNL A   1      45.297  26.391  36.470  1.00  0.00     0.020 A 
ATOM     64  C   UNL A   1      46.539  26.705  35.913  1.00  0.00     0.054 A 
BRANCH  64  65
ATOM     65  S   UNL A   1      47.989  25.670  36.252  1.00  0.00     0.124 S 
ATOM     66  O   UNL A   1      47.741  25.245  37.627  1.00  0.00    -0.237 OA
ATOM     67  O   UNL A   1      47.878  24.622  35.240  1.00  0.00    -0.237 OA
ATOM     68  O   UNL A   1      49.116  26.584  36.078  1.00  0.00    -0.744 OA
ENDBRANCH  64  65
ENDBRANCH  45  59
BRANCH  46  69
ATOM     69  C   UNL A   1      36.121  33.629  33.183  1.00  0.00    -0.014 A 
ATOM     70  C   UNL A   1      36.190  34.813  32.428  1.00  0.00     0.010 A 
ATOM     71  C   UNL A   1      34.868  33.192  33.653  1.00  0.00     0.010 A 
ATOM     72  C   UNL A   1      35.035  35.556  32.168  1.00  0.00     0.020 A 
ATOM     73  C   UNL A   1      33.708  33.913  33.368  1.00  0.00     0.020 A 
ATOM     74  C   UNL A   1      33.799  35.099  32.636  1.00  0.00     0.054 A 
BRANCH  74  75
ATOM     75  S   UNL A   1      32.308  36.053  32.245  1.00  0.00     0.124 S 
ATOM     76  O   UNL A   1      32.526  36.402  30.845  1.00  0.00    -0.237 OA
ATOM     77  O   UNL A   1      31.242  35.087  32.500  1.00  0.00    -0.237 OA
ATOM     78  O   UNL A   1      32.361  37.171  33.184  1.00  0.00    -0.744 OA
ENDBRANCH  74  75
ENDBRANCH  46  69
BRANCH  58  79
ATOM     79  C   UNL A   1      40.872  33.964  38.282  1.00  0.00    -0.014 A 
ATOM     80  C   UNL A   1      40.304  33.722  39.545  1.00  0.00     0.010 A 
ATOM     81  C   UNL A   1      41.651  35.122  38.095  1.00  0.00     0.010 A 
ATOM     82  C   UNL A   1      40.458  34.650  40.579  1.00  0.00     0.020 A 
ATOM     83  C   UNL A   1      41.839  36.033  39.137  1.00  0.00     0.020 A 
ATOM     84  C   UNL A   1      41.218  35.804  40.366  1.00  0.00     0.054 A 
BRANCH  84  85
ATOM     85  S   UNL A   1      41.401  36.995  41.721  1.00  0.00     0.124 S 
ATOM     86  O   UNL A   1      41.908  38.174  41.022  1.00  0.00    -0.237 OA
ATOM     87  O   UNL A   1      40.039  37.106  42.237  1.00  0.00    -0.237 OA
ATOM     88  O   UNL A   1      42.352  36.351  42.624  1.00  0.00    -0.744 OA
ENDBRANCH  84  85
ENDBRANCH  58  79
ENDBRANCH  32  33
ENDBRANCH  25  27
ENDBRANCH  24  25
ENDBRANCH  23  24
ENDBRANCH  22  23
ENDBRANCH   1  22
TORSDOF 20
ENDMDL
MODEL 3
REMARK VINA RESULT:      -9.9      4.035     12.257
REMARK SMILES O=C1NC[C@@H](CSc2ccnc(C(=O)OCCOCCOC(=O)c3ccc(-c4c5nc(c(-c6ccc(S(=O)(=O)[O-])cc6)c6ccc([nH]6)c(-c6ccc(S(=O)(=O)[O-])cc6)c6nc(c(-c7ccc(S(=O)(=O)[O-])cc7)c7ccc4[nH]7)C=C6)C=C5)cc3)c2)O1
REMARK SMILES IDX 18 1 17 2 16 3 15 4 13 5 14 6 12 7 8 8 9 9 84 10 10 11 11 12
REMARK SMILES IDX 7 13 6 14 5 15 1 16 2 17 3 18 85 19 4 20 19 22 20 23 21 24
REMARK SMILES IDX 22 25 23 26 24 27 25 28 83 29 26 30 82 31 27 32 28 33 29 34
REMARK SMILES IDX 76 35 30 36 81 37 75 38 77 39 31 40 80 41 74 42 73 43 32 45
REMARK SMILES IDX 62 46 43 47 61 48 44 49 47 50 60 51 78 52 45 53 46 54 59 56
REMARK SMILES IDX 79 57 48 58 33 59 34 60 42 61 35 62 41 63 36 64 37 65 38 66
REMARK SMILES IDX 39 67 40 68 63 69 64 70 72 71 65 72 71 73 66 74 67 75 68 76
REMARK SMILES IDX 69 77 70 78 49 79 50 80 58 81 51 82 57 83 52 84 53 85 54 86
REMARK SMILES IDX 55 87 56 88
REMARK H PARENT 3 21 77 44 47 55
REMARK Flexibility Score: inf
ROOT
ATOM      1  O   UNL A   1      32.766  34.901  29.517  1.00  0.00    -0.374 OA
ENDROOT
BRANCH   1   2
ATOM      2  C   UNL A   1      32.900  36.033  30.374  1.00  0.00     0.202 C 
BRANCH   2   3
ATOM      3  C   UNL A   1      32.370  35.918  31.805  1.00  0.00     0.261 C 
BRANCH   3   4
ATOM      4  O   UNL A   1      33.070  34.910  32.552  1.00  0.00    -0.459 OA
BRANCH   4   5
ATOM      5  C   UNL A   1      34.309  35.292  32.955  1.00  0.00     0.357 C 
ATOM      6  O   UNL A   1      34.612  36.389  33.400  1.00  0.00    -0.244 OA
BRANCH   5   7
ATOM      7  C   UNL A   1      35.262  34.143  32.926  1.00  0.00     0.149 A 
ATOM      8  C   UNL A   1      37.095  32.856  33.749  1.00  0.00     0.011 A 
ATOM      9  C   UNL A   1      36.608  31.797  32.993  1.00  0.00     0.035 A 
ATOM     10  C   UNL A   1      36.393  34.064  33.735  1.00  0.00     0.051 A 
ATOM     11  C   UNL A   1      35.548  31.997  32.138  1.00  0.00     0.113 A 
ATOM     12  N   UNL A   1      34.877  33.151  32.079  1.00  0.00    -0.249 NA
BRANCH   8  13
ATOM     13  S   UNL A   1      38.440  32.577  34.885  1.00  0.00    -0.122 SA
BRANCH  13  14
ATOM     14  C   UNL A   1      39.649  31.567  33.921  1.00  0.00     0.122 C 
BRANCH  14  15
ATOM     15  C   UNL A   1      39.844  30.073  34.239  1.00  0.00     0.208 C 
ATOM     16  O   UNL A   1      42.133  27.984  32.698  1.00  0.00    -0.225 OA
ATOM     17  C   UNL A   1      41.452  28.661  33.454  1.00  0.00     0.407 C 
ATOM     18  N   UNL A   1      41.755  28.901  34.761  1.00  0.00    -0.318 N 
ATOM     19  O   UNL A   1      40.310  29.314  33.109  1.00  0.00    -0.443 OA
ATOM     20  C   UNL A   1      40.803  29.759  35.373  1.00  0.00     0.165 C 
ATOM     21  H   UNL A   1      42.538  28.524  35.224  1.00  0.00     0.167 HD
ENDBRANCH  14  15
ENDBRANCH  13  14
ENDBRANCH   8  13
ENDBRANCH   5   7
ENDBRANCH   4   5
ENDBRANCH   3   4
ENDBRANCH   2   3
ENDBRANCH   1   2
BRANCH   1  22
ATOM     22  C   UNL A   1      33.941  34.359  28.918  1.00  0.00     0.202 C 
BRANCH  22  23
ATOM     23  C   UNL A   1      33.806  33.075  28.089  1.00  0.00     0.261 C 
BRANCH  23  24
ATOM     24  O   UNL A   1      35.007  32.284  28.077  1.00  0.00    -0.460 OA
BRANCH  24  25
ATOM     25  C   UNL A   1      34.786  30.947  28.021  1.00  0.00     0.338 C 
ATOM     26  O   UNL A   1      33.748  30.386  27.712  1.00  0.00    -0.246 OA
BRANCH  25  27
ATOM     27  C   UNL A   1      36.053  30.211  28.197  1.00  0.00     0.060 A 
ATOM     28  C   UNL A   1      36.314  29.681  29.467  1.00  0.00     0.016 A 
ATOM     29  C   UNL A   1      37.009  30.140  27.184  1.00  0.00     0.016 A 
ATOM     30  C   UNL A   1      37.567  29.151  29.755  1.00  0.00     0.010 A 
ATOM     31  C   UNL A   1      38.271  29.612  27.477  1.00  0.00     0.010 A 
ATOM     32  C   UNL A   1      38.572  29.172  28.780  1.00  0.00    -0.014 A 
BRANCH  32  33
ATOM     33  C   UNL A   1      39.974  28.932  29.197  1.00  0.00     0.031 A 
ATOM     34  C   UNL A   1      40.614  27.609  28.856  1.00  0.00     0.074 A 
ATOM     35  C   UNL A   1      40.692  29.896  29.800  1.00  0.00     0.049 A 
ATOM     36  N   UNL A   1      41.831  27.191  29.091  1.00  0.00    -0.248 NA
ATOM     37  C   UNL A   1      39.765  26.627  28.161  1.00  0.00     0.031 C 
ATOM     38  C   UNL A   1      40.200  31.232  30.138  1.00  0.00     0.029 A 
ATOM     39  N   UNL A   1      41.996  29.899  30.225  1.00  0.00    -0.354 N 
ATOM     40  C   UNL A   1      41.890  25.898  28.582  1.00  0.00     0.074 A 
ATOM     41  C   UNL A   1      40.577  25.584  28.065  1.00  0.00     0.031 C 
ATOM     42  C   UNL A   1      41.196  31.928  30.714  1.00  0.00     0.029 A 
ATOM     43  C   UNL A   1      42.382  31.079  30.813  1.00  0.00     0.049 A 
ATOM     44  H   UNL A   1      42.600  29.128  30.118  1.00  0.00     0.167 HD
ATOM     45  C   UNL A   1      42.946  25.050  28.538  1.00  0.00     0.031 A 
ATOM     46  C   UNL A   1      43.554  31.431  31.375  1.00  0.00     0.031 A 
ATOM     47  C   UNL A   1      44.250  25.363  29.060  1.00  0.00     0.049 A 
ATOM     48  C   UNL A   1      44.698  30.451  31.364  1.00  0.00     0.074 A 
ATOM     49  C   UNL A   1      45.390  24.578  29.055  1.00  0.00     0.029 A 
ATOM     50  N   UNL A   1      44.589  26.556  29.681  1.00  0.00    -0.354 N 
ATOM     51  N   UNL A   1      44.743  29.236  30.868  1.00  0.00    -0.248 NA
ATOM     52  C   UNL A   1      45.958  30.900  31.972  1.00  0.00     0.031 C 
ATOM     53  C   UNL A   1      46.401  25.272  29.729  1.00  0.00     0.029 A 
ATOM     54  C   UNL A   1      45.914  26.520  30.084  1.00  0.00     0.049 A 
ATOM     55  H   UNL A   1      43.978  27.315  29.816  1.00  0.00     0.167 HD
ATOM     56  C   UNL A   1      46.048  28.793  31.067  1.00  0.00     0.074 A 
ATOM     57  C   UNL A   1      46.759  29.874  31.717  1.00  0.00     0.031 C 
ATOM     58  C   UNL A   1      46.609  27.602  30.734  1.00  0.00     0.031 A 
BRANCH  45  59
ATOM     59  C   UNL A   1      42.719  23.685  27.937  1.00  0.00    -0.014 A 
ATOM     60  C   UNL A   1      42.370  22.579  28.734  1.00  0.00     0.010 A 
ATOM     61  C   UNL A   1      42.831  23.514  26.546  1.00  0.00     0.010 A 
ATOM     62  C   UNL A   1      42.180  21.321  28.156  1.00  0.00     0.020 A 
ATOM     63  C   UNL A   1      42.609  22.265  25.959  1.00  0.00     0.020 A 
ATOM     64  C   UNL A   1      42.303  21.172  26.771  1.00  0.00     0.054 A 
BRANCH  64  65
ATOM     65  S   UNL A   1      42.032  19.531  26.046  1.00  0.00     0.124 S 
ATOM     66  O   UNL A   1      42.518  18.650  27.105  1.00  0.00    -0.237 OA
ATOM     67  O   UNL A   1      40.589  19.512  25.825  1.00  0.00    -0.237 OA
ATOM     68  O   UNL A   1      42.846  19.551  24.832  1.00  0.00    -0.744 OA
ENDBRANCH  64  65
ENDBRANCH  45  59
BRANCH  46  69
ATOM     69  C   UNL A   1      43.708  32.777  31.995  1.00  0.00    -0.014 A 
ATOM     70  C   UNL A   1      44.433  33.792  31.347  1.00  0.00     0.010 A 
ATOM     71  C   UNL A   1      43.127  33.047  33.248  1.00  0.00     0.010 A 
ATOM     72  C   UNL A   1      44.592  35.044  31.950  1.00  0.00     0.020 A 
ATOM     73  C   UNL A   1      43.256  34.306  33.838  1.00  0.00     0.020 A 
ATOM     74  C   UNL A   1      43.999  35.294  33.190  1.00  0.00     0.054 A 
BRANCH  74  75
ATOM     75  S   UNL A   1      44.178  36.940  33.930  1.00  0.00     0.124 S 
ATOM     76  O   UNL A   1      42.794  37.398  33.997  1.00  0.00    -0.237 OA
ATOM     77  O   UNL A   1      44.809  36.639  35.214  1.00  0.00    -0.237 OA
ATOM     78  O   UNL A   1      45.028  37.652  32.979  1.00  0.00    -0.744 OA
ENDBRANCH  74  75
ENDBRANCH  46  69
BRANCH  58  79
ATOM     79  C   UNL A   1      48.081  27.430  31.013  1.00  0.00    -0.014 A 
ATOM     80  C   UNL A   1      49.064  27.865  30.106  1.00  0.00     0.010 A 
ATOM     81  C   UNL A   1      48.485  26.831  32.221  1.00  0.00     0.010 A 
ATOM     82  C   UNL A   1      50.419  27.647  30.374  1.00  0.00     0.020 A 
ATOM     83  C   UNL A   1      49.839  26.646  32.510  1.00  0.00     0.020 A 
ATOM     84  C   UNL A   1      50.797  27.033  31.571  1.00  0.00     0.054 A 
BRANCH  84  85
ATOM     85  S   UNL A   1      52.560  26.757  31.895  1.00  0.00     0.124 S 
ATOM     86  O   UNL A   1      53.094  28.116  31.846  1.00  0.00    -0.237 OA
ATOM     87  O   UNL A   1      52.550  26.132  33.215  1.00  0.00    -0.237 OA
ATOM     88  O   UNL A   1      52.982  25.883  30.803  1.00  0.00    -0.744 OA
ENDBRANCH  84  85
ENDBRANCH  58  79
ENDBRANCH  32  33
ENDBRANCH  25  27
ENDBRANCH  24  25
ENDBRANCH  23  24
ENDBRANCH  22  23
ENDBRANCH   1  22
TORSDOF 20
ENDMDL
