MODEL 1
REMARK VINA RESULT:     -10.7      0.000      0.000
REMARK SMILES CC1(C)C(NC(=O)N[C@H]2CCCC[C@H]2C(=O)OCCOCCOC(=O)c2ccc(-c3c4nc(c(-c5ccc(S(=O)(=O)[O-])cc5)c5ccc([nH]5)c(-c5ccc(S(=O)(=O)[O-])cc5)c5nc(c(-c6ccc(S(=O)(=O)[O-])cc6)c6ccc3[nH]6)C=C5)C=C4)cc2)C1(C)C
REMARK SMILES IDX 21 1 20 2 19 3 18 4 17 5 15 6 16 7 14 8 9 9 10 10 11 11
REMARK SMILES IDX 13 12 12 13 8 14 5 15 6 16 7 18 4 20 1 21 2 22 3 23 86 24
REMARK SMILES IDX 87 25 88 26 22 27 23 28 24 29 25 30 26 31 27 32 85 33 28 34
REMARK SMILES IDX 84 35 29 36 30 37 31 38 78 39 32 40 83 41 77 42 79 43 33 44
REMARK SMILES IDX 82 45 76 46 75 47 34 49 64 50 45 51 63 52 46 53 49 54 62 55
REMARK SMILES IDX 80 56 47 57 48 58 61 60 81 61 50 62 35 63 36 64 44 65 37 66
REMARK SMILES IDX 43 67 38 68 39 69 40 70 41 71 42 72 65 73 66 74 74 75 67 76
REMARK SMILES IDX 73 77 68 78 69 79 70 80 71 81 72 82 51 83 52 84 60 85 53 86
REMARK SMILES IDX 59 87 54 88 55 89 56 90 57 91 58 92
REMARK H PARENT 5 17 8 19 79 48 49 59
REMARK Flexibility Score: inf
ROOT
ATOM      1  C   UNL A   1      40.020  22.168  26.905  1.00  0.00     0.202 C 
ENDROOT
BRANCH   1   2
ATOM      2  O   UNL A   1      39.508  21.544  25.728  1.00  0.00    -0.374 OA
BRANCH   2   3
ATOM      3  C   UNL A   1      38.088  21.438  25.627  1.00  0.00     0.202 C 
BRANCH   3   4
ATOM      4  C   UNL A   1      37.315  22.759  25.560  1.00  0.00     0.261 C 
BRANCH   4   5
ATOM      5  O   UNL A   1      35.930  22.614  25.934  1.00  0.00    -0.463 OA
BRANCH   5   6
ATOM      6  C   UNL A   1      35.102  23.580  25.468  1.00  0.00     0.311 C 
ATOM      7  O   UNL A   1      35.313  24.787  25.547  1.00  0.00    -0.252 OA
BRANCH   6   8
ATOM      8  C   UNL A   1      33.823  23.039  24.870  1.00  0.00     0.121 C 
ATOM      9  C   UNL A   1      32.866  24.036  24.176  1.00  0.00     0.098 C 
ATOM     10  C   UNL A   1      31.584  23.287  23.736  1.00  0.00     0.026 C 
ATOM     11  C   UNL A   1      31.859  21.992  22.974  1.00  0.00     0.002 C 
ATOM     12  C   UNL A   1      34.092  21.763  24.079  1.00  0.00     0.017 C 
ATOM     13  C   UNL A   1      32.775  21.066  23.757  1.00  0.00     0.001 C 
BRANCH   9  14
ATOM     14  N   UNL A   1      33.394  24.792  23.045  1.00  0.00    -0.335 N 
ATOM     15  N   UNL A   1      32.896  27.086  23.528  1.00  0.00    -0.334 N 
ATOM     16  C   UNL A   1      33.379  26.105  22.728  1.00  0.00     0.315 C 
ATOM     17  H   UNL A   1      33.012  27.989  23.151  1.00  0.00     0.165 HD
ATOM     18  O   UNL A   1      33.831  26.435  21.628  1.00  0.00    -0.249 OA
ATOM     19  H   UNL A   1      33.855  24.232  22.379  1.00  0.00     0.165 HD
BRANCH  15  20
ATOM     20  C   UNL A   1      32.256  27.089  24.798  1.00  0.00     0.096 C 
ATOM     21  C   UNL A   1      31.772  28.542  26.842  1.00  0.00     0.014 C 
ATOM     22  C   UNL A   1      31.479  28.246  25.384  1.00  0.00    -0.007 C 
ATOM     23  C   UNL A   1      31.241  29.513  24.593  1.00  0.00     0.014 C 
ATOM     24  C   UNL A   1      30.757  26.944  24.971  1.00  0.00    -0.007 C 
ATOM     25  C   UNL A   1      30.321  25.925  26.007  1.00  0.00     0.014 C 
ATOM     26  C   UNL A   1      29.841  26.933  23.767  1.00  0.00     0.014 C 
ENDBRANCH  15  20
ENDBRANCH   9  14
ENDBRANCH   6   8
ENDBRANCH   5   6
ENDBRANCH   4   5
ENDBRANCH   3   4
ENDBRANCH   2   3
ENDBRANCH   1   2
BRANCH   1  27
ATOM     27  C   UNL A   1      40.904  23.397  26.689  1.00  0.00     0.261 C 
BRANCH  27  28
ATOM     28  O   UNL A   1      40.634  24.430  27.648  1.00  0.00    -0.460 OA
BRANCH  28  29
ATOM     29  C   UNL A   1      40.542  25.679  27.141  1.00  0.00     0.338 C 
ATOM     30  O   UNL A   1      40.520  25.991  25.954  1.00  0.00    -0.246 OA
BRANCH  29  31
ATOM     31  C   UNL A   1      40.274  26.644  28.220  1.00  0.00     0.060 A 
ATOM     32  C   UNL A   1      41.037  27.817  28.242  1.00  0.00     0.016 A 
ATOM     33  C   UNL A   1      39.338  26.389  29.223  1.00  0.00     0.016 A 
ATOM     34  C   UNL A   1      40.906  28.714  29.300  1.00  0.00     0.010 A 
ATOM     35  C   UNL A   1      39.204  27.292  30.283  1.00  0.00     0.010 A 
ATOM     36  C   UNL A   1      40.018  28.435  30.348  1.00  0.00    -0.014 A 
BRANCH  36  37
ATOM     37  C   UNL A   1      40.065  29.259  31.580  1.00  0.00     0.031 A 
ATOM     38  C   UNL A   1      41.185  29.035  32.560  1.00  0.00     0.074 A 
ATOM     39  C   UNL A   1      39.153  30.223  31.801  1.00  0.00     0.049 A 
ATOM     40  N   UNL A   1      41.435  29.649  33.687  1.00  0.00    -0.248 NA
ATOM     41  C   UNL A   1      42.156  27.979  32.222  1.00  0.00     0.031 C 
ATOM     42  C   UNL A   1      38.044  30.558  30.908  1.00  0.00     0.029 A 
ATOM     43  N   UNL A   1      39.021  31.101  32.848  1.00  0.00    -0.354 N 
ATOM     44  C   UNL A   1      42.584  29.052  34.195  1.00  0.00     0.074 A 
ATOM     45  C   UNL A   1      42.963  28.007  33.271  1.00  0.00     0.031 C 
ATOM     46  C   UNL A   1      37.344  31.573  31.445  1.00  0.00     0.029 A 
ATOM     47  C   UNL A   1      37.937  31.938  32.731  1.00  0.00     0.049 A 
ATOM     48  H   UNL A   1      39.642  31.128  33.610  1.00  0.00     0.167 HD
ATOM     49  C   UNL A   1      43.268  29.353  35.326  1.00  0.00     0.031 A 
ATOM     50  C   UNL A   1      37.468  32.880  33.573  1.00  0.00     0.031 A 
ATOM     51  C   UNL A   1      42.878  30.383  36.250  1.00  0.00     0.049 A 
ATOM     52  C   UNL A   1      38.204  33.150  34.859  1.00  0.00     0.074 A 
ATOM     53  C   UNL A   1      43.510  30.776  37.418  1.00  0.00     0.029 A 
ATOM     54  N   UNL A   1      41.750  31.179  36.119  1.00  0.00    -0.354 N 
ATOM     55  N   UNL A   1      39.306  32.597  35.311  1.00  0.00    -0.248 NA
ATOM     56  C   UNL A   1      37.639  34.178  35.745  1.00  0.00     0.031 C 
ATOM     57  C   UNL A   1      42.733  31.771  38.020  1.00  0.00     0.029 A 
ATOM     58  C   UNL A   1      41.652  32.043  37.196  1.00  0.00     0.049 A 
ATOM     59  H   UNL A   1      41.113  31.137  35.368  1.00  0.00     0.167 HD
ATOM     60  C   UNL A   1      39.580  33.229  36.520  1.00  0.00     0.074 A 
ATOM     61  C   UNL A   1      38.536  34.214  36.722  1.00  0.00     0.031 C 
ATOM     62  C   UNL A   1      40.605  33.016  37.383  1.00  0.00     0.031 A 
BRANCH  49  63
ATOM     63  C   UNL A   1      44.490  28.530  35.636  1.00  0.00    -0.014 A 
ATOM     64  C   UNL A   1      45.768  28.930  35.207  1.00  0.00     0.010 A 
ATOM     65  C   UNL A   1      44.361  27.350  36.393  1.00  0.00     0.010 A 
ATOM     66  C   UNL A   1      46.889  28.145  35.491  1.00  0.00     0.020 A 
ATOM     67  C   UNL A   1      45.482  26.576  36.703  1.00  0.00     0.020 A 
ATOM     68  C   UNL A   1      46.738  26.969  36.234  1.00  0.00     0.054 A 
BRANCH  68  69
ATOM     69  S   UNL A   1      48.211  25.976  36.602  1.00  0.00     0.124 S 
ATOM     70  O   UNL A   1      49.078  26.294  35.470  1.00  0.00    -0.237 OA
ATOM     71  O   UNL A   1      48.643  26.507  37.892  1.00  0.00    -0.237 OA
ATOM     72  O   UNL A   1      47.707  24.605  36.634  1.00  0.00    -0.744 OA
ENDBRANCH  68  69
ENDBRANCH  49  63
BRANCH  50  73
ATOM     73  C   UNL A   1      36.230  33.633  33.229  1.00  0.00    -0.014 A 
ATOM     74  C   UNL A   1      34.962  33.116  33.548  1.00  0.00     0.010 A 
ATOM     75  C   UNL A   1      36.318  34.879  32.582  1.00  0.00     0.010 A 
ATOM     76  C   UNL A   1      33.804  33.827  33.216  1.00  0.00     0.020 A 
ATOM     77  C   UNL A   1      35.164  35.605  32.273  1.00  0.00     0.020 A 
ATOM     78  C   UNL A   1      33.913  35.070  32.583  1.00  0.00     0.054 A 
BRANCH  78  79
ATOM     79  S   UNL A   1      32.399  36.000  32.215  1.00  0.00     0.124 S 
ATOM     80  O   UNL A   1      31.359  35.027  32.530  1.00  0.00    -0.237 OA
ATOM     81  O   UNL A   1      32.499  37.138  33.125  1.00  0.00    -0.237 OA
ATOM     82  O   UNL A   1      32.539  36.332  30.798  1.00  0.00    -0.744 OA
ENDBRANCH  78  79
ENDBRANCH  50  73
BRANCH  62  83
ATOM     83  C   UNL A   1      40.671  33.885  38.611  1.00  0.00    -0.014 A 
ATOM     84  C   UNL A   1      41.347  35.117  38.599  1.00  0.00     0.010 A 
ATOM     85  C   UNL A   1      39.993  33.487  39.779  1.00  0.00     0.010 A 
ATOM     86  C   UNL A   1      41.370  35.923  39.742  1.00  0.00     0.020 A 
ATOM     87  C   UNL A   1      39.990  34.301  40.914  1.00  0.00     0.020 A 
ATOM     88  C   UNL A   1      40.691  35.508  40.892  1.00  0.00     0.054 A 
BRANCH  88  89
ATOM     89  S   UNL A   1      40.697  36.592  42.348  1.00  0.00     0.124 S 
ATOM     90  O   UNL A   1      39.352  37.160  42.309  1.00  0.00    -0.237 OA
ATOM     91  O   UNL A   1      40.953  35.658  43.442  1.00  0.00    -0.237 OA
ATOM     92  O   UNL A   1      41.780  37.533  42.074  1.00  0.00    -0.744 OA
ENDBRANCH  88  89
ENDBRANCH  62  83
ENDBRANCH  36  37
ENDBRANCH  29  31
ENDBRANCH  28  29
ENDBRANCH  27  28
ENDBRANCH   1  27
TORSDOF 19
ENDMDL
MODEL 2
REMARK VINA RESULT:     -10.7      1.396      1.819
REMARK SMILES CC1(C)C(NC(=O)N[C@H]2CCCC[C@H]2C(=O)OCCOCCOC(=O)c2ccc(-c3c4nc(c(-c5ccc(S(=O)(=O)[O-])cc5)c5ccc([nH]5)c(-c5ccc(S(=O)(=O)[O-])cc5)c5nc(c(-c6ccc(S(=O)(=O)[O-])cc6)c6ccc3[nH]6)C=C5)C=C4)cc2)C1(C)C
REMARK SMILES IDX 21 1 20 2 19 3 18 4 17 5 15 6 16 7 14 8 9 9 10 10 11 11
REMARK SMILES IDX 13 12 12 13 8 14 5 15 6 16 7 18 4 20 1 21 2 22 3 23 86 24
REMARK SMILES IDX 87 25 88 26 22 27 23 28 24 29 25 30 26 31 27 32 85 33 28 34
REMARK SMILES IDX 84 35 29 36 30 37 31 38 78 39 32 40 83 41 77 42 79 43 33 44
REMARK SMILES IDX 82 45 76 46 75 47 34 49 64 50 45 51 63 52 46 53 49 54 62 55
REMARK SMILES IDX 80 56 47 57 48 58 61 60 81 61 50 62 35 63 36 64 44 65 37 66
REMARK SMILES IDX 43 67 38 68 39 69 40 70 41 71 42 72 65 73 66 74 74 75 67 76
REMARK SMILES IDX 73 77 68 78 69 79 70 80 71 81 72 82 51 83 52 84 60 85 53 86
REMARK SMILES IDX 59 87 54 88 55 89 56 90 57 91 58 92
REMARK H PARENT 5 17 8 19 79 48 49 59
REMARK Flexibility Score: inf
ROOT
ATOM      1  C   UNL A   1      39.680  22.168  26.790  1.00  0.00     0.202 C 
ENDROOT
BRANCH   1   2
ATOM      2  O   UNL A   1      39.146  21.513  25.640  1.00  0.00    -0.374 OA
BRANCH   2   3
ATOM      3  C   UNL A   1      37.800  21.830  25.290  1.00  0.00     0.202 C 
BRANCH   3   4
ATOM      4  C   UNL A   1      37.190  23.051  25.985  1.00  0.00     0.261 C 
BRANCH   4   5
ATOM      5  O   UNL A   1      35.778  22.904  26.233  1.00  0.00    -0.463 OA
BRANCH   5   6
ATOM      6  C   UNL A   1      34.977  23.734  25.520  1.00  0.00     0.311 C 
ATOM      7  O   UNL A   1      35.146  24.944  25.399  1.00  0.00    -0.252 OA
BRANCH   6   8
ATOM      8  C   UNL A   1      33.783  23.036  24.907  1.00  0.00     0.121 C 
ATOM      9  C   UNL A   1      32.768  23.893  24.115  1.00  0.00     0.098 C 
ATOM     10  C   UNL A   1      31.584  22.999  23.673  1.00  0.00     0.026 C 
ATOM     11  C   UNL A   1      32.015  21.695  23.004  1.00  0.00     0.002 C 
ATOM     12  C   UNL A   1      34.208  21.749  24.208  1.00  0.00     0.017 C 
ATOM     13  C   UNL A   1      32.979  20.910  23.879  1.00  0.00     0.001 C 
BRANCH   9  14
ATOM     14  N   UNL A   1      33.273  24.631  22.961  1.00  0.00    -0.335 N 
ATOM     15  N   UNL A   1      32.692  26.921  23.368  1.00  0.00    -0.334 N 
ATOM     16  C   UNL A   1      33.212  25.932  22.602  1.00  0.00     0.315 C 
ATOM     17  H   UNL A   1      32.777  27.814  22.962  1.00  0.00     0.165 HD
ATOM     18  O   UNL A   1      33.655  26.241  21.492  1.00  0.00    -0.249 OA
ATOM     19  H   UNL A   1      33.756  24.066  22.316  1.00  0.00     0.165 HD
BRANCH  15  20
ATOM     20  C   UNL A   1      32.048  26.942  24.636  1.00  0.00     0.096 C 
ATOM     21  C   UNL A   1      31.594  28.411  26.676  1.00  0.00     0.014 C 
ATOM     22  C   UNL A   1      31.298  28.119  25.217  1.00  0.00    -0.007 C 
ATOM     23  C   UNL A   1      31.095  29.391  24.423  1.00  0.00     0.014 C 
ATOM     24  C   UNL A   1      30.545  26.835  24.804  1.00  0.00    -0.007 C 
ATOM     25  C   UNL A   1      30.080  25.830  25.841  1.00  0.00     0.014 C 
ATOM     26  C   UNL A   1      29.633  26.845  23.598  1.00  0.00     0.014 C 
ENDBRANCH  15  20
ENDBRANCH   9  14
ENDBRANCH   6   8
ENDBRANCH   5   6
ENDBRANCH   4   5
ENDBRANCH   3   4
ENDBRANCH   2   3
ENDBRANCH   1   2
BRANCH   1  27
ATOM     27  C   UNL A   1      40.846  23.126  26.542  1.00  0.00     0.261 C 
BRANCH  27  28
ATOM     28  O   UNL A   1      40.399  24.470  26.307  1.00  0.00    -0.460 OA
BRANCH  28  29
ATOM     29  C   UNL A   1      41.375  25.401  26.249  1.00  0.00     0.338 C 
ATOM     30  O   UNL A   1      42.052  25.699  25.269  1.00  0.00    -0.246 OA
BRANCH  29  31
ATOM     31  C   UNL A   1      41.406  26.179  27.499  1.00  0.00     0.060 A 
ATOM     32  C   UNL A   1      40.339  26.015  28.390  1.00  0.00     0.016 A 
ATOM     33  C   UNL A   1      42.424  27.092  27.775  1.00  0.00     0.016 A 
ATOM     34  C   UNL A   1      40.258  26.805  29.534  1.00  0.00     0.010 A 
ATOM     35  C   UNL A   1      42.344  27.884  28.926  1.00  0.00     0.010 A 
ATOM     36  C   UNL A   1      41.239  27.774  29.787  1.00  0.00    -0.014 A 
BRANCH  36  37
ATOM     37  C   UNL A   1      41.017  28.772  30.861  1.00  0.00     0.031 A 
ATOM     38  C   UNL A   1      41.929  28.764  32.058  1.00  0.00     0.074 A 
ATOM     39  C   UNL A   1      40.050  29.701  30.751  1.00  0.00     0.049 A 
ATOM     40  N   UNL A   1      41.934  29.551  33.102  1.00  0.00    -0.248 NA
ATOM     41  C   UNL A   1      42.980  27.731  32.079  1.00  0.00     0.031 C 
ATOM     42  C   UNL A   1      39.128  29.832  29.623  1.00  0.00     0.029 A 
ATOM     43  N   UNL A   1      39.687  30.713  31.603  1.00  0.00    -0.354 N 
ATOM     44  C   UNL A   1      42.978  29.107  33.905  1.00  0.00     0.074 A 
ATOM     45  C   UNL A   1      43.564  27.962  33.245  1.00  0.00     0.031 C 
ATOM     46  C   UNL A   1      38.305  30.871  29.852  1.00  0.00     0.029 A 
ATOM     47  C   UNL A   1      38.622  31.456  31.153  1.00  0.00     0.049 A 
ATOM     48  H   UNL A   1      40.146  30.891  32.456  1.00  0.00     0.167 HD
ATOM     49  C   UNL A   1      43.417  29.613  35.083  1.00  0.00     0.031 A 
ATOM     50  C   UNL A   1      37.967  32.482  31.734  1.00  0.00     0.031 A 
ATOM     51  C   UNL A   1      42.820  30.742  35.744  1.00  0.00     0.049 A 
ATOM     52  C   UNL A   1      38.428  32.983  33.078  1.00  0.00     0.074 A 
ATOM     53  C   UNL A   1      43.198  31.341  36.934  1.00  0.00     0.029 A 
ATOM     54  N   UNL A   1      41.716  31.440  35.278  1.00  0.00    -0.354 N 
ATOM     55  N   UNL A   1      39.435  32.571  33.810  1.00  0.00    -0.248 NA
ATOM     56  C   UNL A   1      37.668  34.094  33.668  1.00  0.00     0.031 C 
ATOM     57  C   UNL A   1      42.287  32.365  37.215  1.00  0.00     0.029 A 
ATOM     58  C   UNL A   1      41.381  32.446  36.169  1.00  0.00     0.049 A 
ATOM     59  H   UNL A   1      41.241  31.249  34.437  1.00  0.00     0.167 HD
ATOM     60  C   UNL A   1      39.447  33.390  34.936  1.00  0.00     0.074 A 
ATOM     61  C   UNL A   1      38.354  34.328  34.779  1.00  0.00     0.031 C 
ATOM     62  C   UNL A   1      40.288  33.370  36.000  1.00  0.00     0.031 A 
BRANCH  49  63
ATOM     63  C   UNL A   1      44.579  28.921  35.745  1.00  0.00    -0.014 A 
ATOM     64  C   UNL A   1      45.906  29.307  35.480  1.00  0.00     0.010 A 
ATOM     65  C   UNL A   1      44.340  27.884  36.666  1.00  0.00     0.010 A 
ATOM     66  C   UNL A   1      46.972  28.642  36.092  1.00  0.00     0.020 A 
ATOM     67  C   UNL A   1      45.402  27.236  37.302  1.00  0.00     0.020 A 
ATOM     68  C   UNL A   1      46.713  27.606  36.996  1.00  0.00     0.054 A 
BRANCH  68  69
ATOM     69  S   UNL A   1      48.116  26.770  37.787  1.00  0.00     0.124 S 
ATOM     70  O   UNL A   1      48.165  27.431  39.088  1.00  0.00    -0.237 OA
ATOM     71  O   UNL A   1      47.688  25.374  37.807  1.00  0.00    -0.237 OA
ATOM     72  O   UNL A   1      49.239  27.060  36.898  1.00  0.00    -0.744 OA
ENDBRANCH  68  69
ENDBRANCH  49  63
BRANCH  50  73
ATOM     73  C   UNL A   1      36.799  33.099  31.047  1.00  0.00    -0.014 A 
ATOM     74  C   UNL A   1      35.499  32.945  31.562  1.00  0.00     0.010 A 
ATOM     75  C   UNL A   1      36.985  33.852  29.873  1.00  0.00     0.010 A 
ATOM     76  C   UNL A   1      34.406  33.523  30.908  1.00  0.00     0.020 A 
ATOM     77  C   UNL A   1      35.897  34.453  29.233  1.00  0.00     0.020 A 
ATOM     78  C   UNL A   1      34.613  34.277  29.749  1.00  0.00     0.054 A 
BRANCH  78  79
ATOM     79  S   UNL A   1      33.187  35.065  28.951  1.00  0.00     0.124 S 
ATOM     80  O   UNL A   1      32.796  34.063  27.966  1.00  0.00    -0.237 OA
ATOM     81  O   UNL A   1      32.264  35.252  30.067  1.00  0.00    -0.237 OA
ATOM     82  O   UNL A   1      33.744  36.300  28.402  1.00  0.00    -0.744 OA
ENDBRANCH  78  79
ENDBRANCH  50  73
BRANCH  62  83
ATOM     83  C   UNL A   1      40.085  34.413  37.067  1.00  0.00    -0.014 A 
ATOM     84  C   UNL A   1      40.661  35.691  36.959  1.00  0.00     0.010 A 
ATOM     85  C   UNL A   1      39.253  34.127  38.165  1.00  0.00     0.010 A 
ATOM     86  C   UNL A   1      40.433  36.654  37.947  1.00  0.00     0.020 A 
ATOM     87  C   UNL A   1      39.000  35.095  39.140  1.00  0.00     0.020 A 
ATOM     88  C   UNL A   1      39.604  36.349  39.031  1.00  0.00     0.054 A 
BRANCH  88  89
ATOM     89  S   UNL A   1      39.288  37.631  40.276  1.00  0.00     0.124 S 
ATOM     90  O   UNL A   1      38.845  36.840  41.421  1.00  0.00    -0.237 OA
ATOM     91  O   UNL A   1      40.595  38.268  40.420  1.00  0.00    -0.237 OA
ATOM     92  O   UNL A   1      38.260  38.465  39.660  1.00  0.00    -0.744 OA
ENDBRANCH  88  89
ENDBRANCH  62  83
ENDBRANCH  36  37
ENDBRANCH  29  31
ENDBRANCH  28  29
ENDBRANCH  27  28
ENDBRANCH   1  27
TORSDOF 19
ENDMDL
MODEL 3
REMARK VINA RESULT:     -10.4      6.238      8.303
REMARK SMILES CC1(C)C(NC(=O)N[C@H]2CCCC[C@H]2C(=O)OCCOCCOC(=O)c2ccc(-c3c4nc(c(-c5ccc(S(=O)(=O)[O-])cc5)c5ccc([nH]5)c(-c5ccc(S(=O)(=O)[O-])cc5)c5nc(c(-c6ccc(S(=O)(=O)[O-])cc6)c6ccc3[nH]6)C=C5)C=C4)cc2)C1(C)C
REMARK SMILES IDX 21 1 20 2 19 3 18 4 17 5 15 6 16 7 14 8 9 9 10 10 11 11
REMARK SMILES IDX 13 12 12 13 8 14 5 15 6 16 7 18 4 20 1 21 2 22 3 23 86 24
REMARK SMILES IDX 87 25 88 26 22 27 23 28 24 29 25 30 26 31 27 32 85 33 28 34
REMARK SMILES IDX 84 35 29 36 30 37 31 38 78 39 32 40 83 41 77 42 79 43 33 44
REMARK SMILES IDX 82 45 76 46 75 47 34 49 64 50 45 51 63 52 46 53 49 54 62 55
REMARK SMILES IDX 80 56 47 57 48 58 61 60 81 61 50 62 35 63 36 64 44 65 37 66
REMARK SMILES IDX 43 67 38 68 39 69 40 70 41 71 42 72 65 73 66 74 74 75 67 76
REMARK SMILES IDX 73 77 68 78 69 79 70 80 71 81 72 82 51 83 52 84 60 85 53 86
REMARK SMILES IDX 59 87 54 88 55 89 56 90 57 91 58 92
REMARK H PARENT 5 17 8 19 79 48 49 59
REMARK Flexibility Score: inf
ROOT
ATOM      1  C   UNL A   1      38.269  20.469  24.989  1.00  0.00     0.202 C 
ENDROOT
BRANCH   1   2
ATOM      2  O   UNL A   1      37.495  21.369  25.781  1.00  0.00    -0.374 OA
BRANCH   2   3
ATOM      3  C   UNL A   1      37.882  22.742  25.751  1.00  0.00     0.202 C 
BRANCH   3   4
ATOM      4  C   UNL A   1      36.752  23.766  25.894  1.00  0.00     0.261 C 
BRANCH   4   5
ATOM      5  O   UNL A   1      35.464  23.150  26.098  1.00  0.00    -0.463 OA
BRANCH   5   6
ATOM      6  C   UNL A   1      34.401  23.882  25.683  1.00  0.00     0.311 C 
ATOM      7  O   UNL A   1      34.209  25.063  25.957  1.00  0.00    -0.252 OA
BRANCH   6   8
ATOM      8  C   UNL A   1      33.405  23.086  24.869  1.00  0.00     0.121 C 
ATOM      9  C   UNL A   1      32.476  23.857  23.902  1.00  0.00     0.098 C 
ATOM     10  C   UNL A   1      31.476  22.864  23.260  1.00  0.00     0.026 C 
ATOM     11  C   UNL A   1      32.135  21.611  22.688  1.00  0.00     0.002 C 
ATOM     12  C   UNL A   1      34.063  21.849  24.266  1.00  0.00     0.017 C 
ATOM     13  C   UNL A   1      32.993  20.906  23.726  1.00  0.00     0.001 C 
BRANCH   9  14
ATOM     14  N   UNL A   1      33.111  24.648  22.853  1.00  0.00    -0.335 N 
ATOM     15  N   UNL A   1      32.774  26.934  23.491  1.00  0.00    -0.334 N 
ATOM     16  C   UNL A   1      33.214  25.978  22.638  1.00  0.00     0.315 C 
ATOM     17  H   UNL A   1      32.978  27.849  23.189  1.00  0.00     0.165 HD
ATOM     18  O   UNL A   1      33.737  26.349  21.584  1.00  0.00    -0.249 OA
ATOM     19  H   UNL A   1      33.556  24.102  22.165  1.00  0.00     0.165 HD
BRANCH  15  20
ATOM     20  C   UNL A   1      32.081  26.896  24.733  1.00  0.00     0.096 C 
ATOM     21  C   UNL A   1      31.673  28.204  26.889  1.00  0.00     0.014 C 
ATOM     22  C   UNL A   1      31.415  28.078  25.400  1.00  0.00    -0.007 C 
ATOM     23  C   UNL A   1      31.360  29.432  24.726  1.00  0.00     0.014 C 
ATOM     24  C   UNL A   1      30.569  26.913  24.839  1.00  0.00    -0.007 C 
ATOM     25  C   UNL A   1      29.973  25.863  25.756  1.00  0.00     0.014 C 
ATOM     26  C   UNL A   1      29.714  27.121  23.608  1.00  0.00     0.014 C 
ENDBRANCH  15  20
ENDBRANCH   9  14
ENDBRANCH   6   8
ENDBRANCH   5   6
ENDBRANCH   4   5
ENDBRANCH   3   4
ENDBRANCH   2   3
ENDBRANCH   1   2
BRANCH   1  27
ATOM     27  C   UNL A   1      39.097  19.435  25.754  1.00  0.00     0.261 C 
BRANCH  27  28
ATOM     28  O   UNL A   1      40.063  20.052  26.619  1.00  0.00    -0.460 OA
BRANCH  28  29
ATOM     29  C   UNL A   1      41.354  19.839  26.287  1.00  0.00     0.338 C 
ATOM     30  O   UNL A   1      41.817  18.845  25.734  1.00  0.00    -0.246 OA
BRANCH  29  31
ATOM     31  C   UNL A   1      42.141  21.063  26.506  1.00  0.00     0.060 A 
ATOM     32  C   UNL A   1      42.414  21.430  27.829  1.00  0.00     0.016 A 
ATOM     33  C   UNL A   1      42.558  21.871  25.447  1.00  0.00     0.016 A 
ATOM     34  C   UNL A   1      43.057  22.635  28.100  1.00  0.00     0.010 A 
ATOM     35  C   UNL A   1      43.207  23.080  25.720  1.00  0.00     0.010 A 
ATOM     36  C   UNL A   1      43.420  23.487  27.048  1.00  0.00    -0.014 A 
BRANCH  36  37
ATOM     37  C   UNL A   1      43.873  24.866  27.351  1.00  0.00     0.031 A 
ATOM     38  C   UNL A   1      45.317  25.223  27.120  1.00  0.00     0.074 A 
ATOM     39  C   UNL A   1      43.003  25.799  27.780  1.00  0.00     0.049 A 
ATOM     40  N   UNL A   1      45.926  26.367  27.297  1.00  0.00    -0.248 NA
ATOM     41  C   UNL A   1      46.190  24.147  26.620  1.00  0.00     0.031 C 
ATOM     42  C   UNL A   1      41.575  25.583  28.006  1.00  0.00     0.029 A 
ATOM     43  N   UNL A   1      43.200  27.120  28.098  1.00  0.00    -0.354 N 
ATOM     44  C   UNL A   1      47.251  26.147  26.937  1.00  0.00     0.074 A 
ATOM     45  C   UNL A   1      47.365  24.755  26.564  1.00  0.00     0.031 C 
ATOM     46  C   UNL A   1      41.021  26.735  28.425  1.00  0.00     0.029 A 
ATOM     47  C   UNL A   1      42.060  27.758  28.525  1.00  0.00     0.049 A 
ATOM     48  H   UNL A   1      44.073  27.567  28.028  1.00  0.00     0.167 HD
ATOM     49  C   UNL A   1      48.280  27.028  26.911  1.00  0.00     0.031 A 
ATOM     50  C   UNL A   1      41.879  29.021  28.962  1.00  0.00     0.031 A 
ATOM     51  C   UNL A   1      48.166  28.409  27.298  1.00  0.00     0.049 A 
ATOM     52  C   UNL A   1      43.053  29.964  28.991  1.00  0.00     0.074 A 
ATOM     53  C   UNL A   1      49.146  29.387  27.294  1.00  0.00     0.029 A 
ATOM     54  N   UNL A   1      47.005  29.006  27.765  1.00  0.00    -0.354 N 
ATOM     55  N   UNL A   1      44.293  29.750  28.620  1.00  0.00    -0.248 NA
ATOM     56  C   UNL A   1      42.800  31.324  29.490  1.00  0.00     0.031 C 
ATOM     57  C   UNL A   1      48.589  30.562  27.813  1.00  0.00     0.029 A 
ATOM     58  C   UNL A   1      47.249  30.333  28.080  1.00  0.00     0.049 A 
ATOM     59  H   UNL A   1      46.135  28.554  27.859  1.00  0.00     0.167 HD
ATOM     60  C   UNL A   1      44.962  30.955  28.815  1.00  0.00     0.074 A 
ATOM     61  C   UNL A   1      43.985  31.896  29.324  1.00  0.00     0.031 C 
ATOM     62  C   UNL A   1      46.265  31.256  28.589  1.00  0.00     0.031 A 
BRANCH  49  63
ATOM     63  C   UNL A   1      49.626  26.510  26.478  1.00  0.00    -0.014 A 
ATOM     64  C   UNL A   1      50.064  26.635  25.147  1.00  0.00     0.010 A 
ATOM     65  C   UNL A   1      50.478  25.911  27.424  1.00  0.00     0.010 A 
ATOM     66  C   UNL A   1      51.309  26.133  24.760  1.00  0.00     0.020 A 
ATOM     67  C   UNL A   1      51.736  25.433  27.048  1.00  0.00     0.020 A 
ATOM     68  C   UNL A   1      52.137  25.530  25.714  1.00  0.00     0.054 A 
BRANCH  68  69
ATOM     69  S   UNL A   1      53.755  24.900  25.189  1.00  0.00     0.124 S 
ATOM     70  O   UNL A   1      53.946  25.588  23.914  1.00  0.00    -0.237 OA
ATOM     71  O   UNL A   1      54.635  25.330  26.272  1.00  0.00    -0.237 OA
ATOM     72  O   UNL A   1      53.551  23.457  25.093  1.00  0.00    -0.744 OA
ENDBRANCH  68  69
ENDBRANCH  49  63
BRANCH  50  73
ATOM     73  C   UNL A   1      40.532  29.463  29.415  1.00  0.00    -0.014 A 
ATOM     74  C   UNL A   1      40.156  29.354  30.765  1.00  0.00     0.010 A 
ATOM     75  C   UNL A   1      39.617  30.003  28.492  1.00  0.00     0.010 A 
ATOM     76  C   UNL A   1      38.886  29.766  31.182  1.00  0.00     0.020 A 
ATOM     77  C   UNL A   1      38.357  30.442  28.911  1.00  0.00     0.020 A 
ATOM     78  C   UNL A   1      37.995  30.311  30.252  1.00  0.00     0.054 A 
BRANCH  78  79
ATOM     79  S   UNL A   1      36.376  30.893  30.826  1.00  0.00     0.124 S 
ATOM     80  O   UNL A   1      36.061  29.931  31.877  1.00  0.00    -0.237 OA
ATOM     81  O   UNL A   1      36.670  32.251  31.277  1.00  0.00    -0.237 OA
ATOM     82  O   UNL A   1      35.540  30.810  29.630  1.00  0.00    -0.744 OA
ENDBRANCH  78  79
ENDBRANCH  50  73
BRANCH  62  83
ATOM     83  C   UNL A   1      46.709  32.670  28.858  1.00  0.00    -0.014 A 
ATOM     84  C   UNL A   1      46.443  33.705  27.945  1.00  0.00     0.010 A 
ATOM     85  C   UNL A   1      47.350  32.974  30.073  1.00  0.00     0.010 A 
ATOM     86  C   UNL A   1      46.837  35.017  28.230  1.00  0.00     0.020 A 
ATOM     87  C   UNL A   1      47.721  34.287  30.374  1.00  0.00     0.020 A 
ATOM     88  C   UNL A   1      47.474  35.298  29.443  1.00  0.00     0.054 A 
BRANCH  88  89
ATOM     89  S   UNL A   1      47.935  37.015  29.809  1.00  0.00     0.124 S 
ATOM     90  O   UNL A   1      48.284  36.940  31.225  1.00  0.00    -0.237 OA
ATOM     91  O   UNL A   1      49.053  37.248  28.898  1.00  0.00    -0.237 OA
ATOM     92  O   UNL A   1      46.723  37.771  29.505  1.00  0.00    -0.744 OA
ENDBRANCH  88  89
ENDBRANCH  62  83
ENDBRANCH  36  37
ENDBRANCH  29  31
ENDBRANCH  28  29
ENDBRANCH  27  28
ENDBRANCH   1  27
TORSDOF 19
ENDMDL
