MODEL 1
REMARK VINA RESULT:     -11.7      0.000      0.000
REMARK SMILES Cc1ccccc1C(=O)Nc1cc(C(=O)OCCOCCOC(=O)c2ccc(-c3c4nc(c(-c5ccc(S(=O)(=O)[O-])cc5)c5ccc([nH]5)c(-c5ccc(S(=O)(=O)[O-])cc5)c5nc(c(-c6ccc(S(=O)(=O)[O-])cc6)c6ccc3[nH]6)C=C5)C=C4)cc2)ccc1N1CC[NH+](CC(=O)Nc2ccc(F)cc2)CC1
REMARK SMILES IDX 18 1 17 2 16 3 14 4 15 5 13 6 11 7 12 8 87 9 86 10 85 11
REMARK SMILES IDX 10 12 8 13 9 14 7 16 1 17 2 18 3 19 4 20 6 21 5 22 88 23
REMARK SMILES IDX 89 24 104 25 90 26 103 27 91 28 92 30 93 31 94 32 95 33
REMARK SMILES IDX 96 35 97 36 102 37 98 38 101 39 99 40 100 41 19 42 20 43
REMARK SMILES IDX 21 44 22 45 23 46 24 47 25 48 26 49 84 50 27 51 83 52 28 53
REMARK SMILES IDX 29 54 30 55 77 56 31 57 82 58 76 59 78 60 32 61 81 62 75 63
REMARK SMILES IDX 74 64 33 66 63 67 44 68 62 69 45 70 48 71 61 72 79 73 46 74
REMARK SMILES IDX 47 75 60 77 80 78 49 79 34 80 35 81 43 82 36 83 42 84 37 85
REMARK SMILES IDX 38 86 39 87 40 88 41 89 64 90 65 91 73 92 66 93 72 94 67 95
REMARK SMILES IDX 68 96 69 97 70 98 71 99 50 100 51 101 59 102 52 103 58 104
REMARK SMILES IDX 53 105 54 106 55 107 56 108 57 109
REMARK H PARENT 10 15 91 29 95 34 78 65 48 76
REMARK Flexibility Score: inf
ROOT
ATOM      1  C   UNL A   1      34.876  31.930  28.614  1.00  0.00     0.202 C 
ENDROOT
BRANCH   1   2
ATOM      2  C   UNL A   1      33.590  31.973  27.837  1.00  0.00     0.261 C 
BRANCH   2   3
ATOM      3  O   UNL A   1      33.458  31.113  26.667  1.00  0.00    -0.460 OA
BRANCH   3   4
ATOM      4  C   UNL A   1      32.285  30.544  26.319  1.00  0.00     0.338 C 
ATOM      5  O   UNL A   1      31.202  31.132  26.305  1.00  0.00    -0.246 OA
BRANCH   4   6
ATOM      6  C   UNL A   1      32.363  29.069  26.302  1.00  0.00     0.062 A 
ATOM      7  C   UNL A   1      31.266  27.043  25.676  1.00  0.00     0.065 A 
ATOM      8  C   UNL A   1      31.196  28.358  26.076  1.00  0.00     0.044 A 
ATOM      9  C   UNL A   1      32.494  26.319  25.605  1.00  0.00     0.061 A 
ATOM     10  C   UNL A   1      33.652  27.033  25.965  1.00  0.00     0.029 A 
ATOM     11  C   UNL A   1      33.594  28.405  26.268  1.00  0.00     0.018 A 
BRANCH   7  12
ATOM     12  N   UNL A   1      30.070  26.494  25.221  1.00  0.00    -0.320 N 
ATOM     13  C   UNL A   1      29.262  26.931  24.180  1.00  0.00     0.255 C 
ATOM     14  O   UNL A   1      28.346  26.154  23.870  1.00  0.00    -0.269 OA
ATOM     15  H   UNL A   1      29.757  25.692  25.699  1.00  0.00     0.170 HD
BRANCH  13  16
ATOM     16  C   UNL A   1      29.438  28.174  23.318  1.00  0.00     0.043 A 
ATOM     17  C   UNL A   1      31.911  28.077  22.406  1.00  0.00     0.045 C 
ATOM     18  C   UNL A   1      30.541  28.663  22.572  1.00  0.00    -0.038 A 
ATOM     19  C   UNL A   1      30.386  29.841  21.798  1.00  0.00     0.004 A 
ATOM     20  C   UNL A   1      29.155  30.457  21.628  1.00  0.00     0.000 A 
ATOM     21  C   UNL A   1      28.203  28.845  23.133  1.00  0.00     0.014 A 
ATOM     22  C   UNL A   1      28.055  29.945  22.284  1.00  0.00     0.001 A 
ENDBRANCH  13  16
ENDBRANCH   7  12
BRANCH   9  23
ATOM     23  N   UNL A   1      32.560  25.041  25.029  1.00  0.00    -0.359 N 
ATOM     24  C   UNL A   1      32.556  23.787  25.829  1.00  0.00     0.178 C 
ATOM     25  C   UNL A   1      33.486  24.909  23.901  1.00  0.00     0.178 C 
ATOM     26  C   UNL A   1      32.536  22.499  24.912  1.00  0.00     0.284 C 
ATOM     27  C   UNL A   1      32.981  23.805  22.983  1.00  0.00     0.284 C 
ATOM     28  N   UNL A   1      33.239  22.515  23.604  1.00  0.00    -0.324 N 
ATOM     29  H   UNL A   1      32.837  21.730  23.093  1.00  0.00     0.348 HD
BRANCH  28  30
ATOM     30  C   UNL A   1      34.669  22.116  23.517  1.00  0.00     0.364 C 
BRANCH  30  31
ATOM     31  C   UNL A   1      35.385  21.539  24.742  1.00  0.00     0.279 C 
ATOM     32  O   UNL A   1      36.212  22.250  25.336  1.00  0.00    -0.268 OA
ATOM     33  N   UNL A   1      35.130  20.322  25.326  1.00  0.00    -0.321 N 
ATOM     34  H   UNL A   1      35.435  20.326  26.262  1.00  0.00     0.170 HD
BRANCH  33  35
ATOM     35  C   UNL A   1      34.564  19.063  25.002  1.00  0.00     0.041 A 
ATOM     36  C   UNL A   1      33.184  18.920  25.249  1.00  0.00     0.029 A 
ATOM     37  C   UNL A   1      35.245  17.923  24.590  1.00  0.00     0.029 A 
ATOM     38  C   UNL A   1      32.526  17.687  25.105  1.00  0.00     0.041 A 
ATOM     39  C   UNL A   1      34.609  16.670  24.501  1.00  0.00     0.041 A 
ATOM     40  C   UNL A   1      33.251  16.565  24.749  1.00  0.00     0.123 A 
ATOM     41  F   UNL A   1      32.638  15.379  24.634  1.00  0.00    -0.207 F 
ENDBRANCH  33  35
ENDBRANCH  30  31
ENDBRANCH  28  30
ENDBRANCH   9  23
ENDBRANCH   4   6
ENDBRANCH   3   4
ENDBRANCH   2   3
ENDBRANCH   1   2
BRANCH   1  42
ATOM     42  O   UNL A   1      35.927  31.655  27.699  1.00  0.00    -0.374 OA
BRANCH  42  43
ATOM     43  C   UNL A   1      36.453  30.345  27.761  1.00  0.00     0.202 C 
BRANCH  43  44
ATOM     44  C   UNL A   1      36.267  29.694  29.134  1.00  0.00     0.261 C 
BRANCH  44  45
ATOM     45  O   UNL A   1      37.521  29.185  29.644  1.00  0.00    -0.460 OA
BRANCH  45  46
ATOM     46  C   UNL A   1      38.541  30.081  29.753  1.00  0.00     0.338 C 
ATOM     47  O   UNL A   1      38.381  31.243  30.128  1.00  0.00    -0.246 OA
BRANCH  46  48
ATOM     48  C   UNL A   1      39.860  29.445  29.494  1.00  0.00     0.060 A 
ATOM     49  C   UNL A   1      40.892  29.453  30.449  1.00  0.00     0.016 A 
ATOM     50  C   UNL A   1      40.111  28.955  28.217  1.00  0.00     0.016 A 
ATOM     51  C   UNL A   1      42.201  29.092  30.082  1.00  0.00     0.010 A 
ATOM     52  C   UNL A   1      41.412  28.720  27.833  1.00  0.00     0.010 A 
ATOM     53  C   UNL A   1      42.473  28.791  28.750  1.00  0.00    -0.014 A 
BRANCH  53  54
ATOM     54  C   UNL A   1      43.784  28.584  28.123  1.00  0.00     0.031 A 
ATOM     55  C   UNL A   1      44.458  29.782  27.560  1.00  0.00     0.074 A 
ATOM     56  C   UNL A   1      44.518  27.482  28.409  1.00  0.00     0.049 A 
ATOM     57  N   UNL A   1      45.683  29.807  27.183  1.00  0.00    -0.248 NA
ATOM     58  C   UNL A   1      43.809  31.084  27.399  1.00  0.00     0.031 C 
ATOM     59  C   UNL A   1      45.973  27.346  28.435  1.00  0.00     0.029 A 
ATOM     60  N   UNL A   1      44.092  26.181  28.691  1.00  0.00    -0.354 N 
ATOM     61  C   UNL A   1      46.079  31.114  27.075  1.00  0.00     0.074 A 
ATOM     62  C   UNL A   1      44.859  31.876  27.148  1.00  0.00     0.031 C 
ATOM     63  C   UNL A   1      46.304  26.050  28.350  1.00  0.00     0.029 A 
ATOM     64  C   UNL A   1      45.069  25.307  28.197  1.00  0.00     0.049 A 
ATOM     65  H   UNL A   1      43.260  25.927  29.151  1.00  0.00     0.167 HD
ATOM     66  C   UNL A   1      47.419  31.359  27.042  1.00  0.00     0.031 A 
ATOM     67  C   UNL A   1      44.769  24.413  27.221  1.00  0.00     0.031 A 
ATOM     68  C   UNL A   1      48.158  30.104  26.824  1.00  0.00     0.049 A 
ATOM     69  C   UNL A   1      45.610  24.785  26.033  1.00  0.00     0.074 A 
ATOM     70  C   UNL A   1      48.985  29.311  27.602  1.00  0.00     0.029 A 
ATOM     71  N   UNL A   1      47.799  29.319  25.722  1.00  0.00    -0.354 N 
ATOM     72  N   UNL A   1      45.948  26.024  25.755  1.00  0.00    -0.248 NA
ATOM     73  C   UNL A   1      46.385  23.798  25.287  1.00  0.00     0.031 C 
ATOM     74  C   UNL A   1      49.006  28.004  27.014  1.00  0.00     0.029 A 
ATOM     75  C   UNL A   1      48.210  28.009  25.873  1.00  0.00     0.049 A 
ATOM     76  H   UNL A   1      47.314  29.660  24.936  1.00  0.00     0.167 HD
ATOM     77  C   UNL A   1      47.090  25.998  25.005  1.00  0.00     0.074 A 
ATOM     78  C   UNL A   1      47.283  24.589  24.676  1.00  0.00     0.031 C 
ATOM     79  C   UNL A   1      47.967  27.030  24.816  1.00  0.00     0.031 A 
BRANCH  66  80
ATOM     80  C   UNL A   1      48.066  32.700  27.332  1.00  0.00    -0.014 A 
ATOM     81  C   UNL A   1      49.136  33.146  26.530  1.00  0.00     0.010 A 
ATOM     82  C   UNL A   1      47.721  33.539  28.412  1.00  0.00     0.010 A 
ATOM     83  C   UNL A   1      49.808  34.358  26.781  1.00  0.00     0.020 A 
ATOM     84  C   UNL A   1      48.369  34.760  28.665  1.00  0.00     0.020 A 
ATOM     85  C   UNL A   1      49.413  35.165  27.846  1.00  0.00     0.054 A 
BRANCH  85  86
ATOM     86  S   UNL A   1      50.271  36.734  28.145  1.00  0.00     0.124 S 
ATOM     87  O   UNL A   1      51.214  36.794  27.031  1.00  0.00    -0.237 OA
ATOM     88  O   UNL A   1      49.180  37.704  28.101  1.00  0.00    -0.237 OA
ATOM     89  O   UNL A   1      50.882  36.552  29.460  1.00  0.00    -0.744 OA
ENDBRANCH  85  86
ENDBRANCH  66  80
BRANCH  67  90
ATOM     90  C   UNL A   1      43.395  23.837  27.394  1.00  0.00    -0.014 A 
ATOM     91  C   UNL A   1      42.658  23.706  26.187  1.00  0.00     0.010 A 
ATOM     92  C   UNL A   1      43.096  22.941  28.438  1.00  0.00     0.010 A 
ATOM     93  C   UNL A   1      41.839  22.592  25.947  1.00  0.00     0.020 A 
ATOM     94  C   UNL A   1      42.258  21.826  28.202  1.00  0.00     0.020 A 
ATOM     95  C   UNL A   1      41.699  21.622  26.937  1.00  0.00     0.054 A 
BRANCH  95  96
ATOM     96  S   UNL A   1      41.013  19.996  26.458  1.00  0.00     0.124 S 
ATOM     97  O   UNL A   1      39.654  20.334  26.052  1.00  0.00    -0.237 OA
ATOM     98  O   UNL A   1      41.904  19.575  25.377  1.00  0.00    -0.237 OA
ATOM     99  O   UNL A   1      41.131  19.202  27.677  1.00  0.00    -0.744 OA
ENDBRANCH  95  96
ENDBRANCH  67  90
BRANCH  79 100
ATOM    100  C   UNL A   1      48.733  27.158  23.527  1.00  0.00    -0.014 A 
ATOM    101  C   UNL A   1      48.174  27.731  22.373  1.00  0.00     0.010 A 
ATOM    102  C   UNL A   1      50.118  26.882  23.509  1.00  0.00     0.010 A 
ATOM    103  C   UNL A   1      48.939  27.950  21.230  1.00  0.00     0.020 A 
ATOM    104  C   UNL A   1      50.906  27.156  22.392  1.00  0.00     0.020 A 
ATOM    105  C   UNL A   1      50.301  27.662  21.248  1.00  0.00     0.054 A 
BRANCH 105 106
ATOM    106  S   UNL A   1      51.275  28.019  19.774  1.00  0.00     0.124 S 
ATOM    107  O   UNL A   1      52.531  27.339  20.080  1.00  0.00    -0.237 OA
ATOM    108  O   UNL A   1      50.478  27.413  18.708  1.00  0.00    -0.237 OA
ATOM    109  O   UNL A   1      51.338  29.477  19.746  1.00  0.00    -0.744 OA
ENDBRANCH 105 106
ENDBRANCH  79 100
ENDBRANCH  53  54
ENDBRANCH  46  48
ENDBRANCH  45  46
ENDBRANCH  44  45
ENDBRANCH  43  44
ENDBRANCH  42  43
ENDBRANCH   1  42
TORSDOF 23
ENDMDL
MODEL 2
REMARK VINA RESULT:     -11.5      1.531      2.228
REMARK SMILES Cc1ccccc1C(=O)Nc1cc(C(=O)OCCOCCOC(=O)c2ccc(-c3c4nc(c(-c5ccc(S(=O)(=O)[O-])cc5)c5ccc([nH]5)c(-c5ccc(S(=O)(=O)[O-])cc5)c5nc(c(-c6ccc(S(=O)(=O)[O-])cc6)c6ccc3[nH]6)C=C5)C=C4)cc2)ccc1N1CC[NH+](CC(=O)Nc2ccc(F)cc2)CC1
REMARK SMILES IDX 18 1 17 2 16 3 14 4 15 5 13 6 11 7 12 8 87 9 86 10 85 11
REMARK SMILES IDX 10 12 8 13 9 14 7 16 1 17 2 18 3 19 4 20 6 21 5 22 88 23
REMARK SMILES IDX 89 24 104 25 90 26 103 27 91 28 92 30 93 31 94 32 95 33
REMARK SMILES IDX 96 35 97 36 102 37 98 38 101 39 99 40 100 41 19 42 20 43
REMARK SMILES IDX 21 44 22 45 23 46 24 47 25 48 26 49 84 50 27 51 83 52 28 53
REMARK SMILES IDX 29 54 30 55 77 56 31 57 82 58 76 59 78 60 32 61 81 62 75 63
REMARK SMILES IDX 74 64 33 66 63 67 44 68 62 69 45 70 48 71 61 72 79 73 46 74
REMARK SMILES IDX 47 75 60 77 80 78 49 79 34 80 35 81 43 82 36 83 42 84 37 85
REMARK SMILES IDX 38 86 39 87 40 88 41 89 64 90 65 91 73 92 66 93 72 94 67 95
REMARK SMILES IDX 68 96 69 97 70 98 71 99 50 100 51 101 59 102 52 103 58 104
REMARK SMILES IDX 53 105 54 106 55 107 56 108 57 109
REMARK H PARENT 10 15 91 29 95 34 78 65 48 76
REMARK Flexibility Score: inf
ROOT
ATOM      1  C   UNL A   1      35.027  31.669  28.389  1.00  0.00     0.202 C 
ENDROOT
BRANCH   1   2
ATOM      2  C   UNL A   1      33.791  31.486  27.554  1.00  0.00     0.261 C 
BRANCH   2   3
ATOM      3  O   UNL A   1      33.661  30.267  26.766  1.00  0.00    -0.460 OA
BRANCH   3   4
ATOM      4  C   UNL A   1      32.484  29.872  26.235  1.00  0.00     0.338 C 
ATOM      5  O   UNL A   1      31.512  30.612  26.072  1.00  0.00    -0.246 OA
BRANCH   4   6
ATOM      6  C   UNL A   1      32.352  28.402  26.200  1.00  0.00     0.062 A 
ATOM      7  C   UNL A   1      30.960  26.561  25.590  1.00  0.00     0.065 A 
ATOM      8  C   UNL A   1      31.090  27.866  26.005  1.00  0.00     0.044 A 
ATOM      9  C   UNL A   1      32.070  25.672  25.472  1.00  0.00     0.061 A 
ATOM     10  C   UNL A   1      33.328  26.209  25.802  1.00  0.00     0.029 A 
ATOM     11  C   UNL A   1      33.475  27.571  26.120  1.00  0.00     0.018 A 
BRANCH   7  12
ATOM     12  N   UNL A   1      29.685  26.194  25.168  1.00  0.00    -0.320 N 
ATOM     13  C   UNL A   1      28.917  26.755  24.157  1.00  0.00     0.255 C 
ATOM     14  O   UNL A   1      27.890  26.120  23.868  1.00  0.00    -0.269 OA
ATOM     15  H   UNL A   1      29.275  25.437  25.648  1.00  0.00     0.170 HD
BRANCH  13  16
ATOM     16  C   UNL A   1      29.241  27.972  23.301  1.00  0.00     0.043 A 
ATOM     17  C   UNL A   1      31.682  27.578  22.381  1.00  0.00     0.045 C 
ATOM     18  C   UNL A   1      30.394  28.326  22.555  1.00  0.00    -0.038 A 
ATOM     19  C   UNL A   1      30.384  29.519  21.788  1.00  0.00     0.004 A 
ATOM     20  C   UNL A   1      29.237  30.283  21.625  1.00  0.00     0.000 A 
ATOM     21  C   UNL A   1      28.098  28.790  23.124  1.00  0.00     0.014 A 
ATOM     22  C   UNL A   1      28.084  29.905  22.281  1.00  0.00     0.001 A 
ENDBRANCH  13  16
ENDBRANCH   7  12
BRANCH   9  23
ATOM     23  N   UNL A   1      31.936  24.405  24.881  1.00  0.00    -0.359 N 
ATOM     24  C   UNL A   1      31.384  23.227  25.601  1.00  0.00     0.178 C 
ATOM     25  C   UNL A   1      33.054  23.990  24.029  1.00  0.00     0.178 C 
ATOM     26  C   UNL A   1      31.257  21.964  24.658  1.00  0.00     0.284 C 
ATOM     27  C   UNL A   1      32.528  23.035  22.967  1.00  0.00     0.284 C 
ATOM     28  N   UNL A   1      32.255  21.745  23.580  1.00  0.00    -0.324 N 
ATOM     29  H   UNL A   1      31.804  21.082  22.951  1.00  0.00     0.348 HD
BRANCH  28  30
ATOM     30  C   UNL A   1      33.495  20.970  23.853  1.00  0.00     0.364 C 
BRANCH  30  31
ATOM     31  C   UNL A   1      33.877  20.607  25.291  1.00  0.00     0.279 C 
ATOM     32  O   UNL A   1      33.151  19.818  25.917  1.00  0.00    -0.268 OA
ATOM     33  N   UNL A   1      35.021  20.997  25.944  1.00  0.00    -0.321 N 
ATOM     34  H   UNL A   1      35.216  20.377  26.683  1.00  0.00     0.170 HD
BRANCH  33  35
ATOM     35  C   UNL A   1      36.009  22.012  25.885  1.00  0.00     0.041 A 
ATOM     36  C   UNL A   1      37.324  21.585  25.615  1.00  0.00     0.029 A 
ATOM     37  C   UNL A   1      35.841  23.359  26.189  1.00  0.00     0.029 A 
ATOM     38  C   UNL A   1      38.418  22.465  25.665  1.00  0.00     0.041 A 
ATOM     39  C   UNL A   1      36.937  24.237  26.302  1.00  0.00     0.041 A 
ATOM     40  C   UNL A   1      38.216  23.784  26.028  1.00  0.00     0.123 A 
ATOM     41  F   UNL A   1      39.255  24.625  26.105  1.00  0.00    -0.207 F 
ENDBRANCH  33  35
ENDBRANCH  30  31
ENDBRANCH  28  30
ENDBRANCH   9  23
ENDBRANCH   4   6
ENDBRANCH   3   4
ENDBRANCH   2   3
ENDBRANCH   1   2
BRANCH   1  42
ATOM     42  O   UNL A   1      36.141  31.247  27.614  1.00  0.00    -0.374 OA
BRANCH  42  43
ATOM     43  C   UNL A   1      36.526  29.899  27.793  1.00  0.00     0.202 C 
BRANCH  43  44
ATOM     44  C   UNL A   1      36.389  29.430  29.244  1.00  0.00     0.261 C 
BRANCH  44  45
ATOM     45  O   UNL A   1      37.659  28.977  29.767  1.00  0.00    -0.460 OA
BRANCH  45  46
ATOM     46  C   UNL A   1      38.686  29.872  29.729  1.00  0.00     0.338 C 
ATOM     47  O   UNL A   1      38.563  31.052  30.054  1.00  0.00    -0.246 OA
BRANCH  46  48
ATOM     48  C   UNL A   1      39.973  29.215  29.381  1.00  0.00     0.060 A 
ATOM     49  C   UNL A   1      40.953  28.932  30.350  1.00  0.00     0.016 A 
ATOM     50  C   UNL A   1      40.260  29.005  28.037  1.00  0.00     0.016 A 
ATOM     51  C   UNL A   1      42.254  28.567  29.959  1.00  0.00     0.010 A 
ATOM     52  C   UNL A   1      41.561  28.767  27.657  1.00  0.00     0.010 A 
ATOM     53  C   UNL A   1      42.575  28.553  28.604  1.00  0.00    -0.014 A 
BRANCH  53  54
ATOM     54  C   UNL A   1      43.901  28.396  27.995  1.00  0.00     0.031 A 
ATOM     55  C   UNL A   1      44.554  29.625  27.475  1.00  0.00     0.074 A 
ATOM     56  C   UNL A   1      44.659  27.306  28.265  1.00  0.00     0.049 A 
ATOM     57  N   UNL A   1      45.784  29.691  27.121  1.00  0.00    -0.248 NA
ATOM     58  C   UNL A   1      43.875  30.914  27.337  1.00  0.00     0.031 C 
ATOM     59  C   UNL A   1      46.116  27.206  28.313  1.00  0.00     0.029 A 
ATOM     60  N   UNL A   1      44.262  25.988  28.506  1.00  0.00    -0.354 N 
ATOM     61  C   UNL A   1      46.148  31.011  27.054  1.00  0.00     0.074 A 
ATOM     62  C   UNL A   1      44.907  31.739  27.126  1.00  0.00     0.031 C 
ATOM     63  C   UNL A   1      46.482  25.921  28.201  1.00  0.00     0.029 A 
ATOM     64  C   UNL A   1      45.269  25.152  28.006  1.00  0.00     0.049 A 
ATOM     65  H   UNL A   1      43.429  25.700  28.944  1.00  0.00     0.167 HD
ATOM     66  C   UNL A   1      47.482  31.290  27.050  1.00  0.00     0.031 A 
ATOM     67  C   UNL A   1      45.008  24.277  27.002  1.00  0.00     0.031 A 
ATOM     68  C   UNL A   1      48.257  30.060  26.813  1.00  0.00     0.049 A 
ATOM     69  C   UNL A   1      45.860  24.701  25.839  1.00  0.00     0.074 A 
ATOM     70  C   UNL A   1      49.090  29.268  27.585  1.00  0.00     0.029 A 
ATOM     71  N   UNL A   1      47.937  29.296  25.685  1.00  0.00    -0.354 N 
ATOM     72  N   UNL A   1      46.170  25.955  25.600  1.00  0.00    -0.248 NA
ATOM     73  C   UNL A   1      46.672  23.754  25.082  1.00  0.00     0.031 C 
ATOM     74  C   UNL A   1      49.155  27.978  26.963  1.00  0.00     0.029 A 
ATOM     75  C   UNL A   1      48.378  27.993  25.809  1.00  0.00     0.049 A 
ATOM     76  H   UNL A   1      47.456  29.645  24.899  1.00  0.00     0.167 HD
ATOM     77  C   UNL A   1      47.325  25.978  24.869  1.00  0.00     0.074 A 
ATOM     78  C   UNL A   1      47.559  24.583  24.507  1.00  0.00     0.031 C 
ATOM     79  C   UNL A   1      48.178  27.036  24.723  1.00  0.00     0.031 A 
BRANCH  66  80
ATOM     80  C   UNL A   1      48.089  32.638  27.387  1.00  0.00    -0.014 A 
ATOM     81  C   UNL A   1      48.883  32.777  28.544  1.00  0.00     0.010 A 
ATOM     82  C   UNL A   1      47.868  33.823  26.653  1.00  0.00     0.010 A 
ATOM     83  C   UNL A   1      49.432  34.013  28.934  1.00  0.00     0.020 A 
ATOM     84  C   UNL A   1      48.424  35.061  27.019  1.00  0.00     0.020 A 
ATOM     85  C   UNL A   1      49.205  35.150  28.162  1.00  0.00     0.054 A 
BRANCH  85  86
ATOM     86  S   UNL A   1      49.937  36.732  28.662  1.00  0.00     0.124 S 
ATOM     87  O   UNL A   1      50.496  36.418  29.976  1.00  0.00    -0.237 OA
ATOM     88  O   UNL A   1      50.913  36.977  27.604  1.00  0.00    -0.237 OA
ATOM     89  O   UNL A   1      48.801  37.652  28.680  1.00  0.00    -0.744 OA
ENDBRANCH  85  86
ENDBRANCH  66  80
BRANCH  67  90
ATOM     90  C   UNL A   1      43.647  23.662  27.136  1.00  0.00    -0.014 A 
ATOM     91  C   UNL A   1      43.019  23.353  25.900  1.00  0.00     0.010 A 
ATOM     92  C   UNL A   1      43.295  22.884  28.255  1.00  0.00     0.010 A 
ATOM     93  C   UNL A   1      42.266  22.181  25.735  1.00  0.00     0.020 A 
ATOM     94  C   UNL A   1      42.522  21.711  28.094  1.00  0.00     0.020 A 
ATOM     95  C   UNL A   1      42.078  21.331  26.822  1.00  0.00     0.054 A 
BRANCH  95  96
ATOM     96  S   UNL A   1      41.496  19.629  26.495  1.00  0.00     0.124 S 
ATOM     97  O   UNL A   1      42.187  19.292  25.256  1.00  0.00    -0.237 OA
ATOM     98  O   UNL A   1      41.946  18.900  27.681  1.00  0.00    -0.237 OA
ATOM     99  O   UNL A   1      40.048  19.775  26.394  1.00  0.00    -0.744 OA
ENDBRANCH  95  96
ENDBRANCH  67  90
BRANCH  79 100
ATOM    100  C   UNL A   1      48.962  27.218  23.451  1.00  0.00    -0.014 A 
ATOM    101  C   UNL A   1      48.345  27.475  22.216  1.00  0.00     0.010 A 
ATOM    102  C   UNL A   1      50.369  27.335  23.510  1.00  0.00     0.010 A 
ATOM    103  C   UNL A   1      49.094  27.759  21.077  1.00  0.00     0.020 A 
ATOM    104  C   UNL A   1      51.124  27.683  22.391  1.00  0.00     0.020 A 
ATOM    105  C   UNL A   1      50.479  27.863  21.173  1.00  0.00     0.054 A 
BRANCH 105 106
ATOM    106  S   UNL A   1      51.413  28.298  19.694  1.00  0.00     0.124 S 
ATOM    107  O   UNL A   1      51.330  29.757  19.713  1.00  0.00    -0.237 OA
ATOM    108  O   UNL A   1      52.735  27.742  19.973  1.00  0.00    -0.237 OA
ATOM    109  O   UNL A   1      50.680  27.640  18.617  1.00  0.00    -0.744 OA
ENDBRANCH 105 106
ENDBRANCH  79 100
ENDBRANCH  53  54
ENDBRANCH  46  48
ENDBRANCH  45  46
ENDBRANCH  44  45
ENDBRANCH  43  44
ENDBRANCH  42  43
ENDBRANCH   1  42
TORSDOF 23
ENDMDL
MODEL 3
REMARK VINA RESULT:     -10.7      5.975     11.661
REMARK SMILES Cc1ccccc1C(=O)Nc1cc(C(=O)OCCOCCOC(=O)c2ccc(-c3c4nc(c(-c5ccc(S(=O)(=O)[O-])cc5)c5ccc([nH]5)c(-c5ccc(S(=O)(=O)[O-])cc5)c5nc(c(-c6ccc(S(=O)(=O)[O-])cc6)c6ccc3[nH]6)C=C5)C=C4)cc2)ccc1N1CC[NH+](CC(=O)Nc2ccc(F)cc2)CC1
REMARK SMILES IDX 18 1 17 2 16 3 14 4 15 5 13 6 11 7 12 8 87 9 86 10 85 11
REMARK SMILES IDX 10 12 8 13 9 14 7 16 1 17 2 18 3 19 4 20 6 21 5 22 88 23
REMARK SMILES IDX 89 24 104 25 90 26 103 27 91 28 92 30 93 31 94 32 95 33
REMARK SMILES IDX 96 35 97 36 102 37 98 38 101 39 99 40 100 41 19 42 20 43
REMARK SMILES IDX 21 44 22 45 23 46 24 47 25 48 26 49 84 50 27 51 83 52 28 53
REMARK SMILES IDX 29 54 30 55 77 56 31 57 82 58 76 59 78 60 32 61 81 62 75 63
REMARK SMILES IDX 74 64 33 66 63 67 44 68 62 69 45 70 48 71 61 72 79 73 46 74
REMARK SMILES IDX 47 75 60 77 80 78 49 79 34 80 35 81 43 82 36 83 42 84 37 85
REMARK SMILES IDX 38 86 39 87 40 88 41 89 64 90 65 91 73 92 66 93 72 94 67 95
REMARK SMILES IDX 68 96 69 97 70 98 71 99 50 100 51 101 59 102 52 103 58 104
REMARK SMILES IDX 53 105 54 106 55 107 56 108 57 109
REMARK H PARENT 10 15 91 29 95 34 78 65 48 76
REMARK Flexibility Score: inf
ROOT
ATOM      1  C   UNL A   1      37.979  31.360  33.215  1.00  0.00     0.202 C 
ENDROOT
BRANCH   1   2
ATOM      2  C   UNL A   1      37.640  30.974  31.803  1.00  0.00     0.261 C 
BRANCH   2   3
ATOM      3  O   UNL A   1      38.671  31.108  30.781  1.00  0.00    -0.460 OA
BRANCH   3   4
ATOM      4  C   UNL A   1      39.719  30.262  30.698  1.00  0.00     0.338 C 
ATOM      5  O   UNL A   1      40.865  30.537  31.059  1.00  0.00    -0.246 OA
BRANCH   4   6
ATOM      6  C   UNL A   1      39.442  29.114  29.811  1.00  0.00     0.062 A 
ATOM      7  C   UNL A   1      39.937  28.073  27.720  1.00  0.00     0.065 A 
ATOM      8  C   UNL A   1      39.818  29.214  28.482  1.00  0.00     0.044 A 
ATOM      9  C   UNL A   1      39.562  26.782  28.196  1.00  0.00     0.061 A 
ATOM     10  C   UNL A   1      39.060  26.730  29.510  1.00  0.00     0.029 A 
ATOM     11  C   UNL A   1      39.042  27.876  30.325  1.00  0.00     0.018 A 
BRANCH   7  12
ATOM     12  N   UNL A   1      40.569  28.242  26.490  1.00  0.00    -0.320 N 
ATOM     13  C   UNL A   1      41.929  28.287  26.220  1.00  0.00     0.255 C 
ATOM     14  O   UNL A   1      42.222  28.266  25.014  1.00  0.00    -0.269 OA
ATOM     15  H   UNL A   1      39.973  28.340  25.712  1.00  0.00     0.170 HD
BRANCH  13  16
ATOM     16  C   UNL A   1      43.083  28.245  27.213  1.00  0.00     0.043 A 
ATOM     17  C   UNL A   1      42.964  30.514  28.554  1.00  0.00     0.045 C 
ATOM     18  C   UNL A   1      43.525  29.171  28.193  1.00  0.00    -0.038 A 
ATOM     19  C   UNL A   1      44.614  28.824  29.032  1.00  0.00     0.004 A 
ATOM     20  C   UNL A   1      45.176  27.556  29.028  1.00  0.00     0.000 A 
ATOM     21  C   UNL A   1      43.697  26.968  27.228  1.00  0.00     0.014 A 
ATOM     22  C   UNL A   1      44.701  26.617  28.135  1.00  0.00     0.001 A 
ENDBRANCH  13  16
ENDBRANCH   7  12
BRANCH   9  23
ATOM     23  N   UNL A   1      39.856  25.618  27.468  1.00  0.00    -0.359 N 
ATOM     24  C   UNL A   1      38.841  24.575  27.158  1.00  0.00     0.178 C 
ATOM     25  C   UNL A   1      41.138  24.986  27.789  1.00  0.00     0.178 C 
ATOM     26  C   UNL A   1      39.431  23.430  26.240  1.00  0.00     0.284 C 
ATOM     27  C   UNL A   1      41.636  24.243  26.557  1.00  0.00     0.284 C 
ATOM     28  N   UNL A   1      40.854  23.030  26.385  1.00  0.00    -0.324 N 
ATOM     29  H   UNL A   1      41.063  22.529  25.522  1.00  0.00     0.348 HD
BRANCH  28  30
ATOM     30  C   UNL A   1      41.237  21.962  27.347  1.00  0.00     0.364 C 
BRANCH  30  31
ATOM     31  C   UNL A   1      41.832  20.644  26.840  1.00  0.00     0.279 C 
ATOM     32  O   UNL A   1      41.379  19.578  27.286  1.00  0.00    -0.268 OA
ATOM     33  N   UNL A   1      42.771  20.514  25.846  1.00  0.00    -0.321 N 
ATOM     34  H   UNL A   1      42.730  19.610  25.459  1.00  0.00     0.170 HD
BRANCH  33  35
ATOM     35  C   UNL A   1      43.780  21.274  25.202  1.00  0.00     0.041 A 
ATOM     36  C   UNL A   1      45.075  20.720  25.210  1.00  0.00     0.029 A 
ATOM     37  C   UNL A   1      43.654  22.557  24.678  1.00  0.00     0.029 A 
ATOM     38  C   UNL A   1      46.190  21.428  24.731  1.00  0.00     0.041 A 
ATOM     39  C   UNL A   1      44.772  23.298  24.252  1.00  0.00     0.041 A 
ATOM     40  C   UNL A   1      46.031  22.723  24.272  1.00  0.00     0.123 A 
ATOM     41  F   UNL A   1      47.092  23.416  23.839  1.00  0.00    -0.207 F 
ENDBRANCH  33  35
ENDBRANCH  30  31
ENDBRANCH  28  30
ENDBRANCH   9  23
ENDBRANCH   4   6
ENDBRANCH   3   4
ENDBRANCH   2   3
ENDBRANCH   1   2
BRANCH   1  42
ATOM     42  O   UNL A   1      36.850  32.022  33.769  1.00  0.00    -0.374 OA
BRANCH  42  43
ATOM     43  C   UNL A   1      37.139  33.186  34.516  1.00  0.00     0.202 C 
BRANCH  43  44
ATOM     44  C   UNL A   1      38.417  33.055  35.348  1.00  0.00     0.261 C 
BRANCH  44  45
ATOM     45  O   UNL A   1      39.339  34.131  35.060  1.00  0.00    -0.460 OA
BRANCH  45  46
ATOM     46  C   UNL A   1      40.644  33.782  34.884  1.00  0.00     0.338 C 
ATOM     47  O   UNL A   1      41.251  33.033  35.650  1.00  0.00    -0.246 OA
BRANCH  46  48
ATOM     48  C   UNL A   1      41.184  34.306  33.601  1.00  0.00     0.060 A 
ATOM     49  C   UNL A   1      40.747  33.822  32.355  1.00  0.00     0.016 A 
ATOM     50  C   UNL A   1      42.248  35.200  33.654  1.00  0.00     0.016 A 
ATOM     51  C   UNL A   1      41.461  34.134  31.183  1.00  0.00     0.010 A 
ATOM     52  C   UNL A   1      43.010  35.403  32.527  1.00  0.00     0.010 A 
ATOM     53  C   UNL A   1      42.637  34.871  31.282  1.00  0.00    -0.014 A 
BRANCH  53  54
ATOM     54  C   UNL A   1      43.625  35.136  30.229  1.00  0.00     0.031 A 
ATOM     55  C   UNL A   1      44.643  34.084  29.978  1.00  0.00     0.074 A 
ATOM     56  C   UNL A   1      43.378  36.063  29.272  1.00  0.00     0.049 A 
ATOM     57  N   UNL A   1      45.424  34.067  28.962  1.00  0.00    -0.248 NA
ATOM     58  C   UNL A   1      44.850  32.925  30.848  1.00  0.00     0.031 C 
ATOM     59  C   UNL A   1      43.840  36.076  27.885  1.00  0.00     0.029 A 
ATOM     60  N   UNL A   1      42.681  37.271  29.365  1.00  0.00    -0.354 N 
ATOM     61  C   UNL A   1      45.954  32.808  28.841  1.00  0.00     0.074 A 
ATOM     62  C   UNL A   1      45.625  32.150  30.080  1.00  0.00     0.031 C 
ATOM     63  C   UNL A   1      43.744  37.319  27.392  1.00  0.00     0.029 A 
ATOM     64  C   UNL A   1      43.280  38.167  28.471  1.00  0.00     0.049 A 
ATOM     65  H   UNL A   1      41.912  37.456  29.950  1.00  0.00     0.167 HD
ATOM     66  C   UNL A   1      46.513  32.480  27.644  1.00  0.00     0.031 A 
ATOM     67  C   UNL A   1      43.861  39.309  28.920  1.00  0.00     0.031 A 
ATOM     68  C   UNL A   1      46.692  33.688  26.819  1.00  0.00     0.049 A 
ATOM     69  C   UNL A   1      45.320  39.204  28.580  1.00  0.00     0.074 A 
ATOM     70  C   UNL A   1      46.101  34.179  25.668  1.00  0.00     0.029 A 
ATOM     71  N   UNL A   1      47.390  34.762  27.382  1.00  0.00    -0.354 N 
ATOM     72  N   UNL A   1      45.969  38.061  28.558  1.00  0.00    -0.248 NA
ATOM     73  C   UNL A   1      46.052  40.291  27.938  1.00  0.00     0.031 C 
ATOM     74  C   UNL A   1      46.350  35.590  25.625  1.00  0.00     0.029 A 
ATOM     75  C   UNL A   1      47.106  35.950  26.736  1.00  0.00     0.049 A 
ATOM     76  H   UNL A   1      48.009  34.681  28.144  1.00  0.00     0.167 HD
ATOM     77  C   UNL A   1      47.049  38.199  27.731  1.00  0.00     0.074 A 
ATOM     78  C   UNL A   1      47.101  39.626  27.428  1.00  0.00     0.031 C 
ATOM     79  C   UNL A   1      47.761  37.191  27.144  1.00  0.00     0.031 A 
BRANCH  66  80
ATOM     80  C   UNL A   1      46.778  31.065  27.166  1.00  0.00    -0.014 A 
ATOM     81  C   UNL A   1      47.834  30.323  27.734  1.00  0.00     0.010 A 
ATOM     82  C   UNL A   1      46.077  30.427  26.122  1.00  0.00     0.010 A 
ATOM     83  C   UNL A   1      48.159  29.024  27.298  1.00  0.00     0.020 A 
ATOM     84  C   UNL A   1      46.376  29.124  25.687  1.00  0.00     0.020 A 
ATOM     85  C   UNL A   1      47.420  28.427  26.279  1.00  0.00     0.054 A 
BRANCH  85  86
ATOM     86  S   UNL A   1      47.833  26.746  25.742  1.00  0.00     0.124 S 
ATOM     87  O   UNL A   1      49.060  26.953  24.977  1.00  0.00    -0.237 OA
ATOM     88  O   UNL A   1      47.992  26.039  27.010  1.00  0.00    -0.237 OA
ATOM     89  O   UNL A   1      46.674  26.338  24.950  1.00  0.00    -0.744 OA
ENDBRANCH  85  86
ENDBRANCH  66  80
BRANCH  67  90
ATOM     90  C   UNL A   1      43.089  39.922  30.051  1.00  0.00    -0.014 A 
ATOM     91  C   UNL A   1      43.782  39.943  31.290  1.00  0.00     0.010 A 
ATOM     92  C   UNL A   1      42.123  40.922  29.829  1.00  0.00     0.010 A 
ATOM     93  C   UNL A   1      43.692  41.041  32.160  1.00  0.00     0.020 A 
ATOM     94  C   UNL A   1      42.020  42.022  30.713  1.00  0.00     0.020 A 
ATOM     95  C   UNL A   1      42.859  42.107  31.829  1.00  0.00     0.054 A 
BRANCH  95  96
ATOM     96  S   UNL A   1      43.089  43.688  32.718  1.00  0.00     0.124 S 
ATOM     97  O   UNL A   1      44.350  43.476  33.419  1.00  0.00    -0.237 OA
ATOM     98  O   UNL A   1      43.133  44.666  31.631  1.00  0.00    -0.237 OA
ATOM     99  O   UNL A   1      41.903  43.783  33.563  1.00  0.00    -0.744 OA
ENDBRANCH  95  96
ENDBRANCH  67  90
BRANCH  79 100
ATOM    100  C   UNL A   1      49.232  37.352  26.867  1.00  0.00    -0.014 A 
ATOM    101  C   UNL A   1      49.825  36.926  25.668  1.00  0.00     0.010 A 
ATOM    102  C   UNL A   1      50.024  38.131  27.741  1.00  0.00     0.010 A 
ATOM    103  C   UNL A   1      51.161  37.194  25.384  1.00  0.00     0.020 A 
ATOM    104  C   UNL A   1      51.343  38.460  27.437  1.00  0.00     0.020 A 
ATOM    105  C   UNL A   1      51.911  37.962  26.271  1.00  0.00     0.054 A 
BRANCH 105 106
ATOM    106  S   UNL A   1      53.619  38.347  25.842  1.00  0.00     0.124 S 
ATOM    107  O   UNL A   1      54.317  37.156  26.319  1.00  0.00    -0.237 OA
ATOM    108  O   UNL A   1      53.560  38.499  24.389  1.00  0.00    -0.237 OA
ATOM    109  O   UNL A   1      53.892  39.576  26.581  1.00  0.00    -0.744 OA
ENDBRANCH 105 106
ENDBRANCH  79 100
ENDBRANCH  53  54
ENDBRANCH  46  48
ENDBRANCH  45  46
ENDBRANCH  44  45
ENDBRANCH  43  44
ENDBRANCH  42  43
ENDBRANCH   1  42
TORSDOF 23
ENDMDL
