MODEL 1
REMARK VINA RESULT:      -7.4      0.000      0.000
REMARK SMILES CCOc1cc(C(=O)OCCOCCOC(=O)c2ccc(-c3c4nc(c(-c5ccc(S(=O)(=O)[O-])cc5)c5ccc([nH]5)c(-c5ccc(S(=O)(=O)[O-])cc5)c5nc(c(-c6ccc(S(=O)(=O)[O-])cc6)c6ccc3[nH]6)C=C5)C=C4)cc2)c(NC(=O)c2ccccc2OC)cc1OC
REMARK SMILES IDX 12 1 11 2 10 3 9 4 7 5 8 6 6 7 4 8 5 9 91 10 90 11 78 12
REMARK SMILES IDX 3 13 2 14 1 15 92 16 93 17 79 18 80 19 81 21 82 22 83 23
REMARK SMILES IDX 87 24 84 25 86 26 85 27 88 28 89 29 13 30 14 31 15 32 16 33
REMARK SMILES IDX 17 34 18 35 19 36 77 37 20 38 76 39 21 40 22 41 23 42 70 43
REMARK SMILES IDX 24 44 75 45 69 46 71 47 25 48 74 49 68 50 67 51 26 53 56 54
REMARK SMILES IDX 37 55 55 56 38 57 41 58 54 59 72 60 39 61 40 62 53 64 73 65
REMARK SMILES IDX 42 66 27 67 28 68 36 69 29 70 35 71 30 72 31 73 32 74 33 75
REMARK SMILES IDX 34 76 57 77 58 78 66 79 59 80 65 81 60 82 61 83 62 84 63 85
REMARK SMILES IDX 64 86 43 87 44 88 52 89 45 90 51 91 46 92 47 93 48 94 49 95
REMARK SMILES IDX 50 96
REMARK H PARENT 79 20 71 52 41 63
REMARK Flexibility Score: inf
ROOT
ATOM      1  O   UNL A   1      33.476  36.880  29.449  1.00  0.00    -0.374 OA
ENDROOT
BRANCH   1   2
ATOM      2  C   UNL A   1      33.615  36.001  28.332  1.00  0.00     0.202 C 
BRANCH   2   3
ATOM      3  C   UNL A   1      34.651  34.890  28.496  1.00  0.00     0.261 C 
BRANCH   3   4
ATOM      4  O   UNL A   1      34.213  33.590  28.925  1.00  0.00    -0.460 OA
BRANCH   4   5
ATOM      5  C   UNL A   1      35.089  32.655  29.364  1.00  0.00     0.340 C 
ATOM      6  O   UNL A   1      35.950  32.771  30.203  1.00  0.00    -0.246 OA
BRANCH   5   7
ATOM      7  C   UNL A   1      34.710  31.387  28.700  1.00  0.00     0.087 A 
ATOM      8  C   UNL A   1      33.775  30.366  26.709  1.00  0.00     0.162 A 
ATOM      9  C   UNL A   1      33.913  31.477  27.548  1.00  0.00     0.068 A 
ATOM     10  C   UNL A   1      34.525  29.212  26.952  1.00  0.00     0.162 A 
ATOM     11  C   UNL A   1      35.237  29.113  28.156  1.00  0.00     0.077 A 
ATOM     12  C   UNL A   1      35.260  30.159  29.088  1.00  0.00     0.060 A 
BRANCH   8  13
ATOM     13  O   UNL A   1      32.957  30.459  25.615  1.00  0.00    -0.490 OA
BRANCH  13  14
ATOM     14  C   UNL A   1      31.633  29.985  25.901  1.00  0.00     0.226 C 
ATOM     15  C   UNL A   1      31.033  29.428  24.620  1.00  0.00     0.049 C 
ENDBRANCH  13  14
ENDBRANCH   8  13
BRANCH  10  16
ATOM     16  O   UNL A   1      34.627  28.091  26.175  1.00  0.00    -0.493 OA
ATOM     17  C   UNL A   1      33.602  27.112  26.275  1.00  0.00     0.278 C 
ENDBRANCH  10  16
BRANCH  12  18
ATOM     18  N   UNL A   1      35.832  29.844  30.342  1.00  0.00    -0.321 N 
ATOM     19  C   UNL A   1      37.027  29.266  30.720  1.00  0.00     0.259 C 
ATOM     20  H   UNL A   1      35.259  30.089  31.103  1.00  0.00     0.170 HD
ATOM     21  O   UNL A   1      37.191  29.005  31.913  1.00  0.00    -0.269 OA
BRANCH  19  22
ATOM     22  C   UNL A   1      38.146  28.967  29.791  1.00  0.00     0.082 A 
ATOM     23  C   UNL A   1      38.768  27.716  29.966  1.00  0.00     0.018 A 
ATOM     24  C   UNL A   1      38.594  29.806  28.764  1.00  0.00     0.131 A 
ATOM     25  C   UNL A   1      39.679  27.228  29.030  1.00  0.00     0.001 A 
ATOM     26  C   UNL A   1      39.503  29.307  27.820  1.00  0.00     0.047 A 
ATOM     27  C   UNL A   1      40.024  28.016  27.938  1.00  0.00     0.004 A 
BRANCH  24  28
ATOM     28  O   UNL A   1      38.174  31.088  28.529  1.00  0.00    -0.496 OA
ATOM     29  C   UNL A   1      38.842  32.073  29.318  1.00  0.00     0.278 C 
ENDBRANCH  24  28
ENDBRANCH  19  22
ENDBRANCH  12  18
ENDBRANCH   5   7
ENDBRANCH   4   5
ENDBRANCH   3   4
ENDBRANCH   2   3
ENDBRANCH   1   2
BRANCH   1  30
ATOM     30  C   UNL A   1      32.484  36.511  30.399  1.00  0.00     0.202 C 
BRANCH  30  31
ATOM     31  C   UNL A   1      32.988  36.626  31.845  1.00  0.00     0.261 C 
BRANCH  31  32
ATOM     32  O   UNL A   1      34.218  35.919  32.068  1.00  0.00    -0.460 OA
BRANCH  32  33
ATOM     33  C   UNL A   1      34.063  34.741  32.729  1.00  0.00     0.338 C 
ATOM     34  O   UNL A   1      33.016  34.177  32.996  1.00  0.00    -0.246 OA
BRANCH  33  35
ATOM     35  C   UNL A   1      35.389  34.149  33.005  1.00  0.00     0.060 A 
ATOM     36  C   UNL A   1      35.440  32.842  33.506  1.00  0.00     0.016 A 
ATOM     37  C   UNL A   1      36.562  34.886  32.824  1.00  0.00     0.016 A 
ATOM     38  C   UNL A   1      36.662  32.294  33.900  1.00  0.00     0.010 A 
ATOM     39  C   UNL A   1      37.784  34.342  33.230  1.00  0.00     0.010 A 
ATOM     40  C   UNL A   1      37.830  33.064  33.818  1.00  0.00    -0.014 A 
BRANCH  40  41
ATOM     41  C   UNL A   1      39.035  32.646  34.576  1.00  0.00     0.031 A 
ATOM     42  C   UNL A   1      40.032  31.758  33.878  1.00  0.00     0.074 A 
ATOM     43  C   UNL A   1      39.258  33.051  35.840  1.00  0.00     0.049 A 
ATOM     44  N   UNL A   1      41.153  31.255  34.323  1.00  0.00    -0.248 NA
ATOM     45  C   UNL A   1      39.717  31.388  32.486  1.00  0.00     0.031 C 
ATOM     46  C   UNL A   1      38.392  33.939  36.611  1.00  0.00     0.029 A 
ATOM     47  N   UNL A   1      40.290  32.756  36.696  1.00  0.00    -0.354 N 
ATOM     48  C   UNL A   1      41.678  30.515  33.269  1.00  0.00     0.074 A 
ATOM     49  C   UNL A   1      40.739  30.607  32.173  1.00  0.00     0.031 C 
ATOM     50  C   UNL A   1      38.928  34.113  37.833  1.00  0.00     0.029 A 
ATOM     51  C   UNL A   1      40.158  33.329  37.938  1.00  0.00     0.049 A 
ATOM     52  H   UNL A   1      41.053  32.187  36.444  1.00  0.00     0.167 HD
ATOM     53  C   UNL A   1      42.840  29.822  33.213  1.00  0.00     0.031 A 
ATOM     54  C   UNL A   1      40.934  33.219  39.036  1.00  0.00     0.031 A 
ATOM     55  C   UNL A   1      43.758  29.700  34.311  1.00  0.00     0.049 A 
ATOM     56  C   UNL A   1      42.183  32.375  38.977  1.00  0.00     0.074 A 
ATOM     57  C   UNL A   1      44.961  29.018  34.357  1.00  0.00     0.029 A 
ATOM     58  N   UNL A   1      43.567  30.264  35.563  1.00  0.00    -0.354 N 
ATOM     59  N   UNL A   1      42.682  31.705  37.964  1.00  0.00    -0.248 NA
ATOM     60  C   UNL A   1      42.979  32.276  40.210  1.00  0.00     0.031 C 
ATOM     61  C   UNL A   1      45.472  29.126  35.656  1.00  0.00     0.029 A 
ATOM     62  C   UNL A   1      44.616  29.924  36.399  1.00  0.00     0.049 A 
ATOM     63  H   UNL A   1      42.799  30.823  35.820  1.00  0.00     0.167 HD
ATOM     64  C   UNL A   1      43.861  31.131  38.430  1.00  0.00     0.074 A 
ATOM     65  C   UNL A   1      44.007  31.540  39.812  1.00  0.00     0.031 C 
ATOM     66  C   UNL A   1      44.746  30.340  37.773  1.00  0.00     0.031 A 
BRANCH  53  67
ATOM     67  C   UNL A   1      43.153  29.108  31.926  1.00  0.00    -0.014 A 
ATOM     68  C   UNL A   1      43.783  29.775  30.859  1.00  0.00     0.010 A 
ATOM     69  C   UNL A   1      42.820  27.749  31.783  1.00  0.00     0.010 A 
ATOM     70  C   UNL A   1      44.034  29.107  29.656  1.00  0.00     0.020 A 
ATOM     71  C   UNL A   1      43.093  27.071  30.592  1.00  0.00     0.020 A 
ATOM     72  C   UNL A   1      43.681  27.761  29.529  1.00  0.00     0.054 A 
BRANCH  72  73
ATOM     73  S   UNL A   1      44.024  26.915  27.962  1.00  0.00     0.124 S 
ATOM     74  O   UNL A   1      43.143  25.752  28.049  1.00  0.00    -0.237 OA
ATOM     75  O   UNL A   1      43.647  27.914  26.966  1.00  0.00    -0.237 OA
ATOM     76  O   UNL A   1      45.453  26.618  28.032  1.00  0.00    -0.744 OA
ENDBRANCH  72  73
ENDBRANCH  53  67
BRANCH  54  77
ATOM     77  C   UNL A   1      40.547  33.913  40.297  1.00  0.00    -0.014 A 
ATOM     78  C   UNL A   1      40.955  35.235  40.546  1.00  0.00     0.010 A 
ATOM     79  C   UNL A   1      39.770  33.246  41.262  1.00  0.00     0.010 A 
ATOM     80  C   UNL A   1      40.607  35.872  41.742  1.00  0.00     0.020 A 
ATOM     81  C   UNL A   1      39.398  33.887  42.447  1.00  0.00     0.020 A 
ATOM     82  C   UNL A   1      39.828  35.194  42.685  1.00  0.00     0.054 A 
BRANCH  82  83
ATOM     83  S   UNL A   1      39.347  36.056  44.208  1.00  0.00     0.124 S 
ATOM     84  O   UNL A   1      40.232  35.449  45.195  1.00  0.00    -0.237 OA
ATOM     85  O   UNL A   1      39.623  37.453  43.882  1.00  0.00    -0.237 OA
ATOM     86  O   UNL A   1      37.930  35.727  44.353  1.00  0.00    -0.744 OA
ENDBRANCH  82  83
ENDBRANCH  54  77
BRANCH  66  87
ATOM     87  C   UNL A   1      45.971  29.887  38.523  1.00  0.00    -0.014 A 
ATOM     88  C   UNL A   1      45.989  28.667  39.222  1.00  0.00     0.010 A 
ATOM     89  C   UNL A   1      47.143  30.663  38.467  1.00  0.00     0.010 A 
ATOM     90  C   UNL A   1      47.152  28.245  39.874  1.00  0.00     0.020 A 
ATOM     91  C   UNL A   1      48.314  30.233  39.097  1.00  0.00     0.020 A 
ATOM     92  C   UNL A   1      48.307  29.031  39.807  1.00  0.00     0.054 A 
BRANCH  92  93
ATOM     93  S   UNL A   1      49.817  28.440  40.621  1.00  0.00     0.124 S 
ATOM     94  O   UNL A   1      50.102  29.523  41.558  1.00  0.00    -0.237 OA
ATOM     95  O   UNL A   1      49.385  27.182  41.226  1.00  0.00    -0.237 OA
ATOM     96  O   UNL A   1      50.770  28.300  39.522  1.00  0.00    -0.744 OA
ENDBRANCH  92  93
ENDBRANCH  66  87
ENDBRANCH  40  41
ENDBRANCH  33  35
ENDBRANCH  32  33
ENDBRANCH  31  32
ENDBRANCH  30  31
ENDBRANCH   1  30
TORSDOF 23
ENDMDL
MODEL 2
REMARK VINA RESULT:      -7.2      4.109      9.756
REMARK SMILES CCOc1cc(C(=O)OCCOCCOC(=O)c2ccc(-c3c4nc(c(-c5ccc(S(=O)(=O)[O-])cc5)c5ccc([nH]5)c(-c5ccc(S(=O)(=O)[O-])cc5)c5nc(c(-c6ccc(S(=O)(=O)[O-])cc6)c6ccc3[nH]6)C=C5)C=C4)cc2)c(NC(=O)c2ccccc2OC)cc1OC
REMARK SMILES IDX 12 1 11 2 10 3 9 4 7 5 8 6 6 7 4 8 5 9 91 10 90 11 78 12
REMARK SMILES IDX 3 13 2 14 1 15 92 16 93 17 79 18 80 19 81 21 82 22 83 23
REMARK SMILES IDX 87 24 84 25 86 26 85 27 88 28 89 29 13 30 14 31 15 32 16 33
REMARK SMILES IDX 17 34 18 35 19 36 77 37 20 38 76 39 21 40 22 41 23 42 70 43
REMARK SMILES IDX 24 44 75 45 69 46 71 47 25 48 74 49 68 50 67 51 26 53 56 54
REMARK SMILES IDX 37 55 55 56 38 57 41 58 54 59 72 60 39 61 40 62 53 64 73 65
REMARK SMILES IDX 42 66 27 67 28 68 36 69 29 70 35 71 30 72 31 73 32 74 33 75
REMARK SMILES IDX 34 76 57 77 58 78 66 79 59 80 65 81 60 82 61 83 62 84 63 85
REMARK SMILES IDX 64 86 43 87 44 88 52 89 45 90 51 91 46 92 47 93 48 94 49 95
REMARK SMILES IDX 50 96
REMARK H PARENT 79 20 71 52 41 63
REMARK Flexibility Score: inf
ROOT
ATOM      1  O   UNL A   1      40.141  36.371  37.119  1.00  0.00    -0.374 OA
ENDROOT
BRANCH   1   2
ATOM      2  C   UNL A   1      39.363  35.179  37.231  1.00  0.00     0.202 C 
BRANCH   2   3
ATOM      3  C   UNL A   1      39.497  34.196  36.069  1.00  0.00     0.261 C 
BRANCH   3   4
ATOM      4  O   UNL A   1      38.986  32.861  36.227  1.00  0.00    -0.460 OA
BRANCH   4   5
ATOM      5  C   UNL A   1      37.695  32.559  35.950  1.00  0.00     0.340 C 
ATOM      6  O   UNL A   1      36.701  32.903  36.544  1.00  0.00    -0.246 OA
BRANCH   5   7
ATOM      7  C   UNL A   1      37.709  31.808  34.674  1.00  0.00     0.087 A 
ATOM      8  C   UNL A   1      38.458  29.802  33.534  1.00  0.00     0.162 A 
ATOM      9  C   UNL A   1      38.602  30.730  34.572  1.00  0.00     0.068 A 
ATOM     10  C   UNL A   1      37.356  29.882  32.678  1.00  0.00     0.162 A 
ATOM     11  C   UNL A   1      36.536  31.017  32.739  1.00  0.00     0.077 A 
ATOM     12  C   UNL A   1      36.759  32.039  33.672  1.00  0.00     0.060 A 
BRANCH   8  13
ATOM     13  O   UNL A   1      39.366  28.784  33.424  1.00  0.00    -0.490 OA
BRANCH  13  14
ATOM     14  C   UNL A   1      40.689  29.212  33.777  1.00  0.00     0.226 C 
ATOM     15  C   UNL A   1      41.555  29.185  32.527  1.00  0.00     0.049 C 
ENDBRANCH  13  14
ENDBRANCH   8  13
BRANCH  10  16
ATOM     16  O   UNL A   1      36.977  28.998  31.705  1.00  0.00    -0.493 OA
ATOM     17  C   UNL A   1      36.645  29.516  30.424  1.00  0.00     0.278 C 
ENDBRANCH  10  16
BRANCH  12  18
ATOM     18  N   UNL A   1      35.995  33.213  33.482  1.00  0.00    -0.321 N 
ATOM     19  C   UNL A   1      36.034  34.229  32.548  1.00  0.00     0.259 C 
ATOM     20  H   UNL A   1      35.288  33.330  34.156  1.00  0.00     0.170 HD
ATOM     21  O   UNL A   1      35.299  35.203  32.723  1.00  0.00    -0.269 OA
BRANCH  19  22
ATOM     22  C   UNL A   1      36.876  34.214  31.326  1.00  0.00     0.082 A 
ATOM     23  C   UNL A   1      38.199  34.666  31.490  1.00  0.00     0.018 A 
ATOM     24  C   UNL A   1      36.467  33.767  30.064  1.00  0.00     0.131 A 
ATOM     25  C   UNL A   1      39.146  34.500  30.481  1.00  0.00     0.001 A 
ATOM     26  C   UNL A   1      37.425  33.593  29.056  1.00  0.00     0.047 A 
ATOM     27  C   UNL A   1      38.764  33.934  29.271  1.00  0.00     0.004 A 
BRANCH  24  28
ATOM     28  O   UNL A   1      35.196  33.400  29.713  1.00  0.00    -0.496 OA
ATOM     29  C   UNL A   1      34.503  34.375  28.933  1.00  0.00     0.278 C 
ENDBRANCH  24  28
ENDBRANCH  19  22
ENDBRANCH  12  18
ENDBRANCH   5   7
ENDBRANCH   4   5
ENDBRANCH   3   4
ENDBRANCH   2   3
ENDBRANCH   1   2
BRANCH   1  30
ATOM     30  C   UNL A   1      40.422  37.038  38.343  1.00  0.00     0.202 C 
BRANCH  30  31
ATOM     31  C   UNL A   1      40.633  36.059  39.507  1.00  0.00     0.261 C 
BRANCH  31  32
ATOM     32  O   UNL A   1      41.952  35.493  39.531  1.00  0.00    -0.460 OA
BRANCH  32  33
ATOM     33  C   UNL A   1      42.010  34.255  40.090  1.00  0.00     0.338 C 
ATOM     34  O   UNL A   1      41.657  33.936  41.213  1.00  0.00    -0.246 OA
BRANCH  33  35
ATOM     35  C   UNL A   1      42.478  33.278  39.085  1.00  0.00     0.060 A 
ATOM     36  C   UNL A   1      43.843  33.252  38.772  1.00  0.00     0.016 A 
ATOM     37  C   UNL A   1      41.582  32.436  38.422  1.00  0.00     0.016 A 
ATOM     38  C   UNL A   1      44.305  32.435  37.739  1.00  0.00     0.010 A 
ATOM     39  C   UNL A   1      42.043  31.627  37.380  1.00  0.00     0.010 A 
ATOM     40  C   UNL A   1      43.397  31.663  37.001  1.00  0.00    -0.014 A 
BRANCH  40  41
ATOM     41  C   UNL A   1      43.809  31.108  35.687  1.00  0.00     0.031 A 
ATOM     42  C   UNL A   1      44.280  29.678  35.645  1.00  0.00     0.074 A 
ATOM     43  C   UNL A   1      43.754  31.837  34.558  1.00  0.00     0.049 A 
ATOM     44  N   UNL A   1      44.695  28.968  34.629  1.00  0.00    -0.248 NA
ATOM     45  C   UNL A   1      44.281  28.950  36.928  1.00  0.00     0.031 C 
ATOM     46  C   UNL A   1      43.283  33.216  34.459  1.00  0.00     0.029 A 
ATOM     47  N   UNL A   1      44.106  31.506  33.272  1.00  0.00    -0.354 N 
ATOM     48  C   UNL A   1      45.002  27.714  35.146  1.00  0.00     0.074 A 
ATOM     49  C   UNL A   1      44.757  27.768  36.570  1.00  0.00     0.031 C 
ATOM     50  C   UNL A   1      43.381  33.617  33.178  1.00  0.00     0.029 A 
ATOM     51  C   UNL A   1      43.945  32.534  32.374  1.00  0.00     0.049 A 
ATOM     52  H   UNL A   1      44.443  30.617  33.018  1.00  0.00     0.167 HD
ATOM     53  C   UNL A   1      45.446  26.613  34.497  1.00  0.00     0.031 A 
ATOM     54  C   UNL A   1      44.236  32.596  31.058  1.00  0.00     0.031 A 
ATOM     55  C   UNL A   1      45.724  26.566  33.088  1.00  0.00     0.049 A 
ATOM     56  C   UNL A   1      44.807  31.381  30.369  1.00  0.00     0.074 A 
ATOM     57  C   UNL A   1      46.180  25.500  32.334  1.00  0.00     0.029 A 
ATOM     58  N   UNL A   1      45.584  27.641  32.222  1.00  0.00    -0.354 N 
ATOM     59  N   UNL A   1      45.064  30.193  30.866  1.00  0.00    -0.248 NA
ATOM     60  C   UNL A   1      45.122  31.513  28.939  1.00  0.00     0.031 C 
ATOM     61  C   UNL A   1      46.367  25.945  31.020  1.00  0.00     0.029 A 
ATOM     62  C   UNL A   1      45.971  27.271  30.946  1.00  0.00     0.049 A 
ATOM     63  H   UNL A   1      45.259  28.534  32.477  1.00  0.00     0.167 HD
ATOM     64  C   UNL A   1      45.543  29.431  29.804  1.00  0.00     0.074 A 
ATOM     65  C   UNL A   1      45.531  30.288  28.636  1.00  0.00     0.031 C 
ATOM     66  C   UNL A   1      45.952  28.138  29.794  1.00  0.00     0.031 A 
BRANCH  53  67
ATOM     67  C   UNL A   1      45.696  25.381  35.324  1.00  0.00    -0.014 A 
ATOM     68  C   UNL A   1      46.948  25.150  35.924  1.00  0.00     0.010 A 
ATOM     69  C   UNL A   1      44.664  24.445  35.512  1.00  0.00     0.010 A 
ATOM     70  C   UNL A   1      47.176  23.983  36.660  1.00  0.00     0.020 A 
ATOM     71  C   UNL A   1      44.880  23.290  36.268  1.00  0.00     0.020 A 
ATOM     72  C   UNL A   1      46.141  23.058  36.821  1.00  0.00     0.054 A 
BRANCH  72  73
ATOM     73  S   UNL A   1      46.459  21.555  37.786  1.00  0.00     0.124 S 
ATOM     74  O   UNL A   1      47.918  21.555  37.872  1.00  0.00    -0.237 OA
ATOM     75  O   UNL A   1      45.756  21.821  39.038  1.00  0.00    -0.237 OA
ATOM     76  O   UNL A   1      45.884  20.489  36.968  1.00  0.00    -0.744 OA
ENDBRANCH  72  73
ENDBRANCH  53  67
BRANCH  54  77
ATOM     77  C   UNL A   1      44.009  33.859  30.301  1.00  0.00    -0.014 A 
ATOM     78  C   UNL A   1      45.049  34.786  30.118  1.00  0.00     0.010 A 
ATOM     79  C   UNL A   1      42.739  34.143  29.765  1.00  0.00     0.010 A 
ATOM     80  C   UNL A   1      44.821  35.981  29.426  1.00  0.00     0.020 A 
ATOM     81  C   UNL A   1      42.514  35.324  29.050  1.00  0.00     0.020 A 
ATOM     82  C   UNL A   1      43.555  36.241  28.894  1.00  0.00     0.054 A 
BRANCH  82  83
ATOM     83  S   UNL A   1      43.295  37.774  27.957  1.00  0.00     0.124 S 
ATOM     84  O   UNL A   1      42.233  37.390  27.034  1.00  0.00    -0.237 OA
ATOM     85  O   UNL A   1      42.916  38.723  29.000  1.00  0.00    -0.237 OA
ATOM     86  O   UNL A   1      44.598  38.023  27.342  1.00  0.00    -0.744 OA
ENDBRANCH  82  83
ENDBRANCH  54  77
BRANCH  66  87
ATOM     87  C   UNL A   1      46.392  27.552  28.477  1.00  0.00    -0.014 A 
ATOM     88  C   UNL A   1      45.478  26.912  27.622  1.00  0.00     0.010 A 
ATOM     89  C   UNL A   1      47.727  27.710  28.062  1.00  0.00     0.010 A 
ATOM     90  C   UNL A   1      45.899  26.415  26.385  1.00  0.00     0.020 A 
ATOM     91  C   UNL A   1      48.145  27.237  26.816  1.00  0.00     0.020 A 
ATOM     92  C   UNL A   1      47.231  26.581  25.990  1.00  0.00     0.054 A 
BRANCH  92  93
ATOM     93  S   UNL A   1      47.743  25.971  24.359  1.00  0.00     0.124 S 
ATOM     94  O   UNL A   1      47.255  27.024  23.474  1.00  0.00    -0.237 OA
ATOM     95  O   UNL A   1      49.195  25.882  24.490  1.00  0.00    -0.237 OA
ATOM     96  O   UNL A   1      47.055  24.687  24.239  1.00  0.00    -0.744 OA
ENDBRANCH  92  93
ENDBRANCH  66  87
ENDBRANCH  40  41
ENDBRANCH  33  35
ENDBRANCH  32  33
ENDBRANCH  31  32
ENDBRANCH  30  31
ENDBRANCH   1  30
TORSDOF 23
ENDMDL
MODEL 3
REMARK VINA RESULT:      -7.2     10.145     14.505
REMARK SMILES CCOc1cc(C(=O)OCCOCCOC(=O)c2ccc(-c3c4nc(c(-c5ccc(S(=O)(=O)[O-])cc5)c5ccc([nH]5)c(-c5ccc(S(=O)(=O)[O-])cc5)c5nc(c(-c6ccc(S(=O)(=O)[O-])cc6)c6ccc3[nH]6)C=C5)C=C4)cc2)c(NC(=O)c2ccccc2OC)cc1OC
REMARK SMILES IDX 12 1 11 2 10 3 9 4 7 5 8 6 6 7 4 8 5 9 91 10 90 11 78 12
REMARK SMILES IDX 3 13 2 14 1 15 92 16 93 17 79 18 80 19 81 21 82 22 83 23
REMARK SMILES IDX 87 24 84 25 86 26 85 27 88 28 89 29 13 30 14 31 15 32 16 33
REMARK SMILES IDX 17 34 18 35 19 36 77 37 20 38 76 39 21 40 22 41 23 42 70 43
REMARK SMILES IDX 24 44 75 45 69 46 71 47 25 48 74 49 68 50 67 51 26 53 56 54
REMARK SMILES IDX 37 55 55 56 38 57 41 58 54 59 72 60 39 61 40 62 53 64 73 65
REMARK SMILES IDX 42 66 27 67 28 68 36 69 29 70 35 71 30 72 31 73 32 74 33 75
REMARK SMILES IDX 34 76 57 77 58 78 66 79 59 80 65 81 60 82 61 83 62 84 63 85
REMARK SMILES IDX 64 86 43 87 44 88 52 89 45 90 51 91 46 92 47 93 48 94 49 95
REMARK SMILES IDX 50 96
REMARK H PARENT 79 20 71 52 41 63
REMARK Flexibility Score: inf
ROOT
ATOM      1  O   UNL A   1      44.833  41.357  24.717  1.00  0.00    -0.374 OA
ENDROOT
BRANCH   1   2
ATOM      2  C   UNL A   1      45.019  42.741  25.014  1.00  0.00     0.202 C 
BRANCH   2   3
ATOM      3  C   UNL A   1      46.160  43.425  24.262  1.00  0.00     0.261 C 
BRANCH   3   4
ATOM      4  O   UNL A   1      45.858  44.542  23.408  1.00  0.00    -0.460 OA
BRANCH   4   5
ATOM      5  C   UNL A   1      46.813  45.426  23.032  1.00  0.00     0.340 C 
ATOM      6  O   UNL A   1      47.775  45.802  23.659  1.00  0.00    -0.246 OA
BRANCH   5   7
ATOM      7  C   UNL A   1      46.527  45.769  21.621  1.00  0.00     0.087 A 
ATOM      8  C   UNL A   1      46.308  47.555  19.994  1.00  0.00     0.162 A 
ATOM      9  C   UNL A   1      46.281  47.119  21.323  1.00  0.00     0.068 A 
ATOM     10  C   UNL A   1      46.699  46.676  18.981  1.00  0.00     0.162 A 
ATOM     11  C   UNL A   1      46.847  45.316  19.288  1.00  0.00     0.077 A 
ATOM     12  C   UNL A   1      46.668  44.830  20.591  1.00  0.00     0.060 A 
BRANCH   8  13
ATOM     13  O   UNL A   1      46.019  48.865  19.720  1.00  0.00    -0.490 OA
BRANCH  13  14
ATOM     14  C   UNL A   1      44.666  49.193  20.067  1.00  0.00     0.226 C 
ATOM     15  C   UNL A   1      43.801  49.054  18.824  1.00  0.00     0.049 C 
ENDBRANCH  13  14
ENDBRANCH   8  13
BRANCH  10  16
ATOM     16  O   UNL A   1      46.916  46.953  17.659  1.00  0.00    -0.493 OA
ATOM     17  C   UNL A   1      45.828  46.805  16.757  1.00  0.00     0.278 C 
ENDBRANCH  10  16
BRANCH  12  18
ATOM     18  N   UNL A   1      46.635  43.423  20.716  1.00  0.00    -0.321 N 
ATOM     19  C   UNL A   1      45.610  42.503  20.809  1.00  0.00     0.259 C 
ATOM     20  H   UNL A   1      47.530  43.014  20.742  1.00  0.00     0.170 HD
ATOM     21  O   UNL A   1      45.906  41.329  21.039  1.00  0.00    -0.269 OA
BRANCH  19  22
ATOM     22  C   UNL A   1      44.174  42.824  20.617  1.00  0.00     0.082 A 
ATOM     23  C   UNL A   1      43.333  42.544  21.711  1.00  0.00     0.018 A 
ATOM     24  C   UNL A   1      43.617  43.397  19.467  1.00  0.00     0.131 A 
ATOM     25  C   UNL A   1      42.015  42.994  21.739  1.00  0.00     0.001 A 
ATOM     26  C   UNL A   1      42.293  43.857  19.505  1.00  0.00     0.047 A 
ATOM     27  C   UNL A   1      41.503  43.680  20.643  1.00  0.00     0.004 A 
BRANCH  24  28
ATOM     28  O   UNL A   1      44.270  43.631  18.287  1.00  0.00    -0.496 OA
ATOM     29  C   UNL A   1      43.402  43.925  17.191  1.00  0.00     0.278 C 
ENDBRANCH  24  28
ENDBRANCH  19  22
ENDBRANCH  12  18
ENDBRANCH   5   7
ENDBRANCH   4   5
ENDBRANCH   3   4
ENDBRANCH   2   3
ENDBRANCH   1   2
BRANCH   1  30
ATOM     30  C   UNL A   1      45.193  40.453  25.754  1.00  0.00     0.202 C 
BRANCH  30  31
ATOM     31  C   UNL A   1      43.995  40.060  26.630  1.00  0.00     0.261 C 
BRANCH  31  32
ATOM     32  O   UNL A   1      43.874  38.641  26.811  1.00  0.00    -0.460 OA
BRANCH  32  33
ATOM     33  C   UNL A   1      42.599  38.219  27.020  1.00  0.00     0.338 C 
ATOM     34  O   UNL A   1      41.584  38.650  26.499  1.00  0.00    -0.246 OA
BRANCH  33  35
ATOM     35  C   UNL A   1      42.605  37.048  27.922  1.00  0.00     0.060 A 
ATOM     36  C   UNL A   1      43.671  36.908  28.820  1.00  0.00     0.016 A 
ATOM     37  C   UNL A   1      41.606  36.074  27.849  1.00  0.00     0.016 A 
ATOM     38  C   UNL A   1      43.780  35.754  29.597  1.00  0.00     0.010 A 
ATOM     39  C   UNL A   1      41.722  34.913  28.618  1.00  0.00     0.010 A 
ATOM     40  C   UNL A   1      42.837  34.726  29.455  1.00  0.00    -0.014 A 
BRANCH  40  41
ATOM     41  C   UNL A   1      43.151  33.371  29.972  1.00  0.00     0.031 A 
ATOM     42  C   UNL A   1      42.729  33.041  31.380  1.00  0.00     0.074 A 
ATOM     43  C   UNL A   1      43.775  32.448  29.218  1.00  0.00     0.049 A 
ATOM     44  N   UNL A   1      42.891  31.936  32.060  1.00  0.00    -0.248 NA
ATOM     45  C   UNL A   1      42.029  34.105  32.121  1.00  0.00     0.031 C 
ATOM     46  C   UNL A   1      44.199  32.630  27.831  1.00  0.00     0.029 A 
ATOM     47  N   UNL A   1      44.161  31.166  29.524  1.00  0.00    -0.354 N 
ATOM     48  C   UNL A   1      42.312  32.170  33.302  1.00  0.00     0.074 A 
ATOM     49  C   UNL A   1      41.823  33.530  33.296  1.00  0.00     0.031 C 
ATOM     50  C   UNL A   1      44.794  31.500  27.408  1.00  0.00     0.029 A 
ATOM     51  C   UNL A   1      44.816  30.526  28.499  1.00  0.00     0.049 A 
ATOM     52  H   UNL A   1      43.986  30.745  30.398  1.00  0.00     0.167 HD
ATOM     53  C   UNL A   1      42.192  31.329  34.356  1.00  0.00     0.031 A 
ATOM     54  C   UNL A   1      45.381  29.303  28.456  1.00  0.00     0.031 A 
ATOM     55  C   UNL A   1      42.708  29.987  34.378  1.00  0.00     0.049 A 
ATOM     56  C   UNL A   1      45.308  28.410  29.670  1.00  0.00     0.074 A 
ATOM     57  C   UNL A   1      42.641  29.055  35.397  1.00  0.00     0.029 A 
ATOM     58  N   UNL A   1      43.398  29.392  33.333  1.00  0.00    -0.354 N 
ATOM     59  N   UNL A   1      44.730  28.634  30.828  1.00  0.00    -0.248 NA
ATOM     60  C   UNL A   1      45.958  27.095  29.570  1.00  0.00     0.031 C 
ATOM     61  C   UNL A   1      43.339  27.913  34.989  1.00  0.00     0.029 A 
ATOM     62  C   UNL A   1      43.788  28.114  33.693  1.00  0.00     0.049 A 
ATOM     63  H   UNL A   1      43.584  29.816  32.464  1.00  0.00     0.167 HD
ATOM     64  C   UNL A   1      44.924  27.480  31.581  1.00  0.00     0.074 A 
ATOM     65  C   UNL A   1      45.662  26.555  30.745  1.00  0.00     0.031 C 
ATOM     66  C   UNL A   1      44.523  27.207  32.847  1.00  0.00     0.031 A 
BRANCH  53  67
ATOM     67  C   UNL A   1      41.510  31.861  35.587  1.00  0.00    -0.014 A 
ATOM     68  C   UNL A   1      40.109  31.820  35.717  1.00  0.00     0.010 A 
ATOM     69  C   UNL A   1      42.279  32.404  36.631  1.00  0.00     0.010 A 
ATOM     70  C   UNL A   1      39.488  32.352  36.851  1.00  0.00     0.020 A 
ATOM     71  C   UNL A   1      41.664  32.913  37.778  1.00  0.00     0.020 A 
ATOM     72  C   UNL A   1      40.270  32.901  37.871  1.00  0.00     0.054 A 
BRANCH  72  73
ATOM     73  S   UNL A   1      39.442  33.578  39.335  1.00  0.00     0.124 S 
ATOM     74  O   UNL A   1      40.270  33.054  40.420  1.00  0.00    -0.237 OA
ATOM     75  O   UNL A   1      39.531  35.020  39.118  1.00  0.00    -0.237 OA
ATOM     76  O   UNL A   1      38.092  33.023  39.260  1.00  0.00    -0.744 OA
ENDBRANCH  72  73
ENDBRANCH  53  67
BRANCH  54  77
ATOM     77  C   UNL A   1      46.084  28.848  27.223  1.00  0.00    -0.014 A 
ATOM     78  C   UNL A   1      47.470  29.029  27.075  1.00  0.00     0.010 A 
ATOM     79  C   UNL A   1      45.361  28.236  26.182  1.00  0.00     0.010 A 
ATOM     80  C   UNL A   1      48.118  28.621  25.904  1.00  0.00     0.020 A 
ATOM     81  C   UNL A   1      46.009  27.802  25.021  1.00  0.00     0.020 A 
ATOM     82  C   UNL A   1      47.384  28.007  24.885  1.00  0.00     0.054 A 
BRANCH  82  83
ATOM     83  S   UNL A   1      48.254  27.439  23.396  1.00  0.00     0.124 S 
ATOM     84  O   UNL A   1      47.556  28.165  22.341  1.00  0.00    -0.237 OA
ATOM     85  O   UNL A   1      49.628  27.860  23.653  1.00  0.00    -0.237 OA
ATOM     86  O   UNL A   1      48.040  25.993  23.407  1.00  0.00    -0.744 OA
ENDBRANCH  82  83
ENDBRANCH  54  77
BRANCH  66  87
ATOM     87  C   UNL A   1      44.843  25.844  33.404  1.00  0.00    -0.014 A 
ATOM     88  C   UNL A   1      45.933  25.646  34.269  1.00  0.00     0.010 A 
ATOM     89  C   UNL A   1      43.993  24.761  33.111  1.00  0.00     0.010 A 
ATOM     90  C   UNL A   1      46.184  24.381  34.809  1.00  0.00     0.020 A 
ATOM     91  C   UNL A   1      44.227  23.501  33.669  1.00  0.00     0.020 A 
ATOM     92  C   UNL A   1      45.329  23.317  34.505  1.00  0.00     0.054 A 
BRANCH  92  93
ATOM     93  S   UNL A   1      45.647  21.696  35.257  1.00  0.00     0.124 S 
ATOM     94  O   UNL A   1      44.528  20.903  34.756  1.00  0.00    -0.237 OA
ATOM     95  O   UNL A   1      46.959  21.343  34.719  1.00  0.00    -0.237 OA
ATOM     96  O   UNL A   1      45.624  21.969  36.692  1.00  0.00    -0.744 OA
ENDBRANCH  92  93
ENDBRANCH  66  87
ENDBRANCH  40  41
ENDBRANCH  33  35
ENDBRANCH  32  33
ENDBRANCH  31  32
ENDBRANCH  30  31
ENDBRANCH   1  30
TORSDOF 23
ENDMDL
