MODEL 1
REMARK VINA RESULT:     -11.0      0.000      0.000
REMARK SMILES O=C(OCCOCCOC(=O)[C@@H]1CCCC[C@@H]1C(=O)Nc1cccc(C(F)(F)F)c1)c1ccc(-c2c3nc(c(-c4ccc(S(=O)(=O)[O-])cc4)c4ccc([nH]4)c(-c4ccc(S(=O)(=O)[O-])cc4)c4nc(c(-c5ccc(S(=O)(=O)[O-])cc5)c5ccc2[nH]5)C=C4)C=C3)cc1
REMARK SMILES IDX 6 1 5 2 4 3 3 4 2 5 1 6 31 7 32 8 90 9 33 10 89 11 34 12
REMARK SMILES IDX 35 13 36 14 83 15 37 16 88 17 82 18 84 19 38 20 87 21 81 22
REMARK SMILES IDX 80 23 39 25 69 26 50 27 68 28 51 29 54 30 67 31 85 32 52 33
REMARK SMILES IDX 53 34 66 36 86 37 55 38 40 39 41 40 49 41 42 42 48 43 43 44
REMARK SMILES IDX 44 45 45 46 46 47 47 48 70 49 71 50 79 51 72 52 78 53 73 54
REMARK SMILES IDX 74 55 75 56 76 57 77 58 56 59 57 60 65 61 58 62 64 63 59 64
REMARK SMILES IDX 60 65 61 66 62 67 63 68 7 69 8 70 9 71 10 72 11 73 12 74
REMARK SMILES IDX 13 75 17 76 14 77 16 78 15 79 18 80 19 81 20 82 21 84 22 85
REMARK SMILES IDX 30 86 23 87 25 88 24 89 26 90 27 91 28 92 29 93
REMARK H PARENT 84 24 54 35 20 83
REMARK Flexibility Score: inf
ROOT
ATOM      1  O   UNL A   1      36.872  20.325  25.159  1.00  0.00    -0.374 OA
ENDROOT
BRANCH   1   2
ATOM      2  C   UNL A   1      38.011  21.174  24.994  1.00  0.00     0.202 C 
BRANCH   2   3
ATOM      3  C   UNL A   1      39.118  21.202  26.066  1.00  0.00     0.261 C 
BRANCH   3   4
ATOM      4  O   UNL A   1      40.017  20.083  25.968  1.00  0.00    -0.460 OA
BRANCH   4   5
ATOM      5  C   UNL A   1      41.371  20.121  26.048  1.00  0.00     0.338 C 
ATOM      6  O   UNL A   1      42.022  19.104  25.823  1.00  0.00    -0.246 OA
BRANCH   5   7
ATOM      7  C   UNL A   1      42.098  21.367  26.422  1.00  0.00     0.060 A 
ATOM      8  C   UNL A   1      42.377  22.376  25.508  1.00  0.00     0.016 A 
ATOM      9  C   UNL A   1      42.453  21.588  27.756  1.00  0.00     0.016 A 
ATOM     10  C   UNL A   1      42.970  23.555  25.840  1.00  0.00     0.010 A 
ATOM     11  C   UNL A   1      43.033  22.806  28.132  1.00  0.00     0.010 A 
ATOM     12  C   UNL A   1      43.258  23.790  27.164  1.00  0.00    -0.014 A 
BRANCH  12  13
ATOM     13  C   UNL A   1      43.872  25.087  27.404  1.00  0.00     0.031 A 
ATOM     14  C   UNL A   1      43.010  26.149  27.981  1.00  0.00     0.074 A 
ATOM     15  C   UNL A   1      45.213  25.175  27.327  1.00  0.00     0.049 A 
ATOM     16  N   UNL A   1      43.294  27.397  28.190  1.00  0.00    -0.248 NA
ATOM     17  C   UNL A   1      41.649  25.753  28.396  1.00  0.00     0.031 C 
ATOM     18  C   UNL A   1      46.123  24.059  27.014  1.00  0.00     0.029 A 
ATOM     19  N   UNL A   1      46.051  26.227  27.549  1.00  0.00    -0.354 N 
ATOM     20  C   UNL A   1      42.125  27.958  28.676  1.00  0.00     0.074 A 
ATOM     21  C   UNL A   1      41.142  26.909  28.793  1.00  0.00     0.031 C 
ATOM     22  C   UNL A   1      47.389  24.498  27.051  1.00  0.00     0.029 A 
ATOM     23  C   UNL A   1      47.369  25.934  27.283  1.00  0.00     0.049 A 
ATOM     24  H   UNL A   1      45.745  27.106  27.866  1.00  0.00     0.167 HD
ATOM     25  C   UNL A   1      41.911  29.262  28.941  1.00  0.00     0.031 A 
ATOM     26  C   UNL A   1      48.412  26.770  27.151  1.00  0.00     0.031 A 
ATOM     27  C   UNL A   1      42.947  30.244  28.795  1.00  0.00     0.049 A 
ATOM     28  C   UNL A   1      48.115  28.234  27.328  1.00  0.00     0.074 A 
ATOM     29  C   UNL A   1      42.872  31.610  28.965  1.00  0.00     0.029 A 
ATOM     30  N   UNL A   1      44.256  29.947  28.433  1.00  0.00    -0.354 N 
ATOM     31  N   UNL A   1      46.988  28.801  27.702  1.00  0.00    -0.248 NA
ATOM     32  C   UNL A   1      49.198  29.174  27.033  1.00  0.00     0.031 C 
ATOM     33  C   UNL A   1      44.121  32.145  28.638  1.00  0.00     0.029 A 
ATOM     34  C   UNL A   1      44.993  31.107  28.330  1.00  0.00     0.049 A 
ATOM     35  H   UNL A   1      44.605  29.040  28.273  1.00  0.00     0.167 HD
ATOM     36  C   UNL A   1      47.227  30.165  27.690  1.00  0.00     0.074 A 
ATOM     37  C   UNL A   1      48.617  30.334  27.305  1.00  0.00     0.031 C 
ATOM     38  C   UNL A   1      46.383  31.193  27.953  1.00  0.00     0.031 A 
BRANCH  25  39
ATOM     39  C   UNL A   1      40.509  29.685  29.259  1.00  0.00    -0.014 A 
ATOM     40  C   UNL A   1      40.102  30.018  30.561  1.00  0.00     0.010 A 
ATOM     41  C   UNL A   1      39.576  29.749  28.207  1.00  0.00     0.010 A 
ATOM     42  C   UNL A   1      38.781  30.405  30.806  1.00  0.00     0.020 A 
ATOM     43  C   UNL A   1      38.262  30.156  28.443  1.00  0.00     0.020 A 
ATOM     44  C   UNL A   1      37.872  30.478  29.744  1.00  0.00     0.054 A 
BRANCH  44  45
ATOM     45  S   UNL A   1      36.185  31.052  30.079  1.00  0.00     0.124 S 
ATOM     46  O   UNL A   1      36.012  30.681  31.481  1.00  0.00    -0.237 OA
ATOM     47  O   UNL A   1      36.278  32.486  29.815  1.00  0.00    -0.237 OA
ATOM     48  O   UNL A   1      35.366  30.299  29.131  1.00  0.00    -0.744 OA
ENDBRANCH  44  45
ENDBRANCH  25  39
BRANCH  26  49
ATOM     49  C   UNL A   1      49.739  26.276  26.687  1.00  0.00    -0.014 A 
ATOM     50  C   UNL A   1      50.713  25.835  27.598  1.00  0.00     0.010 A 
ATOM     51  C   UNL A   1      50.053  26.281  25.312  1.00  0.00     0.010 A 
ATOM     52  C   UNL A   1      51.983  25.449  27.148  1.00  0.00     0.020 A 
ATOM     53  C   UNL A   1      51.306  25.863  24.855  1.00  0.00     0.020 A 
ATOM     54  C   UNL A   1      52.273  25.474  25.780  1.00  0.00     0.054 A 
BRANCH  54  55
ATOM     55  S   UNL A   1      53.930  24.990  25.223  1.00  0.00     0.124 S 
ATOM     56  O   UNL A   1      54.098  25.811  24.027  1.00  0.00    -0.237 OA
ATOM     57  O   UNL A   1      54.767  25.352  26.363  1.00  0.00    -0.237 OA
ATOM     58  O   UNL A   1      53.806  23.554  24.982  1.00  0.00    -0.744 OA
ENDBRANCH  54  55
ENDBRANCH  26  49
BRANCH  38  59
ATOM     59  C   UNL A   1      46.956  32.573  27.851  1.00  0.00    -0.014 A 
ATOM     60  C   UNL A   1      47.594  33.168  28.952  1.00  0.00     0.010 A 
ATOM     61  C   UNL A   1      46.948  33.227  26.607  1.00  0.00     0.010 A 
ATOM     62  C   UNL A   1      48.211  34.408  28.809  1.00  0.00     0.020 A 
ATOM     63  C   UNL A   1      47.593  34.452  26.455  1.00  0.00     0.020 A 
ATOM     64  C   UNL A   1      48.216  35.036  27.559  1.00  0.00     0.054 A 
BRANCH  64  65
ATOM     65  S   UNL A   1      49.108  36.601  27.381  1.00  0.00     0.124 S 
ATOM     66  O   UNL A   1      50.028  36.302  26.287  1.00  0.00    -0.237 OA
ATOM     67  O   UNL A   1      48.038  37.544  27.063  1.00  0.00    -0.237 OA
ATOM     68  O   UNL A   1      49.734  36.794  28.687  1.00  0.00    -0.744 OA
ENDBRANCH  64  65
ENDBRANCH  38  59
ENDBRANCH  12  13
ENDBRANCH   5   7
ENDBRANCH   4   5
ENDBRANCH   3   4
ENDBRANCH   2   3
ENDBRANCH   1   2
BRANCH   1  69
ATOM     69  C   UNL A   1      35.575  20.926  25.138  1.00  0.00     0.202 C 
BRANCH  69  70
ATOM     70  C   UNL A   1      35.201  21.511  26.508  1.00  0.00     0.261 C 
BRANCH  70  71
ATOM     71  O   UNL A   1      33.802  21.336  26.777  1.00  0.00    -0.463 OA
BRANCH  71  72
ATOM     72  C   UNL A   1      33.095  22.481  26.877  1.00  0.00     0.309 C 
ATOM     73  O   UNL A   1      32.815  23.056  27.926  1.00  0.00    -0.252 OA
BRANCH  72  74
ATOM     74  C   UNL A   1      32.603  22.987  25.541  1.00  0.00     0.111 C 
ATOM     75  C   UNL A   1      33.338  24.269  25.154  1.00  0.00     0.016 C 
ATOM     76  C   UNL A   1      31.075  23.077  25.232  1.00  0.00     0.093 C 
ATOM     77  C   UNL A   1      33.192  24.515  23.656  1.00  0.00     0.001 C 
ATOM     78  C   UNL A   1      30.986  23.292  23.718  1.00  0.00     0.014 C 
ATOM     79  C   UNL A   1      31.726  24.537  23.243  1.00  0.00     0.001 C 
BRANCH  76  80
ATOM     80  C   UNL A   1      30.252  23.925  26.260  1.00  0.00     0.228 C 
ATOM     81  O   UNL A   1      29.882  23.413  27.325  1.00  0.00    -0.274 OA
ATOM     82  N   UNL A   1      29.810  25.200  26.184  1.00  0.00    -0.326 N 
ATOM     83  H   UNL A   1      29.167  25.451  26.886  1.00  0.00     0.169 HD
BRANCH  82  84
ATOM     84  C   UNL A   1      30.104  26.207  25.292  1.00  0.00     0.041 A 
ATOM     85  C   UNL A   1      29.272  26.348  24.185  1.00  0.00     0.026 A 
ATOM     86  C   UNL A   1      31.140  27.096  25.530  1.00  0.00     0.039 A 
ATOM     87  C   UNL A   1      29.352  27.507  23.424  1.00  0.00     0.003 A 
ATOM     88  C   UNL A   1      31.188  28.296  24.816  1.00  0.00     0.058 A 
ATOM     89  C   UNL A   1      30.279  28.495  23.763  1.00  0.00     0.013 A 
BRANCH  88  90
ATOM     90  C   UNL A   1      32.100  29.405  25.272  1.00  0.00     0.416 C 
ATOM     91  F   UNL A   1      31.450  30.581  25.467  1.00  0.00    -0.166 F 
ATOM     92  F   UNL A   1      32.709  29.106  26.454  1.00  0.00    -0.166 F 
ATOM     93  F   UNL A   1      33.112  29.670  24.398  1.00  0.00    -0.166 F 
ENDBRANCH  88  90
ENDBRANCH  82  84
ENDBRANCH  76  80
ENDBRANCH  72  74
ENDBRANCH  71  72
ENDBRANCH  70  71
ENDBRANCH  69  70
ENDBRANCH   1  69
TORSDOF 20
ENDMDL
MODEL 2
REMARK VINA RESULT:     -10.8      2.847      8.042
REMARK SMILES O=C(OCCOCCOC(=O)[C@@H]1CCCC[C@@H]1C(=O)Nc1cccc(C(F)(F)F)c1)c1ccc(-c2c3nc(c(-c4ccc(S(=O)(=O)[O-])cc4)c4ccc([nH]4)c(-c4ccc(S(=O)(=O)[O-])cc4)c4nc(c(-c5ccc(S(=O)(=O)[O-])cc5)c5ccc2[nH]5)C=C4)C=C3)cc1
REMARK SMILES IDX 6 1 5 2 4 3 3 4 2 5 1 6 31 7 32 8 90 9 33 10 89 11 34 12
REMARK SMILES IDX 35 13 36 14 83 15 37 16 88 17 82 18 84 19 38 20 87 21 81 22
REMARK SMILES IDX 80 23 39 25 69 26 50 27 68 28 51 29 54 30 67 31 85 32 52 33
REMARK SMILES IDX 53 34 66 36 86 37 55 38 40 39 41 40 49 41 42 42 48 43 43 44
REMARK SMILES IDX 44 45 45 46 46 47 47 48 70 49 71 50 79 51 72 52 78 53 73 54
REMARK SMILES IDX 74 55 75 56 76 57 77 58 56 59 57 60 65 61 58 62 64 63 59 64
REMARK SMILES IDX 60 65 61 66 62 67 63 68 7 69 8 70 9 71 10 72 11 73 12 74
REMARK SMILES IDX 13 75 17 76 14 77 16 78 15 79 18 80 19 81 20 82 21 84 22 85
REMARK SMILES IDX 30 86 23 87 25 88 24 89 26 90 27 91 28 92 29 93
REMARK H PARENT 84 24 54 35 20 83
REMARK Flexibility Score: inf
ROOT
ATOM      1  O   UNL A   1      33.843  31.841  27.052  1.00  0.00    -0.374 OA
ENDROOT
BRANCH   1   2
ATOM      2  C   UNL A   1      34.333  32.527  28.206  1.00  0.00     0.202 C 
BRANCH   2   3
ATOM      3  C   UNL A   1      35.801  32.355  28.643  1.00  0.00     0.261 C 
BRANCH   3   4
ATOM      4  O   UNL A   1      36.038  31.107  29.319  1.00  0.00    -0.460 OA
BRANCH   4   5
ATOM      5  C   UNL A   1      36.335  29.915  28.740  1.00  0.00     0.338 C 
ATOM      6  O   UNL A   1      35.428  29.206  28.311  1.00  0.00    -0.246 OA
BRANCH   5   7
ATOM      7  C   UNL A   1      37.738  29.428  28.626  1.00  0.00     0.060 A 
ATOM      8  C   UNL A   1      38.455  29.479  27.438  1.00  0.00     0.016 A 
ATOM      9  C   UNL A   1      38.409  28.972  29.766  1.00  0.00     0.016 A 
ATOM     10  C   UNL A   1      39.762  29.113  27.325  1.00  0.00     0.010 A 
ATOM     11  C   UNL A   1      39.762  28.622  29.687  1.00  0.00     0.010 A 
ATOM     12  C   UNL A   1      40.430  28.726  28.462  1.00  0.00    -0.014 A 
BRANCH  12  13
ATOM     13  C   UNL A   1      41.822  28.376  28.227  1.00  0.00     0.031 A 
ATOM     14  C   UNL A   1      42.837  29.432  28.469  1.00  0.00     0.074 A 
ATOM     15  C   UNL A   1      42.126  27.076  28.050  1.00  0.00     0.049 A 
ATOM     16  N   UNL A   1      44.114  29.395  28.238  1.00  0.00    -0.248 NA
ATOM     17  C   UNL A   1      42.359  30.695  29.067  1.00  0.00     0.031 C 
ATOM     18  C   UNL A   1      41.158  25.966  28.072  1.00  0.00     0.029 A 
ATOM     19  N   UNL A   1      43.327  26.458  27.866  1.00  0.00    -0.354 N 
ATOM     20  C   UNL A   1      44.579  30.655  28.578  1.00  0.00     0.074 A 
ATOM     21  C   UNL A   1      43.467  31.419  29.088  1.00  0.00     0.031 C 
ATOM     22  C   UNL A   1      41.810  24.808  27.892  1.00  0.00     0.029 A 
ATOM     23  C   UNL A   1      43.210  25.107  27.638  1.00  0.00     0.049 A 
ATOM     24  H   UNL A   1      44.189  26.931  27.892  1.00  0.00     0.167 HD
ATOM     25  C   UNL A   1      45.833  31.119  28.409  1.00  0.00     0.031 A 
ATOM     26  C   UNL A   1      44.131  24.243  27.180  1.00  0.00     0.031 A 
ATOM     27  C   UNL A   1      46.884  30.290  27.891  1.00  0.00     0.049 A 
ATOM     28  C   UNL A   1      45.489  24.818  26.882  1.00  0.00     0.074 A 
ATOM     29  C   UNL A   1      48.189  30.628  27.605  1.00  0.00     0.029 A 
ATOM     30  N   UNL A   1      46.729  28.945  27.574  1.00  0.00    -0.354 N 
ATOM     31  N   UNL A   1      45.930  26.036  27.110  1.00  0.00    -0.248 NA
ATOM     32  C   UNL A   1      46.459  23.934  26.234  1.00  0.00     0.031 C 
ATOM     33  C   UNL A   1      48.805  29.502  27.051  1.00  0.00     0.029 A 
ATOM     34  C   UNL A   1      47.903  28.445  27.054  1.00  0.00     0.049 A 
ATOM     35  H   UNL A   1      45.902  28.426  27.703  1.00  0.00     0.167 HD
ATOM     36  C   UNL A   1      47.231  26.065  26.636  1.00  0.00     0.074 A 
ATOM     37  C   UNL A   1      47.515  24.730  26.140  1.00  0.00     0.031 C 
ATOM     38  C   UNL A   1      48.113  27.094  26.592  1.00  0.00     0.031 A 
BRANCH  25  39
ATOM     39  C   UNL A   1      46.071  32.578  28.648  1.00  0.00    -0.014 A 
ATOM     40  C   UNL A   1      46.444  33.083  29.904  1.00  0.00     0.010 A 
ATOM     41  C   UNL A   1      45.915  33.466  27.567  1.00  0.00     0.010 A 
ATOM     42  C   UNL A   1      46.653  34.455  30.076  1.00  0.00     0.020 A 
ATOM     43  C   UNL A   1      46.144  34.834  27.728  1.00  0.00     0.020 A 
ATOM     44  C   UNL A   1      46.509  35.320  28.984  1.00  0.00     0.054 A 
BRANCH  44  45
ATOM     45  S   UNL A   1      46.856  37.084  29.219  1.00  0.00     0.124 S 
ATOM     46  O   UNL A   1      47.772  37.362  28.116  1.00  0.00    -0.237 OA
ATOM     47  O   UNL A   1      45.531  37.687  29.103  1.00  0.00    -0.237 OA
ATOM     48  O   UNL A   1      47.451  37.147  30.553  1.00  0.00    -0.744 OA
ENDBRANCH  44  45
ENDBRANCH  25  39
BRANCH  26  49
ATOM     49  C   UNL A   1      43.765  22.841  26.832  1.00  0.00    -0.014 A 
ATOM     50  C   UNL A   1      42.769  22.150  27.540  1.00  0.00     0.010 A 
ATOM     51  C   UNL A   1      44.449  22.169  25.797  1.00  0.00     0.010 A 
ATOM     52  C   UNL A   1      42.494  20.806  27.250  1.00  0.00     0.020 A 
ATOM     53  C   UNL A   1      44.154  20.841  25.480  1.00  0.00     0.020 A 
ATOM     54  C   UNL A   1      43.195  20.160  26.227  1.00  0.00     0.054 A 
BRANCH  54  55
ATOM     55  S   UNL A   1      42.836  18.414  25.882  1.00  0.00     0.124 S 
ATOM     56  O   UNL A   1      41.378  18.418  25.793  1.00  0.00    -0.237 OA
ATOM     57  O   UNL A   1      43.546  18.187  24.626  1.00  0.00    -0.237 OA
ATOM     58  O   UNL A   1      43.390  17.715  27.038  1.00  0.00    -0.744 OA
ENDBRANCH  54  55
ENDBRANCH  26  49
BRANCH  38  59
ATOM     59  C   UNL A   1      49.460  26.795  26.010  1.00  0.00    -0.014 A 
ATOM     60  C   UNL A   1      49.717  27.015  24.646  1.00  0.00     0.010 A 
ATOM     61  C   UNL A   1      50.503  26.395  26.864  1.00  0.00     0.010 A 
ATOM     62  C   UNL A   1      51.002  26.829  24.143  1.00  0.00     0.020 A 
ATOM     63  C   UNL A   1      51.795  26.242  26.369  1.00  0.00     0.020 A 
ATOM     64  C   UNL A   1      52.034  26.455  25.010  1.00  0.00     0.054 A 
BRANCH  64  65
ATOM     65  S   UNL A   1      53.713  26.315  24.347  1.00  0.00     0.124 S 
ATOM     66  O   UNL A   1      53.524  26.723  22.957  1.00  0.00    -0.237 OA
ATOM     67  O   UNL A   1      54.464  27.251  25.180  1.00  0.00    -0.237 OA
ATOM     68  O   UNL A   1      54.047  24.906  24.542  1.00  0.00    -0.744 OA
ENDBRANCH  64  65
ENDBRANCH  38  59
ENDBRANCH  12  13
ENDBRANCH   5   7
ENDBRANCH   4   5
ENDBRANCH   3   4
ENDBRANCH   2   3
ENDBRANCH   1   2
BRANCH   1  69
ATOM     69  C   UNL A   1      32.818  30.861  27.235  1.00  0.00     0.202 C 
BRANCH  69  70
ATOM     70  C   UNL A   1      32.521  30.104  25.933  1.00  0.00     0.261 C 
BRANCH  70  71
ATOM     71  O   UNL A   1      31.697  28.955  26.182  1.00  0.00    -0.463 OA
BRANCH  71  72
ATOM     72  C   UNL A   1      32.295  27.767  25.951  1.00  0.00     0.309 C 
ATOM     73  O   UNL A   1      33.455  27.484  26.244  1.00  0.00    -0.252 OA
BRANCH  72  74
ATOM     74  C   UNL A   1      31.403  26.793  25.216  1.00  0.00     0.111 C 
ATOM     75  C   UNL A   1      32.181  25.531  24.850  1.00  0.00     0.016 C 
ATOM     76  C   UNL A   1      30.488  27.273  24.044  1.00  0.00     0.093 C 
ATOM     77  C   UNL A   1      31.209  24.397  24.542  1.00  0.00     0.001 C 
ATOM     78  C   UNL A   1      29.516  26.115  23.797  1.00  0.00     0.014 C 
ATOM     79  C   UNL A   1      30.217  24.803  23.460  1.00  0.00     0.001 C 
BRANCH  76  80
ATOM     80  C   UNL A   1      31.245  28.007  22.886  1.00  0.00     0.228 C 
ATOM     81  O   UNL A   1      32.235  27.478  22.364  1.00  0.00    -0.274 OA
ATOM     82  N   UNL A   1      31.021  29.217  22.326  1.00  0.00    -0.326 N 
ATOM     83  H   UNL A   1      31.739  29.530  21.730  1.00  0.00     0.169 HD
BRANCH  82  84
ATOM     84  C   UNL A   1      29.960  30.087  22.448  1.00  0.00     0.041 A 
ATOM     85  C   UNL A   1      29.707  30.617  23.711  1.00  0.00     0.026 A 
ATOM     86  C   UNL A   1      29.225  30.482  21.342  1.00  0.00     0.039 A 
ATOM     87  C   UNL A   1      28.847  31.702  23.826  1.00  0.00     0.003 A 
ATOM     88  C   UNL A   1      28.410  31.612  21.432  1.00  0.00     0.058 A 
ATOM     89  C   UNL A   1      28.233  32.223  22.685  1.00  0.00     0.013 A 
BRANCH  88  90
ATOM     90  C   UNL A   1      27.859  32.242  20.179  1.00  0.00     0.416 C 
ATOM     91  F   UNL A   1      27.052  33.305  20.430  1.00  0.00    -0.166 F 
ATOM     92  F   UNL A   1      28.851  32.703  19.365  1.00  0.00    -0.166 F 
ATOM     93  F   UNL A   1      27.130  31.383  19.413  1.00  0.00    -0.166 F 
ENDBRANCH  88  90
ENDBRANCH  82  84
ENDBRANCH  76  80
ENDBRANCH  72  74
ENDBRANCH  71  72
ENDBRANCH  70  71
ENDBRANCH  69  70
ENDBRANCH   1  69
TORSDOF 20
ENDMDL
MODEL 3
REMARK VINA RESULT:     -10.8      6.296     11.712
REMARK SMILES O=C(OCCOCCOC(=O)[C@@H]1CCCC[C@@H]1C(=O)Nc1cccc(C(F)(F)F)c1)c1ccc(-c2c3nc(c(-c4ccc(S(=O)(=O)[O-])cc4)c4ccc([nH]4)c(-c4ccc(S(=O)(=O)[O-])cc4)c4nc(c(-c5ccc(S(=O)(=O)[O-])cc5)c5ccc2[nH]5)C=C4)C=C3)cc1
REMARK SMILES IDX 6 1 5 2 4 3 3 4 2 5 1 6 31 7 32 8 90 9 33 10 89 11 34 12
REMARK SMILES IDX 35 13 36 14 83 15 37 16 88 17 82 18 84 19 38 20 87 21 81 22
REMARK SMILES IDX 80 23 39 25 69 26 50 27 68 28 51 29 54 30 67 31 85 32 52 33
REMARK SMILES IDX 53 34 66 36 86 37 55 38 40 39 41 40 49 41 42 42 48 43 43 44
REMARK SMILES IDX 44 45 45 46 46 47 47 48 70 49 71 50 79 51 72 52 78 53 73 54
REMARK SMILES IDX 74 55 75 56 76 57 77 58 56 59 57 60 65 61 58 62 64 63 59 64
REMARK SMILES IDX 60 65 61 66 62 67 63 68 7 69 8 70 9 71 10 72 11 73 12 74
REMARK SMILES IDX 13 75 17 76 14 77 16 78 15 79 18 80 19 81 20 82 21 84 22 85
REMARK SMILES IDX 30 86 23 87 25 88 24 89 26 90 27 91 28 92 29 93
REMARK H PARENT 84 24 54 35 20 83
REMARK Flexibility Score: inf
ROOT
ATOM      1  O   UNL A   1      33.091  29.593  26.179  1.00  0.00    -0.374 OA
ENDROOT
BRANCH   1   2
ATOM      2  C   UNL A   1      32.682  30.820  26.788  1.00  0.00     0.202 C 
BRANCH   2   3
ATOM      3  C   UNL A   1      33.718  31.722  27.487  1.00  0.00     0.261 C 
BRANCH   3   4
ATOM      4  O   UNL A   1      33.182  33.006  27.852  1.00  0.00    -0.460 OA
BRANCH   4   5
ATOM      5  C   UNL A   1      33.601  33.799  28.870  1.00  0.00     0.338 C 
ATOM      6  O   UNL A   1      32.945  34.792  29.176  1.00  0.00    -0.246 OA
BRANCH   5   7
ATOM      7  C   UNL A   1      34.853  33.510  29.624  1.00  0.00     0.060 A 
ATOM      8  C   UNL A   1      34.907  32.592  30.664  1.00  0.00     0.016 A 
ATOM      9  C   UNL A   1      36.052  34.116  29.235  1.00  0.00     0.016 A 
ATOM     10  C   UNL A   1      36.053  32.253  31.318  1.00  0.00     0.010 A 
ATOM     11  C   UNL A   1      37.251  33.761  29.865  1.00  0.00     0.010 A 
ATOM     12  C   UNL A   1      37.235  32.806  30.886  1.00  0.00    -0.014 A 
BRANCH  12  13
ATOM     13  C   UNL A   1      38.395  32.359  31.643  1.00  0.00     0.031 A 
ATOM     14  C   UNL A   1      39.293  31.374  30.989  1.00  0.00     0.074 A 
ATOM     15  C   UNL A   1      38.718  33.035  32.762  1.00  0.00     0.049 A 
ATOM     16  N   UNL A   1      40.320  30.758  31.490  1.00  0.00    -0.248 NA
ATOM     17  C   UNL A   1      39.011  31.047  29.577  1.00  0.00     0.031 C 
ATOM     18  C   UNL A   1      37.988  34.199  33.294  1.00  0.00     0.029 A 
ATOM     19  N   UNL A   1      39.759  32.880  33.628  1.00  0.00    -0.354 N 
ATOM     20  C   UNL A   1      40.755  29.907  30.488  1.00  0.00     0.074 A 
ATOM     21  C   UNL A   1      39.926  30.122  29.328  1.00  0.00     0.031 C 
ATOM     22  C   UNL A   1      38.602  34.636  34.402  1.00  0.00     0.029 A 
ATOM     23  C   UNL A   1      39.693  33.725  34.710  1.00  0.00     0.049 A 
ATOM     24  H   UNL A   1      40.485  32.229  33.492  1.00  0.00     0.167 HD
ATOM     25  C   UNL A   1      41.739  28.991  30.585  1.00  0.00     0.031 A 
ATOM     26  C   UNL A   1      40.388  33.686  35.859  1.00  0.00     0.031 A 
ATOM     27  C   UNL A   1      42.516  28.839  31.782  1.00  0.00     0.049 A 
ATOM     28  C   UNL A   1      41.392  32.573  35.988  1.00  0.00     0.074 A 
ATOM     29  C   UNL A   1      43.505  27.919  32.058  1.00  0.00     0.029 A 
ATOM     30  N   UNL A   1      42.375  29.642  32.909  1.00  0.00    -0.354 N 
ATOM     31  N   UNL A   1      41.760  31.693  35.083  1.00  0.00    -0.248 NA
ATOM     32  C   UNL A   1      42.046  32.414  37.289  1.00  0.00     0.031 C 
ATOM     33  C   UNL A   1      43.913  28.123  33.380  1.00  0.00     0.029 A 
ATOM     34  C   UNL A   1      43.227  29.213  33.903  1.00  0.00     0.049 A 
ATOM     35  H   UNL A   1      41.757  30.404  32.984  1.00  0.00     0.167 HD
ATOM     36  C   UNL A   1      42.690  30.875  35.702  1.00  0.00     0.074 A 
ATOM     37  C   UNL A   1      42.854  31.390  37.051  1.00  0.00     0.031 C 
ATOM     38  C   UNL A   1      43.343  29.788  35.221  1.00  0.00     0.031 A 
BRANCH  25  39
ATOM     39  C   UNL A   1      41.906  28.029  29.449  1.00  0.00    -0.014 A 
ATOM     40  C   UNL A   1      41.064  26.918  29.275  1.00  0.00     0.010 A 
ATOM     41  C   UNL A   1      42.945  28.257  28.527  1.00  0.00     0.010 A 
ATOM     42  C   UNL A   1      41.262  26.049  28.198  1.00  0.00     0.020 A 
ATOM     43  C   UNL A   1      43.133  27.405  27.439  1.00  0.00     0.020 A 
ATOM     44  C   UNL A   1      42.292  26.303  27.283  1.00  0.00     0.054 A 
BRANCH  44  45
ATOM     45  S   UNL A   1      42.480  25.199  25.857  1.00  0.00     0.124 S 
ATOM     46  O   UNL A   1      41.864  25.979  24.786  1.00  0.00    -0.237 OA
ATOM     47  O   UNL A   1      43.930  25.043  25.765  1.00  0.00    -0.237 OA
ATOM     48  O   UNL A   1      41.750  23.995  26.250  1.00  0.00    -0.744 OA
ENDBRANCH  44  45
ENDBRANCH  25  39
BRANCH  26  49
ATOM     49  C   UNL A   1      40.051  34.591  36.993  1.00  0.00    -0.014 A 
ATOM     50  C   UNL A   1      40.617  35.872  37.098  1.00  0.00     0.010 A 
ATOM     51  C   UNL A   1      39.177  34.154  38.011  1.00  0.00     0.010 A 
ATOM     52  C   UNL A   1      40.350  36.678  38.213  1.00  0.00     0.020 A 
ATOM     53  C   UNL A   1      38.878  34.968  39.106  1.00  0.00     0.020 A 
ATOM     54  C   UNL A   1      39.488  36.216  39.213  1.00  0.00     0.054 A 
BRANCH  54  55
ATOM     55  S   UNL A   1      39.172  37.269  40.657  1.00  0.00     0.124 S 
ATOM     56  O   UNL A   1      40.523  37.672  41.038  1.00  0.00    -0.237 OA
ATOM     57  O   UNL A   1      38.329  38.324  40.102  1.00  0.00    -0.237 OA
ATOM     58  O   UNL A   1      38.500  36.372  41.595  1.00  0.00    -0.744 OA
ENDBRANCH  54  55
ENDBRANCH  26  49
BRANCH  38  59
ATOM     59  C   UNL A   1      44.299  29.114  36.156  1.00  0.00    -0.014 A 
ATOM     60  C   UNL A   1      43.910  27.976  36.882  1.00  0.00     0.010 A 
ATOM     61  C   UNL A   1      45.628  29.566  36.220  1.00  0.00     0.010 A 
ATOM     62  C   UNL A   1      44.841  27.302  37.668  1.00  0.00     0.020 A 
ATOM     63  C   UNL A   1      46.568  28.874  36.979  1.00  0.00     0.020 A 
ATOM     64  C   UNL A   1      46.166  27.749  37.702  1.00  0.00     0.054 A 
BRANCH  64  65
ATOM     65  S   UNL A   1      47.376  26.798  38.655  1.00  0.00     0.124 S 
ATOM     66  O   UNL A   1      47.927  25.905  37.640  1.00  0.00    -0.237 OA
ATOM     67  O   UNL A   1      48.284  27.833  39.143  1.00  0.00    -0.237 OA
ATOM     68  O   UNL A   1      46.570  26.146  39.686  1.00  0.00    -0.744 OA
ENDBRANCH  64  65
ENDBRANCH  38  59
ENDBRANCH  12  13
ENDBRANCH   5   7
ENDBRANCH   4   5
ENDBRANCH   3   4
ENDBRANCH   2   3
ENDBRANCH   1   2
BRANCH   1  69
ATOM     69  C   UNL A   1      32.913  28.382  26.918  1.00  0.00     0.202 C 
BRANCH  69  70
ATOM     70  C   UNL A   1      31.440  27.952  26.953  1.00  0.00     0.261 C 
BRANCH  70  71
ATOM     71  O   UNL A   1      31.323  26.527  27.073  1.00  0.00    -0.463 OA
BRANCH  71  72
ATOM     72  C   UNL A   1      30.759  25.912  26.012  1.00  0.00     0.309 C 
ATOM     73  O   UNL A   1      29.560  25.915  25.741  1.00  0.00    -0.252 OA
BRANCH  72  74
ATOM     74  C   UNL A   1      31.756  25.136  25.183  1.00  0.00     0.111 C 
ATOM     75  C   UNL A   1      31.043  24.372  24.070  1.00  0.00     0.016 C 
ATOM     76  C   UNL A   1      32.863  24.271  25.865  1.00  0.00     0.093 C 
ATOM     77  C   UNL A   1      32.044  23.983  22.988  1.00  0.00     0.001 C 
ATOM     78  C   UNL A   1      33.854  23.935  24.746  1.00  0.00     0.014 C 
ATOM     79  C   UNL A   1      33.211  23.201  23.575  1.00  0.00     0.001 C 
BRANCH  76  80
ATOM     80  C   UNL A   1      32.323  23.198  26.871  1.00  0.00     0.228 C 
ATOM     81  O   UNL A   1      31.388  23.481  27.631  1.00  0.00    -0.274 OA
ATOM     82  N   UNL A   1      32.738  21.934  27.104  1.00  0.00    -0.326 N 
ATOM     83  H   UNL A   1      32.349  21.517  27.907  1.00  0.00     0.169 HD
BRANCH  82  84
ATOM     84  C   UNL A   1      33.615  21.128  26.411  1.00  0.00     0.041 A 
ATOM     85  C   UNL A   1      33.077  20.063  25.693  1.00  0.00     0.026 A 
ATOM     86  C   UNL A   1      34.969  21.415  26.364  1.00  0.00     0.039 A 
ATOM     87  C   UNL A   1      33.872  19.408  24.761  1.00  0.00     0.003 A 
ATOM     88  C   UNL A   1      35.762  20.811  25.385  1.00  0.00     0.058 A 
ATOM     89  C   UNL A   1      35.198  19.808  24.579  1.00  0.00     0.013 A 
BRANCH  88  90
ATOM     90  C   UNL A   1      37.146  21.337  25.109  1.00  0.00     0.416 C 
ATOM     91  F   UNL A   1      38.023  20.364  24.751  1.00  0.00    -0.166 F 
ATOM     92  F   UNL A   1      37.149  22.245  24.092  1.00  0.00    -0.166 F 
ATOM     93  F   UNL A   1      37.705  21.981  26.173  1.00  0.00    -0.166 F 
ENDBRANCH  88  90
ENDBRANCH  82  84
ENDBRANCH  76  80
ENDBRANCH  72  74
ENDBRANCH  71  72
ENDBRANCH  70  71
ENDBRANCH  69  70
ENDBRANCH   1  69
TORSDOF 20
ENDMDL
