MODEL 1
REMARK VINA RESULT:     -10.6      0.000      0.000
REMARK SMILES Cc1ccc2c(c1)C=C(C(=O)OCCOCCOC(=O)c1ccc(-c3c4nc(c(-c5ccc(S(=O)(=O)[O-])cc5)c5ccc([nH]5)c(-c5ccc(S(=O)(=O)[O-])cc5)c5nc(c(-c6ccc(S(=O)(=O)[O-])cc6)c6ccc3[nH]6)C=C5)C=C4)cc1)[C@@H](C(F)(F)F)O2
REMARK SMILES IDX 16 1 15 2 14 3 13 4 12 5 10 6 11 7 9 8 1 9 2 10 3 11 7 12
REMARK SMILES IDX 4 13 6 14 5 15 8 16 86 17 81 18 82 19 83 20 84 21 85 22
REMARK SMILES IDX 17 23 18 24 19 25 20 26 21 27 22 28 80 29 23 30 79 31 24 32
REMARK SMILES IDX 25 33 26 34 73 35 27 36 78 37 72 38 74 39 28 40 77 41 71 42
REMARK SMILES IDX 70 43 29 45 59 46 40 47 58 48 41 49 44 50 57 51 75 52 42 53
REMARK SMILES IDX 43 54 56 56 76 57 45 58 30 59 31 60 39 61 32 62 38 63 33 64
REMARK SMILES IDX 34 65 35 66 36 67 37 68 60 69 61 70 69 71 62 72 68 73 63 74
REMARK SMILES IDX 64 75 65 76 66 77 67 78 46 79 47 80 55 81 48 82 54 83 49 84
REMARK SMILES IDX 50 85 51 86 52 87 53 88
REMARK H PARENT 74 44 44 55
REMARK Flexibility Score: inf
ROOT
ATOM      1  C   UNL A   1      36.272  21.047  25.265  1.00  0.00     0.202 C 
ENDROOT
BRANCH   1   2
ATOM      2  O   UNL A   1      35.454  21.704  26.229  1.00  0.00    -0.374 OA
BRANCH   2   3
ATOM      3  C   UNL A   1      34.090  21.960  25.903  1.00  0.00     0.202 C 
BRANCH   3   4
ATOM      4  C   UNL A   1      33.534  23.360  26.184  1.00  0.00     0.261 C 
BRANCH   4   5
ATOM      5  O   UNL A   1      32.493  23.727  25.266  1.00  0.00    -0.460 OA
BRANCH   5   6
ATOM      6  C   UNL A   1      32.924  24.405  24.177  1.00  0.00     0.338 C 
ATOM      7  O   UNL A   1      33.415  23.930  23.165  1.00  0.00    -0.246 OA
BRANCH   6   8
ATOM      8  C   UNL A   1      32.584  25.834  24.310  1.00  0.00     0.087 C 
ATOM      9  C   UNL A   1      34.136  30.708  27.711  1.00  0.00     0.044 C 
ATOM     10  C   UNL A   1      33.382  29.958  26.655  1.00  0.00    -0.050 A 
ATOM     11  C   UNL A   1      32.226  30.494  26.075  1.00  0.00     0.007 A 
ATOM     12  C   UNL A   1      33.785  28.666  26.297  1.00  0.00     0.015 A 
ATOM     13  C   UNL A   1      31.509  29.764  25.122  1.00  0.00     0.047 A 
ATOM     14  C   UNL A   1      33.043  27.921  25.373  1.00  0.00     0.017 A 
ATOM     15  C   UNL A   1      31.915  28.477  24.772  1.00  0.00     0.128 A 
ATOM     16  C   UNL A   1      33.403  26.546  25.096  1.00  0.00     0.027 C 
ATOM     17  O   UNL A   1      31.160  27.831  23.837  1.00  0.00    -0.475 OA
ATOM     18  C   UNL A   1      31.376  26.406  23.618  1.00  0.00     0.316 C 
BRANCH  18  19
ATOM     19  C   UNL A   1      30.085  25.657  23.979  1.00  0.00     0.430 C 
ATOM     20  F   UNL A   1      30.002  25.440  25.314  1.00  0.00    -0.167 F 
ATOM     21  F   UNL A   1      28.984  26.360  23.629  1.00  0.00    -0.167 F 
ATOM     22  F   UNL A   1      30.012  24.454  23.366  1.00  0.00    -0.167 F 
ENDBRANCH  18  19
ENDBRANCH   6   8
ENDBRANCH   5   6
ENDBRANCH   4   5
ENDBRANCH   3   4
ENDBRANCH   2   3
ENDBRANCH   1   2
BRANCH   1  23
ATOM     23  C   UNL A   1      37.611  21.688  24.871  1.00  0.00     0.261 C 
BRANCH  23  24
ATOM     24  O   UNL A   1      37.935  22.851  25.649  1.00  0.00    -0.460 OA
BRANCH  24  25
ATOM     25  C   UNL A   1      39.144  22.806  26.265  1.00  0.00     0.338 C 
ATOM     26  O   UNL A   1      39.966  21.905  26.207  1.00  0.00    -0.246 OA
BRANCH  25  27
ATOM     27  C   UNL A   1      39.430  24.119  26.871  1.00  0.00     0.060 A 
ATOM     28  C   UNL A   1      39.052  24.407  28.183  1.00  0.00     0.016 A 
ATOM     29  C   UNL A   1      40.128  25.063  26.106  1.00  0.00     0.016 A 
ATOM     30  C   UNL A   1      39.394  25.645  28.736  1.00  0.00     0.010 A 
ATOM     31  C   UNL A   1      40.465  26.298  26.660  1.00  0.00     0.010 A 
ATOM     32  C   UNL A   1      40.114  26.593  27.984  1.00  0.00    -0.014 A 
BRANCH  32  33
ATOM     33  C   UNL A   1      40.597  27.846  28.617  1.00  0.00     0.031 A 
ATOM     34  C   UNL A   1      42.019  27.990  29.074  1.00  0.00     0.074 A 
ATOM     35  C   UNL A   1      39.724  28.856  28.795  1.00  0.00     0.049 A 
ATOM     36  N   UNL A   1      42.606  29.032  29.602  1.00  0.00    -0.248 NA
ATOM     37  C   UNL A   1      42.897  26.818  28.925  1.00  0.00     0.031 C 
ATOM     38  C   UNL A   1      38.312  28.818  28.407  1.00  0.00     0.029 A 
ATOM     39  N   UNL A   1      39.888  30.109  29.333  1.00  0.00    -0.354 N 
ATOM     40  C   UNL A   1      43.922  28.654  29.831  1.00  0.00     0.074 A 
ATOM     41  C   UNL A   1      44.038  27.269  29.432  1.00  0.00     0.031 C 
ATOM     42  C   UNL A   1      37.750  30.005  28.684  1.00  0.00     0.029 A 
ATOM     43  C   UNL A   1      38.744  30.874  29.309  1.00  0.00     0.049 A 
ATOM     44  H   UNL A   1      40.742  30.430  29.701  1.00  0.00     0.167 HD
ATOM     45  C   UNL A   1      44.943  29.408  30.307  1.00  0.00     0.031 A 
ATOM     46  C   UNL A   1      38.515  32.133  29.736  1.00  0.00     0.031 A 
ATOM     47  C   UNL A   1      44.809  30.786  30.709  1.00  0.00     0.049 A 
ATOM     48  C   UNL A   1      39.653  32.928  30.314  1.00  0.00     0.074 A 
ATOM     49  C   UNL A   1      45.798  31.639  31.169  1.00  0.00     0.029 A 
ATOM     50  N   UNL A   1      43.627  31.512  30.709  1.00  0.00    -0.354 N 
ATOM     51  N   UNL A   1      40.911  32.581  30.449  1.00  0.00    -0.248 NA
ATOM     52  C   UNL A   1      39.352  34.288  30.784  1.00  0.00     0.031 C 
ATOM     53  C   UNL A   1      45.201  32.848  31.526  1.00  0.00     0.029 A 
ATOM     54  C   UNL A   1      43.856  32.787  31.200  1.00  0.00     0.049 A 
ATOM     55  H   UNL A   1      42.754  31.172  30.405  1.00  0.00     0.167 HD
ATOM     56  C   UNL A   1      41.555  33.685  30.996  1.00  0.00     0.074 A 
ATOM     57  C   UNL A   1      40.553  34.720  31.148  1.00  0.00     0.031 C 
ATOM     58  C   UNL A   1      42.858  33.822  31.343  1.00  0.00     0.031 A 
BRANCH  45  59
ATOM     59  C   UNL A   1      46.316  28.790  30.404  1.00  0.00    -0.014 A 
ATOM     60  C   UNL A   1      47.207  28.884  29.318  1.00  0.00     0.010 A 
ATOM     61  C   UNL A   1      46.657  27.974  31.497  1.00  0.00     0.010 A 
ATOM     62  C   UNL A   1      48.387  28.134  29.300  1.00  0.00     0.020 A 
ATOM     63  C   UNL A   1      47.853  27.248  31.498  1.00  0.00     0.020 A 
ATOM     64  C   UNL A   1      48.695  27.309  30.385  1.00  0.00     0.054 A 
BRANCH  64  65
ATOM     65  S   UNL A   1      50.195  26.292  30.311  1.00  0.00     0.124 S 
ATOM     66  O   UNL A   1      51.072  27.096  29.463  1.00  0.00    -0.237 OA
ATOM     67  O   UNL A   1      50.584  26.199  31.715  1.00  0.00    -0.237 OA
ATOM     68  O   UNL A   1      49.731  25.039  29.717  1.00  0.00    -0.744 OA
ENDBRANCH  64  65
ENDBRANCH  45  59
BRANCH  46  69
ATOM     69  C   UNL A   1      37.154  32.721  29.578  1.00  0.00    -0.014 A 
ATOM     70  C   UNL A   1      36.783  33.350  28.373  1.00  0.00     0.010 A 
ATOM     71  C   UNL A   1      36.249  32.728  30.653  1.00  0.00     0.010 A 
ATOM     72  C   UNL A   1      35.565  34.027  28.270  1.00  0.00     0.020 A 
ATOM     73  C   UNL A   1      35.012  33.372  30.541  1.00  0.00     0.020 A 
ATOM     74  C   UNL A   1      34.693  34.044  29.360  1.00  0.00     0.054 A 
BRANCH  74  75
ATOM     75  S   UNL A   1      33.146  34.981  29.219  1.00  0.00     0.124 S 
ATOM     76  O   UNL A   1      33.625  36.283  28.764  1.00  0.00    -0.237 OA
ATOM     77  O   UNL A   1      32.394  34.206  28.236  1.00  0.00    -0.237 OA
ATOM     78  O   UNL A   1      32.604  34.955  30.576  1.00  0.00    -0.744 OA
ENDBRANCH  74  75
ENDBRANCH  46  69
BRANCH  58  79
ATOM     79  C   UNL A   1      43.316  35.137  31.929  1.00  0.00    -0.014 A 
ATOM     80  C   UNL A   1      43.200  35.361  33.315  1.00  0.00     0.010 A 
ATOM     81  C   UNL A   1      43.703  36.202  31.096  1.00  0.00     0.010 A 
ATOM     82  C   UNL A   1      43.404  36.635  33.849  1.00  0.00     0.020 A 
ATOM     83  C   UNL A   1      43.944  37.471  31.633  1.00  0.00     0.020 A 
ATOM     84  C   UNL A   1      43.760  37.687  33.001  1.00  0.00     0.054 A 
BRANCH  84  85
ATOM     85  S   UNL A   1      43.948  39.348  33.702  1.00  0.00     0.124 S 
ATOM     86  O   UNL A   1      42.832  40.068  33.095  1.00  0.00    -0.237 OA
ATOM     87  O   UNL A   1      43.832  39.104  35.138  1.00  0.00    -0.237 OA
ATOM     88  O   UNL A   1      45.275  39.764  33.254  1.00  0.00    -0.744 OA
ENDBRANCH  84  85
ENDBRANCH  58  79
ENDBRANCH  32  33
ENDBRANCH  25  27
ENDBRANCH  24  25
ENDBRANCH  23  24
ENDBRANCH   1  23
TORSDOF 18
ENDMDL
MODEL 2
REMARK VINA RESULT:     -10.2      0.992      8.261
REMARK SMILES Cc1ccc2c(c1)C=C(C(=O)OCCOCCOC(=O)c1ccc(-c3c4nc(c(-c5ccc(S(=O)(=O)[O-])cc5)c5ccc([nH]5)c(-c5ccc(S(=O)(=O)[O-])cc5)c5nc(c(-c6ccc(S(=O)(=O)[O-])cc6)c6ccc3[nH]6)C=C5)C=C4)cc1)[C@@H](C(F)(F)F)O2
REMARK SMILES IDX 16 1 15 2 14 3 13 4 12 5 10 6 11 7 9 8 1 9 2 10 3 11 7 12
REMARK SMILES IDX 4 13 6 14 5 15 8 16 86 17 81 18 82 19 83 20 84 21 85 22
REMARK SMILES IDX 17 23 18 24 19 25 20 26 21 27 22 28 80 29 23 30 79 31 24 32
REMARK SMILES IDX 25 33 26 34 73 35 27 36 78 37 72 38 74 39 28 40 77 41 71 42
REMARK SMILES IDX 70 43 29 45 59 46 40 47 58 48 41 49 44 50 57 51 75 52 42 53
REMARK SMILES IDX 43 54 56 56 76 57 45 58 30 59 31 60 39 61 32 62 38 63 33 64
REMARK SMILES IDX 34 65 35 66 36 67 37 68 60 69 61 70 69 71 62 72 68 73 63 74
REMARK SMILES IDX 64 75 65 76 66 77 67 78 46 79 47 80 55 81 48 82 54 83 49 84
REMARK SMILES IDX 50 85 51 86 52 87 53 88
REMARK H PARENT 74 44 44 55
REMARK Flexibility Score: inf
ROOT
ATOM      1  C   UNL A   1      36.728  20.765  25.310  1.00  0.00     0.202 C 
ENDROOT
BRANCH   1   2
ATOM      2  O   UNL A   1      35.317  20.911  25.455  1.00  0.00    -0.374 OA
BRANCH   2   3
ATOM      3  C   UNL A   1      34.552  21.300  24.317  1.00  0.00     0.202 C 
BRANCH   3   4
ATOM      4  C   UNL A   1      33.273  22.111  24.552  1.00  0.00     0.261 C 
BRANCH   4   5
ATOM      5  O   UNL A   1      33.497  23.524  24.448  1.00  0.00    -0.460 OA
BRANCH   5   6
ATOM      6  C   UNL A   1      33.554  24.168  25.637  1.00  0.00     0.338 C 
ATOM      7  O   UNL A   1      34.033  23.745  26.677  1.00  0.00    -0.246 OA
BRANCH   6   8
ATOM      8  C   UNL A   1      33.074  25.554  25.479  1.00  0.00     0.087 C 
ATOM      9  C   UNL A   1      34.225  31.176  27.668  1.00  0.00     0.044 C 
ATOM     10  C   UNL A   1      33.518  30.147  26.839  1.00  0.00    -0.050 A 
ATOM     11  C   UNL A   1      32.296  30.433  26.220  1.00  0.00     0.007 A 
ATOM     12  C   UNL A   1      34.040  28.852  26.745  1.00  0.00     0.015 A 
ATOM     13  C   UNL A   1      31.628  29.449  25.484  1.00  0.00     0.047 A 
ATOM     14  C   UNL A   1      33.350  27.856  26.043  1.00  0.00     0.017 A 
ATOM     15  C   UNL A   1      32.152  28.160  25.398  1.00  0.00     0.128 A 
ATOM     16  C   UNL A   1      33.839  26.494  26.049  1.00  0.00     0.027 C 
ATOM     17  O   UNL A   1      31.438  27.258  24.664  1.00  0.00    -0.475 OA
ATOM     18  C   UNL A   1      31.792  25.846  24.745  1.00  0.00     0.316 C 
BRANCH  18  19
ATOM     19  C   UNL A   1      30.597  25.077  25.326  1.00  0.00     0.430 C 
ATOM     20  F   UNL A   1      30.415  23.898  24.685  1.00  0.00    -0.167 F 
ATOM     21  F   UNL A   1      30.778  24.785  26.634  1.00  0.00    -0.167 F 
ATOM     22  F   UNL A   1      29.447  25.780  25.221  1.00  0.00    -0.167 F 
ENDBRANCH  18  19
ENDBRANCH   6   8
ENDBRANCH   5   6
ENDBRANCH   4   5
ENDBRANCH   3   4
ENDBRANCH   2   3
ENDBRANCH   1   2
BRANCH   1  23
ATOM     23  C   UNL A   1      37.545  21.960  24.799  1.00  0.00     0.261 C 
BRANCH  23  24
ATOM     24  O   UNL A   1      37.806  22.945  25.810  1.00  0.00    -0.460 OA
BRANCH  24  25
ATOM     25  C   UNL A   1      39.074  22.942  26.295  1.00  0.00     0.338 C 
ATOM     26  O   UNL A   1      39.935  22.098  26.100  1.00  0.00    -0.246 OA
BRANCH  25  27
ATOM     27  C   UNL A   1      39.349  24.237  26.944  1.00  0.00     0.060 A 
ATOM     28  C   UNL A   1      38.922  24.497  28.247  1.00  0.00     0.016 A 
ATOM     29  C   UNL A   1      40.087  25.192  26.232  1.00  0.00     0.016 A 
ATOM     30  C   UNL A   1      39.254  25.717  28.844  1.00  0.00     0.010 A 
ATOM     31  C   UNL A   1      40.415  26.409  26.829  1.00  0.00     0.010 A 
ATOM     32  C   UNL A   1      40.013  26.676  28.145  1.00  0.00    -0.014 A 
BRANCH  32  33
ATOM     33  C   UNL A   1      40.483  27.907  28.828  1.00  0.00     0.031 A 
ATOM     34  C   UNL A   1      39.582  29.096  28.997  1.00  0.00     0.074 A 
ATOM     35  C   UNL A   1      41.752  27.950  29.279  1.00  0.00     0.049 A 
ATOM     36  N   UNL A   1      39.828  30.226  29.608  1.00  0.00    -0.248 NA
ATOM     37  C   UNL A   1      38.237  29.011  28.406  1.00  0.00     0.031 C 
ATOM     38  C   UNL A   1      42.721  26.860  29.150  1.00  0.00     0.029 A 
ATOM     39  N   UNL A   1      42.443  28.934  29.943  1.00  0.00    -0.354 N 
ATOM     40  C   UNL A   1      38.667  30.980  29.495  1.00  0.00     0.074 A 
ATOM     41  C   UNL A   1      37.733  30.201  28.712  1.00  0.00     0.031 C 
ATOM     42  C   UNL A   1      43.866  27.220  29.750  1.00  0.00     0.029 A 
ATOM     43  C   UNL A   1      43.733  28.580  30.267  1.00  0.00     0.049 A 
ATOM     44  H   UNL A   1      42.053  29.809  30.167  1.00  0.00     0.167 HD
ATOM     45  C   UNL A   1      38.404  32.200  30.021  1.00  0.00     0.031 A 
ATOM     46  C   UNL A   1      44.702  29.265  30.909  1.00  0.00     0.031 A 
ATOM     47  C   UNL A   1      39.350  32.969  30.791  1.00  0.00     0.049 A 
ATOM     48  C   UNL A   1      44.399  30.642  31.432  1.00  0.00     0.074 A 
ATOM     49  C   UNL A   1      39.157  34.200  31.394  1.00  0.00     0.029 A 
ATOM     50  N   UNL A   1      40.658  32.595  31.061  1.00  0.00    -0.354 N 
ATOM     51  N   UNL A   1      43.270  31.307  31.385  1.00  0.00    -0.248 NA
ATOM     52  C   UNL A   1      45.491  31.358  32.108  1.00  0.00     0.031 C 
ATOM     53  C   UNL A   1      40.368  34.608  31.954  1.00  0.00     0.029 A 
ATOM     54  C   UNL A   1      41.294  33.591  31.786  1.00  0.00     0.049 A 
ATOM     55  H   UNL A   1      41.074  31.747  30.780  1.00  0.00     0.167 HD
ATOM     56  C   UNL A   1      43.508  32.509  32.045  1.00  0.00     0.074 A 
ATOM     57  C   UNL A   1      44.882  32.470  32.500  1.00  0.00     0.031 C 
ATOM     58  C   UNL A   1      42.661  33.547  32.248  1.00  0.00     0.031 A 
BRANCH  45  59
ATOM     59  C   UNL A   1      37.032  32.795  29.818  1.00  0.00    -0.014 A 
ATOM     60  C   UNL A   1      36.768  33.581  28.680  1.00  0.00     0.010 A 
ATOM     61  C   UNL A   1      36.062  32.719  30.834  1.00  0.00     0.010 A 
ATOM     62  C   UNL A   1      35.584  34.320  28.585  1.00  0.00     0.020 A 
ATOM     63  C   UNL A   1      34.862  33.430  30.728  1.00  0.00     0.020 A 
ATOM     64  C   UNL A   1      34.645  34.250  29.618  1.00  0.00     0.054 A 
BRANCH  64  65
ATOM     65  S   UNL A   1      33.149  35.270  29.508  1.00  0.00     0.124 S 
ATOM     66  O   UNL A   1      32.406  34.613  28.436  1.00  0.00    -0.237 OA
ATOM     67  O   UNL A   1      32.579  35.140  30.846  1.00  0.00    -0.237 OA
ATOM     68  O   UNL A   1      33.664  36.600  29.186  1.00  0.00    -0.744 OA
ENDBRANCH  64  65
ENDBRANCH  45  59
BRANCH  46  69
ATOM     69  C   UNL A   1      46.028  28.620  31.128  1.00  0.00    -0.014 A 
ATOM     70  C   UNL A   1      46.283  27.892  32.306  1.00  0.00     0.010 A 
ATOM     71  C   UNL A   1      47.069  28.796  30.200  1.00  0.00     0.010 A 
ATOM     72  C   UNL A   1      47.565  27.410  32.582  1.00  0.00     0.020 A 
ATOM     73  C   UNL A   1      48.345  28.281  30.455  1.00  0.00     0.020 A 
ATOM     74  C   UNL A   1      48.591  27.620  31.659  1.00  0.00     0.054 A 
BRANCH  74  75
ATOM     75  S   UNL A   1      50.259  27.036  32.068  1.00  0.00     0.124 S 
ATOM     76  O   UNL A   1      50.058  25.592  32.156  1.00  0.00    -0.237 OA
ATOM     77  O   UNL A   1      51.045  27.495  30.927  1.00  0.00    -0.237 OA
ATOM     78  O   UNL A   1      50.556  27.703  33.334  1.00  0.00    -0.744 OA
ENDBRANCH  74  75
ENDBRANCH  46  69
BRANCH  58  79
ATOM     79  C   UNL A   1      43.167  34.756  32.999  1.00  0.00    -0.014 A 
ATOM     80  C   UNL A   1      43.837  35.781  32.302  1.00  0.00     0.010 A 
ATOM     81  C   UNL A   1      43.128  34.801  34.404  1.00  0.00     0.010 A 
ATOM     82  C   UNL A   1      44.505  36.793  32.994  1.00  0.00     0.020 A 
ATOM     83  C   UNL A   1      43.766  35.833  35.100  1.00  0.00     0.020 A 
ATOM     84  C   UNL A   1      44.479  36.803  34.391  1.00  0.00     0.054 A 
BRANCH  84  85
ATOM     85  S   UNL A   1      45.415  38.083  35.273  1.00  0.00     0.124 S 
ATOM     86  O   UNL A   1      44.407  39.120  35.472  1.00  0.00    -0.237 OA
ATOM     87  O   UNL A   1      45.848  37.386  36.482  1.00  0.00    -0.237 OA
ATOM     88  O   UNL A   1      46.488  38.427  34.343  1.00  0.00    -0.744 OA
ENDBRANCH  84  85
ENDBRANCH  58  79
ENDBRANCH  32  33
ENDBRANCH  25  27
ENDBRANCH  24  25
ENDBRANCH  23  24
ENDBRANCH   1  23
TORSDOF 18
ENDMDL
MODEL 3
REMARK VINA RESULT:     -10.1      4.041      9.922
REMARK SMILES Cc1ccc2c(c1)C=C(C(=O)OCCOCCOC(=O)c1ccc(-c3c4nc(c(-c5ccc(S(=O)(=O)[O-])cc5)c5ccc([nH]5)c(-c5ccc(S(=O)(=O)[O-])cc5)c5nc(c(-c6ccc(S(=O)(=O)[O-])cc6)c6ccc3[nH]6)C=C5)C=C4)cc1)[C@@H](C(F)(F)F)O2
REMARK SMILES IDX 16 1 15 2 14 3 13 4 12 5 10 6 11 7 9 8 1 9 2 10 3 11 7 12
REMARK SMILES IDX 4 13 6 14 5 15 8 16 86 17 81 18 82 19 83 20 84 21 85 22
REMARK SMILES IDX 17 23 18 24 19 25 20 26 21 27 22 28 80 29 23 30 79 31 24 32
REMARK SMILES IDX 25 33 26 34 73 35 27 36 78 37 72 38 74 39 28 40 77 41 71 42
REMARK SMILES IDX 70 43 29 45 59 46 40 47 58 48 41 49 44 50 57 51 75 52 42 53
REMARK SMILES IDX 43 54 56 56 76 57 45 58 30 59 31 60 39 61 32 62 38 63 33 64
REMARK SMILES IDX 34 65 35 66 36 67 37 68 60 69 61 70 69 71 62 72 68 73 63 74
REMARK SMILES IDX 64 75 65 76 66 77 67 78 46 79 47 80 55 81 48 82 54 83 49 84
REMARK SMILES IDX 50 85 51 86 52 87 53 88
REMARK H PARENT 74 44 44 55
REMARK Flexibility Score: inf
ROOT
ATOM      1  C   UNL A   1      38.788  21.481  25.879  1.00  0.00     0.202 C 
ENDROOT
BRANCH   1   2
ATOM      2  O   UNL A   1      37.570  21.892  25.262  1.00  0.00    -0.374 OA
BRANCH   2   3
ATOM      3  C   UNL A   1      37.336  23.287  25.080  1.00  0.00     0.202 C 
BRANCH   3   4
ATOM      4  C   UNL A   1      36.131  23.912  25.791  1.00  0.00     0.261 C 
BRANCH   4   5
ATOM      5  O   UNL A   1      35.179  22.928  26.217  1.00  0.00    -0.460 OA
BRANCH   5   6
ATOM      6  C   UNL A   1      33.897  23.213  25.887  1.00  0.00     0.338 C 
ATOM      7  O   UNL A   1      33.291  24.245  26.129  1.00  0.00    -0.246 OA
BRANCH   6   8
ATOM      8  C   UNL A   1      33.347  22.137  25.042  1.00  0.00     0.087 C 
ATOM      9  C   UNL A   1      33.470  16.012  24.606  1.00  0.00     0.044 C 
ATOM     10  C   UNL A   1      33.094  17.406  24.207  1.00  0.00    -0.050 A 
ATOM     11  C   UNL A   1      32.540  17.673  22.950  1.00  0.00     0.007 A 
ATOM     12  C   UNL A   1      33.374  18.476  25.066  1.00  0.00     0.015 A 
ATOM     13  C   UNL A   1      32.233  18.985  22.575  1.00  0.00     0.047 A 
ATOM     14  C   UNL A   1      33.104  19.792  24.674  1.00  0.00     0.017 A 
ATOM     15  C   UNL A   1      32.517  20.045  23.435  1.00  0.00     0.128 A 
ATOM     16  C   UNL A   1      33.503  20.896  25.521  1.00  0.00     0.027 C 
ATOM     17  O   UNL A   1      32.190  21.295  22.994  1.00  0.00    -0.475 OA
ATOM     18  C   UNL A   1      32.689  22.453  23.726  1.00  0.00     0.316 C 
BRANCH  18  19
ATOM     19  C   UNL A   1      33.603  23.260  22.793  1.00  0.00     0.430 C 
ATOM     20  F   UNL A   1      34.891  22.854  22.897  1.00  0.00    -0.167 F 
ATOM     21  F   UNL A   1      33.251  23.111  21.495  1.00  0.00    -0.167 F 
ATOM     22  F   UNL A   1      33.569  24.582  23.074  1.00  0.00    -0.167 F 
ENDBRANCH  18  19
ENDBRANCH   6   8
ENDBRANCH   5   6
ENDBRANCH   4   5
ENDBRANCH   3   4
ENDBRANCH   2   3
ENDBRANCH   1   2
BRANCH   1  23
ATOM     23  C   UNL A   1      39.280  20.043  25.658  1.00  0.00     0.261 C 
BRANCH  23  24
ATOM     24  O   UNL A   1      40.150  19.573  26.699  1.00  0.00    -0.460 OA
BRANCH  24  25
ATOM     25  C   UNL A   1      41.454  19.452  26.340  1.00  0.00     0.338 C 
ATOM     26  O   UNL A   1      41.985  18.489  25.808  1.00  0.00    -0.246 OA
BRANCH  25  27
ATOM     27  C   UNL A   1      42.124  20.755  26.498  1.00  0.00     0.060 A 
ATOM     28  C   UNL A   1      42.565  21.480  25.390  1.00  0.00     0.016 A 
ATOM     29  C   UNL A   1      42.274  21.270  27.792  1.00  0.00     0.016 A 
ATOM     30  C   UNL A   1      43.145  22.737  25.583  1.00  0.00     0.010 A 
ATOM     31  C   UNL A   1      42.855  22.524  27.982  1.00  0.00     0.010 A 
ATOM     32  C   UNL A   1      43.282  23.274  26.877  1.00  0.00    -0.014 A 
BRANCH  32  33
ATOM     33  C   UNL A   1      43.767  24.664  27.069  1.00  0.00     0.031 A 
ATOM     34  C   UNL A   1      42.843  25.755  27.526  1.00  0.00     0.074 A 
ATOM     35  C   UNL A   1      45.059  24.938  26.803  1.00  0.00     0.049 A 
ATOM     36  N   UNL A   1      43.122  27.007  27.783  1.00  0.00    -0.248 NA
ATOM     37  C   UNL A   1      41.427  25.403  27.718  1.00  0.00     0.031 C 
ATOM     38  C   UNL A   1      46.041  23.959  26.333  1.00  0.00     0.029 A 
ATOM     39  N   UNL A   1      45.772  26.108  26.897  1.00  0.00    -0.354 N 
ATOM     40  C   UNL A   1      41.927  27.589  28.186  1.00  0.00     0.074 A 
ATOM     41  C   UNL A   1      40.907  26.567  28.090  1.00  0.00     0.031 C 
ATOM     42  C   UNL A   1      47.235  24.559  26.217  1.00  0.00     0.029 A 
ATOM     43  C   UNL A   1      47.100  25.973  26.559  1.00  0.00     0.049 A 
ATOM     44  H   UNL A   1      45.373  26.962  27.179  1.00  0.00     0.167 HD
ATOM     45  C   UNL A   1      41.712  28.854  28.619  1.00  0.00     0.031 A 
ATOM     46  C   UNL A   1      48.100  26.878  26.530  1.00  0.00     0.031 A 
ATOM     47  C   UNL A   1      42.738  29.864  28.699  1.00  0.00     0.049 A 
ATOM     48  C   UNL A   1      47.820  28.291  26.961  1.00  0.00     0.074 A 
ATOM     49  C   UNL A   1      42.619  31.164  29.162  1.00  0.00     0.029 A 
ATOM     50  N   UNL A   1      44.059  29.701  28.310  1.00  0.00    -0.354 N 
ATOM     51  N   UNL A   1      46.701  28.804  27.414  1.00  0.00    -0.248 NA
ATOM     52  C   UNL A   1      48.935  29.247  26.894  1.00  0.00     0.031 C 
ATOM     53  C   UNL A   1      43.841  31.810  28.972  1.00  0.00     0.029 A 
ATOM     54  C   UNL A   1      44.753  30.888  28.483  1.00  0.00     0.049 A 
ATOM     55  H   UNL A   1      44.448  28.865  27.963  1.00  0.00     0.167 HD
ATOM     56  C   UNL A   1      46.983  30.134  27.708  1.00  0.00     0.074 A 
ATOM     57  C   UNL A   1      48.383  30.341  27.402  1.00  0.00     0.031 C 
ATOM     58  C   UNL A   1      46.151  31.092  28.185  1.00  0.00     0.031 A 
BRANCH  45  59
ATOM     59  C   UNL A   1      40.326  29.240  29.072  1.00  0.00    -0.014 A 
ATOM     60  C   UNL A   1      39.387  29.713  28.135  1.00  0.00     0.010 A 
ATOM     61  C   UNL A   1      40.010  29.295  30.441  1.00  0.00     0.010 A 
ATOM     62  C   UNL A   1      38.182  30.282  28.561  1.00  0.00     0.020 A 
ATOM     63  C   UNL A   1      38.792  29.832  30.870  1.00  0.00     0.020 A 
ATOM     64  C   UNL A   1      37.900  30.351  29.928  1.00  0.00     0.054 A 
BRANCH  64  65
ATOM     65  S   UNL A   1      36.364  31.156  30.463  1.00  0.00     0.124 S 
ATOM     66  O   UNL A   1      35.497  30.967  29.303  1.00  0.00    -0.237 OA
ATOM     67  O   UNL A   1      36.004  30.391  31.653  1.00  0.00    -0.237 OA
ATOM     68  O   UNL A   1      36.772  32.536  30.719  1.00  0.00    -0.744 OA
ENDBRANCH  64  65
ENDBRANCH  45  59
BRANCH  46  69
ATOM     69  C   UNL A   1      49.466  26.442  26.120  1.00  0.00    -0.014 A 
ATOM     70  C   UNL A   1      50.366  25.926  27.072  1.00  0.00     0.010 A 
ATOM     71  C   UNL A   1      49.903  26.615  24.796  1.00  0.00     0.010 A 
ATOM     72  C   UNL A   1      51.692  25.653  26.723  1.00  0.00     0.020 A 
ATOM     73  C   UNL A   1      51.219  26.306  24.433  1.00  0.00     0.020 A 
ATOM     74  C   UNL A   1      52.112  25.857  25.407  1.00  0.00     0.054 A 
BRANCH  74  75
ATOM     75  S   UNL A   1      53.852  25.552  24.995  1.00  0.00     0.124 S 
ATOM     76  O   UNL A   1      53.969  24.116  25.238  1.00  0.00    -0.237 OA
ATOM     77  O   UNL A   1      53.923  25.962  23.595  1.00  0.00    -0.237 OA
ATOM     78  O   UNL A   1      54.582  26.405  25.929  1.00  0.00    -0.744 OA
ENDBRANCH  74  75
ENDBRANCH  46  69
BRANCH  58  79
ATOM     79  C   UNL A   1      46.705  32.478  28.420  1.00  0.00    -0.014 A 
ATOM     80  C   UNL A   1      46.701  33.418  27.371  1.00  0.00     0.010 A 
ATOM     81  C   UNL A   1      47.373  32.795  29.616  1.00  0.00     0.010 A 
ATOM     82  C   UNL A   1      47.402  34.620  27.490  1.00  0.00     0.020 A 
ATOM     83  C   UNL A   1      48.045  34.014  29.753  1.00  0.00     0.020 A 
ATOM     84  C   UNL A   1      48.084  34.903  28.676  1.00  0.00     0.054 A 
BRANCH  84  85
ATOM     85  S   UNL A   1      49.048  36.435  28.784  1.00  0.00     0.124 S 
ATOM     86  O   UNL A   1      50.382  35.988  28.394  1.00  0.00    -0.237 OA
ATOM     87  O   UNL A   1      48.371  37.307  27.827  1.00  0.00    -0.237 OA
ATOM     88  O   UNL A   1      48.909  36.832  30.184  1.00  0.00    -0.744 OA
ENDBRANCH  84  85
ENDBRANCH  58  79
ENDBRANCH  32  33
ENDBRANCH  25  27
ENDBRANCH  24  25
ENDBRANCH  23  24
ENDBRANCH   1  23
TORSDOF 18
ENDMDL
