MODEL 1
REMARK VINA RESULT:      -9.2      0.000      0.000
REMARK SMILES CC[C@H](C)[C@H]([NH3+])C(=O)N1CC[C@@H](C(=O)OCCOCCOC(=O)c2ccc(-c3c4nc(c(-c5ccc(S(=O)(=O)[O-])cc5)c5ccc([nH]5)c(-c5ccc(S(=O)(=O)[O-])cc5)c5nc(c(-c6ccc(S(=O)(=O)[O-])cc6)c6ccc3[nH]6)C=C5)C=C4)cc2)[C@@H]1C
REMARK SMILES IDX 17 1 16 2 15 3 13 4 14 5 12 6 9 7 10 8 84 9 11 10 85 11 7 12
REMARK SMILES IDX 8 13 5 14 3 15 4 16 2 17 1 18 6 19 18 23 19 24 20 25 21 26
REMARK SMILES IDX 22 27 23 28 24 29 25 30 83 31 26 32 82 33 27 34 28 35 29 36
REMARK SMILES IDX 76 37 30 38 81 39 75 40 77 41 31 42 80 43 74 44 73 45 32 47
REMARK SMILES IDX 62 48 43 49 61 50 44 51 47 52 60 53 78 54 45 55 46 56 59 58
REMARK SMILES IDX 79 59 48 60 33 61 34 62 42 63 35 64 41 65 36 66 37 67 38 68
REMARK SMILES IDX 39 69 40 70 63 71 64 72 72 73 65 74 71 75 66 76 67 77 68 78
REMARK SMILES IDX 69 79 70 80 49 81 50 82 58 83 51 84 57 85 52 86 53 87 54 88
REMARK SMILES IDX 55 89 56 90
REMARK H PARENT 6 20 6 21 6 22 77 46 47 57
REMARK Flexibility Score: inf
ROOT
ATOM      1  C   UNL A   1      33.275  32.443  27.920  1.00  0.00     0.202 C 
ENDROOT
BRANCH   1   2
ATOM      2  C   UNL A   1      33.689  31.115  27.279  1.00  0.00     0.261 C 
BRANCH   2   3
ATOM      3  O   UNL A   1      32.574  30.207  27.179  1.00  0.00    -0.463 OA
BRANCH   3   4
ATOM      4  C   UNL A   1      31.851  30.284  26.034  1.00  0.00     0.311 C 
ATOM      5  O   UNL A   1      31.162  31.241  25.699  1.00  0.00    -0.252 OA
BRANCH   4   6
ATOM      6  C   UNL A   1      31.946  29.041  25.181  1.00  0.00     0.123 C 
ATOM      7  N   UNL A   1      30.985  26.865  25.108  1.00  0.00    -0.334 N 
ATOM      8  C   UNL A   1      30.700  27.516  23.845  1.00  0.00     0.121 C 
ATOM      9  C   UNL A   1      31.919  27.669  25.899  1.00  0.00     0.096 C 
ATOM     10  C   UNL A   1      30.784  28.988  24.193  1.00  0.00     0.039 C 
ATOM     11  C   UNL A   1      33.321  27.038  25.842  1.00  0.00     0.032 C 
BRANCH   7  12
ATOM     12  C   UNL A   1      30.412  25.644  25.372  1.00  0.00     0.281 C 
ATOM     13  O   UNL A   1      29.607  25.538  26.307  1.00  0.00    -0.268 OA
BRANCH  12  14
ATOM     14  C   UNL A   1      30.821  24.369  24.584  1.00  0.00     0.273 C 
BRANCH  14  15
ATOM     15  C   UNL A   1      32.029  23.540  25.131  1.00  0.00     0.054 C 
ATOM     16  C   UNL A   1      31.620  22.250  25.844  1.00  0.00     0.014 C 
BRANCH  15  17
ATOM     17  C   UNL A   1      33.163  23.216  24.138  1.00  0.00     0.006 C 
ATOM     18  C   UNL A   1      33.131  21.794  23.602  1.00  0.00     0.004 C 
ENDBRANCH  15  17
ENDBRANCH  14  15
BRANCH  14  19
ATOM     19  N   UNL A   1      30.821  24.596  23.124  1.00  0.00    -0.347 N 
ATOM     20  H   UNL A   1      30.488  23.757  22.651  1.00  0.00     0.345 HD
ATOM     21  H   UNL A   1      31.768  24.810  22.812  1.00  0.00     0.345 HD
ATOM     22  H   UNL A   1      30.206  25.379  22.903  1.00  0.00     0.345 HD
ENDBRANCH  14  19
ENDBRANCH  12  14
ENDBRANCH   7  12
ENDBRANCH   4   6
ENDBRANCH   3   4
ENDBRANCH   2   3
ENDBRANCH   1   2
BRANCH   1  23
ATOM     23  O   UNL A   1      34.337  33.296  28.353  1.00  0.00    -0.374 OA
BRANCH  23  24
ATOM     24  C   UNL A   1      33.999  34.346  29.254  1.00  0.00     0.202 C 
BRANCH  24  25
ATOM     25  C   UNL A   1      34.346  34.142  30.735  1.00  0.00     0.261 C 
BRANCH  25  26
ATOM     26  O   UNL A   1      34.306  32.761  31.128  1.00  0.00    -0.460 OA
BRANCH  26  27
ATOM     27  C   UNL A   1      35.220  32.422  32.070  1.00  0.00     0.338 C 
ATOM     28  O   UNL A   1      35.128  32.605  33.278  1.00  0.00    -0.246 OA
BRANCH  27  29
ATOM     29  C   UNL A   1      36.303  31.622  31.471  1.00  0.00     0.060 A 
ATOM     30  C   UNL A   1      37.204  30.991  32.337  1.00  0.00     0.016 A 
ATOM     31  C   UNL A   1      36.482  31.546  30.091  1.00  0.00     0.016 A 
ATOM     32  C   UNL A   1      38.327  30.342  31.825  1.00  0.00     0.010 A 
ATOM     33  C   UNL A   1      37.588  30.861  29.576  1.00  0.00     0.010 A 
ATOM     34  C   UNL A   1      38.553  30.316  30.442  1.00  0.00    -0.014 A 
BRANCH  34  35
ATOM     35  C   UNL A   1      39.900  29.949  29.926  1.00  0.00     0.031 A 
ATOM     36  C   UNL A   1      40.984  31.001  29.956  1.00  0.00     0.074 A 
ATOM     37  C   UNL A   1      40.183  28.703  29.497  1.00  0.00     0.049 A 
ATOM     38  N   UNL A   1      42.227  30.927  29.555  1.00  0.00    -0.248 NA
ATOM     39  C   UNL A   1      40.613  32.321  30.500  1.00  0.00     0.031 C 
ATOM     40  C   UNL A   1      39.240  27.586  29.442  1.00  0.00     0.029 A 
ATOM     41  N   UNL A   1      41.360  28.169  29.029  1.00  0.00    -0.354 N 
ATOM     42  C   UNL A   1      42.769  32.189  29.770  1.00  0.00     0.074 A 
ATOM     43  C   UNL A   1      41.715  33.024  30.297  1.00  0.00     0.031 C 
ATOM     44  C   UNL A   1      39.879  26.496  28.977  1.00  0.00     0.029 A 
ATOM     45  C   UNL A   1      41.266  26.843  28.673  1.00  0.00     0.049 A 
ATOM     46  H   UNL A   1      42.193  28.687  28.957  1.00  0.00     0.167 HD
ATOM     47  C   UNL A   1      44.037  32.617  29.568  1.00  0.00     0.031 A 
ATOM     48  C   UNL A   1      42.192  26.010  28.156  1.00  0.00     0.031 A 
ATOM     49  C   UNL A   1      45.100  31.780  29.084  1.00  0.00     0.049 A 
ATOM     50  C   UNL A   1      43.595  26.517  27.924  1.00  0.00     0.074 A 
ATOM     51  C   UNL A   1      46.428  32.112  28.883  1.00  0.00     0.029 A 
ATOM     52  N   UNL A   1      44.958  30.448  28.736  1.00  0.00    -0.354 N 
ATOM     53  N   UNL A   1      44.094  27.707  28.163  1.00  0.00    -0.248 NA
ATOM     54  C   UNL A   1      44.566  25.560  27.373  1.00  0.00     0.031 C 
ATOM     55  C   UNL A   1      47.081  30.990  28.365  1.00  0.00     0.029 A 
ATOM     56  C   UNL A   1      46.173  29.944  28.308  1.00  0.00     0.049 A 
ATOM     57  H   UNL A   1      44.119  29.936  28.784  1.00  0.00     0.167 HD
ATOM     58  C   UNL A   1      45.445  27.626  27.832  1.00  0.00     0.074 A 
ATOM     59  C   UNL A   1      45.685  26.269  27.387  1.00  0.00     0.031 C 
ATOM     60  C   UNL A   1      46.401  28.585  27.892  1.00  0.00     0.031 A 
BRANCH  47  61
ATOM     61  C   UNL A   1      44.347  34.060  29.862  1.00  0.00    -0.014 A 
ATOM     62  C   UNL A   1      44.178  35.059  28.887  1.00  0.00     0.010 A 
ATOM     63  C   UNL A   1      44.757  34.428  31.158  1.00  0.00     0.010 A 
ATOM     64  C   UNL A   1      44.433  36.398  29.196  1.00  0.00     0.020 A 
ATOM     65  C   UNL A   1      44.986  35.768  31.478  1.00  0.00     0.020 A 
ATOM     66  C   UNL A   1      44.831  36.744  30.491  1.00  0.00     0.054 A 
BRANCH  66  67
ATOM     67  S   UNL A   1      45.095  38.496  30.880  1.00  0.00     0.124 S 
ATOM     68  O   UNL A   1      44.017  39.137  30.131  1.00  0.00    -0.237 OA
ATOM     69  O   UNL A   1      44.953  38.524  32.334  1.00  0.00    -0.237 OA
ATOM     70  O   UNL A   1      46.443  38.763  30.383  1.00  0.00    -0.744 OA
ENDBRANCH  66  67
ENDBRANCH  47  61
BRANCH  48  71
ATOM     71  C   UNL A   1      41.836  24.605  27.805  1.00  0.00    -0.014 A 
ATOM     72  C   UNL A   1      42.116  23.545  28.687  1.00  0.00     0.010 A 
ATOM     73  C   UNL A   1      41.260  24.314  26.554  1.00  0.00     0.010 A 
ATOM     74  C   UNL A   1      41.867  22.221  28.310  1.00  0.00     0.020 A 
ATOM     75  C   UNL A   1      40.979  22.994  26.187  1.00  0.00     0.020 A 
ATOM     76  C   UNL A   1      41.304  21.954  27.059  1.00  0.00     0.054 A 
BRANCH  76  77
ATOM     77  S   UNL A   1      40.980  20.231  26.591  1.00  0.00     0.124 S 
ATOM     78  O   UNL A   1      41.021  19.553  27.883  1.00  0.00    -0.237 OA
ATOM     79  O   UNL A   1      39.665  20.317  25.961  1.00  0.00    -0.237 OA
ATOM     80  O   UNL A   1      42.078  19.913  25.680  1.00  0.00    -0.744 OA
ENDBRANCH  76  77
ENDBRANCH  48  71
BRANCH  60  81
ATOM     81  C   UNL A   1      47.813  28.190  27.545  1.00  0.00    -0.014 A 
ATOM     82  C   UNL A   1      48.715  27.734  28.521  1.00  0.00     0.010 A 
ATOM     83  C   UNL A   1      48.222  28.227  26.198  1.00  0.00     0.010 A 
ATOM     84  C   UNL A   1      50.016  27.368  28.164  1.00  0.00     0.020 A 
ATOM     85  C   UNL A   1      49.510  27.833  25.832  1.00  0.00     0.020 A 
ATOM     86  C   UNL A   1      50.406  27.424  26.820  1.00  0.00     0.054 A 
BRANCH  86  87
ATOM     87  S   UNL A   1      52.091  26.922  26.378  1.00  0.00     0.124 S 
ATOM     88  O   UNL A   1      52.649  28.163  25.849  1.00  0.00    -0.237 OA
ATOM     89  O   UNL A   1      52.642  26.480  27.657  1.00  0.00    -0.237 OA
ATOM     90  O   UNL A   1      51.889  25.860  25.394  1.00  0.00    -0.744 OA
ENDBRANCH  86  87
ENDBRANCH  60  81
ENDBRANCH  34  35
ENDBRANCH  27  29
ENDBRANCH  26  27
ENDBRANCH  25  26
ENDBRANCH  24  25
ENDBRANCH  23  24
ENDBRANCH   1  23
TORSDOF 22
ENDMDL
MODEL 2
REMARK VINA RESULT:      -8.7      1.776      2.519
REMARK SMILES CC[C@H](C)[C@H]([NH3+])C(=O)N1CC[C@@H](C(=O)OCCOCCOC(=O)c2ccc(-c3c4nc(c(-c5ccc(S(=O)(=O)[O-])cc5)c5ccc([nH]5)c(-c5ccc(S(=O)(=O)[O-])cc5)c5nc(c(-c6ccc(S(=O)(=O)[O-])cc6)c6ccc3[nH]6)C=C5)C=C4)cc2)[C@@H]1C
REMARK SMILES IDX 17 1 16 2 15 3 13 4 14 5 12 6 9 7 10 8 84 9 11 10 85 11 7 12
REMARK SMILES IDX 8 13 5 14 3 15 4 16 2 17 1 18 6 19 18 23 19 24 20 25 21 26
REMARK SMILES IDX 22 27 23 28 24 29 25 30 83 31 26 32 82 33 27 34 28 35 29 36
REMARK SMILES IDX 76 37 30 38 81 39 75 40 77 41 31 42 80 43 74 44 73 45 32 47
REMARK SMILES IDX 62 48 43 49 61 50 44 51 47 52 60 53 78 54 45 55 46 56 59 58
REMARK SMILES IDX 79 59 48 60 33 61 34 62 42 63 35 64 41 65 36 66 37 67 38 68
REMARK SMILES IDX 39 69 40 70 63 71 64 72 72 73 65 74 71 75 66 76 67 77 68 78
REMARK SMILES IDX 69 79 70 80 49 81 50 82 58 83 51 84 57 85 52 86 53 87 54 88
REMARK SMILES IDX 55 89 56 90
REMARK H PARENT 6 20 6 21 6 22 77 46 47 57
REMARK Flexibility Score: inf
ROOT
ATOM      1  C   UNL A   1      34.014  33.459  28.329  1.00  0.00     0.202 C 
ENDROOT
BRANCH   1   2
ATOM      2  C   UNL A   1      33.833  31.948  28.154  1.00  0.00     0.261 C 
BRANCH   2   3
ATOM      3  O   UNL A   1      33.700  31.589  26.765  1.00  0.00    -0.463 OA
BRANCH   3   4
ATOM      4  C   UNL A   1      32.684  30.741  26.469  1.00  0.00     0.311 C 
ATOM      5  O   UNL A   1      31.626  31.067  25.944  1.00  0.00    -0.252 OA
BRANCH   4   6
ATOM      6  C   UNL A   1      32.958  29.312  26.876  1.00  0.00     0.123 C 
ATOM      7  N   UNL A   1      32.467  27.121  26.088  1.00  0.00    -0.334 N 
ATOM      8  C   UNL A   1      33.909  27.250  26.163  1.00  0.00     0.121 C 
ATOM      9  C   UNL A   1      31.816  28.280  26.702  1.00  0.00     0.096 C 
ATOM     10  C   UNL A   1      34.123  28.747  26.067  1.00  0.00     0.039 C 
ATOM     11  C   UNL A   1      31.267  27.892  28.085  1.00  0.00     0.032 C 
BRANCH   7  12
ATOM     12  C   UNL A   1      31.929  25.989  25.522  1.00  0.00     0.281 C 
ATOM     13  O   UNL A   1      30.699  25.857  25.479  1.00  0.00    -0.268 OA
BRANCH  12  14
ATOM     14  C   UNL A   1      32.830  24.827  25.021  1.00  0.00     0.273 C 
BRANCH  14  15
ATOM     15  C   UNL A   1      33.112  24.744  23.485  1.00  0.00     0.054 C 
ATOM     16  C   UNL A   1      33.229  23.314  22.956  1.00  0.00     0.014 C 
BRANCH  15  17
ATOM     17  C   UNL A   1      32.174  25.538  22.556  1.00  0.00     0.006 C 
ATOM     18  C   UNL A   1      32.714  25.734  21.149  1.00  0.00     0.004 C 
ENDBRANCH  15  17
ENDBRANCH  14  15
BRANCH  14  19
ATOM     19  N   UNL A   1      32.492  23.544  25.671  1.00  0.00    -0.347 N 
ATOM     20  H   UNL A   1      32.070  22.918  24.986  1.00  0.00     0.345 HD
ATOM     21  H   UNL A   1      31.833  23.710  26.431  1.00  0.00     0.345 HD
ATOM     22  H   UNL A   1      33.341  23.119  26.044  1.00  0.00     0.345 HD
ENDBRANCH  14  19
ENDBRANCH  12  14
ENDBRANCH   7  12
ENDBRANCH   4   6
ENDBRANCH   3   4
ENDBRANCH   2   3
ENDBRANCH   1   2
BRANCH   1  23
ATOM     23  O   UNL A   1      33.576  34.009  29.573  1.00  0.00    -0.374 OA
BRANCH  23  24
ATOM     24  C   UNL A   1      34.566  34.215  30.576  1.00  0.00     0.202 C 
BRANCH  24  25
ATOM     25  C   UNL A   1      35.253  32.971  31.154  1.00  0.00     0.261 C 
BRANCH  25  26
ATOM     26  O   UNL A   1      36.536  32.720  30.558  1.00  0.00    -0.460 OA
BRANCH  26  27
ATOM     27  C   UNL A   1      37.522  32.453  31.450  1.00  0.00     0.338 C 
ATOM     28  O   UNL A   1      37.556  32.790  32.627  1.00  0.00    -0.246 OA
BRANCH  27  29
ATOM     29  C   UNL A   1      38.505  31.525  30.865  1.00  0.00     0.060 A 
ATOM     30  C   UNL A   1      39.466  30.968  31.717  1.00  0.00     0.016 A 
ATOM     31  C   UNL A   1      38.538  31.257  29.497  1.00  0.00     0.016 A 
ATOM     32  C   UNL A   1      40.504  30.199  31.193  1.00  0.00     0.010 A 
ATOM     33  C   UNL A   1      39.558  30.452  28.976  1.00  0.00     0.010 A 
ATOM     34  C   UNL A   1      40.585  29.977  29.811  1.00  0.00    -0.014 A 
BRANCH  34  35
ATOM     35  C   UNL A   1      41.856  29.475  29.223  1.00  0.00     0.031 A 
ATOM     36  C   UNL A   1      43.032  30.423  29.154  1.00  0.00     0.074 A 
ATOM     37  C   UNL A   1      41.997  28.199  28.814  1.00  0.00     0.049 A 
ATOM     38  N   UNL A   1      44.233  30.224  28.677  1.00  0.00    -0.248 NA
ATOM     39  C   UNL A   1      42.819  31.784  29.680  1.00  0.00     0.031 C 
ATOM     40  C   UNL A   1      40.954  27.173  28.850  1.00  0.00     0.029 A 
ATOM     41  N   UNL A   1      43.087  27.547  28.288  1.00  0.00    -0.354 N 
ATOM     42  C   UNL A   1      44.901  31.436  28.821  1.00  0.00     0.074 A 
ATOM     43  C   UNL A   1      43.964  32.377  29.389  1.00  0.00     0.031 C 
ATOM     44  C   UNL A   1      41.460  26.018  28.378  1.00  0.00     0.029 A 
ATOM     45  C   UNL A   1      42.850  26.228  27.978  1.00  0.00     0.049 A 
ATOM     46  H   UNL A   1      43.958  27.984  28.148  1.00  0.00     0.167 HD
ATOM     47  C   UNL A   1      46.186  31.740  28.527  1.00  0.00     0.031 A 
ATOM     48  C   UNL A   1      43.661  25.301  27.428  1.00  0.00     0.031 A 
ATOM     49  C   UNL A   1      47.135  30.797  28.002  1.00  0.00     0.049 A 
ATOM     50  C   UNL A   1      45.086  25.670  27.093  1.00  0.00     0.074 A 
ATOM     51  C   UNL A   1      48.472  31.000  27.708  1.00  0.00     0.029 A 
ATOM     52  N   UNL A   1      46.851  29.476  27.702  1.00  0.00    -0.354 N 
ATOM     53  N   UNL A   1      45.705  26.814  27.265  1.00  0.00    -0.248 NA
ATOM     54  C   UNL A   1      45.927  24.615  26.511  1.00  0.00     0.031 C 
ATOM     55  C   UNL A   1      48.985  29.810  27.183  1.00  0.00     0.029 A 
ATOM     56  C   UNL A   1      47.985  28.852  27.214  1.00  0.00     0.049 A 
ATOM     57  H   UNL A   1      45.974  29.045  27.818  1.00  0.00     0.167 HD
ATOM     58  C   UNL A   1      47.019  26.601  26.852  1.00  0.00     0.074 A 
ATOM     59  C   UNL A   1      47.105  25.218  26.434  1.00  0.00     0.031 C 
ATOM     60  C   UNL A   1      48.060  27.468  26.825  1.00  0.00     0.031 A 
BRANCH  47  61
ATOM     61  C   UNL A   1      46.645  33.155  28.759  1.00  0.00    -0.014 A 
ATOM     62  C   UNL A   1      47.284  33.530  29.954  1.00  0.00     0.010 A 
ATOM     63  C   UNL A   1      46.486  34.108  27.736  1.00  0.00     0.010 A 
ATOM     64  C   UNL A   1      47.737  34.840  30.130  1.00  0.00     0.020 A 
ATOM     65  C   UNL A   1      46.963  35.411  27.898  1.00  0.00     0.020 A 
ATOM     66  C   UNL A   1      47.579  35.771  29.099  1.00  0.00     0.054 A 
BRANCH  66  67
ATOM     67  S   UNL A   1      48.233  37.446  29.332  1.00  0.00     0.124 S 
ATOM     68  O   UNL A   1      48.943  37.670  28.074  1.00  0.00    -0.237 OA
ATOM     69  O   UNL A   1      47.020  38.239  29.518  1.00  0.00    -0.237 OA
ATOM     70  O   UNL A   1      49.084  37.326  30.513  1.00  0.00    -0.744 OA
ENDBRANCH  66  67
ENDBRANCH  47  61
BRANCH  48  71
ATOM     71  C   UNL A   1      43.156  23.927  27.141  1.00  0.00    -0.014 A 
ATOM     72  C   UNL A   1      42.522  23.629  25.920  1.00  0.00     0.010 A 
ATOM     73  C   UNL A   1      43.260  22.918  28.116  1.00  0.00     0.010 A 
ATOM     74  C   UNL A   1      41.967  22.364  25.698  1.00  0.00     0.020 A 
ATOM     75  C   UNL A   1      42.735  21.643  27.885  1.00  0.00     0.020 A 
ATOM     76  C   UNL A   1      42.073  21.380  26.685  1.00  0.00     0.054 A 
BRANCH  76  77
ATOM     77  S   UNL A   1      41.354  19.744  26.374  1.00  0.00     0.124 S 
ATOM     78  O   UNL A   1      41.564  19.072  27.653  1.00  0.00    -0.237 OA
ATOM     79  O   UNL A   1      39.967  20.065  26.047  1.00  0.00    -0.237 OA
ATOM     80  O   UNL A   1      42.145  19.229  25.258  1.00  0.00    -0.744 OA
ENDBRANCH  76  77
ENDBRANCH  48  71
BRANCH  60  81
ATOM     81  C   UNL A   1      49.404  26.936  26.401  1.00  0.00    -0.014 A 
ATOM     82  C   UNL A   1      50.233  26.227  27.288  1.00  0.00     0.010 A 
ATOM     83  C   UNL A   1      49.818  27.107  25.065  1.00  0.00     0.010 A 
ATOM     84  C   UNL A   1      51.471  25.741  26.860  1.00  0.00     0.020 A 
ATOM     85  C   UNL A   1      51.040  26.595  24.625  1.00  0.00     0.020 A 
ATOM     86  C   UNL A   1      51.868  25.931  25.531  1.00  0.00     0.054 A 
BRANCH  86  87
ATOM     87  S   UNL A   1      53.469  25.270  24.993  1.00  0.00     0.124 S 
ATOM     88  O   UNL A   1      53.464  25.586  23.568  1.00  0.00    -0.237 OA
ATOM     89  O   UNL A   1      54.419  26.030  25.803  1.00  0.00    -0.237 OA
ATOM     90  O   UNL A   1      53.382  23.848  25.317  1.00  0.00    -0.744 OA
ENDBRANCH  86  87
ENDBRANCH  60  81
ENDBRANCH  34  35
ENDBRANCH  27  29
ENDBRANCH  26  27
ENDBRANCH  25  26
ENDBRANCH  24  25
ENDBRANCH  23  24
ENDBRANCH   1  23
TORSDOF 22
ENDMDL
MODEL 3
REMARK VINA RESULT:      -8.6      2.295      3.313
REMARK SMILES CC[C@H](C)[C@H]([NH3+])C(=O)N1CC[C@@H](C(=O)OCCOCCOC(=O)c2ccc(-c3c4nc(c(-c5ccc(S(=O)(=O)[O-])cc5)c5ccc([nH]5)c(-c5ccc(S(=O)(=O)[O-])cc5)c5nc(c(-c6ccc(S(=O)(=O)[O-])cc6)c6ccc3[nH]6)C=C5)C=C4)cc2)[C@@H]1C
REMARK SMILES IDX 17 1 16 2 15 3 13 4 14 5 12 6 9 7 10 8 84 9 11 10 85 11 7 12
REMARK SMILES IDX 8 13 5 14 3 15 4 16 2 17 1 18 6 19 18 23 19 24 20 25 21 26
REMARK SMILES IDX 22 27 23 28 24 29 25 30 83 31 26 32 82 33 27 34 28 35 29 36
REMARK SMILES IDX 76 37 30 38 81 39 75 40 77 41 31 42 80 43 74 44 73 45 32 47
REMARK SMILES IDX 62 48 43 49 61 50 44 51 47 52 60 53 78 54 45 55 46 56 59 58
REMARK SMILES IDX 79 59 48 60 33 61 34 62 42 63 35 64 41 65 36 66 37 67 38 68
REMARK SMILES IDX 39 69 40 70 63 71 64 72 72 73 65 74 71 75 66 76 67 77 68 78
REMARK SMILES IDX 69 79 70 80 49 81 50 82 58 83 51 84 57 85 52 86 53 87 54 88
REMARK SMILES IDX 55 89 56 90
REMARK H PARENT 6 20 6 21 6 22 77 46 47 57
REMARK Flexibility Score: inf
ROOT
ATOM      1  C   UNL A   1      35.028  33.623  29.042  1.00  0.00     0.202 C 
ENDROOT
BRANCH   1   2
ATOM      2  C   UNL A   1      34.097  33.119  27.936  1.00  0.00     0.261 C 
BRANCH   2   3
ATOM      3  O   UNL A   1      33.640  31.778  28.199  1.00  0.00    -0.463 OA
BRANCH   3   4
ATOM      4  C   UNL A   1      32.724  31.284  27.330  1.00  0.00     0.311 C 
ATOM      5  O   UNL A   1      31.810  31.930  26.829  1.00  0.00    -0.252 OA
BRANCH   4   6
ATOM      6  C   UNL A   1      32.909  29.815  27.034  1.00  0.00     0.123 C 
ATOM      7  N   UNL A   1      31.961  28.161  25.609  1.00  0.00    -0.334 N 
ATOM      8  C   UNL A   1      33.379  28.234  25.319  1.00  0.00     0.121 C 
ATOM      9  C   UNL A   1      31.639  28.962  26.792  1.00  0.00     0.096 C 
ATOM     10  C   UNL A   1      33.750  29.631  25.774  1.00  0.00     0.039 C 
ATOM     11  C   UNL A   1      31.412  28.034  27.997  1.00  0.00     0.032 C 
BRANCH   7  12
ATOM     12  C   UNL A   1      31.159  27.377  24.814  1.00  0.00     0.281 C 
ATOM     13  O   UNL A   1      30.777  27.811  23.719  1.00  0.00    -0.268 OA
BRANCH  12  14
ATOM     14  C   UNL A   1      30.642  25.994  25.298  1.00  0.00     0.273 C 
BRANCH  14  15
ATOM     15  C   UNL A   1      31.591  24.765  25.115  1.00  0.00     0.054 C 
ATOM     16  C   UNL A   1      32.710  24.687  26.155  1.00  0.00     0.014 C 
BRANCH  15  17
ATOM     17  C   UNL A   1      30.927  23.379  25.001  1.00  0.00     0.006 C 
ATOM     18  C   UNL A   1      31.695  22.264  25.693  1.00  0.00     0.004 C 
ENDBRANCH  15  17
ENDBRANCH  14  15
BRANCH  14  19
ATOM     19  N   UNL A   1      29.233  25.766  24.918  1.00  0.00    -0.347 N 
ATOM     20  H   UNL A   1      28.655  26.517  25.294  1.00  0.00     0.345 HD
ATOM     21  H   UNL A   1      28.919  24.873  25.296  1.00  0.00     0.345 HD
ATOM     22  H   UNL A   1      29.154  25.752  23.901  1.00  0.00     0.345 HD
ENDBRANCH  14  19
ENDBRANCH  12  14
ENDBRANCH   7  12
ENDBRANCH   4   6
ENDBRANCH   3   4
ENDBRANCH   2   3
ENDBRANCH   1   2
BRANCH   1  23
ATOM     23  O   UNL A   1      34.714  33.209  30.372  1.00  0.00    -0.374 OA
BRANCH  23  24
ATOM     24  C   UNL A   1      35.150  31.912  30.768  1.00  0.00     0.202 C 
BRANCH  24  25
ATOM     25  C   UNL A   1      36.589  31.779  31.285  1.00  0.00     0.261 C 
BRANCH  25  26
ATOM     26  O   UNL A   1      37.525  31.467  30.242  1.00  0.00    -0.460 OA
BRANCH  26  27
ATOM     27  C   UNL A   1      37.227  30.345  29.541  1.00  0.00     0.338 C 
ATOM     28  O   UNL A   1      36.112  29.972  29.196  1.00  0.00    -0.246 OA
BRANCH  27  29
ATOM     29  C   UNL A   1      38.460  29.688  29.074  1.00  0.00     0.060 A 
ATOM     30  C   UNL A   1      39.397  29.296  30.038  1.00  0.00     0.016 A 
ATOM     31  C   UNL A   1      38.734  29.521  27.718  1.00  0.00     0.016 A 
ATOM     32  C   UNL A   1      40.640  28.802  29.644  1.00  0.00     0.010 A 
ATOM     33  C   UNL A   1      39.966  28.987  27.324  1.00  0.00     0.010 A 
ATOM     34  C   UNL A   1      40.952  28.690  28.283  1.00  0.00    -0.014 A 
BRANCH  34  35
ATOM     35  C   UNL A   1      42.369  28.510  27.868  1.00  0.00     0.031 A 
ATOM     36  C   UNL A   1      43.324  29.663  28.075  1.00  0.00     0.074 A 
ATOM     37  C   UNL A   1      42.825  27.341  27.376  1.00  0.00     0.049 A 
ATOM     38  N   UNL A   1      44.596  29.752  27.786  1.00  0.00    -0.248 NA
ATOM     39  C   UNL A   1      42.765  30.887  28.678  1.00  0.00     0.031 C 
ATOM     40  C   UNL A   1      42.019  26.139  27.152  1.00  0.00     0.029 A 
ATOM     41  N   UNL A   1      44.088  26.973  26.981  1.00  0.00    -0.354 N 
ATOM     42  C   UNL A   1      44.975  31.042  28.143  1.00  0.00     0.074 A 
ATOM     43  C   UNL A   1      43.795  31.716  28.630  1.00  0.00     0.031 C 
ATOM     44  C   UNL A   1      42.812  25.165  26.669  1.00  0.00     0.029 A 
ATOM     45  C   UNL A   1      44.173  25.679  26.521  1.00  0.00     0.049 A 
ATOM     46  H   UNL A   1      44.862  27.579  27.024  1.00  0.00     0.167 HD
ATOM     47  C   UNL A   1      46.200  31.615  28.091  1.00  0.00     0.031 A 
ATOM     48  C   UNL A   1      45.225  24.993  26.031  1.00  0.00     0.031 A 
ATOM     49  C   UNL A   1      47.386  30.937  27.647  1.00  0.00     0.049 A 
ATOM     50  C   UNL A   1      46.578  25.660  25.968  1.00  0.00     0.074 A 
ATOM     51  C   UNL A   1      48.681  31.420  27.594  1.00  0.00     0.029 A 
ATOM     52  N   UNL A   1      47.423  29.631  27.189  1.00  0.00    -0.354 N 
ATOM     53  N   UNL A   1      46.920  26.872  26.339  1.00  0.00    -0.248 NA
ATOM     54  C   UNL A   1      47.691  24.859  25.440  1.00  0.00     0.031 C 
ATOM     55  C   UNL A   1      49.496  30.419  27.058  1.00  0.00     0.029 A 
ATOM     56  C   UNL A   1      48.718  29.294  26.839  1.00  0.00     0.049 A 
ATOM     57  H   UNL A   1      46.645  29.032  27.122  1.00  0.00     0.167 HD
ATOM     58  C   UNL A   1      48.294  26.960  26.128  1.00  0.00     0.074 A 
ATOM     59  C   UNL A   1      48.720  25.677  25.610  1.00  0.00     0.031 C 
ATOM     60  C   UNL A   1      49.130  28.004  26.348  1.00  0.00     0.031 A 
BRANCH  47  61
ATOM     61  C   UNL A   1      46.322  33.053  28.518  1.00  0.00    -0.014 A 
ATOM     62  C   UNL A   1      46.135  34.107  27.605  1.00  0.00     0.010 A 
ATOM     63  C   UNL A   1      46.568  33.352  29.871  1.00  0.00     0.010 A 
ATOM     64  C   UNL A   1      46.214  35.434  28.034  1.00  0.00     0.020 A 
ATOM     65  C   UNL A   1      46.619  34.678  30.309  1.00  0.00     0.020 A 
ATOM     66  C   UNL A   1      46.450  35.712  29.384  1.00  0.00     0.054 A 
BRANCH  66  67
ATOM     67  S   UNL A   1      46.485  37.442  29.923  1.00  0.00     0.124 S 
ATOM     68  O   UNL A   1      47.899  37.777  29.773  1.00  0.00    -0.237 OA
ATOM     69  O   UNL A   1      45.582  38.090  28.974  1.00  0.00    -0.237 OA
ATOM     70  O   UNL A   1      46.001  37.387  31.301  1.00  0.00    -0.744 OA
ENDBRANCH  66  67
ENDBRANCH  47  61
BRANCH  48  71
ATOM     71  C   UNL A   1      45.058  23.592  25.546  1.00  0.00    -0.014 A 
ATOM     72  C   UNL A   1      45.534  22.503  26.299  1.00  0.00     0.010 A 
ATOM     73  C   UNL A   1      44.465  23.344  24.294  1.00  0.00     0.010 A 
ATOM     74  C   UNL A   1      45.460  21.201  25.793  1.00  0.00     0.020 A 
ATOM     75  C   UNL A   1      44.359  22.041  23.798  1.00  0.00     0.020 A 
ATOM     76  C   UNL A   1      44.876  20.980  24.542  1.00  0.00     0.054 A 
BRANCH  76  77
ATOM     77  S   UNL A   1      44.781  19.283  23.906  1.00  0.00     0.124 S 
ATOM     78  O   UNL A   1      43.601  18.766  24.594  1.00  0.00    -0.237 OA
ATOM     79  O   UNL A   1      44.635  19.493  22.468  1.00  0.00    -0.237 OA
ATOM     80  O   UNL A   1      46.054  18.693  24.315  1.00  0.00    -0.744 OA
ENDBRANCH  76  77
ENDBRANCH  48  71
BRANCH  60  81
ATOM     81  C   UNL A   1      50.601  27.789  26.104  1.00  0.00    -0.014 A 
ATOM     82  C   UNL A   1      51.467  27.371  27.129  1.00  0.00     0.010 A 
ATOM     83  C   UNL A   1      51.111  27.959  24.802  1.00  0.00     0.010 A 
ATOM     84  C   UNL A   1      52.825  27.173  26.867  1.00  0.00     0.020 A 
ATOM     85  C   UNL A   1      52.461  27.731  24.529  1.00  0.00     0.020 A 
ATOM     86  C   UNL A   1      53.314  27.358  25.568  1.00  0.00     0.054 A 
BRANCH  86  87
ATOM     87  S   UNL A   1      55.076  27.072  25.248  1.00  0.00     0.124 S 
ATOM     88  O   UNL A   1      55.040  26.332  23.990  1.00  0.00    -0.237 OA
ATOM     89  O   UNL A   1      55.612  28.429  25.163  1.00  0.00    -0.237 OA
ATOM     90  O   UNL A   1      55.519  26.306  26.410  1.00  0.00    -0.744 OA
ENDBRANCH  86  87
ENDBRANCH  60  81
ENDBRANCH  34  35
ENDBRANCH  27  29
ENDBRANCH  26  27
ENDBRANCH  25  26
ENDBRANCH  24  25
ENDBRANCH  23  24
ENDBRANCH   1  23
TORSDOF 22
ENDMDL
