MODEL 1
REMARK VINA RESULT:     -10.8      0.000      0.000
REMARK SMILES COc1cccc(/C=C2/C(=O)N(c3cccc(C(=O)OCCOCCOC(=O)c4ccc(-c5c6nc(c(-c7ccc(S(=O)(=O)[O-])cc7)c7ccc([nH]7)c(-c7ccc(S(=O)(=O)[O-])cc7)c7nc(c(-c8ccc(S(=O)(=O)[O-])cc8)c8ccc5[nH]8)C=C7)C=C6)cc4)c3)N=C2C)c1
REMARK SMILES IDX 23 1 22 2 21 3 20 4 18 5 19 6 17 7 13 8 14 9 89 10 15 11
REMARK SMILES IDX 16 12 12 13 8 14 9 15 10 16 91 17 11 18 90 19 92 20 7 21
REMARK SMILES IDX 3 22 4 23 93 24 5 25 6 26 2 27 1 28 24 29 25 30 26 31 27 32
REMARK SMILES IDX 28 33 29 34 30 35 88 36 31 37 87 38 32 39 33 40 34 41 81 42
REMARK SMILES IDX 35 43 86 44 80 45 82 46 36 47 85 48 79 49 78 50 37 52 67 53
REMARK SMILES IDX 48 54 66 55 49 56 52 57 65 58 83 59 50 60 51 61 64 63 84 64
REMARK SMILES IDX 53 65 38 66 39 67 47 68 40 69 46 70 41 71 42 72 43 73 44 74
REMARK SMILES IDX 45 75 68 76 69 77 77 78 70 79 76 80 71 81 72 82 73 83 74 84
REMARK SMILES IDX 75 85 54 86 55 87 63 88 56 89 62 90 57 91 58 92 59 93 60 94
REMARK SMILES IDX 61 95
REMARK H PARENT 82 51 52 62
REMARK Flexibility Score: inf
ROOT
ATOM      1  O   UNL A   1      40.480  22.088  26.843  1.00  0.00    -0.374 OA
ENDROOT
BRANCH   1   2
ATOM      2  C   UNL A   1      39.118  22.241  26.445  1.00  0.00     0.202 C 
BRANCH   2   3
ATOM      3  C   UNL A   1      38.555  21.225  25.443  1.00  0.00     0.261 C 
BRANCH   3   4
ATOM      4  O   UNL A   1      37.123  21.287  25.360  1.00  0.00    -0.460 OA
BRANCH   4   5
ATOM      5  C   UNL A   1      36.511  20.139  24.974  1.00  0.00     0.338 C 
ATOM      6  O   UNL A   1      36.967  19.009  25.019  1.00  0.00    -0.246 OA
BRANCH   5   7
ATOM      7  C   UNL A   1      35.083  20.423  24.697  1.00  0.00     0.062 A 
ATOM      8  C   UNL A   1      33.219  21.953  24.453  1.00  0.00     0.070 A 
ATOM      9  C   UNL A   1      32.345  20.857  24.444  1.00  0.00     0.028 A 
ATOM     10  C   UNL A   1      34.596  21.728  24.590  1.00  0.00     0.044 A 
ATOM     11  C   UNL A   1      32.837  19.551  24.505  1.00  0.00     0.003 A 
ATOM     12  C   UNL A   1      34.207  19.335  24.626  1.00  0.00     0.016 A 
BRANCH   8  13
ATOM     13  N   UNL A   1      32.713  23.262  24.325  1.00  0.00    -0.196 N 
ATOM     14  C   UNL A   1      31.014  26.216  25.232  1.00  0.00     0.024 C 
ATOM     15  C   UNL A   1      31.680  25.240  24.603  1.00  0.00     0.065 C 
ATOM     16  C   UNL A   1      31.979  23.962  25.286  1.00  0.00     0.280 C 
ATOM     17  C   UNL A   1      32.276  25.086  23.262  1.00  0.00     0.071 C 
ATOM     18  O   UNL A   1      31.662  23.667  26.427  1.00  0.00    -0.267 OA
ATOM     19  N   UNL A   1      32.906  23.946  23.131  1.00  0.00    -0.169 NA
ATOM     20  C   UNL A   1      32.169  26.076  22.150  1.00  0.00     0.069 C 
BRANCH  14  21
ATOM     21  C   UNL A   1      30.621  27.488  24.636  1.00  0.00    -0.021 A 
ATOM     22  C   UNL A   1      29.236  28.709  23.069  1.00  0.00     0.119 A 
ATOM     23  C   UNL A   1      29.928  29.879  23.389  1.00  0.00     0.046 A 
ATOM     24  C   UNL A   1      29.577  27.517  23.702  1.00  0.00     0.054 A 
ATOM     25  C   UNL A   1      30.933  29.866  24.358  1.00  0.00     0.004 A 
ATOM     26  C   UNL A   1      31.283  28.669  24.982  1.00  0.00     0.008 A 
BRANCH  22  27
ATOM     27  O   UNL A   1      28.294  28.829  22.085  1.00  0.00    -0.497 OA
ATOM     28  C   UNL A   1      28.073  30.151  21.599  1.00  0.00     0.278 C 
ENDBRANCH  22  27
ENDBRANCH  14  21
ENDBRANCH   8  13
ENDBRANCH   5   7
ENDBRANCH   4   5
ENDBRANCH   3   4
ENDBRANCH   2   3
ENDBRANCH   1   2
BRANCH   1  29
ATOM     29  C   UNL A   1      41.115  23.218  27.441  1.00  0.00     0.202 C 
BRANCH  29  30
ATOM     30  C   UNL A   1      41.370  24.445  26.555  1.00  0.00     0.261 C 
BRANCH  30  31
ATOM     31  O   UNL A   1      40.399  25.488  26.747  1.00  0.00    -0.460 OA
BRANCH  31  32
ATOM     32  C   UNL A   1      40.861  26.745  26.524  1.00  0.00     0.338 C 
ATOM     33  O   UNL A   1      41.231  27.220  25.465  1.00  0.00    -0.246 OA
BRANCH  32  34
ATOM     34  C   UNL A   1      40.685  27.553  27.745  1.00  0.00     0.060 A 
ATOM     35  C   UNL A   1      41.436  28.729  27.866  1.00  0.00     0.016 A 
ATOM     36  C   UNL A   1      39.834  27.144  28.773  1.00  0.00     0.016 A 
ATOM     37  C   UNL A   1      41.346  29.498  29.025  1.00  0.00     0.010 A 
ATOM     38  C   UNL A   1      39.755  27.911  29.940  1.00  0.00     0.010 A 
ATOM     39  C   UNL A   1      40.521  29.084  30.080  1.00  0.00    -0.014 A 
BRANCH  39  40
ATOM     40  C   UNL A   1      40.499  29.844  31.353  1.00  0.00     0.031 A 
ATOM     41  C   UNL A   1      41.575  29.613  32.377  1.00  0.00     0.074 A 
ATOM     42  C   UNL A   1      39.517  30.732  31.593  1.00  0.00     0.049 A 
ATOM     43  N   UNL A   1      41.699  30.125  33.575  1.00  0.00    -0.248 NA
ATOM     44  C   UNL A   1      42.653  28.684  32.004  1.00  0.00     0.031 C 
ATOM     45  C   UNL A   1      38.440  31.071  30.662  1.00  0.00     0.029 A 
ATOM     46  N   UNL A   1      39.259  31.503  32.698  1.00  0.00    -0.354 N 
ATOM     47  C   UNL A   1      42.859  29.572  34.105  1.00  0.00     0.074 A 
ATOM     48  C   UNL A   1      43.388  28.666  33.108  1.00  0.00     0.031 C 
ATOM     49  C   UNL A   1      37.634  31.978  31.239  1.00  0.00     0.029 A 
ATOM     50  C   UNL A   1      38.109  32.249  32.593  1.00  0.00     0.049 A 
ATOM     51  H   UNL A   1      39.843  31.522  33.490  1.00  0.00     0.167 HD
ATOM     52  C   UNL A   1      43.431  29.802  35.312  1.00  0.00     0.031 A 
ATOM     53  C   UNL A   1      37.492  33.036  33.496  1.00  0.00     0.031 A 
ATOM     54  C   UNL A   1      42.889  30.692  36.306  1.00  0.00     0.049 A 
ATOM     55  C   UNL A   1      38.100  33.207  34.863  1.00  0.00     0.074 A 
ATOM     56  C   UNL A   1      43.407  31.010  37.550  1.00  0.00     0.029 A 
ATOM     57  N   UNL A   1      41.701  31.398  36.178  1.00  0.00    -0.354 N 
ATOM     58  N   UNL A   1      39.216  32.705  35.337  1.00  0.00    -0.248 NA
ATOM     59  C   UNL A   1      37.366  34.050  35.817  1.00  0.00     0.031 C 
ATOM     60  C   UNL A   1      42.498  31.847  38.202  1.00  0.00     0.029 A 
ATOM     61  C   UNL A   1      41.448  32.114  37.337  1.00  0.00     0.049 A 
ATOM     62  H   UNL A   1      41.123  31.390  35.381  1.00  0.00     0.167 HD
ATOM     63  C   UNL A   1      39.328  33.191  36.636  1.00  0.00     0.074 A 
ATOM     64  C   UNL A   1      38.179  34.042  36.864  1.00  0.00     0.031 C 
ATOM     65  C   UNL A   1      40.295  32.951  37.558  1.00  0.00     0.031 A 
BRANCH  52  66
ATOM     66  C   UNL A   1      44.692  29.047  35.645  1.00  0.00    -0.014 A 
ATOM     67  C   UNL A   1      45.961  29.557  35.316  1.00  0.00     0.010 A 
ATOM     68  C   UNL A   1      44.608  27.831  36.349  1.00  0.00     0.010 A 
ATOM     69  C   UNL A   1      47.119  28.847  35.652  1.00  0.00     0.020 A 
ATOM     70  C   UNL A   1      45.763  27.134  36.714  1.00  0.00     0.020 A 
ATOM     71  C   UNL A   1      47.011  27.641  36.349  1.00  0.00     0.054 A 
BRANCH  71  72
ATOM     72  S   UNL A   1      48.532  26.756  36.796  1.00  0.00     0.124 S 
ATOM     73  O   UNL A   1      48.156  25.367  36.545  1.00  0.00    -0.237 OA
ATOM     74  O   UNL A   1      49.511  27.319  35.869  1.00  0.00    -0.237 OA
ATOM     75  O   UNL A   1      48.736  27.102  38.201  1.00  0.00    -0.744 OA
ENDBRANCH  71  72
ENDBRANCH  52  66
BRANCH  53  76
ATOM     76  C   UNL A   1      36.204  33.699  33.147  1.00  0.00    -0.014 A 
ATOM     77  C   UNL A   1      36.182  35.019  32.664  1.00  0.00     0.010 A 
ATOM     78  C   UNL A   1      34.987  33.008  33.297  1.00  0.00     0.010 A 
ATOM     79  C   UNL A   1      34.968  35.641  32.355  1.00  0.00     0.020 A 
ATOM     80  C   UNL A   1      33.774  33.613  32.957  1.00  0.00     0.020 A 
ATOM     81  C   UNL A   1      33.772  34.931  32.500  1.00  0.00     0.054 A 
BRANCH  81  82
ATOM     82  S   UNL A   1      32.214  35.743  32.045  1.00  0.00     0.124 S 
ATOM     83  O   UNL A   1      31.238  34.976  32.812  1.00  0.00    -0.237 OA
ATOM     84  O   UNL A   1      32.434  37.116  32.493  1.00  0.00    -0.237 OA
ATOM     85  O   UNL A   1      32.149  35.569  30.596  1.00  0.00    -0.744 OA
ENDBRANCH  81  82
ENDBRANCH  53  76
BRANCH  65  86
ATOM     86  C   UNL A   1      40.167  33.634  38.895  1.00  0.00    -0.014 A 
ATOM     87  C   UNL A   1      40.767  34.884  39.136  1.00  0.00     0.010 A 
ATOM     88  C   UNL A   1      39.388  33.045  39.909  1.00  0.00     0.010 A 
ATOM     89  C   UNL A   1      40.615  35.516  40.373  1.00  0.00     0.020 A 
ATOM     90  C   UNL A   1      39.207  33.689  41.136  1.00  0.00     0.020 A 
ATOM     91  C   UNL A   1      39.832  34.916  41.365  1.00  0.00     0.054 A 
BRANCH  91  92
ATOM     92  S   UNL A   1      39.611  35.782  42.942  1.00  0.00     0.124 S 
ATOM     93  O   UNL A   1      39.709  37.182  42.539  1.00  0.00    -0.237 OA
ATOM     94  O   UNL A   1      38.283  35.341  43.365  1.00  0.00    -0.237 OA
ATOM     95  O   UNL A   1      40.715  35.292  43.766  1.00  0.00    -0.744 OA
ENDBRANCH  91  92
ENDBRANCH  65  86
ENDBRANCH  39  40
ENDBRANCH  32  34
ENDBRANCH  31  32
ENDBRANCH  30  31
ENDBRANCH  29  30
ENDBRANCH   1  29
TORSDOF 20
ENDMDL
MODEL 2
REMARK VINA RESULT:     -10.8      1.470      2.060
REMARK SMILES COc1cccc(/C=C2/C(=O)N(c3cccc(C(=O)OCCOCCOC(=O)c4ccc(-c5c6nc(c(-c7ccc(S(=O)(=O)[O-])cc7)c7ccc([nH]7)c(-c7ccc(S(=O)(=O)[O-])cc7)c7nc(c(-c8ccc(S(=O)(=O)[O-])cc8)c8ccc5[nH]8)C=C7)C=C6)cc4)c3)N=C2C)c1
REMARK SMILES IDX 23 1 22 2 21 3 20 4 18 5 19 6 17 7 13 8 14 9 89 10 15 11
REMARK SMILES IDX 16 12 12 13 8 14 9 15 10 16 91 17 11 18 90 19 92 20 7 21
REMARK SMILES IDX 3 22 4 23 93 24 5 25 6 26 2 27 1 28 24 29 25 30 26 31 27 32
REMARK SMILES IDX 28 33 29 34 30 35 88 36 31 37 87 38 32 39 33 40 34 41 81 42
REMARK SMILES IDX 35 43 86 44 80 45 82 46 36 47 85 48 79 49 78 50 37 52 67 53
REMARK SMILES IDX 48 54 66 55 49 56 52 57 65 58 83 59 50 60 51 61 64 63 84 64
REMARK SMILES IDX 53 65 38 66 39 67 47 68 40 69 46 70 41 71 42 72 43 73 44 74
REMARK SMILES IDX 45 75 68 76 69 77 77 78 70 79 76 80 71 81 72 82 73 83 74 84
REMARK SMILES IDX 75 85 54 86 55 87 63 88 56 89 62 90 57 91 58 92 59 93 60 94
REMARK SMILES IDX 61 95
REMARK H PARENT 82 51 52 62
REMARK Flexibility Score: inf
ROOT
ATOM      1  O   UNL A   1      40.297  21.316  26.836  1.00  0.00    -0.374 OA
ENDROOT
BRANCH   1   2
ATOM      2  C   UNL A   1      39.061  21.803  26.317  1.00  0.00     0.202 C 
BRANCH   2   3
ATOM      3  C   UNL A   1      38.389  20.986  25.205  1.00  0.00     0.261 C 
BRANCH   3   4
ATOM      4  O   UNL A   1      36.957  21.021  25.301  1.00  0.00    -0.460 OA
BRANCH   4   5
ATOM      5  C   UNL A   1      36.320  19.880  24.934  1.00  0.00     0.338 C 
ATOM      6  O   UNL A   1      36.758  18.743  24.981  1.00  0.00    -0.246 OA
BRANCH   5   7
ATOM      7  C   UNL A   1      34.893  20.186  24.676  1.00  0.00     0.062 A 
ATOM      8  C   UNL A   1      33.055  21.747  24.428  1.00  0.00     0.070 A 
ATOM      9  C   UNL A   1      32.160  20.668  24.462  1.00  0.00     0.028 A 
ATOM     10  C   UNL A   1      34.430  21.498  24.545  1.00  0.00     0.044 A 
ATOM     11  C   UNL A   1      32.627  19.355  24.546  1.00  0.00     0.003 A 
ATOM     12  C   UNL A   1      33.995  19.114  24.648  1.00  0.00     0.016 A 
BRANCH   8  13
ATOM     13  N   UNL A   1      32.573  23.062  24.276  1.00  0.00    -0.196 N 
ATOM     14  C   UNL A   1      32.460  26.393  23.123  1.00  0.00     0.024 C 
ATOM     15  C   UNL A   1      32.260  25.224  23.746  1.00  0.00     0.065 C 
ATOM     16  C   UNL A   1      33.145  24.067  23.492  1.00  0.00     0.280 C 
ATOM     17  C   UNL A   1      31.269  24.721  24.717  1.00  0.00     0.071 C 
ATOM     18  O   UNL A   1      34.107  24.050  22.741  1.00  0.00    -0.267 OA
ATOM     19  N   UNL A   1      31.443  23.452  24.984  1.00  0.00    -0.169 NA
ATOM     20  C   UNL A   1      30.201  25.538  25.365  1.00  0.00     0.069 C 
BRANCH  14  21
ATOM     21  C   UNL A   1      31.683  27.608  23.341  1.00  0.00    -0.021 A 
ATOM     22  C   UNL A   1      31.261  29.597  24.657  1.00  0.00     0.119 A 
ATOM     23  C   UNL A   1      30.148  29.872  23.860  1.00  0.00     0.046 A 
ATOM     24  C   UNL A   1      32.033  28.470  24.388  1.00  0.00     0.054 A 
ATOM     25  C   UNL A   1      29.826  29.045  22.782  1.00  0.00     0.004 A 
ATOM     26  C   UNL A   1      30.592  27.910  22.522  1.00  0.00     0.008 A 
BRANCH  22  27
ATOM     27  O   UNL A   1      31.466  30.454  25.703  1.00  0.00    -0.497 OA
ATOM     28  C   UNL A   1      32.329  29.976  26.732  1.00  0.00     0.278 C 
ENDBRANCH  22  27
ENDBRANCH  14  21
ENDBRANCH   8  13
ENDBRANCH   5   7
ENDBRANCH   4   5
ENDBRANCH   3   4
ENDBRANCH   2   3
ENDBRANCH   1   2
BRANCH   1  29
ATOM     29  C   UNL A   1      41.210  22.281  27.360  1.00  0.00     0.202 C 
BRANCH  29  30
ATOM     30  C   UNL A   1      41.874  23.246  26.368  1.00  0.00     0.261 C 
BRANCH  30  31
ATOM     31  O   UNL A   1      41.050  24.381  26.050  1.00  0.00    -0.460 OA
BRANCH  31  32
ATOM     32  C   UNL A   1      41.727  25.542  25.864  1.00  0.00     0.338 C 
ATOM     33  O   UNL A   1      42.368  25.876  24.883  1.00  0.00    -0.246 OA
BRANCH  32  34
ATOM     34  C   UNL A   1      41.431  26.464  26.977  1.00  0.00     0.060 A 
ATOM     35  C   UNL A   1      42.136  27.672  27.032  1.00  0.00     0.016 A 
ATOM     36  C   UNL A   1      40.512  26.131  27.974  1.00  0.00     0.016 A 
ATOM     37  C   UNL A   1      41.932  28.552  28.094  1.00  0.00     0.010 A 
ATOM     38  C   UNL A   1      40.318  27.010  29.044  1.00  0.00     0.010 A 
ATOM     39  C   UNL A   1      41.036  28.218  29.119  1.00  0.00    -0.014 A 
BRANCH  39  40
ATOM     40  C   UNL A   1      40.890  29.103  30.300  1.00  0.00     0.031 A 
ATOM     41  C   UNL A   1      41.794  28.916  31.487  1.00  0.00     0.074 A 
ATOM     42  C   UNL A   1      39.949  30.064  30.312  1.00  0.00     0.049 A 
ATOM     43  N   UNL A   1      41.786  29.538  32.638  1.00  0.00    -0.248 NA
ATOM     44  C   UNL A   1      42.846  27.894  31.361  1.00  0.00     0.031 C 
ATOM     45  C   UNL A   1      39.039  30.368  29.207  1.00  0.00     0.029 A 
ATOM     46  N   UNL A   1      39.595  30.956  31.293  1.00  0.00    -0.354 N 
ATOM     47  C   UNL A   1      42.819  28.977  33.380  1.00  0.00     0.074 A 
ATOM     48  C   UNL A   1      43.417  27.946  32.557  1.00  0.00     0.031 C 
ATOM     49  C   UNL A   1      38.226  31.372  29.575  1.00  0.00     0.029 A 
ATOM     50  C   UNL A   1      38.526  31.752  30.954  1.00  0.00     0.049 A 
ATOM     51  H   UNL A   1      40.062  31.021  32.156  1.00  0.00     0.167 HD
ATOM     52  C   UNL A   1      43.232  29.294  34.631  1.00  0.00     0.031 A 
ATOM     53  C   UNL A   1      37.846  32.659  31.681  1.00  0.00     0.031 A 
ATOM     54  C   UNL A   1      42.620  30.310  35.449  1.00  0.00     0.049 A 
ATOM     55  C   UNL A   1      38.268  32.932  33.101  1.00  0.00     0.074 A 
ATOM     56  C   UNL A   1      42.981  30.722  36.721  1.00  0.00     0.029 A 
ATOM     57  N   UNL A   1      41.515  31.065  35.085  1.00  0.00    -0.354 N 
ATOM     58  N   UNL A   1      39.269  32.419  33.776  1.00  0.00    -0.248 NA
ATOM     59  C   UNL A   1      37.469  33.908  33.855  1.00  0.00     0.031 C 
ATOM     60  C   UNL A   1      42.051  31.670  37.154  1.00  0.00     0.029 A 
ATOM     61  C   UNL A   1      41.154  31.908  36.125  1.00  0.00     0.049 A 
ATOM     62  H   UNL A   1      41.054  31.010  34.217  1.00  0.00     0.167 HD
ATOM     63  C   UNL A   1      39.233  33.026  35.027  1.00  0.00     0.074 A 
ATOM     64  C   UNL A   1      38.126  33.960  35.006  1.00  0.00     0.031 C 
ATOM     65  C   UNL A   1      40.043  32.827  36.098  1.00  0.00     0.031 A 
BRANCH  52  66
ATOM     66  C   UNL A   1      44.378  28.508  35.212  1.00  0.00    -0.014 A 
ATOM     67  C   UNL A   1      45.713  28.917  35.038  1.00  0.00     0.010 A 
ATOM     68  C   UNL A   1      44.112  27.366  35.991  1.00  0.00     0.010 A 
ATOM     69  C   UNL A   1      46.759  28.181  35.603  1.00  0.00     0.020 A 
ATOM     70  C   UNL A   1      45.153  26.645  36.583  1.00  0.00     0.020 A 
ATOM     71  C   UNL A   1      46.472  27.050  36.371  1.00  0.00     0.054 A 
BRANCH  71  72
ATOM     72  S   UNL A   1      47.848  26.130  37.114  1.00  0.00     0.124 S 
ATOM     73  O   UNL A   1      48.464  25.511  35.943  1.00  0.00    -0.237 OA
ATOM     74  O   UNL A   1      48.631  27.188  37.750  1.00  0.00    -0.237 OA
ATOM     75  O   UNL A   1      47.193  25.204  38.035  1.00  0.00    -0.744 OA
ENDBRANCH  71  72
ENDBRANCH  52  66
BRANCH  53  76
ATOM     76  C   UNL A   1      36.669  33.355  31.089  1.00  0.00    -0.014 A 
ATOM     77  C   UNL A   1      35.494  33.545  31.838  1.00  0.00     0.010 A 
ATOM     78  C   UNL A   1      36.719  33.834  29.766  1.00  0.00     0.010 A 
ATOM     79  C   UNL A   1      34.388  34.184  31.270  1.00  0.00     0.020 A 
ATOM     80  C   UNL A   1      35.628  34.503  29.205  1.00  0.00     0.020 A 
ATOM     81  C   UNL A   1      34.464  34.663  29.958  1.00  0.00     0.054 A 
BRANCH  81  82
ATOM     82  S   UNL A   1      33.032  35.532  29.261  1.00  0.00     0.124 S 
ATOM     83  O   UNL A   1      32.497  34.539  28.334  1.00  0.00    -0.237 OA
ATOM     84  O   UNL A   1      32.219  35.796  30.444  1.00  0.00    -0.237 OA
ATOM     85  O   UNL A   1      33.620  36.716  28.639  1.00  0.00    -0.744 OA
ENDBRANCH  81  82
ENDBRANCH  53  76
BRANCH  65  86
ATOM     86  C   UNL A   1      39.778  33.647  37.334  1.00  0.00    -0.014 A 
ATOM     87  C   UNL A   1      40.221  34.979  37.434  1.00  0.00     0.010 A 
ATOM     88  C   UNL A   1      39.026  33.098  38.389  1.00  0.00     0.010 A 
ATOM     89  C   UNL A   1      39.943  35.734  38.576  1.00  0.00     0.020 A 
ATOM     90  C   UNL A   1      38.717  33.860  39.519  1.00  0.00     0.020 A 
ATOM     91  C   UNL A   1      39.189  35.170  39.611  1.00  0.00     0.054 A 
BRANCH  91  92
ATOM     92  S   UNL A   1      38.800  36.190  41.059  1.00  0.00     0.124 S 
ATOM     93  O   UNL A   1      40.010  36.049  41.865  1.00  0.00    -0.237 OA
ATOM     94  O   UNL A   1      38.586  37.511  40.472  1.00  0.00    -0.237 OA
ATOM     95  O   UNL A   1      37.604  35.561  41.617  1.00  0.00    -0.744 OA
ENDBRANCH  91  92
ENDBRANCH  65  86
ENDBRANCH  39  40
ENDBRANCH  32  34
ENDBRANCH  31  32
ENDBRANCH  30  31
ENDBRANCH  29  30
ENDBRANCH   1  29
TORSDOF 20
ENDMDL
MODEL 3
REMARK VINA RESULT:     -10.7      0.968      7.940
REMARK SMILES COc1cccc(/C=C2/C(=O)N(c3cccc(C(=O)OCCOCCOC(=O)c4ccc(-c5c6nc(c(-c7ccc(S(=O)(=O)[O-])cc7)c7ccc([nH]7)c(-c7ccc(S(=O)(=O)[O-])cc7)c7nc(c(-c8ccc(S(=O)(=O)[O-])cc8)c8ccc5[nH]8)C=C7)C=C6)cc4)c3)N=C2C)c1
REMARK SMILES IDX 23 1 22 2 21 3 20 4 18 5 19 6 17 7 13 8 14 9 89 10 15 11
REMARK SMILES IDX 16 12 12 13 8 14 9 15 10 16 91 17 11 18 90 19 92 20 7 21
REMARK SMILES IDX 3 22 4 23 93 24 5 25 6 26 2 27 1 28 24 29 25 30 26 31 27 32
REMARK SMILES IDX 28 33 29 34 30 35 88 36 31 37 87 38 32 39 33 40 34 41 81 42
REMARK SMILES IDX 35 43 86 44 80 45 82 46 36 47 85 48 79 49 78 50 37 52 67 53
REMARK SMILES IDX 48 54 66 55 49 56 52 57 65 58 83 59 50 60 51 61 64 63 84 64
REMARK SMILES IDX 53 65 38 66 39 67 47 68 40 69 46 70 41 71 42 72 43 73 44 74
REMARK SMILES IDX 45 75 68 76 69 77 77 78 70 79 76 80 71 81 72 82 73 83 74 84
REMARK SMILES IDX 75 85 54 86 55 87 63 88 56 89 62 90 57 91 58 92 59 93 60 94
REMARK SMILES IDX 61 95
REMARK H PARENT 82 51 52 62
REMARK Flexibility Score: inf
ROOT
ATOM      1  O   UNL A   1      40.355  22.080  26.396  1.00  0.00    -0.374 OA
ENDROOT
BRANCH   1   2
ATOM      2  C   UNL A   1      38.946  22.221  26.216  1.00  0.00     0.202 C 
BRANCH   2   3
ATOM      3  C   UNL A   1      38.267  21.296  25.198  1.00  0.00     0.261 C 
BRANCH   3   4
ATOM      4  O   UNL A   1      36.847  21.224  25.398  1.00  0.00    -0.460 OA
BRANCH   4   5
ATOM      5  C   UNL A   1      36.255  20.080  24.970  1.00  0.00     0.338 C 
ATOM      6  O   UNL A   1      36.728  18.956  24.980  1.00  0.00    -0.246 OA
BRANCH   5   7
ATOM      7  C   UNL A   1      34.825  20.352  24.693  1.00  0.00     0.062 A 
ATOM      8  C   UNL A   1      32.955  21.868  24.413  1.00  0.00     0.070 A 
ATOM      9  C   UNL A   1      32.084  20.770  24.444  1.00  0.00     0.028 A 
ATOM     10  C   UNL A   1      34.334  21.651  24.548  1.00  0.00     0.044 A 
ATOM     11  C   UNL A   1      32.580  19.468  24.542  1.00  0.00     0.003 A 
ATOM     12  C   UNL A   1      33.952  19.259  24.662  1.00  0.00     0.016 A 
BRANCH   8  13
ATOM     13  N   UNL A   1      32.444  23.171  24.247  1.00  0.00    -0.196 N 
ATOM     14  C   UNL A   1      32.327  26.525  23.165  1.00  0.00     0.024 C 
ATOM     15  C   UNL A   1      32.109  25.336  23.739  1.00  0.00     0.065 C 
ATOM     16  C   UNL A   1      33.053  24.214  23.543  1.00  0.00     0.280 C 
ATOM     17  C   UNL A   1      31.051  24.776  24.602  1.00  0.00     0.071 C 
ATOM     18  O   UNL A   1      34.080  24.246  22.884  1.00  0.00    -0.267 OA
ATOM     19  N   UNL A   1      31.241  23.507  24.855  1.00  0.00    -0.169 NA
ATOM     20  C   UNL A   1      29.900  25.543  25.165  1.00  0.00     0.069 C 
BRANCH  14  21
ATOM     21  C   UNL A   1      31.492  27.709  23.337  1.00  0.00    -0.021 A 
ATOM     22  C   UNL A   1      29.742  29.158  22.497  1.00  0.00     0.119 A 
ATOM     23  C   UNL A   1      29.964  30.025  23.569  1.00  0.00     0.046 A 
ATOM     24  C   UNL A   1      30.500  27.995  22.390  1.00  0.00     0.054 A 
ATOM     25  C   UNL A   1      30.915  29.719  24.544  1.00  0.00     0.004 A 
ATOM     26  C   UNL A   1      31.682  28.560  24.428  1.00  0.00     0.008 A 
BRANCH  22  27
ATOM     27  O   UNL A   1      28.811  29.571  21.585  1.00  0.00    -0.497 OA
ATOM     28  C   UNL A   1      27.910  30.580  22.035  1.00  0.00     0.278 C 
ENDBRANCH  22  27
ENDBRANCH  14  21
ENDBRANCH   8  13
ENDBRANCH   5   7
ENDBRANCH   4   5
ENDBRANCH   3   4
ENDBRANCH   2   3
ENDBRANCH   1   2
BRANCH   1  29
ATOM     29  C   UNL A   1      40.917  22.625  27.590  1.00  0.00     0.202 C 
BRANCH  29  30
ATOM     30  C   UNL A   1      41.311  24.109  27.580  1.00  0.00     0.261 C 
BRANCH  30  31
ATOM     31  O   UNL A   1      40.177  24.990  27.508  1.00  0.00    -0.460 OA
BRANCH  31  32
ATOM     32  C   UNL A   1      40.479  26.285  27.233  1.00  0.00     0.338 C 
ATOM     33  O   UNL A   1      40.672  26.784  26.139  1.00  0.00    -0.246 OA
BRANCH  32  34
ATOM     34  C   UNL A   1      40.364  27.085  28.467  1.00  0.00     0.060 A 
ATOM     35  C   UNL A   1      41.246  28.160  28.635  1.00  0.00     0.016 A 
ATOM     36  C   UNL A   1      39.441  26.761  29.463  1.00  0.00     0.016 A 
ATOM     37  C   UNL A   1      41.215  28.912  29.809  1.00  0.00     0.010 A 
ATOM     38  C   UNL A   1      39.420  27.510  30.644  1.00  0.00     0.010 A 
ATOM     39  C   UNL A   1      40.315  28.580  30.831  1.00  0.00    -0.014 A 
BRANCH  39  40
ATOM     40  C   UNL A   1      40.346  29.312  32.120  1.00  0.00     0.031 A 
ATOM     41  C   UNL A   1      39.310  30.364  32.404  1.00  0.00     0.074 A 
ATOM     42  C   UNL A   1      41.301  29.040  33.028  1.00  0.00     0.049 A 
ATOM     43  N   UNL A   1      39.203  31.159  33.438  1.00  0.00    -0.248 NA
ATOM     44  C   UNL A   1      38.258  30.544  31.392  1.00  0.00     0.031 C 
ATOM     45  C   UNL A   1      42.336  28.016  32.884  1.00  0.00     0.029 A 
ATOM     46  N   UNL A   1      41.562  29.610  34.249  1.00  0.00    -0.354 N 
ATOM     47  C   UNL A   1      38.081  31.943  33.197  1.00  0.00     0.074 A 
ATOM     48  C   UNL A   1      37.557  31.546  31.908  1.00  0.00     0.031 C 
ATOM     49  C   UNL A   1      43.124  28.036  33.971  1.00  0.00     0.029 A 
ATOM     50  C   UNL A   1      42.680  29.101  34.867  1.00  0.00     0.049 A 
ATOM     51  H   UNL A   1      41.002  30.316  34.645  1.00  0.00     0.167 HD
ATOM     52  C   UNL A   1      37.536  32.906  33.982  1.00  0.00     0.031 A 
ATOM     53  C   UNL A   1      43.293  29.471  36.008  1.00  0.00     0.031 A 
ATOM     54  C   UNL A   1      38.074  33.308  35.256  1.00  0.00     0.049 A 
ATOM     55  C   UNL A   1      42.720  30.603  36.819  1.00  0.00     0.074 A 
ATOM     56  C   UNL A   1      37.581  34.256  36.136  1.00  0.00     0.029 A 
ATOM     57  N   UNL A   1      39.230  32.796  35.829  1.00  0.00    -0.354 N 
ATOM     58  N   UNL A   1      41.638  31.312  36.596  1.00  0.00    -0.248 NA
ATOM     59  C   UNL A   1      43.449  30.984  38.036  1.00  0.00     0.031 C 
ATOM     60  C   UNL A   1      38.478  34.371  37.203  1.00  0.00     0.029 A 
ATOM     61  C   UNL A   1      39.490  33.441  37.028  1.00  0.00     0.049 A 
ATOM     62  H   UNL A   1      39.784  32.081  35.439  1.00  0.00     0.167 HD
ATOM     63  C   UNL A   1      41.546  32.207  37.658  1.00  0.00     0.074 A 
ATOM     64  C   UNL A   1      42.668  31.935  38.531  1.00  0.00     0.031 C 
ATOM     65  C   UNL A   1      40.617  33.169  37.886  1.00  0.00     0.031 A 
BRANCH  52  66
ATOM     66  C   UNL A   1      36.315  33.623  33.467  1.00  0.00    -0.014 A 
ATOM     67  C   UNL A   1      36.421  34.815  32.728  1.00  0.00     0.010 A 
ATOM     68  C   UNL A   1      35.041  33.065  33.680  1.00  0.00     0.010 A 
ATOM     69  C   UNL A   1      35.274  35.453  32.244  1.00  0.00     0.020 A 
ATOM     70  C   UNL A   1      33.895  33.682  33.172  1.00  0.00     0.020 A 
ATOM     71  C   UNL A   1      34.019  34.882  32.470  1.00  0.00     0.054 A 
BRANCH  71  72
ATOM     72  S   UNL A   1      32.551  35.718  31.806  1.00  0.00     0.124 S 
ATOM     73  O   UNL A   1      32.573  35.298  30.407  1.00  0.00    -0.237 OA
ATOM     74  O   UNL A   1      31.472  35.155  32.614  1.00  0.00    -0.237 OA
ATOM     75  O   UNL A   1      32.824  37.135  32.034  1.00  0.00    -0.744 OA
ENDBRANCH  71  72
ENDBRANCH  52  66
BRANCH  53  76
ATOM     76  C   UNL A   1      44.544  28.784  36.436  1.00  0.00    -0.014 A 
ATOM     77  C   UNL A   1      45.802  29.268  36.037  1.00  0.00     0.010 A 
ATOM     78  C   UNL A   1      44.481  27.637  37.249  1.00  0.00     0.010 A 
ATOM     79  C   UNL A   1      46.972  28.608  36.429  1.00  0.00     0.020 A 
ATOM     80  C   UNL A   1      45.648  26.994  37.670  1.00  0.00     0.020 A 
ATOM     81  C   UNL A   1      46.886  27.477  37.247  1.00  0.00     0.054 A 
BRANCH  81  82
ATOM     82  S   UNL A   1      48.419  26.668  37.782  1.00  0.00     0.124 S 
ATOM     83  O   UNL A   1      48.107  26.309  39.162  1.00  0.00    -0.237 OA
ATOM     84  O   UNL A   1      48.527  25.553  36.846  1.00  0.00    -0.237 OA
ATOM     85  O   UNL A   1      49.430  27.711  37.621  1.00  0.00    -0.744 OA
ENDBRANCH  81  82
ENDBRANCH  53  76
BRANCH  65  86
ATOM     86  C   UNL A   1      40.759  33.990  39.142  1.00  0.00    -0.014 A 
ATOM     87  C   UNL A   1      40.279  33.520  40.378  1.00  0.00     0.010 A 
ATOM     88  C   UNL A   1      41.432  35.226  39.096  1.00  0.00     0.010 A 
ATOM     89  C   UNL A   1      40.443  34.283  41.538  1.00  0.00     0.020 A 
ATOM     90  C   UNL A   1      41.628  35.976  40.259  1.00  0.00     0.020 A 
ATOM     91  C   UNL A   1      41.121  35.505  41.471  1.00  0.00     0.054 A 
BRANCH  91  92
ATOM     92  S   UNL A   1      41.364  36.449  43.000  1.00  0.00     0.124 S 
ATOM     93  O   UNL A   1      42.804  36.688  42.986  1.00  0.00    -0.237 OA
ATOM     94  O   UNL A   1      40.529  37.629  42.782  1.00  0.00    -0.237 OA
ATOM     95  O   UNL A   1      40.893  35.544  44.046  1.00  0.00    -0.744 OA
ENDBRANCH  91  92
ENDBRANCH  65  86
ENDBRANCH  39  40
ENDBRANCH  32  34
ENDBRANCH  31  32
ENDBRANCH  30  31
ENDBRANCH  29  30
ENDBRANCH   1  29
TORSDOF 20
ENDMDL
