MODEL 1
REMARK VINA RESULT:     -10.3      0.000      0.000
REMARK SMILES Cn1ccc(NC(=O)[C@@H]2CCCC[C@@H]2C(=O)OCCOCCOC(=O)c2ccc(-c3c4nc(c(-c5ccc(S(=O)(=O)[O-])cc5)c5ccc([nH]5)c(-c5ccc(S(=O)(=O)[O-])cc5)c5nc(c(-c6ccc(S(=O)(=O)[O-])cc6)c6ccc3[nH]6)C=C5)C=C4)cc2)n1
REMARK SMILES IDX 21 1 20 2 19 3 18 4 17 5 15 6 16 7 14 8 9 9 10 10 11 11
REMARK SMILES IDX 13 12 12 13 7 14 6 15 8 17 5 18 1 19 2 20 3 21 86 22 4 23
REMARK SMILES IDX 22 24 23 25 24 26 25 27 26 28 27 29 85 30 28 31 84 32 29 33
REMARK SMILES IDX 30 34 31 35 78 36 32 37 83 38 77 39 79 40 33 41 82 42 76 43
REMARK SMILES IDX 75 44 34 46 64 47 45 48 63 49 46 50 49 51 62 52 80 53 47 54
REMARK SMILES IDX 48 55 61 57 81 58 50 59 35 60 36 61 44 62 37 63 43 64 38 65
REMARK SMILES IDX 39 66 40 67 41 68 42 69 65 70 66 71 74 72 67 73 73 74 68 75
REMARK SMILES IDX 69 76 70 77 71 78 72 79 51 80 52 81 60 82 53 83 59 84 54 85
REMARK SMILES IDX 55 86 56 87 57 88 58 89
REMARK H PARENT 6 16 79 45 49 56
REMARK Flexibility Score: inf
ROOT
ATOM      1  C   UNL A   1      40.191  22.198  26.490  1.00  0.00     0.202 C 
ENDROOT
BRANCH   1   2
ATOM      2  O   UNL A   1      38.766  22.250  26.428  1.00  0.00    -0.374 OA
BRANCH   2   3
ATOM      3  C   UNL A   1      38.164  21.622  25.295  1.00  0.00     0.202 C 
BRANCH   3   4
ATOM      4  C   UNL A   1      36.690  21.230  25.438  1.00  0.00     0.261 C 
BRANCH   4   5
ATOM      5  O   UNL A   1      35.876  21.729  24.360  1.00  0.00    -0.463 OA
BRANCH   5   6
ATOM      6  C   UNL A   1      34.752  22.390  24.733  1.00  0.00     0.309 C 
ATOM      7  O   UNL A   1      34.516  23.557  24.438  1.00  0.00    -0.252 OA
BRANCH   6   8
ATOM      8  C   UNL A   1      33.862  21.581  25.670  1.00  0.00     0.111 C 
ATOM      9  C   UNL A   1      32.484  21.045  25.180  1.00  0.00     0.093 C 
ATOM     10  C   UNL A   1      31.354  22.100  25.306  1.00  0.00     0.014 C 
ATOM     11  C   UNL A   1      31.326  22.840  26.635  1.00  0.00     0.001 C 
ATOM     12  C   UNL A   1      33.724  22.307  27.024  1.00  0.00     0.016 C 
ATOM     13  C   UNL A   1      32.688  23.418  26.977  1.00  0.00     0.001 C 
BRANCH   9  14
ATOM     14  C   UNL A   1      32.423  20.434  23.763  1.00  0.00     0.229 C 
ATOM     15  N   UNL A   1      32.763  19.142  23.502  1.00  0.00    -0.309 N 
ATOM     16  H   UNL A   1      32.715  18.876  22.554  1.00  0.00     0.171 HD
ATOM     17  O   UNL A   1      32.066  21.119  22.795  1.00  0.00    -0.274 OA
BRANCH  15  18
ATOM     18  C   UNL A   1      33.159  18.158  24.367  1.00  0.00     0.154 A 
ATOM     19  C   UNL A   1      35.489  15.790  25.334  1.00  0.00     0.173 C 
ATOM     20  N   UNL A   1      34.329  16.642  25.256  1.00  0.00    -0.274 N 
ATOM     21  C   UNL A   1      33.059  16.358  25.656  1.00  0.00     0.110 A 
ATOM     22  N   UNL A   1      34.422  17.794  24.577  1.00  0.00    -0.155 NA
ATOM     23  C   UNL A   1      32.274  17.357  25.124  1.00  0.00     0.068 A 
ENDBRANCH  15  18
ENDBRANCH   9  14
ENDBRANCH   6   8
ENDBRANCH   5   6
ENDBRANCH   4   5
ENDBRANCH   3   4
ENDBRANCH   2   3
ENDBRANCH   1   2
BRANCH   1  24
ATOM     24  C   UNL A   1      40.915  23.538  26.652  1.00  0.00     0.261 C 
BRANCH  24  25
ATOM     25  O   UNL A   1      40.017  24.646  26.497  1.00  0.00    -0.460 OA
BRANCH  25  26
ATOM     26  C   UNL A   1      40.625  25.850  26.388  1.00  0.00     0.338 C 
ATOM     27  O   UNL A   1      41.271  26.262  25.439  1.00  0.00    -0.246 OA
BRANCH  26  28
ATOM     28  C   UNL A   1      40.259  26.708  27.535  1.00  0.00     0.060 A 
ATOM     29  C   UNL A   1      40.825  27.989  27.570  1.00  0.00     0.016 A 
ATOM     30  C   UNL A   1      39.433  26.269  28.573  1.00  0.00     0.016 A 
ATOM     31  C   UNL A   1      40.634  28.805  28.681  1.00  0.00     0.010 A 
ATOM     32  C   UNL A   1      39.247  27.088  29.693  1.00  0.00     0.010 A 
ATOM     33  C   UNL A   1      39.887  28.337  29.769  1.00  0.00    -0.014 A 
BRANCH  33  34
ATOM     34  C   UNL A   1      39.937  29.091  31.042  1.00  0.00     0.031 A 
ATOM     35  C   UNL A   1      41.060  28.805  32.002  1.00  0.00     0.074 A 
ATOM     36  C   UNL A   1      39.039  30.057  31.303  1.00  0.00     0.049 A 
ATOM     37  N   UNL A   1      41.340  29.381  33.142  1.00  0.00    -0.248 NA
ATOM     38  C   UNL A   1      41.993  27.730  31.626  1.00  0.00     0.031 C 
ATOM     39  C   UNL A   1      37.934  30.443  30.426  1.00  0.00     0.029 A 
ATOM     40  N   UNL A   1      38.924  30.898  32.381  1.00  0.00    -0.354 N 
ATOM     41  C   UNL A   1      42.481  28.742  33.617  1.00  0.00     0.074 A 
ATOM     42  C   UNL A   1      42.820  27.711  32.660  1.00  0.00     0.031 C 
ATOM     43  C   UNL A   1      37.250  31.447  31.003  1.00  0.00     0.029 A 
ATOM     44  C   UNL A   1      37.858  31.761  32.294  1.00  0.00     0.049 A 
ATOM     45  H   UNL A   1      39.546  30.885  33.143  1.00  0.00     0.167 HD
ATOM     46  C   UNL A   1      43.186  28.995  34.745  1.00  0.00     0.031 A 
ATOM     47  C   UNL A   1      37.421  32.693  33.163  1.00  0.00     0.031 A 
ATOM     48  C   UNL A   1      42.830  30.009  35.700  1.00  0.00     0.049 A 
ATOM     49  C   UNL A   1      38.189  32.919  34.438  1.00  0.00     0.074 A 
ATOM     50  C   UNL A   1      43.479  30.356  36.871  1.00  0.00     0.029 A 
ATOM     51  N   UNL A   1      41.721  30.836  35.595  1.00  0.00    -0.354 N 
ATOM     52  N   UNL A   1      39.283  32.327  34.857  1.00  0.00    -0.248 NA
ATOM     53  C   UNL A   1      37.671  33.948  35.352  1.00  0.00     0.031 C 
ATOM     54  C   UNL A   1      42.734  31.360  37.500  1.00  0.00     0.029 A 
ATOM     55  C   UNL A   1      41.651  31.675  36.692  1.00  0.00     0.049 A 
ATOM     56  H   UNL A   1      41.078  30.826  34.850  1.00  0.00     0.167 HD
ATOM     57  C   UNL A   1      39.597  32.926  36.071  1.00  0.00     0.074 A 
ATOM     58  C   UNL A   1      38.585  33.936  36.314  1.00  0.00     0.031 C 
ATOM     59  C   UNL A   1      40.631  32.668  36.911  1.00  0.00     0.031 A 
BRANCH  46  60
ATOM     60  C   UNL A   1      44.392  28.136  35.015  1.00  0.00    -0.014 A 
ATOM     61  C   UNL A   1      45.671  28.515  34.569  1.00  0.00     0.010 A 
ATOM     62  C   UNL A   1      44.249  26.942  35.745  1.00  0.00     0.010 A 
ATOM     63  C   UNL A   1      46.778  27.696  34.814  1.00  0.00     0.020 A 
ATOM     64  C   UNL A   1      45.358  26.133  36.012  1.00  0.00     0.020 A 
ATOM     65  C   UNL A   1      46.613  26.507  35.530  1.00  0.00     0.054 A 
BRANCH  65  66
ATOM     66  S   UNL A   1      48.067  25.470  35.847  1.00  0.00     0.124 S 
ATOM     67  O   UNL A   1      48.967  25.877  34.771  1.00  0.00    -0.237 OA
ATOM     68  O   UNL A   1      48.469  25.882  37.189  1.00  0.00    -0.237 OA
ATOM     69  O   UNL A   1      47.550  24.107  35.745  1.00  0.00    -0.744 OA
ENDBRANCH  65  66
ENDBRANCH  46  60
BRANCH  47  70
ATOM     70  C   UNL A   1      36.193  33.475  32.855  1.00  0.00    -0.014 A 
ATOM     71  C   UNL A   1      36.247  34.606  32.022  1.00  0.00     0.010 A 
ATOM     72  C   UNL A   1      34.953  33.075  33.385  1.00  0.00     0.010 A 
ATOM     73  C   UNL A   1      35.084  35.328  31.731  1.00  0.00     0.020 A 
ATOM     74  C   UNL A   1      33.784  33.779  33.077  1.00  0.00     0.020 A 
ATOM     75  C   UNL A   1      33.860  34.907  32.258  1.00  0.00     0.054 A 
BRANCH  75  76
ATOM     76  S   UNL A   1      32.353  35.815  31.814  1.00  0.00     0.124 S 
ATOM     77  O   UNL A   1      31.359  35.206  32.692  1.00  0.00    -0.237 OA
ATOM     78  O   UNL A   1      32.712  37.197  32.126  1.00  0.00    -0.237 OA
ATOM     79  O   UNL A   1      32.191  35.530  30.389  1.00  0.00    -0.744 OA
ENDBRANCH  75  76
ENDBRANCH  47  70
BRANCH  59  80
ATOM     80  C   UNL A   1      40.733  33.505  38.158  1.00  0.00    -0.014 A 
ATOM     81  C   UNL A   1      41.297  34.792  38.124  1.00  0.00     0.010 A 
ATOM     82  C   UNL A   1      40.200  33.018  39.365  1.00  0.00     0.010 A 
ATOM     83  C   UNL A   1      41.352  35.568  39.285  1.00  0.00     0.020 A 
ATOM     84  C   UNL A   1      40.230  33.801  40.521  1.00  0.00     0.020 A 
ATOM     85  C   UNL A   1      40.820  35.066  40.477  1.00  0.00     0.054 A 
BRANCH  85  86
ATOM     86  S   UNL A   1      40.864  36.108  41.960  1.00  0.00     0.124 S 
ATOM     87  O   UNL A   1      39.500  36.631  42.002  1.00  0.00    -0.237 OA
ATOM     88  O   UNL A   1      41.204  35.156  43.015  1.00  0.00    -0.237 OA
ATOM     89  O   UNL A   1      41.900  37.094  41.661  1.00  0.00    -0.744 OA
ENDBRANCH  85  86
ENDBRANCH  59  80
ENDBRANCH  33  34
ENDBRANCH  26  28
ENDBRANCH  25  26
ENDBRANCH  24  25
ENDBRANCH   1  24
TORSDOF 19
ENDMDL
MODEL 2
REMARK VINA RESULT:     -10.2      7.625     13.206
REMARK SMILES Cn1ccc(NC(=O)[C@@H]2CCCC[C@@H]2C(=O)OCCOCCOC(=O)c2ccc(-c3c4nc(c(-c5ccc(S(=O)(=O)[O-])cc5)c5ccc([nH]5)c(-c5ccc(S(=O)(=O)[O-])cc5)c5nc(c(-c6ccc(S(=O)(=O)[O-])cc6)c6ccc3[nH]6)C=C5)C=C4)cc2)n1
REMARK SMILES IDX 21 1 20 2 19 3 18 4 17 5 15 6 16 7 14 8 9 9 10 10 11 11
REMARK SMILES IDX 13 12 12 13 7 14 6 15 8 17 5 18 1 19 2 20 3 21 86 22 4 23
REMARK SMILES IDX 22 24 23 25 24 26 25 27 26 28 27 29 85 30 28 31 84 32 29 33
REMARK SMILES IDX 30 34 31 35 78 36 32 37 83 38 77 39 79 40 33 41 82 42 76 43
REMARK SMILES IDX 75 44 34 46 64 47 45 48 63 49 46 50 49 51 62 52 80 53 47 54
REMARK SMILES IDX 48 55 61 57 81 58 50 59 35 60 36 61 44 62 37 63 43 64 38 65
REMARK SMILES IDX 39 66 40 67 41 68 42 69 65 70 66 71 74 72 67 73 73 74 68 75
REMARK SMILES IDX 69 76 70 77 71 78 72 79 51 80 52 81 60 82 53 83 59 84 54 85
REMARK SMILES IDX 55 86 56 87 57 88 58 89
REMARK H PARENT 6 16 79 45 49 56
REMARK Flexibility Score: inf
ROOT
ATOM      1  C   UNL A   1      34.347  31.354  28.624  1.00  0.00     0.202 C 
ENDROOT
BRANCH   1   2
ATOM      2  O   UNL A   1      34.188  31.151  27.220  1.00  0.00    -0.374 OA
BRANCH   2   3
ATOM      3  C   UNL A   1      33.708  29.865  26.822  1.00  0.00     0.202 C 
BRANCH   3   4
ATOM      4  C   UNL A   1      32.401  29.844  26.024  1.00  0.00     0.261 C 
BRANCH   4   5
ATOM      5  O   UNL A   1      31.580  28.703  26.335  1.00  0.00    -0.463 OA
BRANCH   5   6
ATOM      6  C   UNL A   1      31.570  27.718  25.403  1.00  0.00     0.309 C 
ATOM      7  O   UNL A   1      31.569  26.522  25.674  1.00  0.00    -0.252 OA
BRANCH   6   8
ATOM      8  C   UNL A   1      31.691  28.240  23.975  1.00  0.00     0.111 C 
ATOM      9  C   UNL A   1      30.689  27.772  22.878  1.00  0.00     0.093 C 
ATOM     10  C   UNL A   1      31.100  26.422  22.231  1.00  0.00     0.014 C 
ATOM     11  C   UNL A   1      32.570  26.327  21.850  1.00  0.00     0.001 C 
ATOM     12  C   UNL A   1      33.147  28.108  23.487  1.00  0.00     0.016 C 
ATOM     13  C   UNL A   1      33.470  26.699  23.014  1.00  0.00     0.001 C 
BRANCH   9  14
ATOM     14  C   UNL A   1      29.197  27.689  23.267  1.00  0.00     0.229 C 
ATOM     15  N   UNL A   1      28.339  28.738  23.129  1.00  0.00    -0.309 N 
ATOM     16  H   UNL A   1      27.420  28.575  23.443  1.00  0.00     0.171 HD
ATOM     17  O   UNL A   1      28.724  26.646  23.739  1.00  0.00    -0.274 OA
BRANCH  15  18
ATOM     18  C   UNL A   1      28.572  29.985  22.615  1.00  0.00     0.154 A 
ATOM     19  C   UNL A   1      28.948  33.391  23.094  1.00  0.00     0.173 C 
ATOM     20  N   UNL A   1      28.862  32.074  22.514  1.00  0.00    -0.274 N 
ATOM     21  C   UNL A   1      28.428  31.739  21.269  1.00  0.00     0.110 A 
ATOM     22  N   UNL A   1      29.069  31.010  23.303  1.00  0.00    -0.155 NA
ATOM     23  C   UNL A   1      28.269  30.371  21.289  1.00  0.00     0.068 A 
ENDBRANCH  15  18
ENDBRANCH   9  14
ENDBRANCH   6   8
ENDBRANCH   5   6
ENDBRANCH   4   5
ENDBRANCH   3   4
ENDBRANCH   2   3
ENDBRANCH   1   2
BRANCH   1  24
ATOM     24  C   UNL A   1      35.755  31.143  29.188  1.00  0.00     0.261 C 
BRANCH  24  25
ATOM     25  O   UNL A   1      36.157  29.768  29.104  1.00  0.00    -0.460 OA
BRANCH  25  26
ATOM     26  C   UNL A   1      37.058  29.388  30.040  1.00  0.00     0.338 C 
ATOM     27  O   UNL A   1      36.862  29.261  31.237  1.00  0.00    -0.246 OA
BRANCH  26  28
ATOM     28  C   UNL A   1      38.316  28.966  29.390  1.00  0.00     0.060 A 
ATOM     29  C   UNL A   1      39.249  28.300  30.194  1.00  0.00     0.016 A 
ATOM     30  C   UNL A   1      38.608  29.251  28.053  1.00  0.00     0.016 A 
ATOM     31  C   UNL A   1      40.508  27.989  29.691  1.00  0.00     0.010 A 
ATOM     32  C   UNL A   1      39.877  28.944  27.549  1.00  0.00     0.010 A 
ATOM     33  C   UNL A   1      40.845  28.356  28.382  1.00  0.00    -0.014 A 
BRANCH  33  34
ATOM     34  C   UNL A   1      42.263  28.280  27.965  1.00  0.00     0.031 A 
ATOM     35  C   UNL A   1      43.146  29.478  28.198  1.00  0.00     0.074 A 
ATOM     36  C   UNL A   1      42.769  27.144  27.454  1.00  0.00     0.049 A 
ATOM     37  N   UNL A   1      44.426  29.618  27.972  1.00  0.00    -0.248 NA
ATOM     38  C   UNL A   1      42.500  30.674  28.763  1.00  0.00     0.031 C 
ATOM     39  C   UNL A   1      42.013  25.913  27.222  1.00  0.00     0.029 A 
ATOM     40  N   UNL A   1      44.043  26.840  27.047  1.00  0.00    -0.354 N 
ATOM     41  C   UNL A   1      44.738  30.914  28.369  1.00  0.00     0.074 A 
ATOM     42  C   UNL A   1      43.508  31.529  28.817  1.00  0.00     0.031 C 
ATOM     43  C   UNL A   1      42.841  24.984  26.712  1.00  0.00     0.029 A 
ATOM     44  C   UNL A   1      44.176  25.559  26.566  1.00  0.00     0.049 A 
ATOM     45  H   UNL A   1      44.791  27.478  27.097  1.00  0.00     0.167 HD
ATOM     46  C   UNL A   1      45.943  31.533  28.368  1.00  0.00     0.031 A 
ATOM     47  C   UNL A   1      45.254  24.929  26.059  1.00  0.00     0.031 A 
ATOM     48  C   UNL A   1      47.157  30.919  27.903  1.00  0.00     0.049 A 
ATOM     49  C   UNL A   1      46.572  25.656  26.015  1.00  0.00     0.074 A 
ATOM     50  C   UNL A   1      48.433  31.451  27.866  1.00  0.00     0.029 A 
ATOM     51  N   UNL A   1      47.243  29.634  27.387  1.00  0.00    -0.354 N 
ATOM     52  N   UNL A   1      46.856  26.870  26.424  1.00  0.00    -0.248 NA
ATOM     53  C   UNL A   1      47.715  24.924  25.455  1.00  0.00     0.031 C 
ATOM     54  C   UNL A   1      49.282  30.505  27.280  1.00  0.00     0.029 A 
ATOM     55  C   UNL A   1      48.544  29.364  27.004  1.00  0.00     0.049 A 
ATOM     56  H   UNL A   1      46.488  29.007  27.304  1.00  0.00     0.167 HD
ATOM     57  C   UNL A   1      48.216  27.040  26.191  1.00  0.00     0.074 A 
ATOM     58  C   UNL A   1      48.699  25.799  25.617  1.00  0.00     0.031 C 
ATOM     59  C   UNL A   1      48.997  28.122  26.431  1.00  0.00     0.031 A 
BRANCH  46  60
ATOM     60  C   UNL A   1      45.991  32.956  28.857  1.00  0.00    -0.014 A 
ATOM     61  C   UNL A   1      45.861  34.037  27.966  1.00  0.00     0.010 A 
ATOM     62  C   UNL A   1      46.147  33.216  30.230  1.00  0.00     0.010 A 
ATOM     63  C   UNL A   1      45.926  35.353  28.436  1.00  0.00     0.020 A 
ATOM     64  C   UNL A   1      46.188  34.530  30.706  1.00  0.00     0.020 A 
ATOM     65  C   UNL A   1      46.095  35.590  29.803  1.00  0.00     0.054 A 
BRANCH  65  66
ATOM     66  S   UNL A   1      46.161  37.306  30.388  1.00  0.00     0.124 S 
ATOM     67  O   UNL A   1      47.595  37.507  30.571  1.00  0.00    -0.237 OA
ATOM     68  O   UNL A   1      45.559  38.047  29.282  1.00  0.00    -0.237 OA
ATOM     69  O   UNL A   1      45.373  37.284  31.619  1.00  0.00    -0.744 OA
ENDBRANCH  65  66
ENDBRANCH  46  60
BRANCH  47  70
ATOM     70  C   UNL A   1      45.125  23.536  25.549  1.00  0.00    -0.014 A 
ATOM     71  C   UNL A   1      44.608  23.282  24.267  1.00  0.00     0.010 A 
ATOM     72  C   UNL A   1      45.541  22.455  26.346  1.00  0.00     0.010 A 
ATOM     73  C   UNL A   1      44.502  21.968  23.795  1.00  0.00     0.020 A 
ATOM     74  C   UNL A   1      45.459  21.143  25.869  1.00  0.00     0.020 A 
ATOM     75  C   UNL A   1      44.932  20.908  24.598  1.00  0.00     0.054 A 
BRANCH  75  76
ATOM     76  S   UNL A   1      44.849  19.219  23.942  1.00  0.00     0.124 S 
ATOM     77  O   UNL A   1      44.470  19.449  22.551  1.00  0.00    -0.237 OA
ATOM     78  O   UNL A   1      46.209  18.729  24.155  1.00  0.00    -0.237 OA
ATOM     79  O   UNL A   1      43.830  18.580  24.773  1.00  0.00    -0.744 OA
ENDBRANCH  75  76
ENDBRANCH  47  70
BRANCH  59  80
ATOM     80  C   UNL A   1      50.460  28.005  26.096  1.00  0.00    -0.014 A 
ATOM     81  C   UNL A   1      51.393  27.581  27.058  1.00  0.00     0.010 A 
ATOM     82  C   UNL A   1      50.893  28.266  24.784  1.00  0.00     0.010 A 
ATOM     83  C   UNL A   1      52.742  27.446  26.719  1.00  0.00     0.020 A 
ATOM     84  C   UNL A   1      52.237  28.108  24.435  1.00  0.00     0.020 A 
ATOM     85  C   UNL A   1      53.155  27.713  25.410  1.00  0.00     0.054 A 
BRANCH  85  86
ATOM     86  S   UNL A   1      54.903  27.488  24.982  1.00  0.00     0.124 S 
ATOM     87  O   UNL A   1      54.831  26.469  23.938  1.00  0.00    -0.237 OA
ATOM     88  O   UNL A   1      55.300  28.821  24.533  1.00  0.00    -0.237 OA
ATOM     89  O   UNL A   1      55.514  27.053  26.236  1.00  0.00    -0.744 OA
ENDBRANCH  85  86
ENDBRANCH  59  80
ENDBRANCH  33  34
ENDBRANCH  26  28
ENDBRANCH  25  26
ENDBRANCH  24  25
ENDBRANCH   1  24
TORSDOF 19
ENDMDL
MODEL 3
REMARK VINA RESULT:     -10.2      4.371      9.940
REMARK SMILES Cn1ccc(NC(=O)[C@@H]2CCCC[C@@H]2C(=O)OCCOCCOC(=O)c2ccc(-c3c4nc(c(-c5ccc(S(=O)(=O)[O-])cc5)c5ccc([nH]5)c(-c5ccc(S(=O)(=O)[O-])cc5)c5nc(c(-c6ccc(S(=O)(=O)[O-])cc6)c6ccc3[nH]6)C=C5)C=C4)cc2)n1
REMARK SMILES IDX 21 1 20 2 19 3 18 4 17 5 15 6 16 7 14 8 9 9 10 10 11 11
REMARK SMILES IDX 13 12 12 13 7 14 6 15 8 17 5 18 1 19 2 20 3 21 86 22 4 23
REMARK SMILES IDX 22 24 23 25 24 26 25 27 26 28 27 29 85 30 28 31 84 32 29 33
REMARK SMILES IDX 30 34 31 35 78 36 32 37 83 38 77 39 79 40 33 41 82 42 76 43
REMARK SMILES IDX 75 44 34 46 64 47 45 48 63 49 46 50 49 51 62 52 80 53 47 54
REMARK SMILES IDX 48 55 61 57 81 58 50 59 35 60 36 61 44 62 37 63 43 64 38 65
REMARK SMILES IDX 39 66 40 67 41 68 42 69 65 70 66 71 74 72 67 73 73 74 68 75
REMARK SMILES IDX 69 76 70 77 71 78 72 79 51 80 52 81 60 82 53 83 59 84 54 85
REMARK SMILES IDX 55 86 56 87 57 88 58 89
REMARK H PARENT 6 16 79 45 49 56
REMARK Flexibility Score: inf
ROOT
ATOM      1  C   UNL A   1      32.308  27.961  25.195  1.00  0.00     0.202 C 
ENDROOT
BRANCH   1   2
ATOM      2  O   UNL A   1      32.291  26.732  25.920  1.00  0.00    -0.374 OA
BRANCH   2   3
ATOM      3  C   UNL A   1      31.543  25.666  25.331  1.00  0.00     0.202 C 
BRANCH   3   4
ATOM      4  C   UNL A   1      32.102  25.080  24.031  1.00  0.00     0.261 C 
BRANCH   4   5
ATOM      5  O   UNL A   1      33.372  24.428  24.217  1.00  0.00    -0.463 OA
BRANCH   5   6
ATOM      6  C   UNL A   1      33.649  23.425  23.348  1.00  0.00     0.309 C 
ATOM      7  O   UNL A   1      33.174  23.348  22.220  1.00  0.00    -0.252 OA
BRANCH   6   8
ATOM      8  C   UNL A   1      34.511  22.324  23.956  1.00  0.00     0.111 C 
ATOM      9  C   UNL A   1      34.335  21.919  25.450  1.00  0.00     0.093 C 
ATOM     10  C   UNL A   1      35.135  22.834  26.414  1.00  0.00     0.014 C 
ATOM     11  C   UNL A   1      36.568  23.107  25.981  1.00  0.00     0.001 C 
ATOM     12  C   UNL A   1      35.996  22.571  23.621  1.00  0.00     0.016 C 
ATOM     13  C   UNL A   1      36.630  23.598  24.546  1.00  0.00     0.001 C 
BRANCH   9  14
ATOM     14  C   UNL A   1      32.892  21.793  25.986  1.00  0.00     0.229 C 
ATOM     15  N   UNL A   1      32.123  20.689  25.780  1.00  0.00    -0.309 N 
ATOM     16  H   UNL A   1      31.207  20.739  26.142  1.00  0.00     0.171 HD
ATOM     17  O   UNL A   1      32.373  22.718  26.625  1.00  0.00    -0.274 OA
BRANCH  15  18
ATOM     18  C   UNL A   1      32.439  19.519  25.145  1.00  0.00     0.154 A 
ATOM     19  C   UNL A   1      33.932  16.398  25.200  1.00  0.00     0.173 C 
ATOM     20  N   UNL A   1      33.218  17.586  24.805  1.00  0.00    -0.274 N 
ATOM     21  C   UNL A   1      33.140  18.135  23.562  1.00  0.00     0.110 A 
ATOM     22  N   UNL A   1      32.686  18.363  25.758  1.00  0.00    -0.155 NA
ATOM     23  C   UNL A   1      32.594  19.386  23.746  1.00  0.00     0.068 A 
ENDBRANCH  15  18
ENDBRANCH   9  14
ENDBRANCH   6   8
ENDBRANCH   5   6
ENDBRANCH   4   5
ENDBRANCH   3   4
ENDBRANCH   2   3
ENDBRANCH   1   2
BRANCH   1  24
ATOM     24  C   UNL A   1      33.507  28.881  25.442  1.00  0.00     0.261 C 
BRANCH  24  25
ATOM     25  O   UNL A   1      34.109  28.633  26.721  1.00  0.00    -0.460 OA
BRANCH  25  26
ATOM     26  C   UNL A   1      34.320  29.742  27.467  1.00  0.00     0.338 C 
ATOM     27  O   UNL A   1      33.493  30.578  27.789  1.00  0.00    -0.246 OA
BRANCH  26  28
ATOM     28  C   UNL A   1      35.695  29.733  28.010  1.00  0.00     0.060 A 
ATOM     29  C   UNL A   1      36.729  30.033  27.114  1.00  0.00     0.016 A 
ATOM     30  C   UNL A   1      35.981  29.395  29.336  1.00  0.00     0.016 A 
ATOM     31  C   UNL A   1      38.055  29.917  27.516  1.00  0.00     0.010 A 
ATOM     32  C   UNL A   1      37.316  29.271  29.738  1.00  0.00     0.010 A 
ATOM     33  C   UNL A   1      38.355  29.485  28.814  1.00  0.00    -0.014 A 
BRANCH  33  34
ATOM     34  C   UNL A   1      39.747  29.092  29.129  1.00  0.00     0.031 A 
ATOM     35  C   UNL A   1      40.619  30.070  29.871  1.00  0.00     0.074 A 
ATOM     36  C   UNL A   1      40.199  27.864  28.822  1.00  0.00     0.049 A 
ATOM     37  N   UNL A   1      41.844  29.920  30.305  1.00  0.00    -0.248 NA
ATOM     38  C   UNL A   1      40.033  31.388  30.164  1.00  0.00     0.031 C 
ATOM     39  C   UNL A   1      39.427  26.826  28.139  1.00  0.00     0.029 A 
ATOM     40  N   UNL A   1      41.418  27.280  29.055  1.00  0.00    -0.354 N 
ATOM     41  C   UNL A   1      42.172  31.122  30.924  1.00  0.00     0.074 A 
ATOM     42  C   UNL A   1      41.032  32.001  30.778  1.00  0.00     0.031 C 
ATOM     43  C   UNL A   1      40.193  25.729  28.008  1.00  0.00     0.029 A 
ATOM     44  C   UNL A   1      41.512  25.993  28.580  1.00  0.00     0.049 A 
ATOM     45  H   UNL A   1      42.155  27.738  29.519  1.00  0.00     0.167 HD
ATOM     46  C   UNL A   1      43.317  31.461  31.563  1.00  0.00     0.031 A 
ATOM     47  C   UNL A   1      42.548  25.133  28.600  1.00  0.00     0.031 A 
ATOM     48  C   UNL A   1      44.452  30.587  31.687  1.00  0.00     0.049 A 
ATOM     49  C   UNL A   1      43.832  25.550  29.267  1.00  0.00     0.074 A 
ATOM     50  C   UNL A   1      45.658  30.824  32.321  1.00  0.00     0.029 A 
ATOM     51  N   UNL A   1      44.521  29.306  31.159  1.00  0.00    -0.354 N 
ATOM     52  N   UNL A   1      44.114  26.679  29.874  1.00  0.00    -0.248 NA
ATOM     53  C   UNL A   1      44.931  24.575  29.262  1.00  0.00     0.031 C 
ATOM     54  C   UNL A   1      46.476  29.705  32.132  1.00  0.00     0.029 A 
ATOM     55  C   UNL A   1      45.758  28.749  31.428  1.00  0.00     0.049 A 
ATOM     56  H   UNL A   1      43.797  28.859  30.663  1.00  0.00     0.167 HD
ATOM     57  C   UNL A   1      45.416  26.541  30.344  1.00  0.00     0.074 A 
ATOM     58  C   UNL A   1      45.859  25.215  29.961  1.00  0.00     0.031 C 
ATOM     59  C   UNL A   1      46.176  27.429  31.032  1.00  0.00     0.031 A 
BRANCH  46  60
ATOM     60  C   UNL A   1      43.402  32.846  32.146  1.00  0.00    -0.014 A 
ATOM     61  C   UNL A   1      42.995  33.107  33.467  1.00  0.00     0.010 A 
ATOM     62  C   UNL A   1      43.917  33.899  31.368  1.00  0.00     0.010 A 
ATOM     63  C   UNL A   1      43.064  34.404  33.986  1.00  0.00     0.020 A 
ATOM     64  C   UNL A   1      44.010  35.192  31.892  1.00  0.00     0.020 A 
ATOM     65  C   UNL A   1      43.567  35.439  33.192  1.00  0.00     0.054 A 
BRANCH  65  66
ATOM     66  S   UNL A   1      43.661  37.110  33.894  1.00  0.00     0.124 S 
ATOM     67  O   UNL A   1      44.927  37.060  34.621  1.00  0.00    -0.237 OA
ATOM     68  O   UNL A   1      43.652  37.959  32.706  1.00  0.00    -0.237 OA
ATOM     69  O   UNL A   1      42.466  37.202  34.730  1.00  0.00    -0.744 OA
ENDBRANCH  65  66
ENDBRANCH  46  60
BRANCH  47  70
ATOM     70  C   UNL A   1      42.412  23.794  27.963  1.00  0.00    -0.014 A 
ATOM     71  C   UNL A   1      42.790  23.589  26.625  1.00  0.00     0.010 A 
ATOM     72  C   UNL A   1      41.915  22.709  28.707  1.00  0.00     0.010 A 
ATOM     73  C   UNL A   1      42.667  22.323  26.041  1.00  0.00     0.020 A 
ATOM     74  C   UNL A   1      41.813  21.437  28.134  1.00  0.00     0.020 A 
ATOM     75  C   UNL A   1      42.182  21.255  26.801  1.00  0.00     0.054 A 
BRANCH  75  76
ATOM     76  S   UNL A   1      42.094  19.607  26.046  1.00  0.00     0.124 S 
ATOM     77  O   UNL A   1      40.667  19.475  25.769  1.00  0.00    -0.237 OA
ATOM     78  O   UNL A   1      42.956  19.748  24.875  1.00  0.00    -0.237 OA
ATOM     79  O   UNL A   1      42.615  18.727  27.090  1.00  0.00    -0.744 OA
ENDBRANCH  75  76
ENDBRANCH  47  70
BRANCH  59  80
ATOM     80  C   UNL A   1      47.557  26.987  31.436  1.00  0.00    -0.014 A 
ATOM     81  C   UNL A   1      48.676  27.283  30.639  1.00  0.00     0.010 A 
ATOM     82  C   UNL A   1      47.741  26.320  32.660  1.00  0.00     0.010 A 
ATOM     83  C   UNL A   1      49.955  26.894  31.047  1.00  0.00     0.020 A 
ATOM     84  C   UNL A   1      49.020  25.952  33.083  1.00  0.00     0.020 A 
ATOM     85  C   UNL A   1      50.118  26.229  32.266  1.00  0.00     0.054 A 
BRANCH  85  86
ATOM     86  S   UNL A   1      51.791  25.773  32.796  1.00  0.00     0.124 S 
ATOM     87  O   UNL A   1      51.520  24.828  33.876  1.00  0.00    -0.237 OA
ATOM     88  O   UNL A   1      52.367  25.193  31.584  1.00  0.00    -0.237 OA
ATOM     89  O   UNL A   1      52.382  27.043  33.212  1.00  0.00    -0.744 OA
ENDBRANCH  85  86
ENDBRANCH  59  80
ENDBRANCH  33  34
ENDBRANCH  26  28
ENDBRANCH  25  26
ENDBRANCH  24  25
ENDBRANCH   1  24
TORSDOF 19
ENDMDL
