MODEL 1
REMARK VINA RESULT:     -10.7      0.000      0.000
REMARK SMILES COc1ncccc1C[C@H](C(=O)OCCOCCOC(=O)c1ccc(-c2c3nc(c(-c4ccc(S(=O)(=O)[O-])cc4)c4ccc([nH]4)c(-c4ccc(S(=O)(=O)[O-])cc4)c4nc(c(-c5ccc(S(=O)(=O)[O-])cc5)c5ccc2[nH]5)C=C4)C=C3)cc1)c1ccc(F)cc1
REMARK SMILES IDX 16 1 15 2 14 3 13 4 11 5 12 6 10 7 9 8 8 9 3 10 4 11 5 12
REMARK SMILES IDX 7 13 6 14 2 15 1 16 82 17 83 18 88 19 84 20 87 21 85 22
REMARK SMILES IDX 86 23 17 24 18 25 19 26 20 27 21 28 22 29 23 30 81 31 24 32
REMARK SMILES IDX 80 33 25 34 26 35 27 36 74 37 28 38 79 39 73 40 75 41 29 42
REMARK SMILES IDX 78 43 72 44 71 45 30 47 60 48 41 49 59 50 42 51 45 52 58 53
REMARK SMILES IDX 76 54 43 55 44 56 57 58 77 59 46 60 31 61 32 62 40 63 33 64
REMARK SMILES IDX 39 65 34 66 35 67 36 68 37 69 38 70 61 71 62 72 70 73 63 74
REMARK SMILES IDX 69 75 64 76 65 77 66 78 67 79 68 80 47 81 48 82 56 83 49 84
REMARK SMILES IDX 55 85 50 86 51 87 52 88 53 89 54 90
REMARK H PARENT 75 46 45 57
REMARK Flexibility Score: inf
ROOT
ATOM      1  O   UNL A   1      37.905  22.612  25.452  1.00  0.00    -0.374 OA
ENDROOT
BRANCH   1   2
ATOM      2  C   UNL A   1      37.209  21.715  24.581  1.00  0.00     0.202 C 
BRANCH   2   3
ATOM      3  C   UNL A   1      36.237  22.319  23.566  1.00  0.00     0.261 C 
BRANCH   3   4
ATOM      4  O   UNL A   1      35.032  22.756  24.218  1.00  0.00    -0.463 OA
BRANCH   4   5
ATOM      5  C   UNL A   1      33.895  22.641  23.480  1.00  0.00     0.313 C 
ATOM      6  O   UNL A   1      33.740  23.103  22.355  1.00  0.00    -0.252 OA
BRANCH   5   7
ATOM      7  C   UNL A   1      32.840  21.808  24.209  1.00  0.00     0.134 C 
BRANCH   7   8
ATOM      8  C   UNL A   1      31.483  22.364  23.711  1.00  0.00     0.061 C 
BRANCH   8   9
ATOM      9  C   UNL A   1      31.023  23.644  24.356  1.00  0.00     0.015 A 
ATOM     10  C   UNL A   1      30.988  23.851  25.738  1.00  0.00     0.216 A 
ATOM     11  N   UNL A   1      30.557  24.995  26.314  1.00  0.00    -0.222 NA
ATOM     12  C   UNL A   1      30.077  25.956  25.496  1.00  0.00     0.115 A 
ATOM     13  C   UNL A   1      30.497  24.664  23.547  1.00  0.00     0.011 A 
ATOM     14  C   UNL A   1      29.995  25.826  24.124  1.00  0.00     0.021 A 
BRANCH  10  15
ATOM     15  O   UNL A   1      31.089  22.800  26.611  1.00  0.00    -0.481 OA
ATOM     16  C   UNL A   1      32.240  22.874  27.432  1.00  0.00     0.280 C 
ENDBRANCH  10  15
ENDBRANCH   8   9
ENDBRANCH   7   8
BRANCH   7  17
ATOM     17  C   UNL A   1      33.038  20.301  23.984  1.00  0.00    -0.033 A 
ATOM     18  C   UNL A   1      33.981  19.557  24.726  1.00  0.00     0.007 A 
ATOM     19  C   UNL A   1      32.285  19.617  23.010  1.00  0.00     0.007 A 
ATOM     20  C   UNL A   1      34.181  18.193  24.489  1.00  0.00     0.039 A 
ATOM     21  C   UNL A   1      32.503  18.254  22.761  1.00  0.00     0.039 A 
ATOM     22  C   UNL A   1      33.454  17.558  23.495  1.00  0.00     0.123 A 
ATOM     23  F   UNL A   1      33.685  16.265  23.232  1.00  0.00    -0.207 F 
ENDBRANCH   7  17
ENDBRANCH   5   7
ENDBRANCH   4   5
ENDBRANCH   3   4
ENDBRANCH   2   3
ENDBRANCH   1   2
BRANCH   1  24
ATOM     24  C   UNL A   1      39.125  22.162  26.031  1.00  0.00     0.202 C 
BRANCH  24  25
ATOM     25  C   UNL A   1      40.047  23.180  26.713  1.00  0.00     0.261 C 
BRANCH  25  26
ATOM     26  O   UNL A   1      39.504  24.502  26.736  1.00  0.00    -0.460 OA
BRANCH  26  27
ATOM     27  C   UNL A   1      40.436  25.467  26.527  1.00  0.00     0.338 C 
ATOM     28  O   UNL A   1      40.957  25.777  25.474  1.00  0.00    -0.246 OA
BRANCH  27  29
ATOM     29  C   UNL A   1      40.595  26.245  27.766  1.00  0.00     0.060 A 
ATOM     30  C   UNL A   1      39.562  26.168  28.711  1.00  0.00     0.016 A 
ATOM     31  C   UNL A   1      41.710  27.057  27.977  1.00  0.00     0.016 A 
ATOM     32  C   UNL A   1      39.610  26.959  29.851  1.00  0.00     0.010 A 
ATOM     33  C   UNL A   1      41.749  27.860  29.113  1.00  0.00     0.010 A 
ATOM     34  C   UNL A   1      40.677  27.846  30.024  1.00  0.00    -0.014 A 
BRANCH  34  35
ATOM     35  C   UNL A   1      40.570  28.925  31.027  1.00  0.00     0.031 A 
ATOM     36  C   UNL A   1      41.489  28.871  32.214  1.00  0.00     0.074 A 
ATOM     37  C   UNL A   1      39.680  29.919  30.875  1.00  0.00     0.049 A 
ATOM     38  N   UNL A   1      41.518  29.633  33.273  1.00  0.00    -0.248 NA
ATOM     39  C   UNL A   1      42.509  27.804  32.209  1.00  0.00     0.031 C 
ATOM     40  C   UNL A   1      38.791  30.092  29.726  1.00  0.00     0.029 A 
ATOM     41  N   UNL A   1      39.373  30.967  31.703  1.00  0.00    -0.354 N 
ATOM     42  C   UNL A   1      42.537  29.124  34.070  1.00  0.00     0.074 A 
ATOM     43  C   UNL A   1      43.086  27.976  33.387  1.00  0.00     0.031 C 
ATOM     44  C   UNL A   1      38.025  31.178  29.931  1.00  0.00     0.029 A 
ATOM     45  C   UNL A   1      38.340  31.745  31.241  1.00  0.00     0.049 A 
ATOM     46  H   UNL A   1      39.846  31.144  32.547  1.00  0.00     0.167 HD
ATOM     47  C   UNL A   1      42.972  29.579  35.268  1.00  0.00     0.031 A 
ATOM     48  C   UNL A   1      37.703  32.776  31.828  1.00  0.00     0.031 A 
ATOM     49  C   UNL A   1      42.403  30.719  35.932  1.00  0.00     0.049 A 
ATOM     50  C   UNL A   1      38.154  33.219  33.197  1.00  0.00     0.074 A 
ATOM     51  C   UNL A   1      42.770  31.280  37.141  1.00  0.00     0.029 A 
ATOM     52  N   UNL A   1      41.343  31.468  35.444  1.00  0.00    -0.354 N 
ATOM     53  N   UNL A   1      39.124  32.738  33.940  1.00  0.00    -0.248 NA
ATOM     54  C   UNL A   1      37.433  34.345  33.804  1.00  0.00     0.031 C 
ATOM     55  C   UNL A   1      41.887  32.330  37.415  1.00  0.00     0.029 A 
ATOM     56  C   UNL A   1      41.024  32.472  36.338  1.00  0.00     0.049 A 
ATOM     57  H   UNL A   1      40.886  31.308  34.587  1.00  0.00     0.167 HD
ATOM     58  C   UNL A   1      39.157  33.531  35.082  1.00  0.00     0.074 A 
ATOM     59  C   UNL A   1      38.109  34.520  34.932  1.00  0.00     0.031 C 
ATOM     60  C   UNL A   1      39.986  33.456  36.152  1.00  0.00     0.031 A 
BRANCH  47  61
ATOM     61  C   UNL A   1      44.078  28.817  35.949  1.00  0.00    -0.014 A 
ATOM     62  C   UNL A   1      43.808  27.722  36.791  1.00  0.00     0.010 A 
ATOM     63  C   UNL A   1      45.416  29.184  35.716  1.00  0.00     0.010 A 
ATOM     64  C   UNL A   1      44.853  27.034  37.415  1.00  0.00     0.020 A 
ATOM     65  C   UNL A   1      46.465  28.479  36.312  1.00  0.00     0.020 A 
ATOM     66  C   UNL A   1      46.175  27.417  37.170  1.00  0.00     0.054 A 
BRANCH  66  67
ATOM     67  S   UNL A   1      47.512  26.488  37.969  1.00  0.00     0.124 S 
ATOM     68  O   UNL A   1      46.952  26.232  39.294  1.00  0.00    -0.237 OA
ATOM     69  O   UNL A   1      47.644  25.316  37.107  1.00  0.00    -0.237 OA
ATOM     70  O   UNL A   1      48.644  27.411  37.940  1.00  0.00    -0.744 OA
ENDBRANCH  66  67
ENDBRANCH  47  61
BRANCH  48  71
ATOM     71  C   UNL A   1      36.571  33.446  31.134  1.00  0.00    -0.014 A 
ATOM     72  C   UNL A   1      35.314  33.557  31.753  1.00  0.00     0.010 A 
ATOM     73  C   UNL A   1      36.749  33.991  29.848  1.00  0.00     0.010 A 
ATOM     74  C   UNL A   1      34.253  34.185  31.094  1.00  0.00     0.020 A 
ATOM     75  C   UNL A   1      35.699  34.648  29.199  1.00  0.00     0.020 A 
ATOM     76  C   UNL A   1      34.453  34.731  29.824  1.00  0.00     0.054 A 
BRANCH  76  77
ATOM     77  S   UNL A   1      33.073  35.584  29.011  1.00  0.00     0.124 S 
ATOM     78  O   UNL A   1      32.480  34.514  28.217  1.00  0.00    -0.237 OA
ATOM     79  O   UNL A   1      32.280  36.047  30.148  1.00  0.00    -0.237 OA
ATOM     80  O   UNL A   1      33.730  36.643  28.247  1.00  0.00    -0.744 OA
ENDBRANCH  76  77
ENDBRANCH  48  71
BRANCH  60  81
ATOM     81  C   UNL A   1      39.850  34.508  37.221  1.00  0.00    -0.014 A 
ATOM     82  C   UNL A   1      39.056  34.301  38.361  1.00  0.00     0.010 A 
ATOM     83  C   UNL A   1      40.625  35.680  37.124  1.00  0.00     0.010 A 
ATOM     84  C   UNL A   1      39.033  35.255  39.381  1.00  0.00     0.020 A 
ATOM     85  C   UNL A   1      40.629  36.619  38.155  1.00  0.00     0.020 A 
ATOM     86  C   UNL A   1      39.826  36.403  39.276  1.00  0.00     0.054 A 
BRANCH  86  87
ATOM     87  S   UNL A   1      39.843  37.581  40.655  1.00  0.00     0.124 S 
ATOM     88  O   UNL A   1      38.502  38.152  40.584  1.00  0.00    -0.237 OA
ATOM     89  O   UNL A   1      40.101  36.719  41.806  1.00  0.00    -0.237 OA
ATOM     90  O   UNL A   1      40.929  38.497  40.316  1.00  0.00    -0.744 OA
ENDBRANCH  86  87
ENDBRANCH  60  81
ENDBRANCH  34  35
ENDBRANCH  27  29
ENDBRANCH  26  27
ENDBRANCH  25  26
ENDBRANCH  24  25
ENDBRANCH   1  24
TORSDOF 21
ENDMDL
MODEL 2
REMARK VINA RESULT:     -10.4      6.407     10.944
REMARK SMILES COc1ncccc1C[C@H](C(=O)OCCOCCOC(=O)c1ccc(-c2c3nc(c(-c4ccc(S(=O)(=O)[O-])cc4)c4ccc([nH]4)c(-c4ccc(S(=O)(=O)[O-])cc4)c4nc(c(-c5ccc(S(=O)(=O)[O-])cc5)c5ccc2[nH]5)C=C4)C=C3)cc1)c1ccc(F)cc1
REMARK SMILES IDX 16 1 15 2 14 3 13 4 11 5 12 6 10 7 9 8 8 9 3 10 4 11 5 12
REMARK SMILES IDX 7 13 6 14 2 15 1 16 82 17 83 18 88 19 84 20 87 21 85 22
REMARK SMILES IDX 86 23 17 24 18 25 19 26 20 27 21 28 22 29 23 30 81 31 24 32
REMARK SMILES IDX 80 33 25 34 26 35 27 36 74 37 28 38 79 39 73 40 75 41 29 42
REMARK SMILES IDX 78 43 72 44 71 45 30 47 60 48 41 49 59 50 42 51 45 52 58 53
REMARK SMILES IDX 76 54 43 55 44 56 57 58 77 59 46 60 31 61 32 62 40 63 33 64
REMARK SMILES IDX 39 65 34 66 35 67 36 68 37 69 38 70 61 71 62 72 70 73 63 74
REMARK SMILES IDX 69 75 64 76 65 77 66 78 67 79 68 80 47 81 48 82 56 83 49 84
REMARK SMILES IDX 55 85 50 86 51 87 52 88 53 89 54 90
REMARK H PARENT 75 46 45 57
REMARK Flexibility Score: inf
ROOT
ATOM      1  O   UNL A   1      36.846  21.038  24.895  1.00  0.00    -0.374 OA
ENDROOT
BRANCH   1   2
ATOM      2  C   UNL A   1      36.894  22.178  24.031  1.00  0.00     0.202 C 
BRANCH   2   3
ATOM      3  C   UNL A   1      36.572  23.545  24.638  1.00  0.00     0.261 C 
BRANCH   3   4
ATOM      4  O   UNL A   1      35.277  23.997  24.207  1.00  0.00    -0.463 OA
BRANCH   4   5
ATOM      5  C   UNL A   1      34.299  23.951  25.152  1.00  0.00     0.313 C 
ATOM      6  O   UNL A   1      34.483  24.079  26.357  1.00  0.00    -0.252 OA
BRANCH   5   7
ATOM      7  C   UNL A   1      32.920  23.772  24.517  1.00  0.00     0.134 C 
BRANCH   7   8
ATOM      8  C   UNL A   1      32.814  24.908  23.471  1.00  0.00     0.061 C 
BRANCH   8   9
ATOM      9  C   UNL A   1      32.706  26.303  24.028  1.00  0.00     0.015 A 
ATOM     10  C   UNL A   1      31.599  26.775  24.738  1.00  0.00     0.216 A 
ATOM     11  N   UNL A   1      31.498  28.033  25.221  1.00  0.00    -0.222 NA
ATOM     12  C   UNL A   1      32.504  28.887  24.935  1.00  0.00     0.115 A 
ATOM     13  C   UNL A   1      33.719  27.232  23.740  1.00  0.00     0.011 A 
ATOM     14  C   UNL A   1      33.608  28.547  24.178  1.00  0.00     0.021 A 
BRANCH  10  15
ATOM     15  O   UNL A   1      30.409  26.096  24.722  1.00  0.00    -0.481 OA
ATOM     16  C   UNL A   1      29.478  26.635  23.802  1.00  0.00     0.280 C 
ENDBRANCH  10  15
ENDBRANCH   8   9
ENDBRANCH   7   8
BRANCH   7  17
ATOM     17  C   UNL A   1      32.725  22.357  23.950  1.00  0.00    -0.033 A 
ATOM     18  C   UNL A   1      32.137  22.137  22.686  1.00  0.00     0.007 A 
ATOM     19  C   UNL A   1      33.120  21.227  24.694  1.00  0.00     0.007 A 
ATOM     20  C   UNL A   1      31.929  20.844  22.194  1.00  0.00     0.039 A 
ATOM     21  C   UNL A   1      32.891  19.932  24.207  1.00  0.00     0.039 A 
ATOM     22  C   UNL A   1      32.291  19.752  22.968  1.00  0.00     0.123 A 
ATOM     23  F   UNL A   1      32.041  18.515  22.519  1.00  0.00    -0.207 F 
ENDBRANCH   7  17
ENDBRANCH   5   7
ENDBRANCH   4   5
ENDBRANCH   3   4
ENDBRANCH   2   3
ENDBRANCH   1   2
BRANCH   1  24
ATOM     24  C   UNL A   1      38.081  20.435  25.266  1.00  0.00     0.202 C 
BRANCH  24  25
ATOM     25  C   UNL A   1      39.157  21.295  25.941  1.00  0.00     0.261 C 
BRANCH  25  26
ATOM     26  O   UNL A   1      39.946  20.568  26.885  1.00  0.00    -0.460 OA
BRANCH  26  27
ATOM     27  C   UNL A   1      41.150  20.182  26.391  1.00  0.00     0.338 C 
ATOM     28  O   UNL A   1      41.401  19.181  25.749  1.00  0.00    -0.246 OA
BRANCH  27  29
ATOM     29  C   UNL A   1      42.112  21.279  26.582  1.00  0.00     0.060 A 
ATOM     30  C   UNL A   1      42.449  21.617  27.900  1.00  0.00     0.016 A 
ATOM     31  C   UNL A   1      42.638  21.983  25.498  1.00  0.00     0.016 A 
ATOM     32  C   UNL A   1      43.270  22.709  28.144  1.00  0.00     0.010 A 
ATOM     33  C   UNL A   1      43.450  23.086  25.744  1.00  0.00     0.010 A 
ATOM     34  C   UNL A   1      43.726  23.477  27.067  1.00  0.00    -0.014 A 
BRANCH  34  35
ATOM     35  C   UNL A   1      44.293  24.817  27.318  1.00  0.00     0.031 A 
ATOM     36  C   UNL A   1      43.354  25.902  27.765  1.00  0.00     0.074 A 
ATOM     37  C   UNL A   1      45.605  25.051  27.155  1.00  0.00     0.049 A 
ATOM     38  N   UNL A   1      43.585  27.173  27.946  1.00  0.00    -0.248 NA
ATOM     39  C   UNL A   1      41.960  25.498  28.032  1.00  0.00     0.031 C 
ATOM     40  C   UNL A   1      46.605  24.048  26.787  1.00  0.00     0.029 A 
ATOM     41  N   UNL A   1      46.318  26.215  27.267  1.00  0.00    -0.354 N 
ATOM     42  C   UNL A   1      42.365  27.724  28.323  1.00  0.00     0.074 A 
ATOM     43  C   UNL A   1      41.392  26.657  28.321  1.00  0.00     0.031 C 
ATOM     44  C   UNL A   1      47.804  24.647  26.690  1.00  0.00     0.029 A 
ATOM     45  C   UNL A   1      47.645  26.078  26.944  1.00  0.00     0.049 A 
ATOM     46  H   UNL A   1      45.917  27.068  27.551  1.00  0.00     0.167 HD
ATOM     47  C   UNL A   1      42.087  29.010  28.641  1.00  0.00     0.031 A 
ATOM     48  C   UNL A   1      48.611  27.011  26.834  1.00  0.00     0.031 A 
ATOM     49  C   UNL A   1      43.072  30.056  28.626  1.00  0.00     0.049 A 
ATOM     50  C   UNL A   1      48.262  28.449  27.119  1.00  0.00     0.074 A 
ATOM     51  C   UNL A   1      42.910  31.392  28.942  1.00  0.00     0.029 A 
ATOM     52  N   UNL A   1      44.402  29.882  28.271  1.00  0.00    -0.354 N 
ATOM     53  N   UNL A   1      47.108  28.960  27.483  1.00  0.00    -0.248 NA
ATOM     54  C   UNL A   1      49.341  29.436  26.986  1.00  0.00     0.031 C 
ATOM     55  C   UNL A   1      44.129  32.039  28.715  1.00  0.00     0.029 A 
ATOM     56  C   UNL A   1      45.067  31.091  28.335  1.00  0.00     0.049 A 
ATOM     57  H   UNL A   1      44.810  29.025  28.013  1.00  0.00     0.167 HD
ATOM     58  C   UNL A   1      47.335  30.320  27.665  1.00  0.00     0.074 A 
ATOM     59  C   UNL A   1      48.734  30.552  27.369  1.00  0.00     0.031 C 
ATOM     60  C   UNL A   1      46.468  31.288  28.053  1.00  0.00     0.031 A 
BRANCH  47  61
ATOM     61  C   UNL A   1      40.662  29.356  28.981  1.00  0.00    -0.014 A 
ATOM     62  C   UNL A   1      40.252  29.564  30.312  1.00  0.00     0.010 A 
ATOM     63  C   UNL A   1      39.722  29.508  27.946  1.00  0.00     0.010 A 
ATOM     64  C   UNL A   1      38.921  29.881  30.600  1.00  0.00     0.020 A 
ATOM     65  C   UNL A   1      38.398  29.857  28.228  1.00  0.00     0.020 A 
ATOM     66  C   UNL A   1      38.004  30.026  29.556  1.00  0.00     0.054 A 
BRANCH  66  67
ATOM     67  S   UNL A   1      36.291  30.466  29.959  1.00  0.00     0.124 S 
ATOM     68  O   UNL A   1      35.548  29.790  28.899  1.00  0.00    -0.237 OA
ATOM     69  O   UNL A   1      36.124  29.906  31.297  1.00  0.00    -0.237 OA
ATOM     70  O   UNL A   1      36.281  31.926  29.891  1.00  0.00    -0.744 OA
ENDBRANCH  66  67
ENDBRANCH  47  61
BRANCH  48  71
ATOM     71  C   UNL A   1      49.986  26.616  26.427  1.00  0.00    -0.014 A 
ATOM     72  C   UNL A   1      50.895  26.107  27.370  1.00  0.00     0.010 A 
ATOM     73  C   UNL A   1      50.390  26.733  25.083  1.00  0.00     0.010 A 
ATOM     74  C   UNL A   1      52.187  25.739  26.981  1.00  0.00     0.020 A 
ATOM     75  C   UNL A   1      51.670  26.337  24.686  1.00  0.00     0.020 A 
ATOM     76  C   UNL A   1      52.565  25.852  25.641  1.00  0.00     0.054 A 
BRANCH  76  77
ATOM     77  S   UNL A   1      54.230  25.322  25.155  1.00  0.00     0.124 S 
ATOM     78  O   UNL A   1      54.049  23.886  24.970  1.00  0.00    -0.237 OA
ATOM     79  O   UNL A   1      54.461  26.094  23.937  1.00  0.00    -0.237 OA
ATOM     80  O   UNL A   1      55.059  25.708  26.295  1.00  0.00    -0.744 OA
ENDBRANCH  76  77
ENDBRANCH  48  71
BRANCH  60  81
ATOM     81  C   UNL A   1      47.011  32.678  28.252  1.00  0.00    -0.014 A 
ATOM     82  C   UNL A   1      47.576  33.080  29.473  1.00  0.00     0.010 A 
ATOM     83  C   UNL A   1      47.048  33.557  27.152  1.00  0.00     0.010 A 
ATOM     84  C   UNL A   1      48.163  34.343  29.592  1.00  0.00     0.020 A 
ATOM     85  C   UNL A   1      47.660  34.806  27.259  1.00  0.00     0.020 A 
ATOM     86  C   UNL A   1      48.209  35.194  28.482  1.00  0.00     0.054 A 
BRANCH  86  87
ATOM     87  S   UNL A   1      49.054  36.791  28.642  1.00  0.00     0.124 S 
ATOM     88  O   UNL A   1      49.943  36.781  27.485  1.00  0.00    -0.237 OA
ATOM     89  O   UNL A   1      47.948  37.743  28.579  1.00  0.00    -0.237 OA
ATOM     90  O   UNL A   1      49.719  36.704  29.939  1.00  0.00    -0.744 OA
ENDBRANCH  86  87
ENDBRANCH  60  81
ENDBRANCH  34  35
ENDBRANCH  27  29
ENDBRANCH  26  27
ENDBRANCH  25  26
ENDBRANCH  24  25
ENDBRANCH   1  24
TORSDOF 21
ENDMDL
MODEL 3
REMARK VINA RESULT:     -10.1      6.155      8.220
REMARK SMILES COc1ncccc1C[C@H](C(=O)OCCOCCOC(=O)c1ccc(-c2c3nc(c(-c4ccc(S(=O)(=O)[O-])cc4)c4ccc([nH]4)c(-c4ccc(S(=O)(=O)[O-])cc4)c4nc(c(-c5ccc(S(=O)(=O)[O-])cc5)c5ccc2[nH]5)C=C4)C=C3)cc1)c1ccc(F)cc1
REMARK SMILES IDX 16 1 15 2 14 3 13 4 11 5 12 6 10 7 9 8 8 9 3 10 4 11 5 12
REMARK SMILES IDX 7 13 6 14 2 15 1 16 82 17 83 18 88 19 84 20 87 21 85 22
REMARK SMILES IDX 86 23 17 24 18 25 19 26 20 27 21 28 22 29 23 30 81 31 24 32
REMARK SMILES IDX 80 33 25 34 26 35 27 36 74 37 28 38 79 39 73 40 75 41 29 42
REMARK SMILES IDX 78 43 72 44 71 45 30 47 60 48 41 49 59 50 42 51 45 52 58 53
REMARK SMILES IDX 76 54 43 55 44 56 57 58 77 59 46 60 31 61 32 62 40 63 33 64
REMARK SMILES IDX 39 65 34 66 35 67 36 68 37 69 38 70 61 71 62 72 70 73 63 74
REMARK SMILES IDX 69 75 64 76 65 77 66 78 67 79 68 80 47 81 48 82 56 83 49 84
REMARK SMILES IDX 55 85 50 86 51 87 52 88 53 89 54 90
REMARK H PARENT 75 46 45 57
REMARK Flexibility Score: inf
ROOT
ATOM      1  O   UNL A   1      36.842  21.330  25.442  1.00  0.00    -0.374 OA
ENDROOT
BRANCH   1   2
ATOM      2  C   UNL A   1      36.736  22.672  24.958  1.00  0.00     0.202 C 
BRANCH   2   3
ATOM      3  C   UNL A   1      35.717  23.594  25.632  1.00  0.00     0.261 C 
BRANCH   3   4
ATOM      4  O   UNL A   1      34.630  23.886  24.737  1.00  0.00    -0.463 OA
BRANCH   4   5
ATOM      5  C   UNL A   1      33.408  24.005  25.324  1.00  0.00     0.313 C 
ATOM      6  O   UNL A   1      33.208  24.488  26.433  1.00  0.00    -0.252 OA
BRANCH   5   7
ATOM      7  C   UNL A   1      32.296  23.508  24.400  1.00  0.00     0.134 C 
BRANCH   7   8
ATOM      8  C   UNL A   1      32.392  24.407  23.143  1.00  0.00     0.061 C 
BRANCH   8   9
ATOM      9  C   UNL A   1      31.438  25.571  23.096  1.00  0.00     0.015 A 
ATOM     10  C   UNL A   1      31.746  26.807  22.521  1.00  0.00     0.216 A 
ATOM     11  N   UNL A   1      30.893  27.855  22.496  1.00  0.00    -0.222 NA
ATOM     12  C   UNL A   1      29.708  27.702  23.124  1.00  0.00     0.115 A 
ATOM     13  C   UNL A   1      30.201  25.465  23.752  1.00  0.00     0.011 A 
ATOM     14  C   UNL A   1      29.333  26.550  23.788  1.00  0.00     0.021 A 
BRANCH  10  15
ATOM     15  O   UNL A   1      33.039  27.144  22.223  1.00  0.00    -0.481 OA
ATOM     16  C   UNL A   1      33.669  27.881  23.255  1.00  0.00     0.280 C 
ENDBRANCH  10  15
ENDBRANCH   8   9
ENDBRANCH   7   8
BRANCH   7  17
ATOM     17  C   UNL A   1      32.408  22.001  24.123  1.00  0.00    -0.033 A 
ATOM     18  C   UNL A   1      32.136  21.457  22.848  1.00  0.00     0.007 A 
ATOM     19  C   UNL A   1      32.775  21.109  25.150  1.00  0.00     0.007 A 
ATOM     20  C   UNL A   1      32.203  20.080  22.614  1.00  0.00     0.039 A 
ATOM     21  C   UNL A   1      32.823  19.726  24.917  1.00  0.00     0.039 A 
ATOM     22  C   UNL A   1      32.528  19.225  23.655  1.00  0.00     0.123 A 
ATOM     23  F   UNL A   1      32.539  17.902  23.443  1.00  0.00    -0.207 F 
ENDBRANCH   7  17
ENDBRANCH   5   7
ENDBRANCH   4   5
ENDBRANCH   3   4
ENDBRANCH   2   3
ENDBRANCH   1   2
BRANCH   1  24
ATOM     24  C   UNL A   1      38.105  20.683  25.332  1.00  0.00     0.202 C 
BRANCH  24  25
ATOM     25  C   UNL A   1      39.327  21.311  26.014  1.00  0.00     0.261 C 
BRANCH  25  26
ATOM     26  O   UNL A   1      40.045  20.390  26.837  1.00  0.00    -0.460 OA
BRANCH  26  27
ATOM     27  C   UNL A   1      41.289  20.112  26.370  1.00  0.00     0.338 C 
ATOM     28  O   UNL A   1      41.649  19.122  25.766  1.00  0.00    -0.246 OA
BRANCH  27  29
ATOM     29  C   UNL A   1      42.131  21.308  26.533  1.00  0.00     0.060 A 
ATOM     30  C   UNL A   1      42.411  21.725  27.841  1.00  0.00     0.016 A 
ATOM     31  C   UNL A   1      42.601  22.023  25.430  1.00  0.00     0.016 A 
ATOM     32  C   UNL A   1      43.113  22.903  28.055  1.00  0.00     0.010 A 
ATOM     33  C   UNL A   1      43.293  23.211  25.645  1.00  0.00     0.010 A 
ATOM     34  C   UNL A   1      43.506  23.675  26.957  1.00  0.00    -0.014 A 
BRANCH  34  35
ATOM     35  C   UNL A   1      43.931  25.074  27.166  1.00  0.00     0.031 A 
ATOM     36  C   UNL A   1      45.384  25.401  26.967  1.00  0.00     0.074 A 
ATOM     37  C   UNL A   1      43.043  26.016  27.518  1.00  0.00     0.049 A 
ATOM     38  N   UNL A   1      46.018  26.519  27.189  1.00  0.00    -0.248 NA
ATOM     39  C   UNL A   1      46.240  24.313  26.458  1.00  0.00     0.031 C 
ATOM     40  C   UNL A   1      41.603  25.810  27.672  1.00  0.00     0.029 A 
ATOM     41  N   UNL A   1      43.230  27.339  27.823  1.00  0.00    -0.354 N 
ATOM     42  C   UNL A   1      47.347  26.264  26.873  1.00  0.00     0.074 A 
ATOM     43  C   UNL A   1      47.435  24.880  26.467  1.00  0.00     0.031 C 
ATOM     44  C   UNL A   1      41.037  26.967  28.058  1.00  0.00     0.029 A 
ATOM     45  C   UNL A   1      42.080  27.978  28.220  1.00  0.00     0.049 A 
ATOM     46  H   UNL A   1      44.103  27.789  27.763  1.00  0.00     0.167 HD
ATOM     47  C   UNL A   1      48.400  27.113  26.920  1.00  0.00     0.031 A 
ATOM     48  C   UNL A   1      41.903  29.226  28.692  1.00  0.00     0.031 A 
ATOM     49  C   UNL A   1      48.288  28.484  27.336  1.00  0.00     0.049 A 
ATOM     50  C   UNL A   1      43.101  30.133  28.808  1.00  0.00     0.074 A 
ATOM     51  C   UNL A   1      49.281  29.443  27.411  1.00  0.00     0.029 A 
ATOM     52  N   UNL A   1      47.111  29.088  27.753  1.00  0.00    -0.354 N 
ATOM     53  N   UNL A   1      44.353  29.886  28.498  1.00  0.00    -0.248 NA
ATOM     54  C   UNL A   1      42.866  31.485  29.329  1.00  0.00     0.031 C 
ATOM     55  C   UNL A   1      48.716  30.609  27.937  1.00  0.00     0.029 A 
ATOM     56  C   UNL A   1      47.357  30.400  28.112  1.00  0.00     0.049 A 
ATOM     57  H   UNL A   1      46.232  28.647  27.788  1.00  0.00     0.167 HD
ATOM     58  C   UNL A   1      45.046  31.067  28.746  1.00  0.00     0.074 A 
ATOM     59  C   UNL A   1      44.074  32.024  29.232  1.00  0.00     0.031 C 
ATOM     60  C   UNL A   1      46.363  31.337  28.575  1.00  0.00     0.031 A 
BRANCH  47  61
ATOM     61  C   UNL A   1      49.757  26.571  26.558  1.00  0.00    -0.014 A 
ATOM     62  C   UNL A   1      50.616  26.027  27.531  1.00  0.00     0.010 A 
ATOM     63  C   UNL A   1      50.167  26.577  25.212  1.00  0.00     0.010 A 
ATOM     64  C   UNL A   1      51.873  25.533  27.169  1.00  0.00     0.020 A 
ATOM     65  C   UNL A   1      51.409  26.054  24.842  1.00  0.00     0.020 A 
ATOM     66  C   UNL A   1      52.260  25.550  25.826  1.00  0.00     0.054 A 
BRANCH  66  67
ATOM     67  S   UNL A   1      53.885  24.877  25.381  1.00  0.00     0.124 S 
ATOM     68  O   UNL A   1      54.387  25.888  24.455  1.00  0.00    -0.237 OA
ATOM     69  O   UNL A   1      54.567  24.813  26.671  1.00  0.00    -0.237 OA
ATOM     70  O   UNL A   1      53.573  23.582  24.780  1.00  0.00    -0.744 OA
ENDBRANCH  66  67
ENDBRANCH  47  61
BRANCH  48  71
ATOM     71  C   UNL A   1      40.546  29.683  29.099  1.00  0.00    -0.014 A 
ATOM     72  C   UNL A   1      39.484  29.683  28.178  1.00  0.00     0.010 A 
ATOM     73  C   UNL A   1      40.306  30.109  30.419  1.00  0.00     0.010 A 
ATOM     74  C   UNL A   1      38.211  30.115  28.566  1.00  0.00     0.020 A 
ATOM     75  C   UNL A   1      39.028  30.512  30.818  1.00  0.00     0.020 A 
ATOM     76  C   UNL A   1      37.991  30.523  29.884  1.00  0.00     0.054 A 
BRANCH  76  77
ATOM     77  S   UNL A   1      36.320  31.032  30.373  1.00  0.00     0.124 S 
ATOM     78  O   UNL A   1      36.064  30.169  31.522  1.00  0.00    -0.237 OA
ATOM     79  O   UNL A   1      36.500  32.450  30.672  1.00  0.00    -0.237 OA
ATOM     80  O   UNL A   1      35.515  30.750  29.186  1.00  0.00    -0.744 OA
ENDBRANCH  76  77
ENDBRANCH  48  71
BRANCH  60  81
ATOM     81  C   UNL A   1      46.833  32.742  28.847  1.00  0.00    -0.014 A 
ATOM     82  C   UNL A   1      46.769  33.743  27.863  1.00  0.00     0.010 A 
ATOM     83  C   UNL A   1      47.243  33.082  30.150  1.00  0.00     0.010 A 
ATOM     84  C   UNL A   1      47.116  35.059  28.178  1.00  0.00     0.020 A 
ATOM     85  C   UNL A   1      47.560  34.401  30.476  1.00  0.00     0.020 A 
ATOM     86  C   UNL A   1      47.500  35.381  29.484  1.00  0.00     0.054 A 
BRANCH  86  87
ATOM     87  S   UNL A   1      47.861  37.113  29.885  1.00  0.00     0.124 S 
ATOM     88  O   UNL A   1      46.526  37.704  29.905  1.00  0.00    -0.237 OA
ATOM     89  O   UNL A   1      48.522  37.007  31.183  1.00  0.00    -0.237 OA
ATOM     90  O   UNL A   1      48.720  37.552  28.789  1.00  0.00    -0.744 OA
ENDBRANCH  86  87
ENDBRANCH  60  81
ENDBRANCH  34  35
ENDBRANCH  27  29
ENDBRANCH  26  27
ENDBRANCH  25  26
ENDBRANCH  24  25
ENDBRANCH   1  24
TORSDOF 21
ENDMDL
