MODEL 1
REMARK VINA RESULT:     -13.0      0.000      0.000
REMARK SMILES Cc1ccc(-c2cc(C(=O)OCCOCCOC(=O)c3ccc(-c4c5nc(c(-c6ccc(S(=O)(=O)[O-])cc6)c6ccc([nH]6)c(-c6ccc(S(=O)(=O)[O-])cc6)c6nc(c(-c7ccc(S(=O)(=O)[O-])cc7)c7ccc4[nH]7)C=C6)C=C5)cc3)c3c(-c4cccc([N+](=O)[O-])c4)[nH]nc3n2)cc1
REMARK SMILES IDX 15 1 14 2 13 3 12 4 11 5 9 6 10 7 8 8 6 9 7 10 94 11 93 12
REMARK SMILES IDX 80 13 92 14 81 15 91 16 5 18 1 19 2 20 3 21 96 22 4 23 95 24
REMARK SMILES IDX 82 25 83 26 90 27 84 28 86 29 85 30 87 31 88 32 89 33 16 34
REMARK SMILES IDX 17 35 18 36 19 37 20 38 21 39 79 40 22 41 78 42 23 43 24 44
REMARK SMILES IDX 25 45 72 46 26 47 77 48 71 49 73 50 27 51 76 52 70 53 69 54
REMARK SMILES IDX 28 56 58 57 39 58 57 59 40 60 43 61 56 62 74 63 41 64 42 65
REMARK SMILES IDX 55 67 75 68 44 69 29 70 30 71 38 72 31 73 37 74 32 75 33 76
REMARK SMILES IDX 34 77 35 78 36 79 59 80 60 81 68 82 61 83 67 84 62 85 63 86
REMARK SMILES IDX 64 87 65 88 66 89 45 90 46 91 54 92 47 93 53 94 48 95 49 96
REMARK SMILES IDX 50 97 51 98 52 99
REMARK H PARENT 91 17 73 55 43 66
REMARK Flexibility Score: inf
ROOT
ATOM      1  C   UNL A   1      31.793  31.236  26.626  1.00  0.00     0.202 C 
ENDROOT
BRANCH   1   2
ATOM      2  O   UNL A   1      32.362  30.382  25.682  1.00  0.00    -0.374 OA
BRANCH   2   3
ATOM      3  C   UNL A   1      31.884  29.053  25.704  1.00  0.00     0.202 C 
BRANCH   3   4
ATOM      4  C   UNL A   1      33.071  28.282  25.260  1.00  0.00     0.261 C 
BRANCH   4   5
ATOM      5  O   UNL A   1      33.216  27.059  26.033  1.00  0.00    -0.460 OA
BRANCH   5   6
ATOM      6  C   UNL A   1      32.467  25.921  25.932  1.00  0.00     0.339 C 
ATOM      7  O   UNL A   1      31.448  25.620  26.482  1.00  0.00    -0.246 OA
BRANCH   6   8
ATOM      8  C   UNL A   1      33.162  25.084  24.961  1.00  0.00     0.075 A 
ATOM      9  C   UNL A   1      35.112  23.649  24.504  1.00  0.00     0.074 A 
ATOM     10  C   UNL A   1      34.270  24.347  25.379  1.00  0.00     0.045 A 
ATOM     11  N   UNL A   1      34.950  23.571  23.152  1.00  0.00    -0.226 NA
ATOM     12  C   UNL A   1      33.817  24.206  22.714  1.00  0.00     0.182 A 
ATOM     13  C   UNL A   1      32.941  24.944  23.592  1.00  0.00     0.061 A 
ATOM     14  N   UNL A   1      33.385  24.263  21.453  1.00  0.00    -0.154 NA
ATOM     15  C   UNL A   1      31.927  25.445  22.787  1.00  0.00     0.076 A 
ATOM     16  N   UNL A   1      32.237  24.966  21.534  1.00  0.00    -0.275 N 
ATOM     17  H   UNL A   1      31.660  25.125  20.752  1.00  0.00     0.190 HD
BRANCH   9  18
ATOM     18  C   UNL A   1      36.280  23.023  25.155  1.00  0.00     0.000 A 
ATOM     19  C   UNL A   1      40.159  21.537  26.400  1.00  0.00     0.044 C 
ATOM     20  C   UNL A   1      38.818  22.054  25.971  1.00  0.00    -0.051 A 
ATOM     21  C   UNL A   1      37.929  21.235  25.262  1.00  0.00     0.004 A 
ATOM     22  C   UNL A   1      38.435  23.361  26.274  1.00  0.00     0.004 A 
ATOM     23  C   UNL A   1      36.674  21.713  24.856  1.00  0.00     0.010 A 
ATOM     24  C   UNL A   1      37.182  23.833  25.879  1.00  0.00     0.010 A 
ENDBRANCH   9  18
BRANCH  15  25
ATOM     25  C   UNL A   1      30.722  26.250  23.009  1.00  0.00     0.007 A 
ATOM     26  C   UNL A   1      29.617  25.718  23.692  1.00  0.00     0.011 A 
ATOM     27  C   UNL A   1      30.665  27.582  22.572  1.00  0.00     0.096 A 
ATOM     28  C   UNL A   1      28.493  26.508  23.970  1.00  0.00     0.008 A 
ATOM     29  C   UNL A   1      29.546  28.377  22.881  1.00  0.00     0.270 A 
ATOM     30  C   UNL A   1      28.456  27.844  23.579  1.00  0.00     0.085 A 
BRANCH  29  31
ATOM     31  N   UNL A   1      29.536  29.799  22.510  1.00  0.00     0.062 N 
ATOM     32  O   UNL A   1      29.413  30.636  23.418  1.00  0.00    -0.258 OA
ATOM     33  O   UNL A   1      29.653  30.088  21.309  1.00  0.00    -0.258 OA
ENDBRANCH  29  31
ENDBRANCH  15  25
ENDBRANCH   6   8
ENDBRANCH   5   6
ENDBRANCH   4   5
ENDBRANCH   3   4
ENDBRANCH   2   3
ENDBRANCH   1   2
BRANCH   1  34
ATOM     34  C   UNL A   1      32.908  31.857  27.451  1.00  0.00     0.261 C 
BRANCH  34  35
ATOM     35  O   UNL A   1      33.994  30.913  27.667  1.00  0.00    -0.460 OA
BRANCH  35  36
ATOM     36  C   UNL A   1      35.278  31.394  27.779  1.00  0.00     0.338 C 
ATOM     37  O   UNL A   1      35.583  32.558  27.582  1.00  0.00    -0.246 OA
BRANCH  36  38
ATOM     38  C   UNL A   1      36.221  30.339  28.283  1.00  0.00     0.060 A 
ATOM     39  C   UNL A   1      36.135  29.767  29.568  1.00  0.00     0.016 A 
ATOM     40  C   UNL A   1      37.340  30.081  27.512  1.00  0.00     0.016 A 
ATOM     41  C   UNL A   1      37.247  29.100  30.140  1.00  0.00     0.010 A 
ATOM     42  C   UNL A   1      38.444  29.510  28.104  1.00  0.00     0.010 A 
ATOM     43  C   UNL A   1      38.442  29.052  29.432  1.00  0.00    -0.014 A 
BRANCH  43  44
ATOM     44  C   UNL A   1      39.778  28.609  29.880  1.00  0.00     0.031 A 
ATOM     45  C   UNL A   1      40.245  27.299  29.362  1.00  0.00     0.074 A 
ATOM     46  C   UNL A   1      40.692  29.492  30.366  1.00  0.00     0.049 A 
ATOM     47  N   UNL A   1      41.390  26.791  29.637  1.00  0.00    -0.248 NA
ATOM     48  C   UNL A   1      39.450  26.425  28.494  1.00  0.00     0.031 C 
ATOM     49  C   UNL A   1      42.152  29.513  30.193  1.00  0.00     0.029 A 
ATOM     50  N   UNL A   1      40.476  30.654  31.095  1.00  0.00    -0.354 N 
ATOM     51  C   UNL A   1      41.623  25.768  28.751  1.00  0.00     0.074 A 
ATOM     52  C   UNL A   1      40.345  25.492  28.150  1.00  0.00     0.031 C 
ATOM     53  C   UNL A   1      42.697  30.466  30.977  1.00  0.00     0.029 A 
ATOM     54  C   UNL A   1      41.629  31.030  31.788  1.00  0.00     0.049 A 
ATOM     55  H   UNL A   1      39.624  31.146  31.121  1.00  0.00     0.167 HD
ATOM     56  C   UNL A   1      42.913  25.391  28.546  1.00  0.00     0.031 A 
ATOM     57  C   UNL A   1      41.573  31.161  33.142  1.00  0.00     0.031 A 
ATOM     58  C   UNL A   1      43.807  26.090  29.483  1.00  0.00     0.049 A 
ATOM     59  C   UNL A   1      42.338  29.990  33.699  1.00  0.00     0.074 A 
ATOM     60  C   UNL A   1      44.742  27.100  29.339  1.00  0.00     0.029 A 
ATOM     61  N   UNL A   1      43.542  25.998  30.850  1.00  0.00    -0.354 N 
ATOM     62  N   UNL A   1      42.527  28.892  33.012  1.00  0.00    -0.248 NA
ATOM     63  C   UNL A   1      43.089  30.008  34.947  1.00  0.00     0.031 C 
ATOM     64  C   UNL A   1      44.954  27.679  30.629  1.00  0.00     0.029 A 
ATOM     65  C   UNL A   1      44.177  26.999  31.560  1.00  0.00     0.049 A 
ATOM     66  H   UNL A   1      42.974  25.305  31.258  1.00  0.00     0.167 HD
ATOM     67  C   UNL A   1      43.505  28.157  33.597  1.00  0.00     0.074 A 
ATOM     68  C   UNL A   1      43.782  28.858  34.842  1.00  0.00     0.031 C 
ATOM     69  C   UNL A   1      44.060  27.055  33.017  1.00  0.00     0.031 A 
BRANCH  56  70
ATOM     70  C   UNL A   1      43.408  24.547  27.390  1.00  0.00    -0.014 A 
ATOM     71  C   UNL A   1      43.275  23.145  27.469  1.00  0.00     0.010 A 
ATOM     72  C   UNL A   1      44.056  25.038  26.237  1.00  0.00     0.010 A 
ATOM     73  C   UNL A   1      43.756  22.289  26.467  1.00  0.00     0.020 A 
ATOM     74  C   UNL A   1      44.527  24.195  25.216  1.00  0.00     0.020 A 
ATOM     75  C   UNL A   1      44.376  22.820  25.339  1.00  0.00     0.054 A 
BRANCH  75  76
ATOM     76  S   UNL A   1      44.967  21.697  24.047  1.00  0.00     0.124 S 
ATOM     77  O   UNL A   1      46.418  21.823  24.167  1.00  0.00    -0.237 OA
ATOM     78  O   UNL A   1      44.408  20.415  24.464  1.00  0.00    -0.237 OA
ATOM     79  O   UNL A   1      44.400  22.250  22.819  1.00  0.00    -0.744 OA
ENDBRANCH  75  76
ENDBRANCH  56  70
BRANCH  57  80
ATOM     80  C   UNL A   1      40.278  31.784  33.603  1.00  0.00    -0.014 A 
ATOM     81  C   UNL A   1      39.308  30.917  34.171  1.00  0.00     0.010 A 
ATOM     82  C   UNL A   1      40.219  33.145  33.962  1.00  0.00     0.010 A 
ATOM     83  C   UNL A   1      38.412  31.362  35.164  1.00  0.00     0.020 A 
ATOM     84  C   UNL A   1      39.352  33.585  34.985  1.00  0.00     0.020 A 
ATOM     85  C   UNL A   1      38.482  32.684  35.610  1.00  0.00     0.054 A 
BRANCH  85  86
ATOM     86  S   UNL A   1      37.735  33.115  37.235  1.00  0.00     0.124 S 
ATOM     87  O   UNL A   1      36.337  33.338  36.893  1.00  0.00    -0.237 OA
ATOM     88  O   UNL A   1      38.001  31.926  38.046  1.00  0.00    -0.237 OA
ATOM     89  O   UNL A   1      38.494  34.293  37.640  1.00  0.00    -0.744 OA
ENDBRANCH  85  86
ENDBRANCH  57  80
BRANCH  69  90
ATOM     90  C   UNL A   1      44.575  25.913  33.841  1.00  0.00    -0.014 A 
ATOM     91  C   UNL A   1      43.756  25.184  34.718  1.00  0.00     0.010 A 
ATOM     92  C   UNL A   1      45.877  25.419  33.610  1.00  0.00     0.010 A 
ATOM     93  C   UNL A   1      44.243  24.085  35.416  1.00  0.00     0.020 A 
ATOM     94  C   UNL A   1      46.350  24.273  34.241  1.00  0.00     0.020 A 
ATOM     95  C   UNL A   1      45.540  23.641  35.177  1.00  0.00     0.054 A 
BRANCH  95  96
ATOM     96  S   UNL A   1      46.140  22.214  36.096  1.00  0.00     0.124 S 
ATOM     97  O   UNL A   1      47.585  22.341  35.921  1.00  0.00    -0.237 OA
ATOM     98  O   UNL A   1      45.646  22.474  37.447  1.00  0.00    -0.237 OA
ATOM     99  O   UNL A   1      45.523  21.079  35.417  1.00  0.00    -0.744 OA
ENDBRANCH  95  96
ENDBRANCH  69  90
ENDBRANCH  43  44
ENDBRANCH  36  38
ENDBRANCH  35  36
ENDBRANCH  34  35
ENDBRANCH   1  34
TORSDOF 20
ENDMDL
MODEL 2
REMARK VINA RESULT:     -12.6      2.098      4.913
REMARK SMILES Cc1ccc(-c2cc(C(=O)OCCOCCOC(=O)c3ccc(-c4c5nc(c(-c6ccc(S(=O)(=O)[O-])cc6)c6ccc([nH]6)c(-c6ccc(S(=O)(=O)[O-])cc6)c6nc(c(-c7ccc(S(=O)(=O)[O-])cc7)c7ccc4[nH]7)C=C6)C=C5)cc3)c3c(-c4cccc([N+](=O)[O-])c4)[nH]nc3n2)cc1
REMARK SMILES IDX 15 1 14 2 13 3 12 4 11 5 9 6 10 7 8 8 6 9 7 10 94 11 93 12
REMARK SMILES IDX 80 13 92 14 81 15 91 16 5 18 1 19 2 20 3 21 96 22 4 23 95 24
REMARK SMILES IDX 82 25 83 26 90 27 84 28 86 29 85 30 87 31 88 32 89 33 16 34
REMARK SMILES IDX 17 35 18 36 19 37 20 38 21 39 79 40 22 41 78 42 23 43 24 44
REMARK SMILES IDX 25 45 72 46 26 47 77 48 71 49 73 50 27 51 76 52 70 53 69 54
REMARK SMILES IDX 28 56 58 57 39 58 57 59 40 60 43 61 56 62 74 63 41 64 42 65
REMARK SMILES IDX 55 67 75 68 44 69 29 70 30 71 38 72 31 73 37 74 32 75 33 76
REMARK SMILES IDX 34 77 35 78 36 79 59 80 60 81 68 82 61 83 67 84 62 85 63 86
REMARK SMILES IDX 64 87 65 88 66 89 45 90 46 91 54 92 47 93 53 94 48 95 49 96
REMARK SMILES IDX 50 97 51 98 52 99
REMARK H PARENT 91 17 73 55 43 66
REMARK Flexibility Score: inf
ROOT
ATOM      1  C   UNL A   1      32.244  28.665  27.527  1.00  0.00     0.202 C 
ENDROOT
BRANCH   1   2
ATOM      2  O   UNL A   1      32.342  27.425  26.897  1.00  0.00    -0.374 OA
BRANCH   2   3
ATOM      3  C   UNL A   1      33.600  27.137  26.322  1.00  0.00     0.202 C 
BRANCH   3   4
ATOM      4  C   UNL A   1      33.519  25.673  26.099  1.00  0.00     0.261 C 
BRANCH   4   5
ATOM      5  O   UNL A   1      32.169  25.186  26.329  1.00  0.00    -0.460 OA
BRANCH   5   6
ATOM      6  C   UNL A   1      31.369  24.517  25.446  1.00  0.00     0.339 C 
ATOM      7  O   UNL A   1      30.747  23.504  25.588  1.00  0.00    -0.246 OA
BRANCH   6   8
ATOM      8  C   UNL A   1      31.393  25.309  24.222  1.00  0.00     0.075 A 
ATOM      9  C   UNL A   1      30.541  27.296  23.040  1.00  0.00     0.074 A 
ATOM     10  C   UNL A   1      30.730  26.536  24.201  1.00  0.00     0.045 A 
ATOM     11  N   UNL A   1      30.997  26.961  21.799  1.00  0.00    -0.226 NA
ATOM     12  C   UNL A   1      31.735  25.806  21.797  1.00  0.00     0.182 A 
ATOM     13  C   UNL A   1      31.933  24.998  22.975  1.00  0.00     0.061 A 
ATOM     14  N   UNL A   1      32.336  25.258  20.738  1.00  0.00    -0.154 NA
ATOM     15  C   UNL A   1      32.712  23.921  22.575  1.00  0.00     0.076 A 
ATOM     16  N   UNL A   1      32.945  24.165  21.240  1.00  0.00    -0.275 N 
ATOM     17  H   UNL A   1      33.518  23.583  20.690  1.00  0.00     0.190 HD
BRANCH   9  18
ATOM     18  C   UNL A   1      29.724  28.510  23.234  1.00  0.00     0.000 A 
ATOM     19  C   UNL A   1      27.625  32.298  23.014  1.00  0.00     0.044 C 
ATOM     20  C   UNL A   1      28.348  30.986  23.088  1.00  0.00    -0.051 A 
ATOM     21  C   UNL A   1      29.558  30.876  23.786  1.00  0.00     0.004 A 
ATOM     22  C   UNL A   1      27.824  29.854  22.463  1.00  0.00     0.004 A 
ATOM     23  C   UNL A   1      30.241  29.651  23.858  1.00  0.00     0.010 A 
ATOM     24  C   UNL A   1      28.498  28.635  22.544  1.00  0.00     0.010 A 
ENDBRANCH   9  18
BRANCH  15  25
ATOM     25  C   UNL A   1      33.291  22.749  23.239  1.00  0.00     0.007 A 
ATOM     26  C   UNL A   1      34.504  22.846  23.939  1.00  0.00     0.011 A 
ATOM     27  C   UNL A   1      32.624  21.516  23.215  1.00  0.00     0.096 A 
ATOM     28  C   UNL A   1      35.023  21.746  24.637  1.00  0.00     0.008 A 
ATOM     29  C   UNL A   1      33.136  20.424  23.941  1.00  0.00     0.270 A 
ATOM     30  C   UNL A   1      34.336  20.533  24.654  1.00  0.00     0.085 A 
BRANCH  29  31
ATOM     31  N   UNL A   1      32.379  19.165  23.996  1.00  0.00     0.062 N 
ATOM     32  O   UNL A   1      32.087  18.615  22.924  1.00  0.00    -0.258 OA
ATOM     33  O   UNL A   1      32.074  18.719  25.113  1.00  0.00    -0.258 OA
ENDBRANCH  29  31
ENDBRANCH  15  25
ENDBRANCH   6   8
ENDBRANCH   5   6
ENDBRANCH   4   5
ENDBRANCH   3   4
ENDBRANCH   2   3
ENDBRANCH   1   2
BRANCH   1  34
ATOM     34  C   UNL A   1      33.186  29.636  26.835  1.00  0.00     0.261 C 
BRANCH  34  35
ATOM     35  O   UNL A   1      33.386  30.837  27.632  1.00  0.00    -0.460 OA
BRANCH  35  36
ATOM     36  C   UNL A   1      34.635  31.411  27.663  1.00  0.00     0.338 C 
ATOM     37  O   UNL A   1      34.848  32.582  27.396  1.00  0.00    -0.246 OA
BRANCH  36  38
ATOM     38  C   UNL A   1      35.672  30.452  28.175  1.00  0.00     0.060 A 
ATOM     39  C   UNL A   1      35.575  29.789  29.416  1.00  0.00     0.016 A 
ATOM     40  C   UNL A   1      36.864  30.389  27.478  1.00  0.00     0.016 A 
ATOM     41  C   UNL A   1      36.722  29.231  30.031  1.00  0.00     0.010 A 
ATOM     42  C   UNL A   1      37.990  29.922  28.118  1.00  0.00     0.010 A 
ATOM     43  C   UNL A   1      37.959  29.381  29.414  1.00  0.00    -0.014 A 
BRANCH  43  44
ATOM     44  C   UNL A   1      39.307  29.080  29.935  1.00  0.00     0.031 A 
ATOM     45  C   UNL A   1      39.939  27.830  29.446  1.00  0.00     0.074 A 
ATOM     46  C   UNL A   1      40.095  30.053  30.469  1.00  0.00     0.049 A 
ATOM     47  N   UNL A   1      41.115  27.445  29.784  1.00  0.00    -0.248 NA
ATOM     48  C   UNL A   1      39.291  26.880  28.536  1.00  0.00     0.031 C 
ATOM     49  C   UNL A   1      41.551  30.230  30.377  1.00  0.00     0.029 A 
ATOM     50  N   UNL A   1      39.717  31.183  31.183  1.00  0.00    -0.354 N 
ATOM     51  C   UNL A   1      41.503  26.456  28.914  1.00  0.00     0.074 A 
ATOM     52  C   UNL A   1      40.297  26.049  28.244  1.00  0.00     0.031 C 
ATOM     53  C   UNL A   1      41.949  31.233  31.187  1.00  0.00     0.029 A 
ATOM     54  C   UNL A   1      40.783  31.676  31.938  1.00  0.00     0.049 A 
ATOM     55  H   UNL A   1      38.817  31.582  31.161  1.00  0.00     0.167 HD
ATOM     56  C   UNL A   1      42.836  26.219  28.781  1.00  0.00     0.031 A 
ATOM     57  C   UNL A   1      40.640  31.796  33.286  1.00  0.00     0.031 A 
ATOM     58  C   UNL A   1      43.598  27.005  29.764  1.00  0.00     0.049 A 
ATOM     59  C   UNL A   1      41.494  30.710  33.886  1.00  0.00     0.074 A 
ATOM     60  C   UNL A   1      44.426  28.110  29.670  1.00  0.00     0.029 A 
ATOM     61  N   UNL A   1      43.269  26.880  31.115  1.00  0.00    -0.354 N 
ATOM     62  N   UNL A   1      41.836  29.641  33.213  1.00  0.00    -0.248 NA
ATOM     63  C   UNL A   1      42.169  30.802  35.174  1.00  0.00     0.031 C 
ATOM     64  C   UNL A   1      44.504  28.702  30.969  1.00  0.00     0.029 A 
ATOM     65  C   UNL A   1      43.754  27.940  31.857  1.00  0.00     0.049 A 
ATOM     66  H   UNL A   1      42.756  26.129  31.492  1.00  0.00     0.167 HD
ATOM     67  C   UNL A   1      42.853  29.012  33.852  1.00  0.00     0.074 A 
ATOM     68  C   UNL A   1      42.984  29.733  35.109  1.00  0.00     0.031 C 
ATOM     69  C   UNL A   1      43.552  27.977  33.305  1.00  0.00     0.031 A 
BRANCH  56  70
ATOM     70  C   UNL A   1      43.480  25.437  27.655  1.00  0.00    -0.014 A 
ATOM     71  C   UNL A   1      44.062  24.186  27.946  1.00  0.00     0.010 A 
ATOM     72  C   UNL A   1      43.605  25.878  26.320  1.00  0.00     0.010 A 
ATOM     73  C   UNL A   1      44.726  23.423  26.972  1.00  0.00     0.020 A 
ATOM     74  C   UNL A   1      44.252  25.118  25.330  1.00  0.00     0.020 A 
ATOM     75  C   UNL A   1      44.812  23.892  25.665  1.00  0.00     0.054 A 
BRANCH  75  76
ATOM     76  S   UNL A   1      45.652  22.879  24.419  1.00  0.00     0.124 S 
ATOM     77  O   UNL A   1      46.249  21.822  25.232  1.00  0.00    -0.237 OA
ATOM     78  O   UNL A   1      44.551  22.466  23.555  1.00  0.00    -0.237 OA
ATOM     79  O   UNL A   1      46.607  23.801  23.808  1.00  0.00    -0.744 OA
ENDBRANCH  75  76
ENDBRANCH  56  70
BRANCH  57  80
ATOM     80  C   UNL A   1      39.263  32.275  33.674  1.00  0.00    -0.014 A 
ATOM     81  C   UNL A   1      38.946  33.631  33.396  1.00  0.00     0.010 A 
ATOM     82  C   UNL A   1      38.189  31.370  33.789  1.00  0.00     0.010 A 
ATOM     83  C   UNL A   1      37.629  34.035  33.102  1.00  0.00     0.020 A 
ATOM     84  C   UNL A   1      36.874  31.763  33.455  1.00  0.00     0.020 A 
ATOM     85  C   UNL A   1      36.607  33.083  33.073  1.00  0.00     0.054 A 
BRANCH  85  86
ATOM     86  S   UNL A   1      35.050  33.475  32.175  1.00  0.00     0.124 S 
ATOM     87  O   UNL A   1      34.024  33.085  33.133  1.00  0.00    -0.237 OA
ATOM     88  O   UNL A   1      35.164  34.913  31.928  1.00  0.00    -0.237 OA
ATOM     89  O   UNL A   1      35.152  32.654  30.973  1.00  0.00    -0.744 OA
ENDBRANCH  85  86
ENDBRANCH  57  80
BRANCH  69  90
ATOM     90  C   UNL A   1      44.140  26.893  34.158  1.00  0.00    -0.014 A 
ATOM     91  C   UNL A   1      43.368  25.846  34.687  1.00  0.00     0.010 A 
ATOM     92  C   UNL A   1      45.542  26.800  34.298  1.00  0.00     0.010 A 
ATOM     93  C   UNL A   1      43.952  24.815  35.415  1.00  0.00     0.020 A 
ATOM     94  C   UNL A   1      46.144  25.731  34.955  1.00  0.00     0.020 A 
ATOM     95  C   UNL A   1      45.336  24.769  35.549  1.00  0.00     0.054 A 
BRANCH  95  96
ATOM     96  S   UNL A   1      46.060  23.421  36.497  1.00  0.00     0.124 S 
ATOM     97  O   UNL A   1      45.140  22.327  36.196  1.00  0.00    -0.237 OA
ATOM     98  O   UNL A   1      47.393  23.298  35.911  1.00  0.00    -0.237 OA
ATOM     99  O   UNL A   1      46.029  23.906  37.872  1.00  0.00    -0.744 OA
ENDBRANCH  95  96
ENDBRANCH  69  90
ENDBRANCH  43  44
ENDBRANCH  36  38
ENDBRANCH  35  36
ENDBRANCH  34  35
ENDBRANCH   1  34
TORSDOF 20
ENDMDL
MODEL 3
REMARK VINA RESULT:     -12.4      3.937      9.733
REMARK SMILES Cc1ccc(-c2cc(C(=O)OCCOCCOC(=O)c3ccc(-c4c5nc(c(-c6ccc(S(=O)(=O)[O-])cc6)c6ccc([nH]6)c(-c6ccc(S(=O)(=O)[O-])cc6)c6nc(c(-c7ccc(S(=O)(=O)[O-])cc7)c7ccc4[nH]7)C=C6)C=C5)cc3)c3c(-c4cccc([N+](=O)[O-])c4)[nH]nc3n2)cc1
REMARK SMILES IDX 15 1 14 2 13 3 12 4 11 5 9 6 10 7 8 8 6 9 7 10 94 11 93 12
REMARK SMILES IDX 80 13 92 14 81 15 91 16 5 18 1 19 2 20 3 21 96 22 4 23 95 24
REMARK SMILES IDX 82 25 83 26 90 27 84 28 86 29 85 30 87 31 88 32 89 33 16 34
REMARK SMILES IDX 17 35 18 36 19 37 20 38 21 39 79 40 22 41 78 42 23 43 24 44
REMARK SMILES IDX 25 45 72 46 26 47 77 48 71 49 73 50 27 51 76 52 70 53 69 54
REMARK SMILES IDX 28 56 58 57 39 58 57 59 40 60 43 61 56 62 74 63 41 64 42 65
REMARK SMILES IDX 55 67 75 68 44 69 29 70 30 71 38 72 31 73 37 74 32 75 33 76
REMARK SMILES IDX 34 77 35 78 36 79 59 80 60 81 68 82 61 83 67 84 62 85 63 86
REMARK SMILES IDX 64 87 65 88 66 89 45 90 46 91 54 92 47 93 53 94 48 95 49 96
REMARK SMILES IDX 50 97 51 98 52 99
REMARK H PARENT 91 17 73 55 43 66
REMARK Flexibility Score: inf
ROOT
ATOM      1  C   UNL A   1      36.503  22.309  25.652  1.00  0.00     0.202 C 
ENDROOT
BRANCH   1   2
ATOM      2  O   UNL A   1      35.893  22.425  24.404  1.00  0.00    -0.374 OA
BRANCH   2   3
ATOM      3  C   UNL A   1      35.908  23.721  23.842  1.00  0.00     0.202 C 
BRANCH   3   4
ATOM      4  C   UNL A   1      35.036  24.480  24.772  1.00  0.00     0.261 C 
BRANCH   4   5
ATOM      5  O   UNL A   1      33.997  25.192  24.045  1.00  0.00    -0.460 OA
BRANCH   5   6
ATOM      6  C   UNL A   1      32.936  24.651  23.375  1.00  0.00     0.339 C 
ATOM      7  O   UNL A   1      32.543  24.858  22.263  1.00  0.00    -0.246 OA
BRANCH   6   8
ATOM      8  C   UNL A   1      32.332  23.704  24.304  1.00  0.00     0.075 A 
ATOM      9  C   UNL A   1      31.963  21.337  24.880  1.00  0.00     0.074 A 
ATOM     10  C   UNL A   1      32.616  22.346  24.161  1.00  0.00     0.045 A 
ATOM     11  N   UNL A   1      30.999  21.541  25.822  1.00  0.00    -0.226 NA
ATOM     12  C   UNL A   1      30.759  22.870  26.058  1.00  0.00     0.182 A 
ATOM     13  C   UNL A   1      31.406  23.928  25.322  1.00  0.00     0.061 A 
ATOM     14  N   UNL A   1      29.899  23.368  26.950  1.00  0.00    -0.154 NA
ATOM     15  C   UNL A   1      30.900  25.115  25.833  1.00  0.00     0.076 A 
ATOM     16  N   UNL A   1      30.039  24.703  26.825  1.00  0.00    -0.275 N 
ATOM     17  H   UNL A   1      29.558  25.339  27.403  1.00  0.00     0.190 HD
BRANCH   9  18
ATOM     18  C   UNL A   1      32.354  19.966  24.494  1.00  0.00     0.000 A 
ATOM     19  C   UNL A   1      34.259  16.314  23.138  1.00  0.00     0.044 C 
ATOM     20  C   UNL A   1      33.602  17.577  23.611  1.00  0.00    -0.051 A 
ATOM     21  C   UNL A   1      32.729  18.284  22.773  1.00  0.00     0.004 A 
ATOM     22  C   UNL A   1      33.850  18.065  24.894  1.00  0.00     0.004 A 
ATOM     23  C   UNL A   1      32.111  19.468  23.209  1.00  0.00     0.010 A 
ATOM     24  C   UNL A   1      33.227  19.236  25.330  1.00  0.00     0.010 A 
ENDBRANCH   9  18
BRANCH  15  25
ATOM     25  C   UNL A   1      31.121  26.541  25.572  1.00  0.00     0.007 A 
ATOM     26  C   UNL A   1      32.017  27.285  26.355  1.00  0.00     0.011 A 
ATOM     27  C   UNL A   1      30.465  27.180  24.509  1.00  0.00     0.096 A 
ATOM     28  C   UNL A   1      32.286  28.630  26.061  1.00  0.00     0.008 A 
ATOM     29  C   UNL A   1      30.761  28.521  24.202  1.00  0.00     0.270 A 
ATOM     30  C   UNL A   1      31.671  29.251  24.976  1.00  0.00     0.085 A 
BRANCH  29  31
ATOM     31  N   UNL A   1      30.148  29.153  23.026  1.00  0.00     0.062 N 
ATOM     32  O   UNL A   1      30.119  28.507  21.967  1.00  0.00    -0.258 OA
ATOM     33  O   UNL A   1      29.691  30.300  23.154  1.00  0.00    -0.258 OA
ENDBRANCH  29  31
ENDBRANCH  15  25
ENDBRANCH   6   8
ENDBRANCH   5   6
ENDBRANCH   4   5
ENDBRANCH   3   4
ENDBRANCH   2   3
ENDBRANCH   1   2
BRANCH   1  34
ATOM     34  C   UNL A   1      37.662  21.334  25.536  1.00  0.00     0.261 C 
BRANCH  34  35
ATOM     35  O   UNL A   1      38.937  22.034  25.489  1.00  0.00    -0.460 OA
BRANCH  35  36
ATOM     36  C   UNL A   1      39.544  22.386  26.672  1.00  0.00     0.338 C 
ATOM     37  O   UNL A   1      40.026  21.580  27.451  1.00  0.00    -0.246 OA
BRANCH  36  38
ATOM     38  C   UNL A   1      39.640  23.877  26.823  1.00  0.00     0.060 A 
ATOM     39  C   UNL A   1      40.202  24.724  25.845  1.00  0.00     0.016 A 
ATOM     40  C   UNL A   1      39.345  24.401  28.068  1.00  0.00     0.016 A 
ATOM     41  C   UNL A   1      40.636  26.030  26.181  1.00  0.00     0.010 A 
ATOM     42  C   UNL A   1      39.846  25.637  28.410  1.00  0.00     0.010 A 
ATOM     43  C   UNL A   1      40.538  26.455  27.502  1.00  0.00    -0.014 A 
BRANCH  43  44
ATOM     44  C   UNL A   1      41.095  27.664  28.139  1.00  0.00     0.031 A 
ATOM     45  C   UNL A   1      40.137  28.763  28.417  1.00  0.00     0.074 A 
ATOM     46  C   UNL A   1      42.275  27.630  28.816  1.00  0.00     0.049 A 
ATOM     47  N   UNL A   1      40.462  29.864  28.990  1.00  0.00    -0.248 NA
ATOM     48  C   UNL A   1      38.717  28.730  28.056  1.00  0.00     0.031 C 
ATOM     49  C   UNL A   1      42.671  28.342  30.038  1.00  0.00     0.029 A 
ATOM     50  N   UNL A   1      43.397  26.850  28.566  1.00  0.00    -0.354 N 
ATOM     51  C   UNL A   1      39.306  30.493  29.382  1.00  0.00     0.074 A 
ATOM     52  C   UNL A   1      38.251  29.823  28.669  1.00  0.00     0.031 C 
ATOM     53  C   UNL A   1      43.984  28.153  30.281  1.00  0.00     0.029 A 
ATOM     54  C   UNL A   1      44.533  27.406  29.159  1.00  0.00     0.049 A 
ATOM     55  H   UNL A   1      43.392  26.018  28.041  1.00  0.00     0.167 HD
ATOM     56  C   UNL A   1      39.394  31.414  30.380  1.00  0.00     0.031 A 
ATOM     57  C   UNL A   1      45.602  27.717  28.376  1.00  0.00     0.031 A 
ATOM     58  C   UNL A   1      40.803  31.659  30.728  1.00  0.00     0.049 A 
ATOM     59  C   UNL A   1      45.633  29.221  28.305  1.00  0.00     0.074 A 
ATOM     60  C   UNL A   1      41.589  31.330  31.818  1.00  0.00     0.029 A 
ATOM     61  N   UNL A   1      41.683  32.035  29.712  1.00  0.00    -0.354 N 
ATOM     62  N   UNL A   1      44.570  29.950  28.527  1.00  0.00    -0.248 NA
ATOM     63  C   UNL A   1      46.843  30.021  28.168  1.00  0.00     0.031 C 
ATOM     64  C   UNL A   1      42.956  31.418  31.405  1.00  0.00     0.029 A 
ATOM     65  C   UNL A   1      43.000  31.832  30.080  1.00  0.00     0.049 A 
ATOM     66  H   UNL A   1      41.401  32.401  28.843  1.00  0.00     0.167 HD
ATOM     67  C   UNL A   1      44.941  31.239  28.729  1.00  0.00     0.074 A 
ATOM     68  C   UNL A   1      46.364  31.252  28.427  1.00  0.00     0.031 C 
ATOM     69  C   UNL A   1      44.083  32.204  29.169  1.00  0.00     0.031 A 
BRANCH  56  70
ATOM     70  C   UNL A   1      38.229  31.957  31.179  1.00  0.00    -0.014 A 
ATOM     71  C   UNL A   1      37.861  33.307  31.009  1.00  0.00     0.010 A 
ATOM     72  C   UNL A   1      37.492  31.236  32.144  1.00  0.00     0.010 A 
ATOM     73  C   UNL A   1      36.828  33.903  31.751  1.00  0.00     0.020 A 
ATOM     74  C   UNL A   1      36.443  31.813  32.882  1.00  0.00     0.020 A 
ATOM     75  C   UNL A   1      36.119  33.149  32.681  1.00  0.00     0.054 A 
BRANCH  75  76
ATOM     76  S   UNL A   1      34.774  33.931  33.609  1.00  0.00     0.124 S 
ATOM     77  O   UNL A   1      35.222  33.777  34.991  1.00  0.00    -0.237 OA
ATOM     78  O   UNL A   1      34.786  35.295  33.089  1.00  0.00    -0.237 OA
ATOM     79  O   UNL A   1      33.598  33.141  33.250  1.00  0.00    -0.744 OA
ENDBRANCH  75  76
ENDBRANCH  56  70
BRANCH  57  80
ATOM     80  C   UNL A   1      45.841  26.688  27.299  1.00  0.00    -0.014 A 
ATOM     81  C   UNL A   1      46.381  25.439  27.704  1.00  0.00     0.010 A 
ATOM     82  C   UNL A   1      45.106  26.716  26.098  1.00  0.00     0.010 A 
ATOM     83  C   UNL A   1      46.077  24.246  27.018  1.00  0.00     0.020 A 
ATOM     84  C   UNL A   1      44.765  25.518  25.432  1.00  0.00     0.020 A 
ATOM     85  C   UNL A   1      45.217  24.286  25.918  1.00  0.00     0.054 A 
BRANCH  85  86
ATOM     86  S   UNL A   1      44.392  22.734  25.377  1.00  0.00     0.124 S 
ATOM     87  O   UNL A   1      43.130  22.775  26.103  1.00  0.00    -0.237 OA
ATOM     88  O   UNL A   1      44.288  22.903  23.927  1.00  0.00    -0.237 OA
ATOM     89  O   UNL A   1      45.338  21.702  25.790  1.00  0.00    -0.744 OA
ENDBRANCH  85  86
ENDBRANCH  57  80
BRANCH  69  90
ATOM     90  C   UNL A   1      44.243  33.638  28.760  1.00  0.00    -0.014 A 
ATOM     91  C   UNL A   1      44.239  34.045  27.417  1.00  0.00     0.010 A 
ATOM     92  C   UNL A   1      44.214  34.649  29.745  1.00  0.00     0.010 A 
ATOM     93  C   UNL A   1      44.317  35.389  27.070  1.00  0.00     0.020 A 
ATOM     94  C   UNL A   1      44.210  35.999  29.409  1.00  0.00     0.020 A 
ATOM     95  C   UNL A   1      44.309  36.357  28.070  1.00  0.00     0.054 A 
BRANCH  95  96
ATOM     96  S   UNL A   1      44.409  38.088  27.587  1.00  0.00     0.124 S 
ATOM     97  O   UNL A   1      44.371  38.755  28.887  1.00  0.00    -0.237 OA
ATOM     98  O   UNL A   1      45.690  38.151  26.887  1.00  0.00    -0.237 OA
ATOM     99  O   UNL A   1      43.232  38.284  26.747  1.00  0.00    -0.744 OA
ENDBRANCH  95  96
ENDBRANCH  69  90
ENDBRANCH  43  44
ENDBRANCH  36  38
ENDBRANCH  35  36
ENDBRANCH  34  35
ENDBRANCH   1  34
TORSDOF 20
ENDMDL
