MODEL 1
REMARK VINA RESULT:     -10.6      0.000      0.000
REMARK SMILES Cc1cc(C(=O)Nc2c(Cl)cc(Cl)cc2C(=O)OCCOCCOC(=O)c2ccc(-c3c4nc(c(-c5ccc(S(=O)(=O)[O-])cc5)c5ccc([nH]5)c(-c5ccc(S(=O)(=O)[O-])cc5)c5nc(c(-c6ccc(S(=O)(=O)[O-])cc6)c6ccc3[nH]6)C=C5)C=C4)cc2)c(C)s1
REMARK SMILES IDX 22 1 21 2 20 3 19 4 18 5 16 6 17 7 15 8 8 9 9 10 10 11 11 12
REMARK SMILES IDX 14 13 12 14 13 15 7 16 5 17 6 18 4 20 1 21 2 22 3 23 89 24
REMARK SMILES IDX 87 25 88 26 23 27 24 28 25 29 26 30 27 31 28 32 86 33 29 34
REMARK SMILES IDX 85 35 30 36 31 37 32 38 79 39 33 40 84 41 78 42 80 43 34 44
REMARK SMILES IDX 83 45 77 46 76 47 35 49 65 50 46 51 64 52 47 53 50 54 63 55
REMARK SMILES IDX 81 56 48 57 49 58 62 60 82 61 51 62 36 63 37 64 45 65 38 66
REMARK SMILES IDX 44 67 39 68 40 69 41 70 42 71 43 72 66 73 67 74 75 75 68 76
REMARK SMILES IDX 74 77 69 78 70 79 71 80 72 81 73 82 52 83 53 84 61 85 54 86
REMARK SMILES IDX 60 87 55 88 56 89 57 90 58 91 59 92
REMARK H PARENT 7 19 80 48 50 59
REMARK Flexibility Score: inf
ROOT
ATOM      1  C   UNL A   1      34.332  30.248  27.075  1.00  0.00     0.202 C 
ENDROOT
BRANCH   1   2
ATOM      2  O   UNL A   1      33.000  30.414  27.563  1.00  0.00    -0.374 OA
BRANCH   2   3
ATOM      3  C   UNL A   1      31.979  29.605  26.977  1.00  0.00     0.202 C 
BRANCH   3   4
ATOM      4  C   UNL A   1      31.714  28.258  27.656  1.00  0.00     0.261 C 
BRANCH   4   5
ATOM      5  O   UNL A   1      32.370  27.181  26.960  1.00  0.00    -0.460 OA
BRANCH   5   6
ATOM      6  C   UNL A   1      31.542  26.373  26.259  1.00  0.00     0.340 C 
ATOM      7  O   UNL A   1      30.796  25.527  26.732  1.00  0.00    -0.246 OA
BRANCH   6   8
ATOM      8  C   UNL A   1      31.544  26.672  24.800  1.00  0.00     0.086 A 
ATOM      9  C   UNL A   1      32.533  26.296  23.867  1.00  0.00     0.075 A 
ATOM     10  C   UNL A   1      32.189  26.379  22.502  1.00  0.00     0.067 A 
ATOM     11  Cl  UNL A   1      33.023  25.476  21.280  1.00  0.00    -0.082 Cl
ATOM     12  C   UNL A   1      31.074  27.113  22.082  1.00  0.00     0.043 A 
ATOM     13  C   UNL A   1      30.433  27.424  24.371  1.00  0.00     0.038 A 
ATOM     14  C   UNL A   1      30.240  27.693  23.024  1.00  0.00     0.043 A 
ATOM     15  Cl  UNL A   1      28.941  28.702  22.529  1.00  0.00    -0.084 Cl
BRANCH   9  16
ATOM     16  N   UNL A   1      33.817  25.921  24.328  1.00  0.00    -0.320 N 
ATOM     17  C   UNL A   1      34.361  24.700  24.708  1.00  0.00     0.256 C 
ATOM     18  O   UNL A   1      35.519  24.723  25.127  1.00  0.00    -0.269 OA
ATOM     19  H   UNL A   1      34.450  26.672  24.393  1.00  0.00     0.170 HD
BRANCH  17  20
ATOM     20  C   UNL A   1      33.640  23.425  24.521  1.00  0.00     0.054 A 
ATOM     21  C   UNL A   1      31.891  20.936  22.259  1.00  0.00     0.056 C 
ATOM     22  C   UNL A   1      32.531  21.699  23.366  1.00  0.00     0.003 A 
ATOM     23  C   UNL A   1      33.488  22.686  23.290  1.00  0.00     0.029 A 
ATOM     24  S   UNL A   1      32.098  21.393  24.980  1.00  0.00    -0.145 S 
ATOM     25  C   UNL A   1      33.053  22.701  25.559  1.00  0.00     0.014 A 
ATOM     26  C   UNL A   1      33.091  22.903  27.043  1.00  0.00     0.057 C 
ENDBRANCH  17  20
ENDBRANCH   9  16
ENDBRANCH   6   8
ENDBRANCH   5   6
ENDBRANCH   4   5
ENDBRANCH   3   4
ENDBRANCH   2   3
ENDBRANCH   1   2
BRANCH   1  27
ATOM     27  C   UNL A   1      35.280  29.391  27.922  1.00  0.00     0.261 C 
BRANCH  27  28
ATOM     28  O   UNL A   1      36.384  30.158  28.433  1.00  0.00    -0.460 OA
BRANCH  28  29
ATOM     29  C   UNL A   1      37.075  29.559  29.431  1.00  0.00     0.338 C 
ATOM     30  O   UNL A   1      36.645  29.246  30.536  1.00  0.00    -0.246 OA
BRANCH  29  31
ATOM     31  C   UNL A   1      38.402  29.133  28.951  1.00  0.00     0.060 A 
ATOM     32  C   UNL A   1      39.275  28.564  29.889  1.00  0.00     0.016 A 
ATOM     33  C   UNL A   1      38.813  29.339  27.633  1.00  0.00     0.016 A 
ATOM     34  C   UNL A   1      40.581  28.250  29.525  1.00  0.00     0.010 A 
ATOM     35  C   UNL A   1      40.129  29.030  27.272  1.00  0.00     0.010 A 
ATOM     36  C   UNL A   1      41.029  28.519  28.225  1.00  0.00    -0.014 A 
BRANCH  36  37
ATOM     37  C   UNL A   1      42.471  28.391  27.906  1.00  0.00     0.031 A 
ATOM     38  C   UNL A   1      43.378  29.569  28.135  1.00  0.00     0.074 A 
ATOM     39  C   UNL A   1      42.972  27.231  27.447  1.00  0.00     0.049 A 
ATOM     40  N   UNL A   1      44.661  29.683  27.904  1.00  0.00    -0.248 NA
ATOM     41  C   UNL A   1      42.756  30.777  28.700  1.00  0.00     0.031 C 
ATOM     42  C   UNL A   1      42.202  26.008  27.220  1.00  0.00     0.029 A 
ATOM     43  N   UNL A   1      44.251  26.896  27.081  1.00  0.00    -0.354 N 
ATOM     44  C   UNL A   1      44.999  30.975  28.289  1.00  0.00     0.074 A 
ATOM     45  C   UNL A   1      43.782  31.615  28.740  1.00  0.00     0.031 C 
ATOM     46  C   UNL A   1      43.023  25.058  26.743  1.00  0.00     0.029 A 
ATOM     47  C   UNL A   1      44.368  25.615  26.599  1.00  0.00     0.049 A 
ATOM     48  H   UNL A   1      45.013  27.514  27.158  1.00  0.00     0.167 HD
ATOM     49  C   UNL A   1      46.214  31.574  28.275  1.00  0.00     0.031 A 
ATOM     50  C   UNL A   1      45.430  24.972  26.076  1.00  0.00     0.031 A 
ATOM     51  C   UNL A   1      47.419  30.943  27.803  1.00  0.00     0.049 A 
ATOM     52  C   UNL A   1      46.758  25.679  25.999  1.00  0.00     0.074 A 
ATOM     53  C   UNL A   1      48.700  31.462  27.749  1.00  0.00     0.029 A 
ATOM     54  N   UNL A   1      47.489  29.654  27.293  1.00  0.00    -0.354 N 
ATOM     55  N   UNL A   1      47.067  26.895  26.386  1.00  0.00    -0.248 NA
ATOM     56  C   UNL A   1      47.880  24.926  25.424  1.00  0.00     0.031 C 
ATOM     57  C   UNL A   1      49.535  30.508  27.157  1.00  0.00     0.029 A 
ATOM     58  C   UNL A   1      48.786  29.370  26.900  1.00  0.00     0.049 A 
ATOM     59  H   UNL A   1      46.729  29.033  27.221  1.00  0.00     0.167 HD
ATOM     60  C   UNL A   1      48.425  27.042  26.123  1.00  0.00     0.074 A 
ATOM     61  C   UNL A   1      48.880  25.788  25.558  1.00  0.00     0.031 C 
ATOM     62  C   UNL A   1      49.224  28.118  26.334  1.00  0.00     0.031 A 
BRANCH  49  63
ATOM     63  C   UNL A   1      46.290  33.000  28.754  1.00  0.00    -0.014 A 
ATOM     64  C   UNL A   1      46.091  34.077  27.872  1.00  0.00     0.010 A 
ATOM     65  C   UNL A   1      46.544  33.266  30.113  1.00  0.00     0.010 A 
ATOM     66  C   UNL A   1      46.189  35.394  28.329  1.00  0.00     0.020 A 
ATOM     67  C   UNL A   1      46.616  34.582  30.579  1.00  0.00     0.020 A 
ATOM     68  C   UNL A   1      46.457  35.638  29.679  1.00  0.00     0.054 A 
BRANCH  68  69
ATOM     69  S   UNL A   1      46.574  37.357  30.248  1.00  0.00     0.124 S 
ATOM     70  O   UNL A   1      47.070  37.190  31.612  1.00  0.00    -0.237 OA
ATOM     71  O   UNL A   1      47.521  37.943  29.303  1.00  0.00    -0.237 OA
ATOM     72  O   UNL A   1      45.204  37.853  30.139  1.00  0.00    -0.744 OA
ENDBRANCH  68  69
ENDBRANCH  49  63
BRANCH  50  73
ATOM     73  C   UNL A   1      45.273  23.583  25.563  1.00  0.00    -0.014 A 
ATOM     74  C   UNL A   1      45.448  22.477  26.411  1.00  0.00     0.010 A 
ATOM     75  C   UNL A   1      44.925  23.365  24.216  1.00  0.00     0.010 A 
ATOM     76  C   UNL A   1      45.287  21.177  25.920  1.00  0.00     0.020 A 
ATOM     77  C   UNL A   1      44.737  22.069  23.729  1.00  0.00     0.020 A 
ATOM     78  C   UNL A   1      44.927  20.982  24.583  1.00  0.00     0.054 A 
BRANCH  78  79
ATOM     79  S   UNL A   1      44.658  19.289  23.987  1.00  0.00     0.124 S 
ATOM     80  O   UNL A   1      44.546  19.488  22.545  1.00  0.00    -0.237 OA
ATOM     81  O   UNL A   1      45.864  18.600  24.439  1.00  0.00    -0.237 OA
ATOM     82  O   UNL A   1      43.428  18.882  24.662  1.00  0.00    -0.744 OA
ENDBRANCH  78  79
ENDBRANCH  50  73
BRANCH  62  83
ATOM     83  C   UNL A   1      50.684  27.981  25.984  1.00  0.00    -0.014 A 
ATOM     84  C   UNL A   1      51.175  28.384  24.729  1.00  0.00     0.010 A 
ATOM     85  C   UNL A   1      51.585  27.496  26.949  1.00  0.00     0.010 A 
ATOM     86  C   UNL A   1      52.538  28.273  24.435  1.00  0.00     0.020 A 
ATOM     87  C   UNL A   1      52.951  27.409  26.668  1.00  0.00     0.020 A 
ATOM     88  C   UNL A   1      53.418  27.786  25.407  1.00  0.00     0.054 A 
BRANCH  88  89
ATOM     89  S   UNL A   1      55.187  27.693  25.018  1.00  0.00     0.124 S 
ATOM     90  O   UNL A   1      55.219  26.652  23.994  1.00  0.00    -0.237 OA
ATOM     91  O   UNL A   1      55.485  29.044  24.549  1.00  0.00    -0.237 OA
ATOM     92  O   UNL A   1      55.805  27.333  26.292  1.00  0.00    -0.744 OA
ENDBRANCH  88  89
ENDBRANCH  62  83
ENDBRANCH  36  37
ENDBRANCH  29  31
ENDBRANCH  28  29
ENDBRANCH  27  28
ENDBRANCH   1  27
TORSDOF 19
ENDMDL
MODEL 2
REMARK VINA RESULT:     -10.3      1.780      2.431
REMARK SMILES Cc1cc(C(=O)Nc2c(Cl)cc(Cl)cc2C(=O)OCCOCCOC(=O)c2ccc(-c3c4nc(c(-c5ccc(S(=O)(=O)[O-])cc5)c5ccc([nH]5)c(-c5ccc(S(=O)(=O)[O-])cc5)c5nc(c(-c6ccc(S(=O)(=O)[O-])cc6)c6ccc3[nH]6)C=C5)C=C4)cc2)c(C)s1
REMARK SMILES IDX 22 1 21 2 20 3 19 4 18 5 16 6 17 7 15 8 8 9 9 10 10 11 11 12
REMARK SMILES IDX 14 13 12 14 13 15 7 16 5 17 6 18 4 20 1 21 2 22 3 23 89 24
REMARK SMILES IDX 87 25 88 26 23 27 24 28 25 29 26 30 27 31 28 32 86 33 29 34
REMARK SMILES IDX 85 35 30 36 31 37 32 38 79 39 33 40 84 41 78 42 80 43 34 44
REMARK SMILES IDX 83 45 77 46 76 47 35 49 65 50 46 51 64 52 47 53 50 54 63 55
REMARK SMILES IDX 81 56 48 57 49 58 62 60 82 61 51 62 36 63 37 64 45 65 38 66
REMARK SMILES IDX 44 67 39 68 40 69 41 70 42 71 43 72 66 73 67 74 75 75 68 76
REMARK SMILES IDX 74 77 69 78 70 79 71 80 72 81 73 82 52 83 53 84 61 85 54 86
REMARK SMILES IDX 60 87 55 88 56 89 57 90 58 91 59 92
REMARK H PARENT 7 19 80 48 50 59
REMARK Flexibility Score: inf
ROOT
ATOM      1  C   UNL A   1      34.320  32.607  28.506  1.00  0.00     0.202 C 
ENDROOT
BRANCH   1   2
ATOM      2  O   UNL A   1      34.833  31.662  27.566  1.00  0.00    -0.374 OA
BRANCH   2   3
ATOM      3  C   UNL A   1      34.228  30.368  27.539  1.00  0.00     0.202 C 
BRANCH   3   4
ATOM      4  C   UNL A   1      33.414  30.032  26.287  1.00  0.00     0.261 C 
BRANCH   4   5
ATOM      5  O   UNL A   1      32.046  29.721  26.618  1.00  0.00    -0.460 OA
BRANCH   5   6
ATOM      6  C   UNL A   1      31.686  28.439  26.386  1.00  0.00     0.340 C 
ATOM      7  O   UNL A   1      31.433  27.599  27.238  1.00  0.00    -0.246 OA
BRANCH   6   8
ATOM      8  C   UNL A   1      31.523  28.139  24.936  1.00  0.00     0.086 A 
ATOM      9  C   UNL A   1      32.189  27.131  24.207  1.00  0.00     0.075 A 
ATOM     10  C   UNL A   1      31.655  26.796  22.945  1.00  0.00     0.067 A 
ATOM     11  Cl  UNL A   1      31.975  25.275  22.179  1.00  0.00    -0.082 Cl
ATOM     12  C   UNL A   1      30.742  27.639  22.301  1.00  0.00     0.043 A 
ATOM     13  C   UNL A   1      30.618  28.992  24.275  1.00  0.00     0.038 A 
ATOM     14  C   UNL A   1      30.283  28.774  22.947  1.00  0.00     0.043 A 
ATOM     15  Cl  UNL A   1      29.262  29.886  22.127  1.00  0.00    -0.084 Cl
BRANCH   9  16
ATOM     16  N   UNL A   1      33.371  26.559  24.733  1.00  0.00    -0.320 N 
ATOM     17  C   UNL A   1      33.627  25.355  25.378  1.00  0.00     0.256 C 
ATOM     18  O   UNL A   1      34.781  25.181  25.772  1.00  0.00    -0.269 OA
ATOM     19  H   UNL A   1      34.169  27.124  24.620  1.00  0.00     0.170 HD
BRANCH  17  20
ATOM     20  C   UNL A   1      32.610  24.291  25.491  1.00  0.00     0.054 A 
ATOM     21  C   UNL A   1      29.604  22.786  27.242  1.00  0.00     0.056 C 
ATOM     22  C   UNL A   1      30.743  23.145  26.353  1.00  0.00     0.003 A 
ATOM     23  C   UNL A   1      31.341  24.373  26.173  1.00  0.00     0.029 A 
ATOM     24  S   UNL A   1      31.482  21.961  25.385  1.00  0.00    -0.145 S 
ATOM     25  C   UNL A   1      32.710  23.048  24.866  1.00  0.00     0.014 A 
ATOM     26  C   UNL A   1      33.708  22.518  23.883  1.00  0.00     0.057 C 
ENDBRANCH  17  20
ENDBRANCH   9  16
ENDBRANCH   6   8
ENDBRANCH   5   6
ENDBRANCH   4   5
ENDBRANCH   3   4
ENDBRANCH   2   3
ENDBRANCH   1   2
BRANCH   1  27
ATOM     27  C   UNL A   1      35.131  32.822  29.789  1.00  0.00     0.261 C 
BRANCH  27  28
ATOM     28  O   UNL A   1      35.793  31.618  30.213  1.00  0.00    -0.460 OA
BRANCH  28  29
ATOM     29  C   UNL A   1      36.889  31.816  30.982  1.00  0.00     0.338 C 
ATOM     30  O   UNL A   1      36.935  32.409  32.054  1.00  0.00    -0.246 OA
BRANCH  29  31
ATOM     31  C   UNL A   1      38.029  31.042  30.458  1.00  0.00     0.060 A 
ATOM     32  C   UNL A   1      38.993  30.610  31.379  1.00  0.00     0.016 A 
ATOM     33  C   UNL A   1      38.190  30.796  29.093  1.00  0.00     0.016 A 
ATOM     34  C   UNL A   1      40.149  29.976  30.933  1.00  0.00     0.010 A 
ATOM     35  C   UNL A   1      39.358  30.167  28.647  1.00  0.00     0.010 A 
ATOM     36  C   UNL A   1      40.358  29.787  29.561  1.00  0.00    -0.014 A 
BRANCH  36  37
ATOM     37  C   UNL A   1      41.679  29.319  29.079  1.00  0.00     0.031 A 
ATOM     38  C   UNL A   1      42.820  30.296  29.003  1.00  0.00     0.074 A 
ATOM     39  C   UNL A   1      41.869  28.030  28.742  1.00  0.00     0.049 A 
ATOM     40  N   UNL A   1      44.047  30.106  28.591  1.00  0.00    -0.248 NA
ATOM     41  C   UNL A   1      42.539  31.670  29.452  1.00  0.00     0.031 C 
ATOM     42  C   UNL A   1      40.853  26.981  28.808  1.00  0.00     0.029 A 
ATOM     43  N   UNL A   1      42.985  27.389  28.267  1.00  0.00    -0.354 N 
ATOM     44  C   UNL A   1      44.683  31.335  28.725  1.00  0.00     0.074 A 
ATOM     45  C   UNL A   1      43.699  32.269  29.227  1.00  0.00     0.031 C 
ATOM     46  C   UNL A   1      41.391  25.827  28.380  1.00  0.00     0.029 A 
ATOM     47  C   UNL A   1      42.776  26.063  27.977  1.00  0.00     0.049 A 
ATOM     48  H   UNL A   1      43.854  27.837  28.148  1.00  0.00     0.167 HD
ATOM     49  C   UNL A   1      45.972  31.657  28.459  1.00  0.00     0.031 A 
ATOM     50  C   UNL A   1      43.599  25.150  27.425  1.00  0.00     0.031 A 
ATOM     51  C   UNL A   1      46.943  30.730  27.936  1.00  0.00     0.049 A 
ATOM     52  C   UNL A   1      45.007  25.545  27.066  1.00  0.00     0.074 A 
ATOM     53  C   UNL A   1      48.275  30.956  27.636  1.00  0.00     0.029 A 
ATOM     54  N   UNL A   1      46.683  29.403  27.626  1.00  0.00    -0.354 N 
ATOM     55  N   UNL A   1      45.601  26.705  27.218  1.00  0.00    -0.248 NA
ATOM     56  C   UNL A   1      45.859  24.505  26.472  1.00  0.00     0.031 C 
ATOM     57  C   UNL A   1      48.806  29.781  27.093  1.00  0.00     0.029 A 
ATOM     58  C   UNL A   1      47.822  28.805  27.115  1.00  0.00     0.049 A 
ATOM     59  H   UNL A   1      45.816  28.953  27.751  1.00  0.00     0.167 HD
ATOM     60  C   UNL A   1      46.903  26.528  26.759  1.00  0.00     0.074 A 
ATOM     61  C   UNL A   1      47.013  25.146  26.339  1.00  0.00     0.031 C 
ATOM     62  C   UNL A   1      47.916  27.428  26.695  1.00  0.00     0.031 A 
BRANCH  49  63
ATOM     63  C   UNL A   1      46.395  33.082  28.699  1.00  0.00    -0.014 A 
ATOM     64  C   UNL A   1      46.921  33.487  29.939  1.00  0.00     0.010 A 
ATOM     65  C   UNL A   1      46.280  34.027  27.663  1.00  0.00     0.010 A 
ATOM     66  C   UNL A   1      47.285  34.820  30.152  1.00  0.00     0.020 A 
ATOM     67  C   UNL A   1      46.668  35.355  27.864  1.00  0.00     0.020 A 
ATOM     68  C   UNL A   1      47.150  35.747  29.115  1.00  0.00     0.054 A 
BRANCH  68  69
ATOM     69  S   UNL A   1      47.634  37.469  29.417  1.00  0.00     0.124 S 
ATOM     70  O   UNL A   1      48.740  37.640  28.477  1.00  0.00    -0.237 OA
ATOM     71  O   UNL A   1      46.416  38.206  29.092  1.00  0.00    -0.237 OA
ATOM     72  O   UNL A   1      48.009  37.482  30.829  1.00  0.00    -0.744 OA
ENDBRANCH  68  69
ENDBRANCH  49  63
BRANCH  50  73
ATOM     73  C   UNL A   1      43.099  23.774  27.156  1.00  0.00    -0.014 A 
ATOM     74  C   UNL A   1      42.635  23.411  25.881  1.00  0.00     0.010 A 
ATOM     75  C   UNL A   1      43.105  22.809  28.182  1.00  0.00     0.010 A 
ATOM     76  C   UNL A   1      42.177  22.112  25.637  1.00  0.00     0.020 A 
ATOM     77  C   UNL A   1      42.674  21.503  27.936  1.00  0.00     0.020 A 
ATOM     78  C   UNL A   1      42.204  21.164  26.666  1.00  0.00     0.054 A 
BRANCH  78  79
ATOM     79  S   UNL A   1      41.670  19.468  26.308  1.00  0.00     0.124 S 
ATOM     80  O   UNL A   1      42.533  19.106  25.189  1.00  0.00    -0.237 OA
ATOM     81  O   UNL A   1      41.943  18.779  27.567  1.00  0.00    -0.237 OA
ATOM     82  O   UNL A   1      40.252  19.618  25.985  1.00  0.00    -0.744 OA
ENDBRANCH  78  79
ENDBRANCH  50  73
BRANCH  62  83
ATOM     83  C   UNL A   1      49.247  26.942  26.182  1.00  0.00    -0.014 A 
ATOM     84  C   UNL A   1      49.611  27.098  24.832  1.00  0.00     0.010 A 
ATOM     85  C   UNL A   1      50.171  26.375  27.079  1.00  0.00     0.010 A 
ATOM     86  C   UNL A   1      50.862  26.664  24.383  1.00  0.00     0.020 A 
ATOM     87  C   UNL A   1      51.432  25.966  26.640  1.00  0.00     0.020 A 
ATOM     88  C   UNL A   1      51.766  26.101  25.290  1.00  0.00     0.054 A 
BRANCH  88  89
ATOM     89  S   UNL A   1      53.399  25.586  24.693  1.00  0.00     0.124 S 
ATOM     90  O   UNL A   1      53.394  24.156  24.986  1.00  0.00    -0.237 OA
ATOM     91  O   UNL A   1      53.348  25.937  23.275  1.00  0.00    -0.237 OA
ATOM     92  O   UNL A   1      54.328  26.383  25.492  1.00  0.00    -0.744 OA
ENDBRANCH  88  89
ENDBRANCH  62  83
ENDBRANCH  36  37
ENDBRANCH  29  31
ENDBRANCH  28  29
ENDBRANCH  27  28
ENDBRANCH   1  27
TORSDOF 19
ENDMDL
MODEL 3
REMARK VINA RESULT:     -10.2      7.177     11.829
REMARK SMILES Cc1cc(C(=O)Nc2c(Cl)cc(Cl)cc2C(=O)OCCOCCOC(=O)c2ccc(-c3c4nc(c(-c5ccc(S(=O)(=O)[O-])cc5)c5ccc([nH]5)c(-c5ccc(S(=O)(=O)[O-])cc5)c5nc(c(-c6ccc(S(=O)(=O)[O-])cc6)c6ccc3[nH]6)C=C5)C=C4)cc2)c(C)s1
REMARK SMILES IDX 22 1 21 2 20 3 19 4 18 5 16 6 17 7 15 8 8 9 9 10 10 11 11 12
REMARK SMILES IDX 14 13 12 14 13 15 7 16 5 17 6 18 4 20 1 21 2 22 3 23 89 24
REMARK SMILES IDX 87 25 88 26 23 27 24 28 25 29 26 30 27 31 28 32 86 33 29 34
REMARK SMILES IDX 85 35 30 36 31 37 32 38 79 39 33 40 84 41 78 42 80 43 34 44
REMARK SMILES IDX 83 45 77 46 76 47 35 49 65 50 46 51 64 52 47 53 50 54 63 55
REMARK SMILES IDX 81 56 48 57 49 58 62 60 82 61 51 62 36 63 37 64 45 65 38 66
REMARK SMILES IDX 44 67 39 68 40 69 41 70 42 71 43 72 66 73 67 74 75 75 68 76
REMARK SMILES IDX 74 77 69 78 70 79 71 80 72 81 73 82 52 83 53 84 61 85 54 86
REMARK SMILES IDX 60 87 55 88 56 89 57 90 58 91 59 92
REMARK H PARENT 7 19 80 48 50 59
REMARK Flexibility Score: inf
ROOT
ATOM      1  C   UNL A   1      38.605  23.089  26.351  1.00  0.00     0.202 C 
ENDROOT
BRANCH   1   2
ATOM      2  O   UNL A   1      38.990  21.732  26.127  1.00  0.00    -0.374 OA
BRANCH   2   3
ATOM      3  C   UNL A   1      38.095  20.910  25.377  1.00  0.00     0.202 C 
BRANCH   3   4
ATOM      4  C   UNL A   1      37.399  21.581  24.190  1.00  0.00     0.261 C 
BRANCH   4   5
ATOM      5  O   UNL A   1      35.980  21.701  24.413  1.00  0.00    -0.460 OA
BRANCH   5   6
ATOM      6  C   UNL A   1      35.389  22.723  23.754  1.00  0.00     0.340 C 
ATOM      7  O   UNL A   1      35.793  23.240  22.720  1.00  0.00    -0.246 OA
BRANCH   6   8
ATOM      8  C   UNL A   1      34.094  23.131  24.365  1.00  0.00     0.086 A 
ATOM      9  C   UNL A   1      33.088  23.913  23.758  1.00  0.00     0.075 A 
ATOM     10  C   UNL A   1      31.817  23.905  24.368  1.00  0.00     0.067 A 
ATOM     11  Cl  UNL A   1      30.374  24.328  23.506  1.00  0.00    -0.082 Cl
ATOM     12  C   UNL A   1      31.647  23.439  25.677  1.00  0.00     0.043 A 
ATOM     13  C   UNL A   1      33.920  22.681  25.688  1.00  0.00     0.038 A 
ATOM     14  C   UNL A   1      32.723  22.893  26.355  1.00  0.00     0.043 A 
ATOM     15  Cl  UNL A   1      32.568  22.434  28.003  1.00  0.00    -0.084 Cl
BRANCH   9  16
ATOM     16  N   UNL A   1      33.408  24.702  22.628  1.00  0.00    -0.320 N 
ATOM     17  C   UNL A   1      33.341  26.069  22.385  1.00  0.00     0.256 C 
ATOM     18  O   UNL A   1      33.645  26.438  21.250  1.00  0.00    -0.269 OA
ATOM     19  H   UNL A   1      33.747  24.182  21.864  1.00  0.00     0.170 HD
BRANCH  17  20
ATOM     20  C   UNL A   1      33.030  27.043  23.450  1.00  0.00     0.054 A 
ATOM     21  C   UNL A   1      33.712  28.489  26.887  1.00  0.00     0.056 C 
ATOM     22  C   UNL A   1      33.240  28.153  25.516  1.00  0.00     0.003 A 
ATOM     23  C   UNL A   1      33.900  27.464  24.523  1.00  0.00     0.029 A 
ATOM     24  S   UNL A   1      31.695  28.635  24.998  1.00  0.00    -0.145 S 
ATOM     25  C   UNL A   1      31.841  27.768  23.520  1.00  0.00     0.014 A 
ATOM     26  C   UNL A   1      30.694  27.872  22.562  1.00  0.00     0.057 C 
ENDBRANCH  17  20
ENDBRANCH   9  16
ENDBRANCH   6   8
ENDBRANCH   5   6
ENDBRANCH   4   5
ENDBRANCH   3   4
ENDBRANCH   2   3
ENDBRANCH   1   2
BRANCH   1  27
ATOM     27  C   UNL A   1      39.702  24.056  26.812  1.00  0.00     0.261 C 
BRANCH  27  28
ATOM     28  O   UNL A   1      39.234  25.414  26.863  1.00  0.00    -0.460 OA
BRANCH  28  29
ATOM     29  C   UNL A   1      40.212  26.347  26.946  1.00  0.00     0.338 C 
ATOM     30  O   UNL A   1      41.047  26.610  26.087  1.00  0.00    -0.246 OA
BRANCH  29  31
ATOM     31  C   UNL A   1      40.031  27.173  28.152  1.00  0.00     0.060 A 
ATOM     32  C   UNL A   1      40.743  28.379  28.221  1.00  0.00     0.016 A 
ATOM     33  C   UNL A   1      39.236  26.756  29.222  1.00  0.00     0.016 A 
ATOM     34  C   UNL A   1      40.706  29.146  29.382  1.00  0.00     0.010 A 
ATOM     35  C   UNL A   1      39.208  27.525  30.391  1.00  0.00     0.010 A 
ATOM     36  C   UNL A   1      39.971  28.703  30.489  1.00  0.00    -0.014 A 
BRANCH  36  37
ATOM     37  C   UNL A   1      40.111  29.402  31.788  1.00  0.00     0.031 A 
ATOM     38  C   UNL A   1      39.109  30.461  32.162  1.00  0.00     0.074 A 
ATOM     39  C   UNL A   1      41.100  29.078  32.639  1.00  0.00     0.049 A 
ATOM     40  N   UNL A   1      39.057  31.210  33.233  1.00  0.00    -0.248 NA
ATOM     41  C   UNL A   1      38.023  30.707  31.199  1.00  0.00     0.031 C 
ATOM     42  C   UNL A   1      42.109  28.044  32.408  1.00  0.00     0.029 A 
ATOM     43  N   UNL A   1      41.422  29.593  33.869  1.00  0.00    -0.354 N 
ATOM     44  C   UNL A   1      37.938  32.019  33.072  1.00  0.00     0.074 A 
ATOM     45  C   UNL A   1      37.359  31.690  31.787  1.00  0.00     0.031 C 
ATOM     46  C   UNL A   1      42.944  28.008  33.459  1.00  0.00     0.029 A 
ATOM     47  C   UNL A   1      42.551  29.038  34.420  1.00  0.00     0.049 A 
ATOM     48  H   UNL A   1      40.893  30.294  34.316  1.00  0.00     0.167 HD
ATOM     49  C   UNL A   1      37.434  32.949  33.919  1.00  0.00     0.031 A 
ATOM     50  C   UNL A   1      43.210  29.343  35.556  1.00  0.00     0.031 A 
ATOM     51  C   UNL A   1      38.026  33.290  35.186  1.00  0.00     0.049 A 
ATOM     52  C   UNL A   1      42.676  30.431  36.450  1.00  0.00     0.074 A 
ATOM     53  C   UNL A   1      37.591  34.215  36.119  1.00  0.00     0.029 A 
ATOM     54  N   UNL A   1      39.188  32.727  35.694  1.00  0.00    -0.354 N 
ATOM     55  N   UNL A   1      41.605  31.174  36.294  1.00  0.00    -0.248 NA
ATOM     56  C   UNL A   1      43.433  30.715  37.677  1.00  0.00     0.031 C 
ATOM     57  C   UNL A   1      38.520  34.250  37.166  1.00  0.00     0.029 A 
ATOM     58  C   UNL A   1      39.499  33.301  36.915  1.00  0.00     0.049 A 
ATOM     59  H   UNL A   1      39.714  32.022  35.251  1.00  0.00     0.167 HD
ATOM     60  C   UNL A   1      41.548  31.996  37.415  1.00  0.00     0.074 A 
ATOM     61  C   UNL A   1      42.683  31.649  38.246  1.00  0.00     0.031 C 
ATOM     62  C   UNL A   1      40.636  32.949  37.729  1.00  0.00     0.031 A 
BRANCH  49  63
ATOM     63  C   UNL A   1      36.195  33.685  33.482  1.00  0.00    -0.014 A 
ATOM     64  C   UNL A   1      34.915  33.137  33.677  1.00  0.00     0.010 A 
ATOM     65  C   UNL A   1      36.313  34.953  32.883  1.00  0.00     0.010 A 
ATOM     66  C   UNL A   1      33.777  33.824  33.243  1.00  0.00     0.020 A 
ATOM     67  C   UNL A   1      35.176  35.655  32.472  1.00  0.00     0.020 A 
ATOM     68  C   UNL A   1      33.915  35.076  32.637  1.00  0.00     0.054 A 
BRANCH  68  69
ATOM     69  S   UNL A   1      32.423  35.948  32.087  1.00  0.00     0.124 S 
ATOM     70  O   UNL A   1      31.367  35.029  32.504  1.00  0.00    -0.237 OA
ATOM     71  O   UNL A   1      32.492  37.203  32.831  1.00  0.00    -0.237 OA
ATOM     72  O   UNL A   1      32.606  36.074  30.643  1.00  0.00    -0.744 OA
ENDBRANCH  68  69
ENDBRANCH  49  63
BRANCH  50  73
ATOM     73  C   UNL A   1      44.464  28.618  35.899  1.00  0.00    -0.014 A 
ATOM     74  C   UNL A   1      44.430  27.443  36.668  1.00  0.00     0.010 A 
ATOM     75  C   UNL A   1      45.704  29.096  35.434  1.00  0.00     0.010 A 
ATOM     76  C   UNL A   1      45.614  26.764  36.975  1.00  0.00     0.020 A 
ATOM     77  C   UNL A   1      46.886  28.406  35.716  1.00  0.00     0.020 A 
ATOM     78  C   UNL A   1      46.834  27.248  36.492  1.00  0.00     0.054 A 
BRANCH  78  79
ATOM     79  S   UNL A   1      48.349  26.313  36.846  1.00  0.00     0.124 S 
ATOM     80  O   UNL A   1      49.388  27.245  36.424  1.00  0.00    -0.237 OA
ATOM     81  O   UNL A   1      48.249  26.084  38.286  1.00  0.00    -0.237 OA
ATOM     82  O   UNL A   1      48.209  25.113  36.023  1.00  0.00    -0.744 OA
ENDBRANCH  78  79
ENDBRANCH  50  73
BRANCH  62  83
ATOM     83  C   UNL A   1      40.804  33.668  39.044  1.00  0.00    -0.014 A 
ATOM     84  C   UNL A   1      40.254  33.156  40.232  1.00  0.00     0.010 A 
ATOM     85  C   UNL A   1      41.575  34.844  39.097  1.00  0.00     0.010 A 
ATOM     86  C   UNL A   1      40.445  33.825  41.445  1.00  0.00     0.020 A 
ATOM     87  C   UNL A   1      41.791  35.500  40.311  1.00  0.00     0.020 A 
ATOM     88  C   UNL A   1      41.213  34.994  41.477  1.00  0.00     0.054 A 
BRANCH  88  89
ATOM     89  S   UNL A   1      41.484  35.820  43.069  1.00  0.00     0.124 S 
ATOM     90  O   UNL A   1      42.913  36.116  43.018  1.00  0.00    -0.237 OA
ATOM     91  O   UNL A   1      40.599  36.979  42.984  1.00  0.00    -0.237 OA
ATOM     92  O   UNL A   1      41.090  34.814  44.054  1.00  0.00    -0.744 OA
ENDBRANCH  88  89
ENDBRANCH  62  83
ENDBRANCH  36  37
ENDBRANCH  29  31
ENDBRANCH  28  29
ENDBRANCH  27  28
ENDBRANCH   1  27
TORSDOF 19
ENDMDL
