MODEL 1
REMARK VINA RESULT:      -9.4      0.000      0.000
REMARK SMILES C#CCN(CC(=O)OCCOCCOC(=O)c1ccc(-c2c3nc(c(-c4ccc(S(=O)(=O)[O-])cc4)c4ccc([nH]4)c(-c4ccc(S(=O)(=O)[O-])cc4)c4nc(c(-c5ccc(S(=O)(=O)[O-])cc5)c5ccc2[nH]5)C=C4)C=C3)cc1)S(=O)(=O)c1ccc(C(C)(C)C)cc1
REMARK SMILES IDX 10 1 9 2 8 3 6 4 7 5 5 6 4 7 3 8 2 9 1 10 77 11 78 12 79 13
REMARK SMILES IDX 80 14 81 15 89 16 82 17 88 18 83 19 84 20 85 21 86 22 87 23
REMARK SMILES IDX 11 24 12 25 13 26 14 27 15 28 16 29 17 30 18 31 76 32 19 33
REMARK SMILES IDX 75 34 20 35 21 36 22 37 69 38 23 39 74 40 68 41 70 42 24 43
REMARK SMILES IDX 73 44 67 45 66 46 25 48 55 49 36 50 54 51 37 52 40 53 53 54
REMARK SMILES IDX 71 55 38 56 39 57 52 59 72 60 41 61 26 62 27 63 35 64 28 65
REMARK SMILES IDX 34 66 29 67 30 68 31 69 32 70 33 71 56 72 57 73 65 74 58 75
REMARK SMILES IDX 64 76 59 77 60 78 61 79 62 80 63 81 42 82 43 83 51 84 44 85
REMARK SMILES IDX 50 86 45 87 46 88 47 89 48 90 49 91
REMARK H PARENT 70 47 40 58
REMARK Flexibility Score: inf
ROOT
ATOM      1  C   UNL A   1      30.998  29.634  24.575  1.00  0.00     0.202 C 
ENDROOT
BRANCH   1   2
ATOM      2  C   UNL A   1      30.722  28.670  23.413  1.00  0.00     0.261 C 
BRANCH   2   3
ATOM      3  O   UNL A   1      31.284  27.369  23.684  1.00  0.00    -0.462 OA
BRANCH   3   4
ATOM      4  C   UNL A   1      30.436  26.303  23.686  1.00  0.00     0.321 C 
ATOM      5  O   UNL A   1      29.213  26.382  23.675  1.00  0.00    -0.251 OA
BRANCH   4   6
ATOM      6  C   UNL A   1      31.177  24.968  23.699  1.00  0.00     0.226 C 
BRANCH   6   7
ATOM      7  N   UNL A   1      32.540  25.054  24.323  1.00  0.00    -0.175 NA
BRANCH   7   8
ATOM      8  C   UNL A   1      32.382  24.898  25.820  1.00  0.00     0.192 C 
BRANCH   8   9
ATOM      9  C   UNL A   1      31.389  23.853  26.303  1.00  0.00    -0.090 C 
ATOM     10  C   UNL A   1      30.537  22.957  26.718  1.00  0.00     0.005 C 
ENDBRANCH   8   9
ENDBRANCH   7   8
BRANCH   7  11
ATOM     11  S   UNL A   1      33.778  24.117  23.634  1.00  0.00     0.244 S 
ATOM     12  O   UNL A   1      33.562  24.074  22.201  1.00  0.00    -0.207 OA
ATOM     13  O   UNL A   1      35.019  24.593  24.207  1.00  0.00    -0.207 OA
BRANCH  11  14
ATOM     14  C   UNL A   1      33.660  22.404  24.095  1.00  0.00     0.082 A 
ATOM     15  C   UNL A   1      32.684  21.682  23.395  1.00  0.00     0.022 A 
ATOM     16  C   UNL A   1      34.446  21.753  25.034  1.00  0.00     0.022 A 
ATOM     17  C   UNL A   1      32.578  20.303  23.545  1.00  0.00     0.005 A 
ATOM     18  C   UNL A   1      34.355  20.357  25.158  1.00  0.00     0.005 A 
ATOM     19  C   UNL A   1      33.465  19.599  24.374  1.00  0.00    -0.043 A 
BRANCH  19  20
ATOM     20  C   UNL A   1      33.466  18.061  24.343  1.00  0.00    -0.013 C 
ATOM     21  C   UNL A   1      34.909  17.527  24.416  1.00  0.00     0.016 C 
ATOM     22  C   UNL A   1      32.666  17.527  25.557  1.00  0.00     0.016 C 
ATOM     23  C   UNL A   1      32.801  17.471  23.080  1.00  0.00     0.016 C 
ENDBRANCH  19  20
ENDBRANCH  11  14
ENDBRANCH   7  11
ENDBRANCH   6   7
ENDBRANCH   4   6
ENDBRANCH   3   4
ENDBRANCH   2   3
ENDBRANCH   1   2
BRANCH   1  24
ATOM     24  O   UNL A   1      31.448  29.020  25.788  1.00  0.00    -0.374 OA
BRANCH  24  25
ATOM     25  C   UNL A   1      32.760  29.353  26.237  1.00  0.00     0.202 C 
BRANCH  25  26
ATOM     26  C   UNL A   1      32.869  30.493  27.253  1.00  0.00     0.261 C 
BRANCH  26  27
ATOM     27  O   UNL A   1      34.123  31.189  27.172  1.00  0.00    -0.460 OA
BRANCH  27  28
ATOM     28  C   UNL A   1      34.590  31.627  28.367  1.00  0.00     0.338 C 
ATOM     29  O   UNL A   1      33.998  32.300  29.194  1.00  0.00    -0.246 OA
BRANCH  28  30
ATOM     30  C   UNL A   1      35.914  31.046  28.643  1.00  0.00     0.060 A 
ATOM     31  C   UNL A   1      35.945  29.836  29.346  1.00  0.00     0.016 A 
ATOM     32  C   UNL A   1      37.097  31.723  28.337  1.00  0.00     0.016 A 
ATOM     33  C   UNL A   1      37.160  29.322  29.791  1.00  0.00     0.010 A 
ATOM     34  C   UNL A   1      38.318  31.204  28.790  1.00  0.00     0.010 A 
ATOM     35  C   UNL A   1      38.351  30.021  29.549  1.00  0.00    -0.014 A 
BRANCH  35  36
ATOM     36  C   UNL A   1      39.604  29.552  30.194  1.00  0.00     0.031 A 
ATOM     37  C   UNL A   1      40.071  30.199  31.470  1.00  0.00     0.074 A 
ATOM     38  C   UNL A   1      40.288  28.516  29.676  1.00  0.00     0.049 A 
ATOM     39  N   UNL A   1      41.100  29.896  32.221  1.00  0.00    -0.248 NA
ATOM     40  C   UNL A   1      39.273  31.330  31.968  1.00  0.00     0.031 C 
ATOM     41  C   UNL A   1      39.920  27.784  28.464  1.00  0.00     0.029 A 
ATOM     42  N   UNL A   1      41.431  27.895  30.112  1.00  0.00    -0.354 N 
ATOM     43  C   UNL A   1      41.074  30.797  33.280  1.00  0.00     0.074 A 
ATOM     44  C   UNL A   1      39.946  31.676  33.058  1.00  0.00     0.031 C 
ATOM     45  C   UNL A   1      40.823  26.810  28.254  1.00  0.00     0.029 A 
ATOM     46  C   UNL A   1      41.841  26.864  29.302  1.00  0.00     0.049 A 
ATOM     47  H   UNL A   1      41.912  28.161  30.928  1.00  0.00     0.167 HD
ATOM     48  C   UNL A   1      41.910  30.881  34.343  1.00  0.00     0.031 A 
ATOM     49  C   UNL A   1      42.918  26.058  29.386  1.00  0.00     0.031 A 
ATOM     50  C   UNL A   1      43.043  30.020  34.556  1.00  0.00     0.049 A 
ATOM     51  C   UNL A   1      43.866  26.208  30.544  1.00  0.00     0.074 A 
ATOM     52  C   UNL A   1      43.935  30.016  35.614  1.00  0.00     0.029 A 
ATOM     53  N   UNL A   1      43.449  29.016  33.688  1.00  0.00    -0.354 N 
ATOM     54  N   UNL A   1      43.804  27.039  31.557  1.00  0.00    -0.248 NA
ATOM     55  C   UNL A   1      45.025  25.304  30.576  1.00  0.00     0.031 C 
ATOM     56  C   UNL A   1      44.911  29.045  35.360  1.00  0.00     0.029 A 
ATOM     57  C   UNL A   1      44.595  28.407  34.171  1.00  0.00     0.049 A 
ATOM     58  H   UNL A   1      42.988  28.773  32.852  1.00  0.00     0.167 HD
ATOM     59  C   UNL A   1      44.903  26.745  32.358  1.00  0.00     0.074 A 
ATOM     60  C   UNL A   1      45.604  25.650  31.719  1.00  0.00     0.031 C 
ATOM     61  C   UNL A   1      45.290  27.325  33.521  1.00  0.00     0.031 A 
BRANCH  48  62
ATOM     62  C   UNL A   1      41.645  31.973  35.345  1.00  0.00    -0.014 A 
ATOM     63  C   UNL A   1      40.767  31.774  36.427  1.00  0.00     0.010 A 
ATOM     64  C   UNL A   1      42.306  33.209  35.219  1.00  0.00     0.010 A 
ATOM     65  C   UNL A   1      40.523  32.805  37.339  1.00  0.00     0.020 A 
ATOM     66  C   UNL A   1      42.083  34.234  36.143  1.00  0.00     0.020 A 
ATOM     67  C   UNL A   1      41.177  34.031  37.187  1.00  0.00     0.054 A 
BRANCH  67  68
ATOM     68  S   UNL A   1      40.848  35.352  38.387  1.00  0.00     0.124 S 
ATOM     69  O   UNL A   1      39.390  35.318  38.478  1.00  0.00    -0.237 OA
ATOM     70  O   UNL A   1      41.563  34.893  39.575  1.00  0.00    -0.237 OA
ATOM     71  O   UNL A   1      41.405  36.544  37.752  1.00  0.00    -0.744 OA
ENDBRANCH  67  68
ENDBRANCH  48  62
BRANCH  49  72
ATOM     72  C   UNL A   1      43.157  25.039  28.328  1.00  0.00    -0.014 A 
ATOM     73  C   UNL A   1      43.924  25.348  27.192  1.00  0.00     0.010 A 
ATOM     74  C   UNL A   1      42.634  23.741  28.473  1.00  0.00     0.010 A 
ATOM     75  C   UNL A   1      44.160  24.375  26.215  1.00  0.00     0.020 A 
ATOM     76  C   UNL A   1      42.891  22.761  27.511  1.00  0.00     0.020 A 
ATOM     77  C   UNL A   1      43.647  23.086  26.384  1.00  0.00     0.054 A 
BRANCH  77  78
ATOM     78  S   UNL A   1      44.032  21.818  25.145  1.00  0.00     0.124 S 
ATOM     79  O   UNL A   1      43.038  20.792  25.439  1.00  0.00    -0.237 OA
ATOM     80  O   UNL A   1      43.848  22.538  23.888  1.00  0.00    -0.237 OA
ATOM     81  O   UNL A   1      45.417  21.457  25.446  1.00  0.00    -0.744 OA
ENDBRANCH  77  78
ENDBRANCH  49  72
BRANCH  61  82
ATOM     82  C   UNL A   1      46.522  26.777  34.193  1.00  0.00    -0.014 A 
ATOM     83  C   UNL A   1      47.786  27.351  33.975  1.00  0.00     0.010 A 
ATOM     84  C   UNL A   1      46.401  25.708  35.099  1.00  0.00     0.010 A 
ATOM     85  C   UNL A   1      48.914  26.845  34.627  1.00  0.00     0.020 A 
ATOM     86  C   UNL A   1      47.523  25.216  35.773  1.00  0.00     0.020 A 
ATOM     87  C   UNL A   1      48.775  25.779  35.522  1.00  0.00     0.054 A 
BRANCH  87  88
ATOM     88  S   UNL A   1      50.246  25.167  36.392  1.00  0.00     0.124 S 
ATOM     89  O   UNL A   1      50.901  26.409  36.790  1.00  0.00    -0.237 OA
ATOM     90  O   UNL A   1      49.671  24.381  37.482  1.00  0.00    -0.237 OA
ATOM     91  O   UNL A   1      50.950  24.389  35.376  1.00  0.00    -0.744 OA
ENDBRANCH  87  88
ENDBRANCH  61  82
ENDBRANCH  35  36
ENDBRANCH  28  30
ENDBRANCH  27  28
ENDBRANCH  26  27
ENDBRANCH  25  26
ENDBRANCH  24  25
ENDBRANCH   1  24
TORSDOF 23
ENDMDL
MODEL 2
REMARK VINA RESULT:      -9.3      5.561     10.210
REMARK SMILES C#CCN(CC(=O)OCCOCCOC(=O)c1ccc(-c2c3nc(c(-c4ccc(S(=O)(=O)[O-])cc4)c4ccc([nH]4)c(-c4ccc(S(=O)(=O)[O-])cc4)c4nc(c(-c5ccc(S(=O)(=O)[O-])cc5)c5ccc2[nH]5)C=C4)C=C3)cc1)S(=O)(=O)c1ccc(C(C)(C)C)cc1
REMARK SMILES IDX 10 1 9 2 8 3 6 4 7 5 5 6 4 7 3 8 2 9 1 10 77 11 78 12 79 13
REMARK SMILES IDX 80 14 81 15 89 16 82 17 88 18 83 19 84 20 85 21 86 22 87 23
REMARK SMILES IDX 11 24 12 25 13 26 14 27 15 28 16 29 17 30 18 31 76 32 19 33
REMARK SMILES IDX 75 34 20 35 21 36 22 37 69 38 23 39 74 40 68 41 70 42 24 43
REMARK SMILES IDX 73 44 67 45 66 46 25 48 55 49 36 50 54 51 37 52 40 53 53 54
REMARK SMILES IDX 71 55 38 56 39 57 52 59 72 60 41 61 26 62 27 63 35 64 28 65
REMARK SMILES IDX 34 66 29 67 30 68 31 69 32 70 33 71 56 72 57 73 65 74 58 75
REMARK SMILES IDX 64 76 59 77 60 78 61 79 62 80 63 81 42 82 43 83 51 84 44 85
REMARK SMILES IDX 50 86 45 87 46 88 47 89 48 90 49 91
REMARK H PARENT 70 47 40 58
REMARK Flexibility Score: inf
ROOT
ATOM      1  C   UNL A   1      35.128  32.462  27.750  1.00  0.00     0.202 C 
ENDROOT
BRANCH   1   2
ATOM      2  C   UNL A   1      33.924  31.533  27.959  1.00  0.00     0.261 C 
BRANCH   2   3
ATOM      3  O   UNL A   1      33.813  30.589  26.873  1.00  0.00    -0.462 OA
BRANCH   3   4
ATOM      4  C   UNL A   1      34.230  29.312  27.102  1.00  0.00     0.321 C 
ATOM      5  O   UNL A   1      35.381  28.991  27.373  1.00  0.00    -0.251 OA
BRANCH   4   6
ATOM      6  C   UNL A   1      33.095  28.298  26.986  1.00  0.00     0.226 C 
BRANCH   6   7
ATOM      7  N   UNL A   1      33.411  27.161  26.056  1.00  0.00    -0.175 NA
BRANCH   7   8
ATOM      8  C   UNL A   1      32.587  25.965  26.483  1.00  0.00     0.192 C 
BRANCH   8   9
ATOM      9  C   UNL A   1      31.148  25.909  25.996  1.00  0.00    -0.090 C 
ATOM     10  C   UNL A   1      29.914  25.861  25.579  1.00  0.00     0.005 C 
ENDBRANCH   8   9
ENDBRANCH   7   8
BRANCH   7  11
ATOM     11  S   UNL A   1      33.391  27.483  24.389  1.00  0.00     0.244 S 
ATOM     12  O   UNL A   1      34.494  28.376  24.093  1.00  0.00    -0.207 OA
ATOM     13  O   UNL A   1      33.244  26.204  23.726  1.00  0.00    -0.207 OA
BRANCH  11  14
ATOM     14  C   UNL A   1      31.975  28.442  23.905  1.00  0.00     0.082 A 
ATOM     15  C   UNL A   1      31.319  27.968  22.761  1.00  0.00     0.022 A 
ATOM     16  C   UNL A   1      31.478  29.557  24.562  1.00  0.00     0.022 A 
ATOM     17  C   UNL A   1      30.114  28.530  22.350  1.00  0.00     0.005 A 
ATOM     18  C   UNL A   1      30.246  30.100  24.161  1.00  0.00     0.005 A 
ATOM     19  C   UNL A   1      29.511  29.560  23.089  1.00  0.00    -0.043 A 
BRANCH  19  20
ATOM     20  C   UNL A   1      28.080  30.000  22.738  1.00  0.00    -0.013 C 
ATOM     21  C   UNL A   1      27.091  28.845  22.990  1.00  0.00     0.016 C 
ATOM     22  C   UNL A   1      27.687  31.206  23.626  1.00  0.00     0.016 C 
ATOM     23  C   UNL A   1      27.918  30.457  21.272  1.00  0.00     0.016 C 
ENDBRANCH  19  20
ENDBRANCH  11  14
ENDBRANCH   7  11
ENDBRANCH   6   7
ENDBRANCH   4   6
ENDBRANCH   3   4
ENDBRANCH   2   3
ENDBRANCH   1   2
BRANCH   1  24
ATOM     24  O   UNL A   1      35.171  33.612  28.601  1.00  0.00    -0.374 OA
BRANCH  24  25
ATOM     25  C   UNL A   1      36.120  33.598  29.665  1.00  0.00     0.202 C 
BRANCH  25  26
ATOM     26  C   UNL A   1      35.979  32.475  30.697  1.00  0.00     0.261 C 
BRANCH  26  27
ATOM     27  O   UNL A   1      37.214  31.783  30.934  1.00  0.00    -0.460 OA
BRANCH  27  28
ATOM     28  C   UNL A   1      37.102  30.432  30.918  1.00  0.00     0.338 C 
ATOM     29  O   UNL A   1      36.132  29.764  31.236  1.00  0.00    -0.246 OA
BRANCH  28  30
ATOM     30  C   UNL A   1      38.293  29.827  30.299  1.00  0.00     0.060 A 
ATOM     31  C   UNL A   1      39.249  29.277  31.161  1.00  0.00     0.016 A 
ATOM     32  C   UNL A   1      38.532  29.905  28.925  1.00  0.00     0.016 A 
ATOM     33  C   UNL A   1      40.475  28.848  30.655  1.00  0.00     0.010 A 
ATOM     34  C   UNL A   1      39.767  29.475  28.420  1.00  0.00     0.010 A 
ATOM     35  C   UNL A   1      40.757  28.979  29.288  1.00  0.00    -0.014 A 
BRANCH  35  36
ATOM     36  C   UNL A   1      42.131  28.691  28.807  1.00  0.00     0.031 A 
ATOM     37  C   UNL A   1      42.477  27.307  28.328  1.00  0.00     0.074 A 
ATOM     38  C   UNL A   1      43.049  29.673  28.744  1.00  0.00     0.049 A 
ATOM     39  N   UNL A   1      43.598  26.868  27.812  1.00  0.00    -0.248 NA
ATOM     40  C   UNL A   1      41.422  26.287  28.436  1.00  0.00     0.031 C 
ATOM     41  C   UNL A   1      42.827  31.062  29.148  1.00  0.00     0.029 A 
ATOM     42  N   UNL A   1      44.349  29.652  28.308  1.00  0.00    -0.354 N 
ATOM     43  C   UNL A   1      43.385  25.522  27.535  1.00  0.00     0.074 A 
ATOM     44  C   UNL A   1      42.039  25.210  27.966  1.00  0.00     0.031 C 
ATOM     45  C   UNL A   1      43.956  31.760  28.938  1.00  0.00     0.029 A 
ATOM     46  C   UNL A   1      44.983  30.867  28.407  1.00  0.00     0.049 A 
ATOM     47  H   UNL A   1      44.787  28.844  27.955  1.00  0.00     0.167 HD
ATOM     48  C   UNL A   1      44.231  24.628  26.968  1.00  0.00     0.031 A 
ATOM     49  C   UNL A   1      46.251  31.221  28.113  1.00  0.00     0.031 A 
ATOM     50  C   UNL A   1      45.576  24.931  26.556  1.00  0.00     0.049 A 
ATOM     51  C   UNL A   1      47.191  30.196  27.539  1.00  0.00     0.074 A 
ATOM     52  C   UNL A   1      46.501  24.096  25.953  1.00  0.00     0.029 A 
ATOM     53  N   UNL A   1      46.194  26.163  26.715  1.00  0.00    -0.354 N 
ATOM     54  N   UNL A   1      46.960  28.939  27.246  1.00  0.00    -0.248 NA
ATOM     55  C   UNL A   1      48.561  30.642  27.246  1.00  0.00     0.031 C 
ATOM     56  C   UNL A   1      47.696  24.808  25.796  1.00  0.00     0.029 A 
ATOM     57  C   UNL A   1      47.498  26.102  26.250  1.00  0.00     0.049 A 
ATOM     58  H   UNL A   1      45.769  26.962  27.101  1.00  0.00     0.167 HD
ATOM     59  C   UNL A   1      48.149  28.448  26.715  1.00  0.00     0.074 A 
ATOM     60  C   UNL A   1      49.091  29.548  26.714  1.00  0.00     0.031 C 
ATOM     61  C   UNL A   1      48.430  27.201  26.263  1.00  0.00     0.031 A 
BRANCH  48  62
ATOM     62  C   UNL A   1      43.731  23.219  26.792  1.00  0.00    -0.014 A 
ATOM     63  C   UNL A   1      43.874  22.540  25.568  1.00  0.00     0.010 A 
ATOM     64  C   UNL A   1      43.133  22.552  27.877  1.00  0.00     0.010 A 
ATOM     65  C   UNL A   1      43.391  21.237  25.420  1.00  0.00     0.020 A 
ATOM     66  C   UNL A   1      42.670  21.240  27.740  1.00  0.00     0.020 A 
ATOM     67  C   UNL A   1      42.785  20.598  26.505  1.00  0.00     0.054 A 
BRANCH  67  68
ATOM     68  S   UNL A   1      42.170  18.904  26.290  1.00  0.00     0.124 S 
ATOM     69  O   UNL A   1      43.071  18.386  25.263  1.00  0.00    -0.237 OA
ATOM     70  O   UNL A   1      42.340  18.328  27.622  1.00  0.00    -0.237 OA
ATOM     71  O   UNL A   1      40.784  19.089  25.868  1.00  0.00    -0.744 OA
ENDBRANCH  67  68
ENDBRANCH  48  62
BRANCH  49  72
ATOM     72  C   UNL A   1      46.701  32.615  28.369  1.00  0.00    -0.014 A 
ATOM     73  C   UNL A   1      46.592  33.601  27.374  1.00  0.00     0.010 A 
ATOM     74  C   UNL A   1      47.222  32.965  29.629  1.00  0.00     0.010 A 
ATOM     75  C   UNL A   1      46.998  34.914  27.634  1.00  0.00     0.020 A 
ATOM     76  C   UNL A   1      47.605  34.281  29.899  1.00  0.00     0.020 A 
ATOM     77  C   UNL A   1      47.497  35.247  28.898  1.00  0.00     0.054 A 
BRANCH  77  78
ATOM     78  S   UNL A   1      47.944  36.971  29.239  1.00  0.00     0.124 S 
ATOM     79  O   UNL A   1      49.390  36.883  29.411  1.00  0.00    -0.237 OA
ATOM     80  O   UNL A   1      47.490  37.660  28.033  1.00  0.00    -0.237 OA
ATOM     81  O   UNL A   1      47.184  37.287  30.447  1.00  0.00    -0.744 OA
ENDBRANCH  77  78
ENDBRANCH  49  72
BRANCH  61  82
ATOM     82  C   UNL A   1      49.810  26.958  25.710  1.00  0.00    -0.014 A 
ATOM     83  C   UNL A   1      50.105  27.203  24.358  1.00  0.00     0.010 A 
ATOM     84  C   UNL A   1      50.838  26.532  26.571  1.00  0.00     0.010 A 
ATOM     85  C   UNL A   1      51.398  26.997  23.868  1.00  0.00     0.020 A 
ATOM     86  C   UNL A   1      52.138  26.348  26.090  1.00  0.00     0.020 A 
ATOM     87  C   UNL A   1      52.407  26.568  24.738  1.00  0.00     0.054 A 
BRANCH  87  88
ATOM     88  S   UNL A   1      54.088  26.349  24.091  1.00  0.00     0.124 S 
ATOM     89  O   UNL A   1      53.848  26.243  22.655  1.00  0.00    -0.237 OA
ATOM     90  O   UNL A   1      54.763  27.570  24.527  1.00  0.00    -0.237 OA
ATOM     91  O   UNL A   1      54.551  25.124  24.738  1.00  0.00    -0.744 OA
ENDBRANCH  87  88
ENDBRANCH  61  82
ENDBRANCH  35  36
ENDBRANCH  28  30
ENDBRANCH  27  28
ENDBRANCH  26  27
ENDBRANCH  25  26
ENDBRANCH  24  25
ENDBRANCH   1  24
TORSDOF 23
ENDMDL
MODEL 3
REMARK VINA RESULT:      -8.8      5.041     12.046
REMARK SMILES C#CCN(CC(=O)OCCOCCOC(=O)c1ccc(-c2c3nc(c(-c4ccc(S(=O)(=O)[O-])cc4)c4ccc([nH]4)c(-c4ccc(S(=O)(=O)[O-])cc4)c4nc(c(-c5ccc(S(=O)(=O)[O-])cc5)c5ccc2[nH]5)C=C4)C=C3)cc1)S(=O)(=O)c1ccc(C(C)(C)C)cc1
REMARK SMILES IDX 10 1 9 2 8 3 6 4 7 5 5 6 4 7 3 8 2 9 1 10 77 11 78 12 79 13
REMARK SMILES IDX 80 14 81 15 89 16 82 17 88 18 83 19 84 20 85 21 86 22 87 23
REMARK SMILES IDX 11 24 12 25 13 26 14 27 15 28 16 29 17 30 18 31 76 32 19 33
REMARK SMILES IDX 75 34 20 35 21 36 22 37 69 38 23 39 74 40 68 41 70 42 24 43
REMARK SMILES IDX 73 44 67 45 66 46 25 48 55 49 36 50 54 51 37 52 40 53 53 54
REMARK SMILES IDX 71 55 38 56 39 57 52 59 72 60 41 61 26 62 27 63 35 64 28 65
REMARK SMILES IDX 34 66 29 67 30 68 31 69 32 70 33 71 56 72 57 73 65 74 58 75
REMARK SMILES IDX 64 76 59 77 60 78 61 79 62 80 63 81 42 82 43 83 51 84 44 85
REMARK SMILES IDX 50 86 45 87 46 88 47 89 48 90 49 91
REMARK H PARENT 70 47 40 58
REMARK Flexibility Score: inf
ROOT
ATOM      1  C   UNL A   1      47.433  24.875  24.254  1.00  0.00     0.202 C 
ENDROOT
BRANCH   1   2
ATOM      2  C   UNL A   1      47.560  26.276  24.867  1.00  0.00     0.261 C 
BRANCH   2   3
ATOM      3  O   UNL A   1      46.386  26.604  25.639  1.00  0.00    -0.462 OA
BRANCH   3   4
ATOM      4  C   UNL A   1      46.463  26.469  26.993  1.00  0.00     0.321 C 
ATOM      5  O   UNL A   1      46.584  25.402  27.584  1.00  0.00    -0.251 OA
BRANCH   4   6
ATOM      6  C   UNL A   1      46.385  27.810  27.718  1.00  0.00     0.226 C 
BRANCH   6   7
ATOM      7  N   UNL A   1      45.595  28.844  26.968  1.00  0.00    -0.175 NA
BRANCH   7   8
ATOM      8  C   UNL A   1      44.196  28.874  27.545  1.00  0.00     0.192 C 
BRANCH   8   9
ATOM      9  C   UNL A   1      43.043  28.928  26.556  1.00  0.00    -0.090 C 
ATOM     10  C   UNL A   1      42.054  28.975  25.707  1.00  0.00     0.005 C 
ENDBRANCH   8   9
ENDBRANCH   7   8
BRANCH   7  11
ATOM     11  S   UNL A   1      46.310  30.369  26.748  1.00  0.00     0.244 S 
ATOM     12  O   UNL A   1      47.669  30.302  27.247  1.00  0.00    -0.207 OA
ATOM     13  O   UNL A   1      46.012  30.768  25.388  1.00  0.00    -0.207 OA
BRANCH  11  14
ATOM     14  C   UNL A   1      45.576  31.611  27.785  1.00  0.00     0.082 A 
ATOM     15  C   UNL A   1      44.614  32.405  27.147  1.00  0.00     0.022 A 
ATOM     16  C   UNL A   1      45.854  31.827  29.127  1.00  0.00     0.022 A 
ATOM     17  C   UNL A   1      43.854  33.318  27.870  1.00  0.00     0.005 A 
ATOM     18  C   UNL A   1      45.063  32.728  29.858  1.00  0.00     0.005 A 
ATOM     19  C   UNL A   1      44.010  33.445  29.259  1.00  0.00    -0.043 A 
BRANCH  19  20
ATOM     20  C   UNL A   1      43.005  34.294  30.056  1.00  0.00    -0.013 C 
ATOM     21  C   UNL A   1      41.573  33.766  29.841  1.00  0.00     0.016 C 
ATOM     22  C   UNL A   1      43.353  34.214  31.562  1.00  0.00     0.016 C 
ATOM     23  C   UNL A   1      43.024  35.790  29.675  1.00  0.00     0.016 C 
ENDBRANCH  19  20
ENDBRANCH  11  14
ENDBRANCH   7  11
ENDBRANCH   6   7
ENDBRANCH   4   6
ENDBRANCH   3   4
ENDBRANCH   2   3
ENDBRANCH   1   2
BRANCH   1  24
ATOM     24  O   UNL A   1      46.115  24.315  24.268  1.00  0.00    -0.374 OA
BRANCH  24  25
ATOM     25  C   UNL A   1      46.002  22.927  24.574  1.00  0.00     0.202 C 
BRANCH  25  26
ATOM     26  C   UNL A   1      44.869  22.162  23.883  1.00  0.00     0.261 C 
BRANCH  26  27
ATOM     27  O   UNL A   1      43.578  22.739  24.133  1.00  0.00    -0.460 OA
BRANCH  27  28
ATOM     28  C   UNL A   1      42.917  22.183  25.177  1.00  0.00     0.338 C 
ATOM     29  O   UNL A   1      42.721  20.998  25.385  1.00  0.00    -0.246 OA
BRANCH  28  30
ATOM     30  C   UNL A   1      42.569  23.214  26.170  1.00  0.00     0.060 A 
ATOM     31  C   UNL A   1      43.075  24.501  25.955  1.00  0.00     0.016 A 
ATOM     32  C   UNL A   1      41.874  22.906  27.342  1.00  0.00     0.016 A 
ATOM     33  C   UNL A   1      42.931  25.476  26.939  1.00  0.00     0.010 A 
ATOM     34  C   UNL A   1      41.736  23.889  28.332  1.00  0.00     0.010 A 
ATOM     35  C   UNL A   1      42.294  25.167  28.150  1.00  0.00    -0.014 A 
BRANCH  35  36
ATOM     36  C   UNL A   1      42.321  26.162  29.251  1.00  0.00     0.031 A 
ATOM     37  C   UNL A   1      43.428  26.115  30.269  1.00  0.00     0.074 A 
ATOM     38  C   UNL A   1      41.396  27.137  29.308  1.00  0.00     0.049 A 
ATOM     39  N   UNL A   1      43.668  26.928  31.267  1.00  0.00    -0.248 NA
ATOM     40  C   UNL A   1      44.397  25.014  30.142  1.00  0.00     0.031 C 
ATOM     41  C   UNL A   1      40.292  27.310  28.364  1.00  0.00     0.029 A 
ATOM     42  N   UNL A   1      41.245  28.172  30.197  1.00  0.00    -0.354 N 
ATOM     43  C   UNL A   1      44.812  26.439  31.889  1.00  0.00     0.074 A 
ATOM     44  C   UNL A   1      45.201  25.243  31.173  1.00  0.00     0.031 C 
ATOM     45  C   UNL A   1      39.578  28.389  28.723  1.00  0.00     0.029 A 
ATOM     46  C   UNL A   1      40.158  28.970  29.933  1.00  0.00     0.049 A 
ATOM     47  H   UNL A   1      41.857  28.329  30.951  1.00  0.00     0.167 HD
ATOM     48  C   UNL A   1      45.480  26.942  32.954  1.00  0.00     0.031 A 
ATOM     49  C   UNL A   1      39.677  30.042  30.594  1.00  0.00     0.031 A 
ATOM     50  C   UNL A   1      45.084  28.121  33.678  1.00  0.00     0.049 A 
ATOM     51  C   UNL A   1      40.403  30.549  31.810  1.00  0.00     0.074 A 
ATOM     52  C   UNL A   1      45.710  28.719  34.758  1.00  0.00     0.029 A 
ATOM     53  N   UNL A   1      43.952  28.875  33.405  1.00  0.00    -0.354 N 
ATOM     54  N   UNL A   1      41.506  30.097  32.359  1.00  0.00    -0.248 NA
ATOM     55  C   UNL A   1      39.825  31.717  32.490  1.00  0.00     0.031 C 
ATOM     56  C   UNL A   1      44.928  29.804  35.171  1.00  0.00     0.029 A 
ATOM     57  C   UNL A   1      43.844  29.914  34.315  1.00  0.00     0.049 A 
ATOM     58  H   UNL A   1      43.319  28.697  32.673  1.00  0.00     0.167 HD
ATOM     59  C   UNL A   1      41.765  30.939  33.436  1.00  0.00     0.074 A 
ATOM     60  C   UNL A   1      40.713  31.934  33.453  1.00  0.00     0.031 C 
ATOM     61  C   UNL A   1      42.787  30.893  34.327  1.00  0.00     0.031 A 
BRANCH  48  62
ATOM     62  C   UNL A   1      46.699  26.192  33.422  1.00  0.00    -0.014 A 
ATOM     63  C   UNL A   1      46.600  25.168  34.383  1.00  0.00     0.010 A 
ATOM     64  C   UNL A   1      47.958  26.495  32.873  1.00  0.00     0.010 A 
ATOM     65  C   UNL A   1      47.745  24.492  34.816  1.00  0.00     0.020 A 
ATOM     66  C   UNL A   1      49.101  25.805  33.286  1.00  0.00     0.020 A 
ATOM     67  C   UNL A   1      48.989  24.820  34.270  1.00  0.00     0.054 A 
BRANCH  67  68
ATOM     68  S   UNL A   1      50.459  23.924  34.844  1.00  0.00     0.124 S 
ATOM     69  O   UNL A   1      49.865  22.752  35.483  1.00  0.00    -0.237 OA
ATOM     70  O   UNL A   1      51.183  23.664  33.603  1.00  0.00    -0.237 OA
ATOM     71  O   UNL A   1      51.107  24.867  35.753  1.00  0.00    -0.744 OA
ENDBRANCH  67  68
ENDBRANCH  48  62
BRANCH  49  72
ATOM     72  C   UNL A   1      38.432  30.701  30.115  1.00  0.00    -0.014 A 
ATOM     73  C   UNL A   1      37.176  30.315  30.614  1.00  0.00     0.010 A 
ATOM     74  C   UNL A   1      38.507  31.742  29.171  1.00  0.00     0.010 A 
ATOM     75  C   UNL A   1      36.015  30.958  30.173  1.00  0.00     0.020 A 
ATOM     76  C   UNL A   1      37.351  32.402  28.748  1.00  0.00     0.020 A 
ATOM     77  C   UNL A   1      36.110  32.001  29.247  1.00  0.00     0.054 A 
BRANCH  77  78
ATOM     78  S   UNL A   1      34.600  32.873  28.749  1.00  0.00     0.124 S 
ATOM     79  O   UNL A   1      35.135  34.052  28.076  1.00  0.00    -0.237 OA
ATOM     80  O   UNL A   1      33.940  31.896  27.886  1.00  0.00    -0.237 OA
ATOM     81  O   UNL A   1      33.919  33.128  30.018  1.00  0.00    -0.744 OA
ENDBRANCH  77  78
ENDBRANCH  49  72
BRANCH  61  82
ATOM     82  C   UNL A   1      42.831  31.961  35.387  1.00  0.00    -0.014 A 
ATOM     83  C   UNL A   1      42.230  31.767  36.643  1.00  0.00     0.010 A 
ATOM     84  C   UNL A   1      43.533  33.156  35.141  1.00  0.00     0.010 A 
ATOM     85  C   UNL A   1      42.304  32.759  37.624  1.00  0.00     0.020 A 
ATOM     86  C   UNL A   1      43.631  34.141  36.128  1.00  0.00     0.020 A 
ATOM     87  C   UNL A   1      43.003  33.942  37.359  1.00  0.00     0.054 A 
BRANCH  87  88
ATOM     88  S   UNL A   1      43.124  35.199  38.663  1.00  0.00     0.124 S 
ATOM     89  O   UNL A   1      43.753  34.452  39.747  1.00  0.00    -0.237 OA
ATOM     90  O   UNL A   1      43.957  36.227  38.042  1.00  0.00    -0.237 OA
ATOM     91  O   UNL A   1      41.736  35.588  38.897  1.00  0.00    -0.744 OA
ENDBRANCH  87  88
ENDBRANCH  61  82
ENDBRANCH  35  36
ENDBRANCH  28  30
ENDBRANCH  27  28
ENDBRANCH  26  27
ENDBRANCH  25  26
ENDBRANCH  24  25
ENDBRANCH   1  24
TORSDOF 23
ENDMDL
