MODEL 1
REMARK VINA RESULT:     -13.1      0.000      0.000
REMARK SMILES O=C(OCCOCCOC(=O)c1ccc(-c2c3nc(c(-c4ccc(S(=O)(=O)[O-])cc4)c4ccc([nH]4)c(-c4ccc(S(=O)(=O)[O-])cc4)c4nc(c(-c5ccc(S(=O)(=O)[O-])cc5)c5ccc2[nH]5)C=C4)C=C3)cc1)C1=Cc2cc(Cl)cc(-c3ccc(O)cc3)c2O[C@@H]1C(F)(F)F
REMARK SMILES IDX 7 1 6 2 5 3 4 4 3 5 2 6 1 7 72 8 73 9 89 10 74 11 88 12
REMARK SMILES IDX 75 13 87 14 76 15 79 16 77 17 78 18 90 19 91 20 92 21 93 22
REMARK SMILES IDX 80 23 81 24 86 25 82 26 85 27 83 28 84 29 8 31 9 32 10 33
REMARK SMILES IDX 11 34 12 35 13 36 71 37 14 38 70 39 15 40 16 41 17 42 64 43
REMARK SMILES IDX 18 44 69 45 63 46 65 47 19 48 68 49 62 50 61 51 20 53 50 54
REMARK SMILES IDX 31 55 49 56 32 57 35 58 48 59 66 60 33 61 34 62 47 64 67 65
REMARK SMILES IDX 36 66 21 67 22 68 30 69 23 70 29 71 24 72 25 73 26 74 27 75
REMARK SMILES IDX 28 76 51 77 52 78 60 79 53 80 59 81 54 82 55 83 56 84 57 85
REMARK SMILES IDX 58 86 37 87 38 88 46 89 39 90 45 91 40 92 41 93 42 94 43 95
REMARK SMILES IDX 44 96
REMARK H PARENT 84 30 65 52 35 63
REMARK Flexibility Score: inf
ROOT
ATOM      1  C   UNL A   1      41.365  20.429  26.319  1.00  0.00     0.202 C 
ENDROOT
BRANCH   1   2
ATOM      2  O   UNL A   1      40.329  21.266  26.918  1.00  0.00    -0.374 OA
BRANCH   2   3
ATOM      3  C   UNL A   1      38.827  21.786  26.424  1.00  0.00     0.202 C 
BRANCH   3   4
ATOM      4  C   UNL A   1      37.811  21.445  24.529  1.00  0.00     0.261 C 
BRANCH   4   5
ATOM      5  O   UNL A   1      36.276  21.337  24.329  1.00  0.00    -0.460 OA
BRANCH   5   6
ATOM      6  C   UNL A   1      35.737  22.441  23.801  1.00  0.00     0.338 C 
ATOM      7  O   UNL A   1      36.166  23.172  22.944  1.00  0.00    -0.246 OA
BRANCH   6   8
ATOM      8  C   UNL A   1      34.776  22.659  24.863  1.00  0.00     0.087 C 
ATOM      9  C   UNL A   1      35.034  23.881  25.615  1.00  0.00     0.027 C 
ATOM     10  C   UNL A   1      33.224  22.364  23.757  1.00  0.00     0.316 C 
ATOM     11  C   UNL A   1      34.068  25.387  25.454  1.00  0.00     0.019 A 
ATOM     12  O   UNL A   1      32.173  24.002  23.535  1.00  0.00    -0.475 OA
ATOM     13  C   UNL A   1      34.573  26.474  26.114  1.00  0.00     0.032 A 
ATOM     14  C   UNL A   1      32.706  25.559  24.368  1.00  0.00     0.135 A 
ATOM     15  C   UNL A   1      33.980  27.692  25.788  1.00  0.00     0.042 A 
ATOM     16  C   UNL A   1      32.125  26.859  24.172  1.00  0.00     0.026 A 
ATOM     17  Cl  UNL A   1      34.584  29.096  26.606  1.00  0.00    -0.084 Cl
ATOM     18  C   UNL A   1      32.891  27.872  24.851  1.00  0.00     0.033 A 
BRANCH  10  19
ATOM     19  C   UNL A   1      32.961  20.896  24.465  1.00  0.00     0.430 C 
ATOM     20  F   UNL A   1      32.821  20.898  25.805  1.00  0.00    -0.167 F 
ATOM     21  F   UNL A   1      31.747  20.434  24.027  1.00  0.00    -0.167 F 
ATOM     22  F   UNL A   1      33.826  19.915  24.115  1.00  0.00    -0.167 F 
ENDBRANCH  10  19
BRANCH  16  23
ATOM     23  C   UNL A   1      30.788  27.371  23.401  1.00  0.00    -0.014 A 
ATOM     24  C   UNL A   1      29.472  26.291  24.029  1.00  0.00     0.012 A 
ATOM     25  C   UNL A   1      30.171  29.093  22.512  1.00  0.00     0.012 A 
ATOM     26  C   UNL A   1      27.790  26.811  23.888  1.00  0.00     0.047 A 
ATOM     27  C   UNL A   1      28.416  29.493  22.468  1.00  0.00     0.047 A 
ATOM     28  C   UNL A   1      27.309  28.342  23.148  1.00  0.00     0.115 A 
BRANCH  28  29
ATOM     29  O   UNL A   1      25.971  28.601  23.039  1.00  0.00    -0.508 OA
ATOM     30  H   UNL A   1      25.452  28.130  22.418  1.00  0.00     0.293 HD
ENDBRANCH  28  29
ENDBRANCH  16  23
ENDBRANCH   6   8
ENDBRANCH   5   6
ENDBRANCH   4   5
ENDBRANCH   3   4
ENDBRANCH   2   3
ENDBRANCH   1   2
BRANCH   1  31
ATOM     31  C   UNL A   1      42.677  21.048  25.842  1.00  0.00     0.261 C 
BRANCH  31  32
ATOM     32  O   UNL A   1      42.778  22.345  26.342  1.00  0.00    -0.460 OA
BRANCH  32  33
ATOM     33  C   UNL A   1      42.883  23.227  25.339  1.00  0.00     0.338 C 
ATOM     34  O   UNL A   1      43.298  23.091  24.204  1.00  0.00    -0.246 OA
BRANCH  33  35
ATOM     35  C   UNL A   1      42.331  24.423  25.893  1.00  0.00     0.060 A 
ATOM     36  C   UNL A   1      43.345  25.885  25.943  1.00  0.00     0.016 A 
ATOM     37  C   UNL A   1      40.846  24.346  26.944  1.00  0.00     0.016 A 
ATOM     38  C   UNL A   1      42.999  27.254  27.030  1.00  0.00     0.010 A 
ATOM     39  C   UNL A   1      40.524  25.936  28.146  1.00  0.00     0.010 A 
ATOM     40  C   UNL A   1      41.651  27.308  28.141  1.00  0.00    -0.014 A 
BRANCH  40  41
ATOM     41  C   UNL A   1      41.562  28.177  29.359  1.00  0.00     0.031 A 
ATOM     42  C   UNL A   1      42.381  27.881  30.611  1.00  0.00     0.074 A 
ATOM     43  C   UNL A   1      40.517  29.014  29.473  1.00  0.00     0.049 A 
ATOM     44  N   UNL A   1      42.325  28.418  31.808  1.00  0.00    -0.248 NA
ATOM     45  C   UNL A   1      43.341  26.776  30.535  1.00  0.00     0.031 C 
ATOM     46  C   UNL A   1      39.515  29.254  28.438  1.00  0.00     0.029 A 
ATOM     47  N   UNL A   1      40.105  29.791  30.528  1.00  0.00    -0.354 N 
ATOM     48  C   UNL A   1      43.211  27.687  32.606  1.00  0.00     0.074 A 
ATOM     49  C   UNL A   1      43.693  26.598  31.798  1.00  0.00     0.031 C 
ATOM     50  C   UNL A   1      38.618  30.144  28.897  1.00  0.00     0.029 A 
ATOM     51  C   UNL A   1      38.983  30.536  30.257  1.00  0.00     0.049 A 
ATOM     52  H   UNL A   1      40.569  29.813  31.396  1.00  0.00     0.167 HD
ATOM     53  C   UNL A   1      43.647  27.924  33.871  1.00  0.00     0.031 A 
ATOM     54  C   UNL A   1      38.346  31.456  31.008  1.00  0.00     0.031 A 
ATOM     55  C   UNL A   1      43.180  29.029  34.663  1.00  0.00     0.049 A 
ATOM     56  C   UNL A   1      38.890  31.794  32.374  1.00  0.00     0.074 A 
ATOM     57  C   UNL A   1      43.644  29.480  35.885  1.00  0.00     0.029 A 
ATOM     58  N   UNL A   1      42.126  29.851  34.301  1.00  0.00    -0.354 N 
ATOM     59  N   UNL A   1      39.879  31.239  33.036  1.00  0.00    -0.248 NA
ATOM     60  C   UNL A   1      38.259  32.921  33.073  1.00  0.00     0.031 C 
ATOM     61  C   UNL A   1      42.821  30.534  36.297  1.00  0.00     0.029 A 
ATOM     62  C   UNL A   1      41.906  30.793  35.287  1.00  0.00     0.049 A 
ATOM     63  H   UNL A   1      41.611  29.776  33.466  1.00  0.00     0.167 HD
ATOM     64  C   UNL A   1      40.024  31.989  34.200  1.00  0.00     0.074 A 
ATOM     65  C   UNL A   1      39.028  33.038  34.146  1.00  0.00     0.031 C 
ATOM     66  C   UNL A   1      40.911  31.834  35.217  1.00  0.00     0.031 A 
BRANCH  53  67
ATOM     67  C   UNL A   1      44.715  27.017  34.454  1.00  0.00    -0.014 A 
ATOM     68  C   UNL A   1      44.370  25.831  35.133  1.00  0.00     0.010 A 
ATOM     69  C   UNL A   1      46.081  27.306  34.269  1.00  0.00     0.010 A 
ATOM     70  C   UNL A   1      45.355  24.994  35.666  1.00  0.00     0.020 A 
ATOM     71  C   UNL A   1      47.073  26.448  34.764  1.00  0.00     0.020 A 
ATOM     72  C   UNL A   1      46.703  25.307  35.476  1.00  0.00     0.054 A 
BRANCH  72  73
ATOM     73  S   UNL A   1      47.954  24.182  36.154  1.00  0.00     0.124 S 
ATOM     74  O   UNL A   1      48.811  25.098  36.903  1.00  0.00    -0.237 OA
ATOM     75  O   UNL A   1      47.154  23.268  36.965  1.00  0.00    -0.237 OA
ATOM     76  O   UNL A   1      48.566  23.586  34.968  1.00  0.00    -0.744 OA
ENDBRANCH  72  73
ENDBRANCH  53  67
BRANCH  54  77
ATOM     77  C   UNL A   1      37.210  32.227  30.429  1.00  0.00    -0.014 A 
ATOM     78  C   UNL A   1      35.889  31.785  30.636  1.00  0.00     0.010 A 
ATOM     79  C   UNL A   1      37.427  33.401  29.688  1.00  0.00     0.010 A 
ATOM     80  C   UNL A   1      34.810  32.480  30.085  1.00  0.00     0.020 A 
ATOM     81  C   UNL A   1      36.347  34.121  29.164  1.00  0.00     0.020 A 
ATOM     82  C   UNL A   1      35.046  33.647  29.356  1.00  0.00     0.054 A 
BRANCH  82  83
ATOM     83  S   UNL A   1      33.623  34.556  28.691  1.00  0.00     0.124 S 
ATOM     84  O   UNL A   1      32.755  34.661  29.860  1.00  0.00    -0.237 OA
ATOM     85  O   UNL A   1      34.233  35.805  28.241  1.00  0.00    -0.237 OA
ATOM     86  O   UNL A   1      33.131  33.689  27.622  1.00  0.00    -0.744 OA
ENDBRANCH  82  83
ENDBRANCH  54  77
BRANCH  66  87
ATOM     87  C   UNL A   1      40.902  32.863  36.318  1.00  0.00    -0.014 A 
ATOM     88  C   UNL A   1      40.209  32.660  37.523  1.00  0.00     0.010 A 
ATOM     89  C   UNL A   1      41.646  34.046  36.148  1.00  0.00     0.010 A 
ATOM     90  C   UNL A   1      40.210  33.647  38.512  1.00  0.00     0.020 A 
ATOM     91  C   UNL A   1      41.687  35.015  37.151  1.00  0.00     0.020 A 
ATOM     92  C   UNL A   1      40.948  34.819  38.317  1.00  0.00     0.054 A 
BRANCH  92  93
ATOM     93  S   UNL A   1      40.944  36.078  39.621  1.00  0.00     0.124 S 
ATOM     94  O   UNL A   1      42.371  36.328  39.805  1.00  0.00    -0.237 OA
ATOM     95  O   UNL A   1      40.189  37.169  39.008  1.00  0.00    -0.237 OA
ATOM     96  O   UNL A   1      40.278  35.418  40.740  1.00  0.00    -0.744 OA
ENDBRANCH  92  93
ENDBRANCH  66  87
ENDBRANCH  40  41
ENDBRANCH  33  35
ENDBRANCH  32  33
ENDBRANCH  31  32
ENDBRANCH   1  31
TORSDOF 20
ENDMDL
MODEL 2
REMARK VINA RESULT:     -11.3      4.061      4.619
REMARK SMILES O=C(OCCOCCOC(=O)c1ccc(-c2c3nc(c(-c4ccc(S(=O)(=O)[O-])cc4)c4ccc([nH]4)c(-c4ccc(S(=O)(=O)[O-])cc4)c4nc(c(-c5ccc(S(=O)(=O)[O-])cc5)c5ccc2[nH]5)C=C4)C=C3)cc1)C1=Cc2cc(Cl)cc(-c3ccc(O)cc3)c2O[C@@H]1C(F)(F)F
REMARK SMILES IDX 7 1 6 2 5 3 4 4 3 5 2 6 1 7 72 8 73 9 89 10 74 11 88 12
REMARK SMILES IDX 75 13 87 14 76 15 79 16 77 17 78 18 90 19 91 20 92 21 93 22
REMARK SMILES IDX 80 23 81 24 86 25 82 26 85 27 83 28 84 29 8 31 9 32 10 33
REMARK SMILES IDX 11 34 12 35 13 36 71 37 14 38 70 39 15 40 16 41 17 42 64 43
REMARK SMILES IDX 18 44 69 45 63 46 65 47 19 48 68 49 62 50 61 51 20 53 50 54
REMARK SMILES IDX 31 55 49 56 32 57 35 58 48 59 66 60 33 61 34 62 47 64 67 65
REMARK SMILES IDX 36 66 21 67 22 68 30 69 23 70 29 71 24 72 25 73 26 74 27 75
REMARK SMILES IDX 28 76 51 77 52 78 60 79 53 80 59 81 54 82 55 83 56 84 57 85
REMARK SMILES IDX 58 86 37 87 38 88 46 89 39 90 45 91 40 92 41 93 42 94 43 95
REMARK SMILES IDX 44 96
REMARK H PARENT 84 30 65 52 35 63
REMARK Flexibility Score: inf
ROOT
ATOM      1  C   UNL A   1      41.580  20.410  26.700  1.00  0.00     0.202 C 
ENDROOT
BRANCH   1   2
ATOM      2  O   UNL A   1      40.703  21.474  27.182  1.00  0.00    -0.374 OA
BRANCH   2   3
ATOM      3  C   UNL A   1      39.220  22.061  26.706  1.00  0.00     0.202 C 
BRANCH   3   4
ATOM      4  C   UNL A   1      38.154  21.745  24.835  1.00  0.00     0.261 C 
BRANCH   4   5
ATOM      5  O   UNL A   1      36.653  21.374  24.697  1.00  0.00    -0.460 OA
BRANCH   5   6
ATOM      6  C   UNL A   1      35.950  22.283  24.011  1.00  0.00     0.338 C 
ATOM      7  O   UNL A   1      36.271  22.941  23.054  1.00  0.00    -0.246 OA
BRANCH   6   8
ATOM      8  C   UNL A   1      34.943  22.491  25.032  1.00  0.00     0.087 C 
ATOM      9  C   UNL A   1      35.160  23.711  25.798  1.00  0.00     0.027 C 
ATOM     10  C   UNL A   1      33.442  22.189  23.858  1.00  0.00     0.316 C 
ATOM     11  C   UNL A   1      34.191  25.211  25.600  1.00  0.00     0.019 A 
ATOM     12  O   UNL A   1      32.390  23.821  23.596  1.00  0.00    -0.475 OA
ATOM     13  C   UNL A   1      34.660  26.300  26.285  1.00  0.00     0.032 A 
ATOM     14  C   UNL A   1      32.877  25.379  24.457  1.00  0.00     0.135 A 
ATOM     15  C   UNL A   1      34.074  27.515  25.937  1.00  0.00     0.042 A 
ATOM     16  C   UNL A   1      32.297  26.675  24.240  1.00  0.00     0.026 A 
ATOM     17  Cl  UNL A   1      34.633  28.920  26.785  1.00  0.00    -0.084 Cl
ATOM     18  C   UNL A   1      33.025  27.691  24.955  1.00  0.00     0.033 A 
BRANCH  10  19
ATOM     19  C   UNL A   1      33.159  20.717  24.550  1.00  0.00     0.430 C 
ATOM     20  F   UNL A   1      33.294  20.653  25.888  1.00  0.00    -0.167 F 
ATOM     21  F   UNL A   1      31.836  20.414  24.356  1.00  0.00    -0.167 F 
ATOM     22  F   UNL A   1      33.815  19.673  23.992  1.00  0.00    -0.167 F 
ENDBRANCH  10  19
BRANCH  16  23
ATOM     23  C   UNL A   1      30.991  27.181  23.414  1.00  0.00    -0.014 A 
ATOM     24  C   UNL A   1      29.620  26.220  24.116  1.00  0.00     0.012 A 
ATOM     25  C   UNL A   1      30.461  28.849  22.376  1.00  0.00     0.012 A 
ATOM     26  C   UNL A   1      27.966  26.803  23.913  1.00  0.00     0.047 A 
ATOM     27  C   UNL A   1      28.728  29.324  22.279  1.00  0.00     0.047 A 
ATOM     28  C   UNL A   1      27.563  28.286  23.041  1.00  0.00     0.115 A 
BRANCH  28  29
ATOM     29  O   UNL A   1      26.239  28.597  22.896  1.00  0.00    -0.508 OA
ATOM     30  H   UNL A   1      25.753  28.929  23.625  1.00  0.00     0.293 HD
ENDBRANCH  28  29
ENDBRANCH  16  23
ENDBRANCH   6   8
ENDBRANCH   5   6
ENDBRANCH   4   5
ENDBRANCH   3   4
ENDBRANCH   2   3
ENDBRANCH   1   2
BRANCH   1  31
ATOM     31  C   UNL A   1      42.902  20.750  26.018  1.00  0.00     0.261 C 
BRANCH  31  32
ATOM     32  O   UNL A   1      43.285  22.040  26.381  1.00  0.00    -0.460 OA
BRANCH  32  33
ATOM     33  C   UNL A   1      43.124  22.884  25.353  1.00  0.00     0.338 C 
ATOM     34  O   UNL A   1      43.296  22.721  24.160  1.00  0.00    -0.246 OA
BRANCH  33  35
ATOM     35  C   UNL A   1      42.634  24.073  25.976  1.00  0.00     0.060 A 
ATOM     36  C   UNL A   1      42.562  25.569  25.014  1.00  0.00     0.016 A 
ATOM     37  C   UNL A   1      42.547  24.187  27.790  1.00  0.00     0.016 A 
ATOM     38  C   UNL A   1      42.472  27.184  25.762  1.00  0.00     0.010 A 
ATOM     39  C   UNL A   1      42.445  26.052  28.560  1.00  0.00     0.010 A 
ATOM     40  C   UNL A   1      42.442  27.466  27.487  1.00  0.00    -0.014 A 
BRANCH  40  41
ATOM     41  C   UNL A   1      42.818  28.749  28.165  1.00  0.00     0.031 A 
ATOM     42  C   UNL A   1      44.265  29.063  28.530  1.00  0.00     0.074 A 
ATOM     43  C   UNL A   1      41.849  29.470  28.755  1.00  0.00     0.049 A 
ATOM     44  N   UNL A   1      44.765  30.038  29.254  1.00  0.00    -0.248 NA
ATOM     45  C   UNL A   1      45.287  28.108  28.092  1.00  0.00     0.031 C 
ATOM     46  C   UNL A   1      40.420  29.179  28.678  1.00  0.00     0.029 A 
ATOM     47  N   UNL A   1      41.925  30.575  29.567  1.00  0.00    -0.354 N 
ATOM     48  C   UNL A   1      46.134  29.776  29.370  1.00  0.00     0.074 A 
ATOM     49  C   UNL A   1      46.364  28.495  28.755  1.00  0.00     0.031 C 
ATOM     50  C   UNL A   1      39.748  30.101  29.388  1.00  0.00     0.029 A 
ATOM     51  C   UNL A   1      40.699  31.046  29.969  1.00  0.00     0.049 A 
ATOM     52  H   UNL A   1      42.777  30.990  29.835  1.00  0.00     0.167 HD
ATOM     53  C   UNL A   1      47.132  30.548  29.875  1.00  0.00     0.031 A 
ATOM     54  C   UNL A   1      40.381  32.138  30.693  1.00  0.00     0.031 A 
ATOM     55  C   UNL A   1      46.898  31.838  30.463  1.00  0.00     0.049 A 
ATOM     56  C   UNL A   1      41.484  33.052  31.168  1.00  0.00     0.074 A 
ATOM     57  C   UNL A   1      47.818  32.790  30.868  1.00  0.00     0.029 A 
ATOM     58  N   UNL A   1      45.641  32.349  30.738  1.00  0.00    -0.354 N 
ATOM     59  N   UNL A   1      42.784  32.902  31.077  1.00  0.00    -0.248 NA
ATOM     60  C   UNL A   1      41.067  34.311  31.801  1.00  0.00     0.031 C 
ATOM     61  C   UNL A   1      47.115  33.847  31.455  1.00  0.00     0.029 A 
ATOM     62  C   UNL A   1      45.757  33.592  31.331  1.00  0.00     0.049 A 
ATOM     63  H   UNL A   1      44.791  31.894  30.541  1.00  0.00     0.167 HD
ATOM     64  C   UNL A   1      43.338  34.074  31.587  1.00  0.00     0.074 A 
ATOM     65  C   UNL A   1      42.230  34.922  31.975  1.00  0.00     0.031 C 
ATOM     66  C   UNL A   1      44.644  34.425  31.709  1.00  0.00     0.031 A 
BRANCH  53  67
ATOM     67  C   UNL A   1      48.562  30.053  29.762  1.00  0.00    -0.014 A 
ATOM     68  C   UNL A   1      49.264  30.130  28.542  1.00  0.00     0.010 A 
ATOM     69  C   UNL A   1      49.244  29.567  30.894  1.00  0.00     0.010 A 
ATOM     70  C   UNL A   1      50.583  29.678  28.441  1.00  0.00     0.020 A 
ATOM     71  C   UNL A   1      50.580  29.152  30.809  1.00  0.00     0.020 A 
ATOM     72  C   UNL A   1      51.235  29.192  29.577  1.00  0.00     0.054 A 
BRANCH  72  73
ATOM     73  S   UNL A   1      52.957  28.643  29.416  1.00  0.00     0.124 S 
ATOM     74  O   UNL A   1      52.838  27.558  28.445  1.00  0.00    -0.237 OA
ATOM     75  O   UNL A   1      53.630  29.846  28.932  1.00  0.00    -0.237 OA
ATOM     76  O   UNL A   1      53.320  28.230  30.770  1.00  0.00    -0.744 OA
ENDBRANCH  72  73
ENDBRANCH  53  67
BRANCH  54  77
ATOM     77  C   UNL A   1      38.950  32.505  30.888  1.00  0.00    -0.014 A 
ATOM     78  C   UNL A   1      38.272  33.228  29.888  1.00  0.00     0.010 A 
ATOM     79  C   UNL A   1      38.253  32.132  32.050  1.00  0.00     0.010 A 
ATOM     80  C   UNL A   1      36.937  33.600  30.059  1.00  0.00     0.020 A 
ATOM     81  C   UNL A   1      36.905  32.472  32.210  1.00  0.00     0.020 A 
ATOM     82  C   UNL A   1      36.260  33.216  31.218  1.00  0.00     0.054 A 
BRANCH  82  83
ATOM     83  S   UNL A   1      34.513  33.673  31.392  1.00  0.00     0.124 S 
ATOM     84  O   UNL A   1      34.012  33.491  30.034  1.00  0.00    -0.237 OA
ATOM     85  O   UNL A   1      34.034  32.707  32.379  1.00  0.00    -0.237 OA
ATOM     86  O   UNL A   1      34.565  35.057  31.860  1.00  0.00    -0.744 OA
ENDBRANCH  82  83
ENDBRANCH  54  77
BRANCH  66  87
ATOM     87  C   UNL A   1      44.953  35.811  32.213  1.00  0.00    -0.014 A 
ATOM     88  C   UNL A   1      45.143  36.897  31.341  1.00  0.00     0.010 A 
ATOM     89  C   UNL A   1      45.015  36.031  33.603  1.00  0.00     0.010 A 
ATOM     90  C   UNL A   1      45.448  38.163  31.848  1.00  0.00     0.020 A 
ATOM     91  C   UNL A   1      45.274  37.303  34.114  1.00  0.00     0.020 A 
ATOM     92  C   UNL A   1      45.513  38.356  33.232  1.00  0.00     0.054 A 
BRANCH  92  93
ATOM     93  S   UNL A   1      45.896  40.011  33.863  1.00  0.00     0.124 S 
ATOM     94  O   UNL A   1      45.003  40.852  33.071  1.00  0.00    -0.237 OA
ATOM     95  O   UNL A   1      45.561  39.896  35.281  1.00  0.00    -0.237 OA
ATOM     96  O   UNL A   1      47.320  40.171  33.577  1.00  0.00    -0.744 OA
ENDBRANCH  92  93
ENDBRANCH  66  87
ENDBRANCH  40  41
ENDBRANCH  33  35
ENDBRANCH  32  33
ENDBRANCH  31  32
ENDBRANCH   1  31
TORSDOF 20
ENDMDL
MODEL 3
REMARK VINA RESULT:     -11.1      8.455     11.105
REMARK SMILES O=C(OCCOCCOC(=O)c1ccc(-c2c3nc(c(-c4ccc(S(=O)(=O)[O-])cc4)c4ccc([nH]4)c(-c4ccc(S(=O)(=O)[O-])cc4)c4nc(c(-c5ccc(S(=O)(=O)[O-])cc5)c5ccc2[nH]5)C=C4)C=C3)cc1)C1=Cc2cc(Cl)cc(-c3ccc(O)cc3)c2O[C@@H]1C(F)(F)F
REMARK SMILES IDX 7 1 6 2 5 3 4 4 3 5 2 6 1 7 72 8 73 9 89 10 74 11 88 12
REMARK SMILES IDX 75 13 87 14 76 15 79 16 77 17 78 18 90 19 91 20 92 21 93 22
REMARK SMILES IDX 80 23 81 24 86 25 82 26 85 27 83 28 84 29 8 31 9 32 10 33
REMARK SMILES IDX 11 34 12 35 13 36 71 37 14 38 70 39 15 40 16 41 17 42 64 43
REMARK SMILES IDX 18 44 69 45 63 46 65 47 19 48 68 49 62 50 61 51 20 53 50 54
REMARK SMILES IDX 31 55 49 56 32 57 35 58 48 59 66 60 33 61 34 62 47 64 67 65
REMARK SMILES IDX 36 66 21 67 22 68 30 69 23 70 29 71 24 72 25 73 26 74 27 75
REMARK SMILES IDX 28 76 51 77 52 78 60 79 53 80 59 81 54 82 55 83 56 84 57 85
REMARK SMILES IDX 58 86 37 87 38 88 46 89 39 90 45 91 40 92 41 93 42 94 43 95
REMARK SMILES IDX 44 96
REMARK H PARENT 84 30 65 52 35 63
REMARK Flexibility Score: inf
ROOT
ATOM      1  C   UNL A   1      41.002  22.046  26.869  1.00  0.00     0.202 C 
ENDROOT
BRANCH   1   2
ATOM      2  O   UNL A   1      40.844  23.478  27.106  1.00  0.00    -0.374 OA
BRANCH   2   3
ATOM      3  C   UNL A   1      41.653  24.598  28.033  1.00  0.00     0.202 C 
BRANCH   3   4
ATOM      4  C   UNL A   1      40.914  26.452  28.902  1.00  0.00     0.261 C 
BRANCH   4   5
ATOM      5  O   UNL A   1      39.433  26.765  29.249  1.00  0.00    -0.460 OA
BRANCH   5   6
ATOM      6  C   UNL A   1      39.295  27.840  30.033  1.00  0.00     0.338 C 
ATOM      7  O   UNL A   1      38.893  27.918  31.166  1.00  0.00    -0.246 OA
BRANCH   6   8
ATOM      8  C   UNL A   1      39.357  28.814  28.961  1.00  0.00     0.087 C 
ATOM      9  C   UNL A   1      38.170  28.799  28.116  1.00  0.00     0.027 C 
ATOM     10  C   UNL A   1      39.873  30.286  30.095  1.00  0.00     0.316 C 
ATOM     11  C   UNL A   1      36.882  30.050  28.165  1.00  0.00     0.019 A 
ATOM     12  O   UNL A   1      38.468  31.648  30.195  1.00  0.00    -0.475 OA
ATOM     13  C   UNL A   1      35.769  29.767  27.419  1.00  0.00     0.032 A 
ATOM     14  C   UNL A   1      36.904  31.430  29.241  1.00  0.00     0.135 A 
ATOM     15  C   UNL A   1      34.674  30.596  27.654  1.00  0.00     0.042 A 
ATOM     16  C   UNL A   1      35.737  32.262  29.339  1.00  0.00     0.026 A 
ATOM     17  Cl  UNL A   1      33.244  30.278  26.727  1.00  0.00    -0.084 Cl
ATOM     18  C   UNL A   1      34.646  31.709  28.579  1.00  0.00     0.033 A 
BRANCH  10  19
ATOM     19  C   UNL A   1      41.413  30.241  29.504  1.00  0.00     0.430 C 
ATOM     20  F   UNL A   1      41.544  29.897  28.208  1.00  0.00    -0.167 F 
ATOM     21  F   UNL A   1      41.911  31.518  29.538  1.00  0.00    -0.167 F 
ATOM     22  F   UNL A   1      42.301  29.529  30.238  1.00  0.00    -0.167 F 
ENDBRANCH  10  19
BRANCH  16  23
ATOM     23  C   UNL A   1      35.447  33.683  30.074  1.00  0.00    -0.014 A 
ATOM     24  C   UNL A   1      34.441  34.606  28.878  1.00  0.00     0.012 A 
ATOM     25  C   UNL A   1      35.389  34.364  31.990  1.00  0.00     0.012 A 
ATOM     26  C   UNL A   1      33.457  35.959  29.442  1.00  0.00     0.047 A 
ATOM     27  C   UNL A   1      34.314  35.745  32.412  1.00  0.00     0.047 A 
ATOM     28  C   UNL A   1      33.405  36.481  31.129  1.00  0.00     0.115 A 
BRANCH  28  29
ATOM     29  O   UNL A   1      32.655  37.584  31.430  1.00  0.00    -0.508 OA
ATOM     30  H   UNL A   1      32.662  38.325  30.858  1.00  0.00     0.293 HD
ENDBRANCH  28  29
ENDBRANCH  16  23
ENDBRANCH   6   8
ENDBRANCH   5   6
ENDBRANCH   4   5
ENDBRANCH   3   4
ENDBRANCH   2   3
ENDBRANCH   1   2
BRANCH   1  31
ATOM     31  C   UNL A   1      42.116  21.533  25.960  1.00  0.00     0.261 C 
BRANCH  31  32
ATOM     32  O   UNL A   1      43.273  21.347  26.715  1.00  0.00    -0.460 OA
BRANCH  32  33
ATOM     33  C   UNL A   1      44.358  21.657  25.993  1.00  0.00     0.338 C 
ATOM     34  O   UNL A   1      45.016  20.984  25.223  1.00  0.00    -0.246 OA
BRANCH  33  35
ATOM     35  C   UNL A   1      44.572  23.037  26.295  1.00  0.00     0.060 A 
ATOM     36  C   UNL A   1      44.267  24.243  25.021  1.00  0.00     0.016 A 
ATOM     37  C   UNL A   1      45.570  23.516  27.739  1.00  0.00     0.016 A 
ATOM     38  C   UNL A   1      44.956  25.885  25.074  1.00  0.00     0.010 A 
ATOM     39  C   UNL A   1      46.314  25.394  27.724  1.00  0.00     0.010 A 
ATOM     40  C   UNL A   1      45.983  26.478  26.358  1.00  0.00    -0.014 A 
BRANCH  40  41
ATOM     41  C   UNL A   1      46.933  27.633  26.249  1.00  0.00     0.031 A 
ATOM     42  C   UNL A   1      48.443  27.422  26.225  1.00  0.00     0.074 A 
ATOM     43  C   UNL A   1      46.473  28.868  26.514  1.00  0.00     0.049 A 
ATOM     44  N   UNL A   1      49.423  28.294  26.294  1.00  0.00    -0.248 NA
ATOM     45  C   UNL A   1      48.924  26.038  26.201  1.00  0.00     0.031 C 
ATOM     46  C   UNL A   1      45.076  29.208  26.771  1.00  0.00     0.029 A 
ATOM     47  N   UNL A   1      47.140  30.061  26.646  1.00  0.00    -0.354 N 
ATOM     48  C   UNL A   1      50.605  27.550  26.355  1.00  0.00     0.074 A 
ATOM     49  C   UNL A   1      50.218  26.166  26.442  1.00  0.00     0.031 C 
ATOM     50  C   UNL A   1      44.984  30.528  27.001  1.00  0.00     0.029 A 
ATOM     51  C   UNL A   1      46.314  31.127  26.907  1.00  0.00     0.049 A 
ATOM     52  H   UNL A   1      48.117  30.145  26.562  1.00  0.00     0.167 HD
ATOM     53  C   UNL A   1      51.899  27.957  26.277  1.00  0.00     0.031 A 
ATOM     54  C   UNL A   1      46.596  32.440  27.019  1.00  0.00     0.031 A 
ATOM     55  C   UNL A   1      52.276  29.339  26.164  1.00  0.00     0.049 A 
ATOM     56  C   UNL A   1      48.019  32.905  26.831  1.00  0.00     0.074 A 
ATOM     57  C   UNL A   1      53.525  29.883  25.920  1.00  0.00     0.029 A 
ATOM     58  N   UNL A   1      51.394  30.397  26.300  1.00  0.00    -0.354 N 
ATOM     59  N   UNL A   1      49.110  32.195  26.667  1.00  0.00    -0.248 NA
ATOM     60  C   UNL A   1      48.236  34.357  26.794  1.00  0.00     0.031 C 
ATOM     61  C   UNL A   1      53.408  31.276  25.980  1.00  0.00     0.029 A 
ATOM     62  C   UNL A   1      52.072  31.594  26.170  1.00  0.00     0.049 A 
ATOM     63  H   UNL A   1      50.428  30.310  26.464  1.00  0.00     0.167 HD
ATOM     64  C   UNL A   1      50.132  33.115  26.448  1.00  0.00     0.074 A 
ATOM     65  C   UNL A   1      49.525  34.429  26.493  1.00  0.00     0.031 C 
ATOM     66  C   UNL A   1      51.452  32.895  26.215  1.00  0.00     0.031 A 
BRANCH  53  67
ATOM     67  C   UNL A   1      52.992  26.904  26.251  1.00  0.00    -0.014 A 
ATOM     68  C   UNL A   1      53.464  26.377  25.032  1.00  0.00     0.010 A 
ATOM     69  C   UNL A   1      53.607  26.480  27.445  1.00  0.00     0.010 A 
ATOM     70  C   UNL A   1      54.475  25.411  25.010  1.00  0.00     0.020 A 
ATOM     71  C   UNL A   1      54.650  25.543  27.425  1.00  0.00     0.020 A 
ATOM     72  C   UNL A   1      55.064  25.000  26.208  1.00  0.00     0.054 A 
BRANCH  72  73
ATOM     73  S   UNL A   1      56.394  23.768  26.138  1.00  0.00     0.124 S 
ATOM     74  O   UNL A   1      56.849  23.894  24.756  1.00  0.00    -0.237 OA
ATOM     75  O   UNL A   1      57.328  24.251  27.152  1.00  0.00    -0.237 OA
ATOM     76  O   UNL A   1      55.722  22.511  26.460  1.00  0.00    -0.744 OA
ENDBRANCH  72  73
ENDBRANCH  53  67
BRANCH  54  77
ATOM     77  C   UNL A   1      45.488  33.424  27.180  1.00  0.00    -0.014 A 
ATOM     78  C   UNL A   1      44.841  33.939  26.041  1.00  0.00     0.010 A 
ATOM     79  C   UNL A   1      45.061  33.840  28.453  1.00  0.00     0.010 A 
ATOM     80  C   UNL A   1      43.814  34.877  26.167  1.00  0.00     0.020 A 
ATOM     81  C   UNL A   1      44.009  34.754  28.586  1.00  0.00     0.020 A 
ATOM     82  C   UNL A   1      43.401  35.275  27.441  1.00  0.00     0.054 A 
BRANCH  82  83
ATOM     83  S   UNL A   1      42.034  36.460  27.576  1.00  0.00     0.124 S 
ATOM     84  O   UNL A   1      42.324  37.117  28.847  1.00  0.00    -0.237 OA
ATOM     85  O   UNL A   1      42.215  37.284  26.383  1.00  0.00    -0.237 OA
ATOM     86  O   UNL A   1      40.843  35.613  27.566  1.00  0.00    -0.744 OA
ENDBRANCH  82  83
ENDBRANCH  54  77
BRANCH  66  87
ATOM     87  C   UNL A   1      52.320  34.089  25.913  1.00  0.00    -0.014 A 
ATOM     88  C   UNL A   1      53.039  34.761  26.916  1.00  0.00     0.010 A 
ATOM     89  C   UNL A   1      52.444  34.519  24.578  1.00  0.00     0.010 A 
ATOM     90  C   UNL A   1      53.818  35.877  26.598  1.00  0.00     0.020 A 
ATOM     91  C   UNL A   1      53.256  35.605  24.250  1.00  0.00     0.020 A 
ATOM     92  C   UNL A   1      53.919  36.292  25.266  1.00  0.00     0.054 A 
BRANCH  92  93
ATOM     93  S   UNL A   1      54.946  37.733  24.878  1.00  0.00     0.124 S 
ATOM     94  O   UNL A   1      56.128  37.494  25.703  1.00  0.00    -0.237 OA
ATOM     95  O   UNL A   1      55.148  37.602  23.437  1.00  0.00    -0.237 OA
ATOM     96  O   UNL A   1      54.122  38.868  25.286  1.00  0.00    -0.744 OA
ENDBRANCH  92  93
ENDBRANCH  66  87
ENDBRANCH  40  41
ENDBRANCH  33  35
ENDBRANCH  32  33
ENDBRANCH  31  32
ENDBRANCH   1  31
TORSDOF 20
ENDMDL
