MODEL 1
REMARK VINA RESULT:     -10.0      0.000      0.000
REMARK SMILES O=C(OCCOCCOC(=O)c1cnn2c(C(F)(F)F)ccnc12)c1ccc(-c2c3nc(c(-c4ccc(S(=O)(=O)[O-])cc4)c4ccc([nH]4)c(-c4ccc(S(=O)(=O)[O-])cc4)c4nc(c(-c5ccc(S(=O)(=O)[O-])cc5)c5ccc2[nH]5)C=C4)C=C3)cc1
REMARK SMILES IDX 5 1 4 2 3 3 2 4 1 5 25 6 26 7 84 8 27 9 83 10 28 11 29 12
REMARK SMILES IDX 30 13 77 14 31 15 82 16 76 17 78 18 32 19 81 20 75 21 74 22
REMARK SMILES IDX 33 24 63 25 44 26 62 27 45 28 48 29 61 30 79 31 46 32 47 33
REMARK SMILES IDX 60 35 80 36 49 37 34 38 35 39 43 40 36 41 42 42 37 43 38 44
REMARK SMILES IDX 39 45 40 46 41 47 64 48 65 49 73 50 66 51 72 52 67 53 68 54
REMARK SMILES IDX 69 55 70 56 71 57 50 58 51 59 59 60 52 61 58 62 53 63 54 64
REMARK SMILES IDX 55 65 56 66 57 67 6 68 7 69 8 70 9 71 10 72 11 73 12 74
REMARK SMILES IDX 13 75 24 76 14 77 15 78 23 79 16 80 22 81 21 82 17 83 18 84
REMARK SMILES IDX 19 85 20 86
REMARK H PARENT 78 23 48 34
REMARK Flexibility Score: inf
ROOT
ATOM      1  C   UNL A   1      31.927  29.520  25.560  1.00  0.00     0.202 C 
ENDROOT
BRANCH   1   2
ATOM      2  C   UNL A   1      32.433  30.486  26.634  1.00  0.00     0.261 C 
BRANCH   2   3
ATOM      3  O   UNL A   1      33.806  30.194  26.945  1.00  0.00    -0.460 OA
BRANCH   3   4
ATOM      4  C   UNL A   1      34.587  30.710  27.923  1.00  0.00     0.338 C 
ATOM      5  O   UNL A   1      34.156  31.662  28.571  1.00  0.00    -0.246 OA
BRANCH   4   6
ATOM      6  C   UNL A   1      35.943  30.184  28.273  1.00  0.00     0.060 A 
ATOM      7  C   UNL A   1      36.282  29.578  29.484  1.00  0.00     0.016 A 
ATOM      8  C   UNL A   1      36.920  30.230  27.263  1.00  0.00     0.016 A 
ATOM      9  C   UNL A   1      37.576  29.124  29.727  1.00  0.00     0.010 A 
ATOM     10  C   UNL A   1      38.208  29.728  27.481  1.00  0.00     0.010 A 
ATOM     11  C   UNL A   1      38.548  29.203  28.731  1.00  0.00    -0.014 A 
BRANCH  11  12
ATOM     12  C   UNL A   1      39.934  28.818  29.065  1.00  0.00     0.031 A 
ATOM     13  C   UNL A   1      40.748  29.732  29.931  1.00  0.00     0.074 A 
ATOM     14  C   UNL A   1      40.401  27.612  28.691  1.00  0.00     0.049 A 
ATOM     15  N   UNL A   1      41.958  29.570  30.397  1.00  0.00    -0.248 NA
ATOM     16  C   UNL A   1      40.108  30.995  30.340  1.00  0.00     0.031 C 
ATOM     17  C   UNL A   1      39.651  26.619  27.919  1.00  0.00     0.029 A 
ATOM     18  N   UNL A   1      41.601  27.001  28.944  1.00  0.00    -0.354 N 
ATOM     19  C   UNL A   1      42.230  30.714  31.137  1.00  0.00     0.074 A 
ATOM     20  C   UNL A   1      41.066  31.567  31.053  1.00  0.00     0.031 C 
ATOM     21  C   UNL A   1      40.391  25.506  27.800  1.00  0.00     0.029 A 
ATOM     22  C   UNL A   1      41.682  25.722  28.446  1.00  0.00     0.049 A 
ATOM     23  H   UNL A   1      42.334  27.435  29.437  1.00  0.00     0.167 HD
ATOM     24  C   UNL A   1      43.357  31.028  31.819  1.00  0.00     0.031 A 
ATOM     25  C   UNL A   1      42.690  24.830  28.506  1.00  0.00     0.031 A 
ATOM     26  C   UNL A   1      44.514  30.179  31.876  1.00  0.00     0.049 A 
ATOM     27  C   UNL A   1      43.952  25.225  29.223  1.00  0.00     0.074 A 
ATOM     28  C   UNL A   1      45.736  30.418  32.476  1.00  0.00     0.029 A 
ATOM     29  N   UNL A   1      44.585  28.917  31.303  1.00  0.00    -0.354 N 
ATOM     30  N   UNL A   1      44.214  26.332  29.878  1.00  0.00    -0.248 NA
ATOM     31  C   UNL A   1      45.056  24.257  29.205  1.00  0.00     0.031 C 
ATOM     32  C   UNL A   1      46.559  29.311  32.237  1.00  0.00     0.029 A 
ATOM     33  C   UNL A   1      45.834  28.366  31.526  1.00  0.00     0.049 A 
ATOM     34  H   UNL A   1      43.854  28.478  30.811  1.00  0.00     0.167 HD
ATOM     35  C   UNL A   1      45.509  26.189  30.362  1.00  0.00     0.074 A 
ATOM     36  C   UNL A   1      45.968  24.881  29.938  1.00  0.00     0.031 C 
ATOM     37  C   UNL A   1      46.254  27.059  31.090  1.00  0.00     0.031 A 
BRANCH  24  38
ATOM     38  C   UNL A   1      43.389  32.376  32.483  1.00  0.00    -0.014 A 
ATOM     39  C   UNL A   1      43.034  32.536  33.835  1.00  0.00     0.010 A 
ATOM     40  C   UNL A   1      43.721  33.511  31.721  1.00  0.00     0.010 A 
ATOM     41  C   UNL A   1      42.952  33.814  34.395  1.00  0.00     0.020 A 
ATOM     42  C   UNL A   1      43.659  34.788  32.284  1.00  0.00     0.020 A 
ATOM     43  C   UNL A   1      43.248  34.933  33.610  1.00  0.00     0.054 A 
BRANCH  43  44
ATOM     44  S   UNL A   1      43.088  36.586  34.341  1.00  0.00     0.124 S 
ATOM     45  O   UNL A   1      41.701  36.577  34.801  1.00  0.00    -0.237 OA
ATOM     46  O   UNL A   1      44.098  36.576  35.395  1.00  0.00    -0.237 OA
ATOM     47  O   UNL A   1      43.368  37.486  33.223  1.00  0.00    -0.744 OA
ENDBRANCH  43  44
ENDBRANCH  24  38
BRANCH  25  48
ATOM     48  C   UNL A   1      42.548  23.494  27.865  1.00  0.00    -0.014 A 
ATOM     49  C   UNL A   1      43.031  23.265  26.566  1.00  0.00     0.010 A 
ATOM     50  C   UNL A   1      41.939  22.434  28.563  1.00  0.00     0.010 A 
ATOM     51  C   UNL A   1      42.900  22.004  25.972  1.00  0.00     0.020 A 
ATOM     52  C   UNL A   1      41.829  21.167  27.982  1.00  0.00     0.020 A 
ATOM     53  C   UNL A   1      42.300  20.963  26.684  1.00  0.00     0.054 A 
BRANCH  53  54
ATOM     54  S   UNL A   1      42.188  19.318  25.922  1.00  0.00     0.124 S 
ATOM     55  O   UNL A   1      43.034  19.473  24.743  1.00  0.00    -0.237 OA
ATOM     56  O   UNL A   1      42.715  18.445  26.968  1.00  0.00    -0.237 OA
ATOM     57  O   UNL A   1      40.760  19.164  25.655  1.00  0.00    -0.744 OA
ENDBRANCH  53  54
ENDBRANCH  25  48
BRANCH  37  58
ATOM     58  C   UNL A   1      47.628  26.607  31.489  1.00  0.00    -0.014 A 
ATOM     59  C   UNL A   1      47.835  25.884  32.678  1.00  0.00     0.010 A 
ATOM     60  C   UNL A   1      48.715  26.861  30.636  1.00  0.00     0.010 A 
ATOM     61  C   UNL A   1      49.116  25.447  33.019  1.00  0.00     0.020 A 
ATOM     62  C   UNL A   1      49.994  26.408  30.965  1.00  0.00     0.020 A 
ATOM     63  C   UNL A   1      50.188  25.714  32.162  1.00  0.00     0.054 A 
BRANCH  63  64
ATOM     64  S   UNL A   1      51.836  25.097  32.599  1.00  0.00     0.124 S 
ATOM     65  O   UNL A   1      52.044  25.695  33.915  1.00  0.00    -0.237 OA
ATOM     66  O   UNL A   1      51.655  23.648  32.587  1.00  0.00    -0.237 OA
ATOM     67  O   UNL A   1      52.691  25.619  31.535  1.00  0.00    -0.744 OA
ENDBRANCH  63  64
ENDBRANCH  37  58
ENDBRANCH  11  12
ENDBRANCH   4   6
ENDBRANCH   3   4
ENDBRANCH   2   3
ENDBRANCH   1   2
BRANCH   1  68
ATOM     68  O   UNL A   1      30.811  30.013  24.816  1.00  0.00    -0.374 OA
BRANCH  68  69
ATOM     69  C   UNL A   1      30.529  29.322  23.591  1.00  0.00     0.202 C 
BRANCH  69  70
ATOM     70  C   UNL A   1      31.144  27.919  23.645  1.00  0.00     0.261 C 
BRANCH  70  71
ATOM     71  O   UNL A   1      31.974  27.744  22.487  1.00  0.00    -0.460 OA
BRANCH  71  72
ATOM     72  C   UNL A   1      33.310  27.666  22.755  1.00  0.00     0.343 C 
ATOM     73  O   UNL A   1      34.141  28.511  22.446  1.00  0.00    -0.246 OA
BRANCH  72  74
ATOM     74  C   UNL A   1      33.623  26.559  23.625  1.00  0.00     0.124 A 
ATOM     75  C   UNL A   1      33.991  26.645  24.978  1.00  0.00     0.153 A 
ATOM     76  C   UNL A   1      33.583  25.206  23.358  1.00  0.00     0.170 A 
ATOM     77  N   UNL A   1      34.106  25.453  25.563  1.00  0.00    -0.174 NA
ATOM     78  N   UNL A   1      33.872  24.559  24.571  1.00  0.00    -0.209 N 
ATOM     79  N   UNL A   1      33.340  24.506  22.207  1.00  0.00    -0.236 NA
ATOM     80  C   UNL A   1      33.892  23.170  24.645  1.00  0.00     0.150 A 
ATOM     81  C   UNL A   1      33.393  23.215  22.298  1.00  0.00     0.116 A 
ATOM     82  C   UNL A   1      33.670  22.443  23.534  1.00  0.00     0.053 A 
BRANCH  80  83
ATOM     83  C   UNL A   1      34.151  22.580  25.977  1.00  0.00     0.433 C 
ATOM     84  F   UNL A   1      35.339  22.953  26.512  1.00  0.00    -0.165 F 
ATOM     85  F   UNL A   1      33.177  22.876  26.875  1.00  0.00    -0.165 F 
ATOM     86  F   UNL A   1      34.187  21.218  25.910  1.00  0.00    -0.165 F 
ENDBRANCH  80  83
ENDBRANCH  72  74
ENDBRANCH  71  72
ENDBRANCH  70  71
ENDBRANCH  69  70
ENDBRANCH  68  69
ENDBRANCH   1  68
TORSDOF 18
ENDMDL
MODEL 2
REMARK VINA RESULT:      -9.9      5.747     11.097
REMARK SMILES O=C(OCCOCCOC(=O)c1cnn2c(C(F)(F)F)ccnc12)c1ccc(-c2c3nc(c(-c4ccc(S(=O)(=O)[O-])cc4)c4ccc([nH]4)c(-c4ccc(S(=O)(=O)[O-])cc4)c4nc(c(-c5ccc(S(=O)(=O)[O-])cc5)c5ccc2[nH]5)C=C4)C=C3)cc1
REMARK SMILES IDX 5 1 4 2 3 3 2 4 1 5 25 6 26 7 84 8 27 9 83 10 28 11 29 12
REMARK SMILES IDX 30 13 77 14 31 15 82 16 76 17 78 18 32 19 81 20 75 21 74 22
REMARK SMILES IDX 33 24 63 25 44 26 62 27 45 28 48 29 61 30 79 31 46 32 47 33
REMARK SMILES IDX 60 35 80 36 49 37 34 38 35 39 43 40 36 41 42 42 37 43 38 44
REMARK SMILES IDX 39 45 40 46 41 47 64 48 65 49 73 50 66 51 72 52 67 53 68 54
REMARK SMILES IDX 69 55 70 56 71 57 50 58 51 59 59 60 52 61 58 62 53 63 54 64
REMARK SMILES IDX 55 65 56 66 57 67 6 68 7 69 8 70 9 71 10 72 11 73 12 74
REMARK SMILES IDX 13 75 24 76 14 77 15 78 23 79 16 80 22 81 21 82 17 83 18 84
REMARK SMILES IDX 19 85 20 86
REMARK H PARENT 78 23 48 34
REMARK Flexibility Score: inf
ROOT
ATOM      1  C   UNL A   1      40.783  21.941  27.666  1.00  0.00     0.202 C 
ENDROOT
BRANCH   1   2
ATOM      2  C   UNL A   1      40.557  22.912  26.504  1.00  0.00     0.261 C 
BRANCH   2   3
ATOM      3  O   UNL A   1      41.720  23.740  26.326  1.00  0.00    -0.460 OA
BRANCH   3   4
ATOM      4  C   UNL A   1      41.793  25.078  26.141  1.00  0.00     0.338 C 
ATOM      5  O   UNL A   1      41.984  25.499  25.001  1.00  0.00    -0.246 OA
BRANCH   4   6
ATOM      6  C   UNL A   1      41.645  26.082  27.240  1.00  0.00     0.060 A 
ATOM      7  C   UNL A   1      42.334  27.294  27.319  1.00  0.00     0.016 A 
ATOM      8  C   UNL A   1      40.668  25.815  28.215  1.00  0.00     0.016 A 
ATOM      9  C   UNL A   1      42.138  28.168  28.386  1.00  0.00     0.010 A 
ATOM     10  C   UNL A   1      40.427  26.713  29.261  1.00  0.00     0.010 A 
ATOM     11  C   UNL A   1      41.190  27.879  29.367  1.00  0.00    -0.014 A 
BRANCH  11  12
ATOM     12  C   UNL A   1      41.093  28.771  30.539  1.00  0.00     0.031 A 
ATOM     13  C   UNL A   1      39.992  29.789  30.582  1.00  0.00     0.074 A 
ATOM     14  C   UNL A   1      41.910  28.583  31.592  1.00  0.00     0.049 A 
ATOM     15  N   UNL A   1      39.681  30.631  31.531  1.00  0.00    -0.248 NA
ATOM     16  C   UNL A   1      39.113  29.858  29.401  1.00  0.00     0.031 C 
ATOM     17  C   UNL A   1      42.956  27.561  31.676  1.00  0.00     0.029 A 
ATOM     18  N   UNL A   1      41.961  29.214  32.807  1.00  0.00    -0.354 N 
ATOM     19  C   UNL A   1      38.584  31.341  31.057  1.00  0.00     0.074 A 
ATOM     20  C   UNL A   1      38.288  30.839  29.734  1.00  0.00     0.031 C 
ATOM     21  C   UNL A   1      43.516  27.606  32.895  1.00  0.00     0.029 A 
ATOM     22  C   UNL A   1      42.902  28.687  33.661  1.00  0.00     0.049 A 
ATOM     23  H   UNL A   1      41.381  29.972  33.046  1.00  0.00     0.167 HD
ATOM     24  C   UNL A   1      37.892  32.329  31.669  1.00  0.00     0.031 A 
ATOM     25  C   UNL A   1      43.226  29.042  34.919  1.00  0.00     0.031 A 
ATOM     26  C   UNL A   1      38.212  32.833  32.976  1.00  0.00     0.049 A 
ATOM     27  C   UNL A   1      42.478  30.181  35.556  1.00  0.00     0.074 A 
ATOM     28  C   UNL A   1      37.628  33.875  33.670  1.00  0.00     0.029 A 
ATOM     29  N   UNL A   1      39.214  32.318  33.786  1.00  0.00    -0.354 N 
ATOM     30  N   UNL A   1      41.474  30.877  35.076  1.00  0.00    -0.248 NA
ATOM     31  C   UNL A   1      42.910  30.589  36.899  1.00  0.00     0.031 C 
ATOM     32  C   UNL A   1      38.301  34.012  34.890  1.00  0.00     0.029 A 
ATOM     33  C   UNL A   1      39.274  33.027  34.972  1.00  0.00     0.049 A 
ATOM     34  H   UNL A   1      39.796  31.560  33.552  1.00  0.00     0.167 HD
ATOM     35  C   UNL A   1      41.143  31.796  36.063  1.00  0.00     0.074 A 
ATOM     36  C   UNL A   1      42.044  31.556  37.174  1.00  0.00     0.031 C 
ATOM     37  C   UNL A   1      40.184  32.756  36.055  1.00  0.00     0.031 A 
BRANCH  24  38
ATOM     38  C   UNL A   1      36.779  32.960  30.881  1.00  0.00    -0.014 A 
ATOM     39  C   UNL A   1      37.043  33.830  29.806  1.00  0.00     0.010 A 
ATOM     40  C   UNL A   1      35.445  32.728  31.263  1.00  0.00     0.010 A 
ATOM     41  C   UNL A   1      35.995  34.500  29.168  1.00  0.00     0.020 A 
ATOM     42  C   UNL A   1      34.394  33.382  30.615  1.00  0.00     0.020 A 
ATOM     43  C   UNL A   1      34.679  34.285  29.589  1.00  0.00     0.054 A 
BRANCH  43  44
ATOM     44  S   UNL A   1      33.337  35.202  28.782  1.00  0.00     0.124 S 
ATOM     45  O   UNL A   1      32.727  34.169  27.949  1.00  0.00    -0.237 OA
ATOM     46  O   UNL A   1      32.528  35.656  29.910  1.00  0.00    -0.237 OA
ATOM     47  O   UNL A   1      34.033  36.261  28.053  1.00  0.00    -0.744 OA
ENDBRANCH  43  44
ENDBRANCH  24  38
BRANCH  25  48
ATOM     48  C   UNL A   1      44.309  28.322  35.645  1.00  0.00    -0.014 A 
ATOM     49  C   UNL A   1      44.018  27.208  36.449  1.00  0.00     0.010 A 
ATOM     50  C   UNL A   1      45.647  28.742  35.520  1.00  0.00     0.010 A 
ATOM     51  C   UNL A   1      45.041  26.531  37.123  1.00  0.00     0.020 A 
ATOM     52  C   UNL A   1      46.674  28.054  36.172  1.00  0.00     0.020 A 
ATOM     53  C   UNL A   1      46.364  26.959  36.980  1.00  0.00     0.054 A 
BRANCH  53  54
ATOM     54  S   UNL A   1      47.687  26.037  37.815  1.00  0.00     0.124 S 
ATOM     55  O   UNL A   1      46.997  25.514  38.989  1.00  0.00    -0.237 OA
ATOM     56  O   UNL A   1      48.068  25.047  36.811  1.00  0.00    -0.237 OA
ATOM     57  O   UNL A   1      48.695  27.060  38.083  1.00  0.00    -0.744 OA
ENDBRANCH  53  54
ENDBRANCH  25  48
BRANCH  37  58
ATOM     58  C   UNL A   1      40.050  33.592  37.295  1.00  0.00    -0.014 A 
ATOM     59  C   UNL A   1      40.874  34.712  37.505  1.00  0.00     0.010 A 
ATOM     60  C   UNL A   1      39.049  33.283  38.232  1.00  0.00     0.010 A 
ATOM     61  C   UNL A   1      40.715  35.494  38.650  1.00  0.00     0.020 A 
ATOM     62  C   UNL A   1      38.876  34.075  39.368  1.00  0.00     0.020 A 
ATOM     63  C   UNL A   1      39.719  35.170  39.576  1.00  0.00     0.054 A 
BRANCH  63  64
ATOM     64  S   UNL A   1      39.497  36.225  41.034  1.00  0.00     0.124 S 
ATOM     65  O   UNL A   1      40.852  36.725  41.255  1.00  0.00    -0.237 OA
ATOM     66  O   UNL A   1      38.528  37.216  40.573  1.00  0.00    -0.237 OA
ATOM     67  O   UNL A   1      38.998  35.304  42.052  1.00  0.00    -0.744 OA
ENDBRANCH  63  64
ENDBRANCH  37  58
ENDBRANCH  11  12
ENDBRANCH   4   6
ENDBRANCH   3   4
ENDBRANCH   2   3
ENDBRANCH   1   2
BRANCH   1  68
ATOM     68  O   UNL A   1      41.988  21.182  27.560  1.00  0.00    -0.374 OA
BRANCH  68  69
ATOM     69  C   UNL A   1      41.817  19.785  27.279  1.00  0.00     0.202 C 
BRANCH  69  70
ATOM     70  C   UNL A   1      42.621  19.416  26.028  1.00  0.00     0.261 C 
BRANCH  70  71
ATOM     71  O   UNL A   1      43.033  20.629  25.380  1.00  0.00    -0.460 OA
BRANCH  71  72
ATOM     72  C   UNL A   1      44.383  20.751  25.216  1.00  0.00     0.343 C 
ATOM     73  O   UNL A   1      45.149  19.827  24.970  1.00  0.00    -0.246 OA
BRANCH  72  74
ATOM     74  C   UNL A   1      44.799  22.131  25.167  1.00  0.00     0.124 A 
ATOM     75  C   UNL A   1      45.093  22.869  24.009  1.00  0.00     0.153 A 
ATOM     76  C   UNL A   1      44.948  23.030  26.202  1.00  0.00     0.170 A 
ATOM     77  N   UNL A   1      45.337  24.155  24.259  1.00  0.00    -0.174 NA
ATOM     78  N   UNL A   1      45.266  24.262  25.608  1.00  0.00    -0.209 N 
ATOM     79  N   UNL A   1      44.849  22.888  27.560  1.00  0.00    -0.236 NA
ATOM     80  C   UNL A   1      45.464  25.395  26.391  1.00  0.00     0.150 A 
ATOM     81  C   UNL A   1      45.068  23.952  28.267  1.00  0.00     0.116 A 
ATOM     82  C   UNL A   1      45.389  25.298  27.731  1.00  0.00     0.053 A 
BRANCH  80  83
ATOM     83  C   UNL A   1      45.739  26.659  25.671  1.00  0.00     0.433 C 
ATOM     84  F   UNL A   1      44.831  26.940  24.705  1.00  0.00    -0.165 F 
ATOM     85  F   UNL A   1      45.807  27.728  26.505  1.00  0.00    -0.165 F 
ATOM     86  F   UNL A   1      46.947  26.609  25.038  1.00  0.00    -0.165 F 
ENDBRANCH  80  83
ENDBRANCH  72  74
ENDBRANCH  71  72
ENDBRANCH  70  71
ENDBRANCH  69  70
ENDBRANCH  68  69
ENDBRANCH   1  68
TORSDOF 18
ENDMDL
MODEL 3
REMARK VINA RESULT:      -9.6      8.191     12.957
REMARK SMILES O=C(OCCOCCOC(=O)c1cnn2c(C(F)(F)F)ccnc12)c1ccc(-c2c3nc(c(-c4ccc(S(=O)(=O)[O-])cc4)c4ccc([nH]4)c(-c4ccc(S(=O)(=O)[O-])cc4)c4nc(c(-c5ccc(S(=O)(=O)[O-])cc5)c5ccc2[nH]5)C=C4)C=C3)cc1
REMARK SMILES IDX 5 1 4 2 3 3 2 4 1 5 25 6 26 7 84 8 27 9 83 10 28 11 29 12
REMARK SMILES IDX 30 13 77 14 31 15 82 16 76 17 78 18 32 19 81 20 75 21 74 22
REMARK SMILES IDX 33 24 63 25 44 26 62 27 45 28 48 29 61 30 79 31 46 32 47 33
REMARK SMILES IDX 60 35 80 36 49 37 34 38 35 39 43 40 36 41 42 42 37 43 38 44
REMARK SMILES IDX 39 45 40 46 41 47 64 48 65 49 73 50 66 51 72 52 67 53 68 54
REMARK SMILES IDX 69 55 70 56 71 57 50 58 51 59 59 60 52 61 58 62 53 63 54 64
REMARK SMILES IDX 55 65 56 66 57 67 6 68 7 69 8 70 9 71 10 72 11 73 12 74
REMARK SMILES IDX 13 75 24 76 14 77 15 78 23 79 16 80 22 81 21 82 17 83 18 84
REMARK SMILES IDX 19 85 20 86
REMARK H PARENT 78 23 48 34
REMARK Flexibility Score: inf
ROOT
ATOM      1  C   UNL A   1      45.322  38.633  26.900  1.00  0.00     0.202 C 
ENDROOT
BRANCH   1   2
ATOM      2  C   UNL A   1      46.583  38.971  27.699  1.00  0.00     0.261 C 
BRANCH   2   3
ATOM      3  O   UNL A   1      47.472  37.840  27.709  1.00  0.00    -0.460 OA
BRANCH   3   4
ATOM      4  C   UNL A   1      47.683  36.930  28.688  1.00  0.00     0.338 C 
ATOM      5  O   UNL A   1      48.301  37.285  29.690  1.00  0.00    -0.246 OA
BRANCH   4   6
ATOM      6  C   UNL A   1      47.198  35.516  28.631  1.00  0.00     0.060 A 
ATOM      7  C   UNL A   1      47.241  34.608  29.692  1.00  0.00     0.016 A 
ATOM      8  C   UNL A   1      46.570  35.108  27.442  1.00  0.00     0.016 A 
ATOM      9  C   UNL A   1      46.773  33.305  29.546  1.00  0.00     0.010 A 
ATOM     10  C   UNL A   1      46.048  33.817  27.305  1.00  0.00     0.010 A 
ATOM     11  C   UNL A   1      46.181  32.899  28.352  1.00  0.00    -0.014 A 
BRANCH  11  12
ATOM     12  C   UNL A   1      45.802  31.480  28.198  1.00  0.00     0.031 A 
ATOM     13  C   UNL A   1      44.385  31.078  28.483  1.00  0.00     0.074 A 
ATOM     14  C   UNL A   1      46.690  30.602  27.697  1.00  0.00     0.049 A 
ATOM     15  N   UNL A   1      43.818  29.908  28.358  1.00  0.00    -0.248 NA
ATOM     16  C   UNL A   1      43.482  32.140  28.958  1.00  0.00     0.031 C 
ATOM     17  C   UNL A   1      48.066  30.920  27.311  1.00  0.00     0.029 A 
ATOM     18  N   UNL A   1      46.556  29.273  27.389  1.00  0.00    -0.354 N 
ATOM     19  C   UNL A   1      42.498  30.088  28.756  1.00  0.00     0.074 A 
ATOM     20  C   UNL A   1      42.350  31.475  29.134  1.00  0.00     0.031 C 
ATOM     21  C   UNL A   1      48.635  29.828  26.775  1.00  0.00     0.029 A 
ATOM     22  C   UNL A   1      47.682  28.724  26.823  1.00  0.00     0.049 A 
ATOM     23  H   UNL A   1      45.732  28.761  27.556  1.00  0.00     0.167 HD
ATOM     24  C   UNL A   1      41.502  29.173  28.809  1.00  0.00     0.031 A 
ATOM     25  C   UNL A   1      47.912  27.468  26.394  1.00  0.00     0.031 A 
ATOM     26  C   UNL A   1      41.671  27.793  28.450  1.00  0.00     0.049 A 
ATOM     27  C   UNL A   1      46.805  26.457  26.515  1.00  0.00     0.074 A 
ATOM     28  C   UNL A   1      40.756  26.760  28.526  1.00  0.00     0.029 A 
ATOM     29  N   UNL A   1      42.845  27.256  27.942  1.00  0.00    -0.354 N 
ATOM     30  N   UNL A   1      45.575  26.630  26.941  1.00  0.00    -0.248 NA
ATOM     31  C   UNL A   1      47.116  25.081  26.107  1.00  0.00     0.031 C 
ATOM     32  C   UNL A   1      41.390  25.588  28.095  1.00  0.00     0.029 A 
ATOM     33  C   UNL A   1      42.685  25.902  27.710  1.00  0.00     0.049 A 
ATOM     34  H   UNL A   1      43.671  27.764  27.772  1.00  0.00     0.167 HD
ATOM     35  C   UNL A   1      44.960  25.388  26.838  1.00  0.00     0.074 A 
ATOM     36  C   UNL A   1      45.950  24.478  26.296  1.00  0.00     0.031 C 
ATOM     37  C   UNL A   1      43.693  25.029  27.165  1.00  0.00     0.031 A 
BRANCH  24  38
ATOM     38  C   UNL A   1      40.180  29.647  29.344  1.00  0.00    -0.014 A 
ATOM     39  C   UNL A   1      39.092  29.903  28.489  1.00  0.00     0.010 A 
ATOM     40  C   UNL A   1      40.045  29.901  30.721  1.00  0.00     0.010 A 
ATOM     41  C   UNL A   1      37.914  30.461  28.994  1.00  0.00     0.020 A 
ATOM     42  C   UNL A   1      38.862  30.439  31.233  1.00  0.00     0.020 A 
ATOM     43  C   UNL A   1      37.814  30.742  30.361  1.00  0.00     0.054 A 
BRANCH  43  44
ATOM     44  S   UNL A   1      36.296  31.511  30.991  1.00  0.00     0.124 S 
ATOM     45  O   UNL A   1      36.799  32.779  31.516  1.00  0.00    -0.237 OA
ATOM     46  O   UNL A   1      35.463  31.614  29.796  1.00  0.00    -0.237 OA
ATOM     47  O   UNL A   1      35.821  30.564  31.998  1.00  0.00    -0.744 OA
ENDBRANCH  43  44
ENDBRANCH  24  38
BRANCH  25  48
ATOM     48  C   UNL A   1      49.239  27.102  25.826  1.00  0.00    -0.014 A 
ATOM     49  C   UNL A   1      50.269  26.626  26.654  1.00  0.00     0.010 A 
ATOM     50  C   UNL A   1      49.473  27.212  24.442  1.00  0.00     0.010 A 
ATOM     51  C   UNL A   1      51.512  26.276  26.112  1.00  0.00     0.020 A 
ATOM     52  C   UNL A   1      50.704  26.842  23.894  1.00  0.00     0.020 A 
ATOM     53  C   UNL A   1      51.721  26.386  24.735  1.00  0.00     0.054 A 
BRANCH  53  54
ATOM     54  S   UNL A   1      53.319  25.876  24.039  1.00  0.00     0.124 S 
ATOM     55  O   UNL A   1      53.463  24.525  24.570  1.00  0.00    -0.237 OA
ATOM     56  O   UNL A   1      53.084  25.968  22.600  1.00  0.00    -0.237 OA
ATOM     57  O   UNL A   1      54.253  26.864  24.574  1.00  0.00    -0.744 OA
ENDBRANCH  53  54
ENDBRANCH  25  48
BRANCH  37  58
ATOM     58  C   UNL A   1      43.308  23.600  26.917  1.00  0.00    -0.014 A 
ATOM     59  C   UNL A   1      43.038  23.139  25.617  1.00  0.00     0.010 A 
ATOM     60  C   UNL A   1      43.270  22.697  27.994  1.00  0.00     0.010 A 
ATOM     61  C   UNL A   1      42.708  21.799  25.402  1.00  0.00     0.020 A 
ATOM     62  C   UNL A   1      42.960  21.353  27.779  1.00  0.00     0.020 A 
ATOM     63  C   UNL A   1      42.668  20.915  26.485  1.00  0.00     0.054 A 
BRANCH  63  64
ATOM     64  S   UNL A   1      42.285  19.169  26.180  1.00  0.00     0.124 S 
ATOM     65  O   UNL A   1      40.878  19.231  25.795  1.00  0.00    -0.237 OA
ATOM     66  O   UNL A   1      43.215  18.814  25.112  1.00  0.00    -0.237 OA
ATOM     67  O   UNL A   1      42.553  18.530  27.466  1.00  0.00    -0.744 OA
ENDBRANCH  63  64
ENDBRANCH  37  58
ENDBRANCH  11  12
ENDBRANCH   4   6
ENDBRANCH   3   4
ENDBRANCH   2   3
ENDBRANCH   1   2
BRANCH   1  68
ATOM     68  O   UNL A   1      44.652  39.775  26.364  1.00  0.00    -0.374 OA
BRANCH  68  69
ATOM     69  C   UNL A   1      43.242  39.843  26.621  1.00  0.00     0.202 C 
BRANCH  69  70
ATOM     70  C   UNL A   1      42.614  40.921  25.731  1.00  0.00     0.261 C 
BRANCH  70  71
ATOM     71  O   UNL A   1      43.594  41.342  24.770  1.00  0.00    -0.460 OA
BRANCH  71  72
ATOM     72  C   UNL A   1      43.543  42.669  24.456  1.00  0.00     0.343 C 
ATOM     73  O   UNL A   1      44.069  43.567  25.104  1.00  0.00    -0.246 OA
BRANCH  72  74
ATOM     74  C   UNL A   1      42.961  42.895  23.156  1.00  0.00     0.124 A 
ATOM     75  C   UNL A   1      41.593  42.856  22.841  1.00  0.00     0.153 A 
ATOM     76  C   UNL A   1      43.583  43.242  21.975  1.00  0.00     0.170 A 
ATOM     77  N   UNL A   1      41.338  43.221  21.585  1.00  0.00    -0.174 NA
ATOM     78  N   UNL A   1      42.556  43.446  21.037  1.00  0.00    -0.209 N 
ATOM     79  N   UNL A   1      44.903  43.384  21.642  1.00  0.00    -0.236 NA
ATOM     80  C   UNL A   1      42.855  43.830  19.734  1.00  0.00     0.150 A 
ATOM     81  C   UNL A   1      45.154  43.713  20.413  1.00  0.00     0.116 A 
ATOM     82  C   UNL A   1      44.141  43.968  19.360  1.00  0.00     0.053 A 
BRANCH  80  83
ATOM     83  C   UNL A   1      41.705  44.075  18.835  1.00  0.00     0.433 C 
ATOM     84  F   UNL A   1      42.065  44.507  17.603  1.00  0.00    -0.165 F 
ATOM     85  F   UNL A   1      40.922  42.977  18.681  1.00  0.00    -0.165 F 
ATOM     86  F   UNL A   1      40.886  45.042  19.341  1.00  0.00    -0.165 F 
ENDBRANCH  80  83
ENDBRANCH  72  74
ENDBRANCH  71  72
ENDBRANCH  70  71
ENDBRANCH  69  70
ENDBRANCH  68  69
ENDBRANCH   1  68
TORSDOF 18
ENDMDL
