MODEL 1
REMARK VINA RESULT:     -12.3      0.000      0.000
REMARK SMILES O=C(OCCOCCOC(=O)c1nn(Cc2ccc(F)cc2)c2c1CN(C(=O)[C@H]1CC1(F)F)CC2)c1ccc(-c2c3nc(c(-c4ccc(S(=O)(=O)[O-])cc4)c4ccc([nH]4)c(-c4ccc(S(=O)(=O)[O-])cc4)c4nc(c(-c5ccc(S(=O)(=O)[O-])cc5)c5ccc2[nH]5)C=C4)C=C3)cc1
REMARK SMILES IDX 5 1 4 2 3 3 2 4 1 5 36 6 37 7 95 8 38 9 94 10 39 11 40 12
REMARK SMILES IDX 41 13 88 14 42 15 93 16 87 17 89 18 43 19 92 20 86 21 85 22
REMARK SMILES IDX 44 24 74 25 55 26 73 27 56 28 59 29 72 30 90 31 57 32 58 33
REMARK SMILES IDX 71 35 91 36 60 37 45 38 46 39 54 40 47 41 53 42 48 43 49 44
REMARK SMILES IDX 50 45 51 46 52 47 75 48 76 49 84 50 77 51 83 52 78 53 79 54
REMARK SMILES IDX 80 55 81 56 82 57 61 58 62 59 70 60 63 61 69 62 64 63 65 64
REMARK SMILES IDX 66 65 67 66 68 67 6 68 7 69 8 70 9 71 10 72 11 73 12 74
REMARK SMILES IDX 13 75 24 76 14 77 23 78 25 79 35 80 26 81 34 82 15 83 16 84
REMARK SMILES IDX 17 85 22 86 18 87 21 88 19 89 20 90 27 91 28 92 29 93 30 94
REMARK SMILES IDX 31 95 32 96 33 97
REMARK H PARENT 89 23 59 34
REMARK Flexibility Score: inf
ROOT
ATOM      1  C   UNL A   1      40.189  21.780  26.510  1.00  0.00     0.202 C 
ENDROOT
BRANCH   1   2
ATOM      2  C   UNL A   1      41.627  21.320  26.275  1.00  0.00     0.261 C 
BRANCH   2   3
ATOM      3  O   UNL A   1      42.267  22.019  25.194  1.00  0.00    -0.460 OA
BRANCH   3   4
ATOM      4  C   UNL A   1      42.883  23.220  25.295  1.00  0.00     0.338 C 
ATOM      5  O   UNL A   1      43.780  23.518  24.509  1.00  0.00    -0.246 OA
BRANCH   4   6
ATOM      6  C   UNL A   1      42.298  24.273  26.160  1.00  0.00     0.060 A 
ATOM      7  C   UNL A   1      41.372  25.231  25.754  1.00  0.00     0.016 A 
ATOM      8  C   UNL A   1      42.823  24.338  27.461  1.00  0.00     0.016 A 
ATOM      9  C   UNL A   1      41.206  26.382  26.498  1.00  0.00     0.010 A 
ATOM     10  C   UNL A   1      42.588  25.448  28.253  1.00  0.00     0.010 A 
ATOM     11  C   UNL A   1      41.875  26.511  27.714  1.00  0.00    -0.014 A 
BRANCH  11  12
ATOM     12  C   UNL A   1      41.736  27.772  28.422  1.00  0.00     0.031 A 
ATOM     13  C   UNL A   1      42.877  28.711  28.244  1.00  0.00     0.074 A 
ATOM     14  C   UNL A   1      40.630  28.087  29.121  1.00  0.00     0.049 A 
ATOM     15  N   UNL A   1      43.681  29.175  29.144  1.00  0.00    -0.248 NA
ATOM     16  C   UNL A   1      43.247  29.064  26.864  1.00  0.00     0.031 C 
ATOM     17  C   UNL A   1      39.345  27.385  29.168  1.00  0.00     0.029 A 
ATOM     18  N   UNL A   1      40.395  29.200  29.862  1.00  0.00    -0.354 N 
ATOM     19  C   UNL A   1      44.559  30.020  28.471  1.00  0.00     0.074 A 
ATOM     20  C   UNL A   1      44.335  29.807  27.063  1.00  0.00     0.031 C 
ATOM     21  C   UNL A   1      38.404  28.214  29.676  1.00  0.00     0.029 A 
ATOM     22  C   UNL A   1      39.054  29.432  30.130  1.00  0.00     0.049 A 
ATOM     23  H   UNL A   1      41.114  29.791  30.182  1.00  0.00     0.167 HD
ATOM     24  C   UNL A   1      45.287  30.978  29.109  1.00  0.00     0.031 A 
ATOM     25  C   UNL A   1      38.518  30.580  30.615  1.00  0.00     0.031 A 
ATOM     26  C   UNL A   1      45.367  30.746  30.525  1.00  0.00     0.049 A 
ATOM     27  C   UNL A   1      39.619  31.335  31.265  1.00  0.00     0.074 A 
ATOM     28  C   UNL A   1      45.914  29.747  31.305  1.00  0.00     0.029 A 
ATOM     29  N   UNL A   1      44.479  31.414  31.335  1.00  0.00    -0.354 N 
ATOM     30  N   UNL A   1      40.242  30.915  32.330  1.00  0.00    -0.248 NA
ATOM     31  C   UNL A   1      40.343  32.314  30.467  1.00  0.00     0.031 C 
ATOM     32  C   UNL A   1      44.976  29.554  32.361  1.00  0.00     0.029 A 
ATOM     33  C   UNL A   1      43.952  30.491  32.205  1.00  0.00     0.049 A 
ATOM     34  H   UNL A   1      44.263  32.374  31.299  1.00  0.00     0.167 HD
ATOM     35  C   UNL A   1      41.576  31.237  32.118  1.00  0.00     0.074 A 
ATOM     36  C   UNL A   1      41.562  32.176  30.996  1.00  0.00     0.031 C 
ATOM     37  C   UNL A   1      42.585  30.510  32.686  1.00  0.00     0.031 A 
BRANCH  24  38
ATOM     38  C   UNL A   1      45.636  32.297  28.472  1.00  0.00    -0.014 A 
ATOM     39  C   UNL A   1      46.768  33.011  28.912  1.00  0.00     0.010 A 
ATOM     40  C   UNL A   1      44.737  32.981  27.625  1.00  0.00     0.010 A 
ATOM     41  C   UNL A   1      46.962  34.353  28.553  1.00  0.00     0.020 A 
ATOM     42  C   UNL A   1      44.943  34.302  27.229  1.00  0.00     0.020 A 
ATOM     43  C   UNL A   1      46.041  34.991  27.722  1.00  0.00     0.054 A 
BRANCH  43  44
ATOM     44  S   UNL A   1      46.246  36.750  27.343  1.00  0.00     0.124 S 
ATOM     45  O   UNL A   1      46.484  36.723  25.903  1.00  0.00    -0.237 OA
ATOM     46  O   UNL A   1      44.963  37.308  27.763  1.00  0.00    -0.237 OA
ATOM     47  O   UNL A   1      47.390  37.147  28.160  1.00  0.00    -0.744 OA
ENDBRANCH  43  44
ENDBRANCH  24  38
BRANCH  25  48
ATOM     48  C   UNL A   1      37.237  31.207  30.202  1.00  0.00    -0.014 A 
ATOM     49  C   UNL A   1      36.342  31.733  31.149  1.00  0.00     0.010 A 
ATOM     50  C   UNL A   1      37.026  31.537  28.846  1.00  0.00     0.010 A 
ATOM     51  C   UNL A   1      35.306  32.601  30.760  1.00  0.00     0.020 A 
ATOM     52  C   UNL A   1      35.995  32.396  28.450  1.00  0.00     0.020 A 
ATOM     53  C   UNL A   1      35.152  32.944  29.412  1.00  0.00     0.054 A 
BRANCH  53  54
ATOM     54  S   UNL A   1      33.929  34.202  28.940  1.00  0.00     0.124 S 
ATOM     55  O   UNL A   1      33.312  34.533  30.221  1.00  0.00    -0.237 OA
ATOM     56  O   UNL A   1      34.760  35.248  28.350  1.00  0.00    -0.237 OA
ATOM     57  O   UNL A   1      33.060  33.501  27.997  1.00  0.00    -0.744 OA
ENDBRANCH  53  54
ENDBRANCH  25  48
BRANCH  37  58
ATOM     58  C   UNL A   1      42.222  29.473  33.729  1.00  0.00    -0.014 A 
ATOM     59  C   UNL A   1      41.786  28.168  33.414  1.00  0.00     0.010 A 
ATOM     60  C   UNL A   1      42.481  29.778  35.076  1.00  0.00     0.010 A 
ATOM     61  C   UNL A   1      41.586  27.211  34.422  1.00  0.00     0.020 A 
ATOM     62  C   UNL A   1      42.302  28.825  36.083  1.00  0.00     0.020 A 
ATOM     63  C   UNL A   1      41.845  27.548  35.754  1.00  0.00     0.054 A 
BRANCH  63  64
ATOM     64  S   UNL A   1      41.624  26.299  37.053  1.00  0.00     0.124 S 
ATOM     65  O   UNL A   1      41.577  25.054  36.293  1.00  0.00    -0.237 OA
ATOM     66  O   UNL A   1      42.810  26.483  37.888  1.00  0.00    -0.237 OA
ATOM     67  O   UNL A   1      40.364  26.680  37.692  1.00  0.00    -0.744 OA
ENDBRANCH  63  64
ENDBRANCH  37  58
ENDBRANCH  11  12
ENDBRANCH   4   6
ENDBRANCH   3   4
ENDBRANCH   2   3
ENDBRANCH   1   2
BRANCH   1  68
ATOM     68  O   UNL A   1      39.171  21.114  25.769  1.00  0.00    -0.374 OA
BRANCH  68  69
ATOM     69  C   UNL A   1      37.909  21.789  25.687  1.00  0.00     0.202 C 
BRANCH  69  70
ATOM     70  C   UNL A   1      37.923  23.292  25.374  1.00  0.00     0.261 C 
BRANCH  70  71
ATOM     71  O   UNL A   1      36.616  23.813  25.084  1.00  0.00    -0.458 OA
BRANCH  71  72
ATOM     72  C   UNL A   1      36.072  23.436  23.882  1.00  0.00     0.359 C 
ATOM     73  O   UNL A   1      36.703  23.267  22.859  1.00  0.00    -0.244 OA
BRANCH  72  74
ATOM     74  C   UNL A   1      34.644  23.099  24.008  1.00  0.00     0.175 A 
ATOM     75  N   UNL A   1      34.224  21.923  24.516  1.00  0.00    -0.165 NA
ATOM     76  C   UNL A   1      33.536  23.914  23.638  1.00  0.00     0.028 A 
ATOM     77  N   UNL A   1      32.874  21.993  24.491  1.00  0.00    -0.264 N 
ATOM     78  C   UNL A   1      32.423  23.164  23.965  1.00  0.00     0.046 A 
ATOM     79  C   UNL A   1      33.469  25.267  23.002  1.00  0.00     0.159 C 
ATOM     80  C   UNL A   1      31.019  23.624  23.804  1.00  0.00     0.078 C 
ATOM     81  N   UNL A   1      32.083  25.766  23.093  1.00  0.00    -0.337 N 
ATOM     82  C   UNL A   1      31.007  24.795  22.800  1.00  0.00     0.126 C 
BRANCH  77  83
ATOM     83  C   UNL A   1      32.095  20.955  25.156  1.00  0.00     0.180 C 
BRANCH  83  84
ATOM     84  C   UNL A   1      32.444  19.561  24.697  1.00  0.00    -0.026 A 
ATOM     85  C   UNL A   1      32.424  19.237  23.329  1.00  0.00     0.008 A 
ATOM     86  C   UNL A   1      32.845  18.582  25.621  1.00  0.00     0.008 A 
ATOM     87  C   UNL A   1      32.815  17.970  22.892  1.00  0.00     0.039 A 
ATOM     88  C   UNL A   1      33.239  17.316  25.181  1.00  0.00     0.039 A 
ATOM     89  C   UNL A   1      33.227  17.025  23.822  1.00  0.00     0.123 A 
ATOM     90  F   UNL A   1      33.626  15.816  23.405  1.00  0.00    -0.207 F 
ENDBRANCH  83  84
ENDBRANCH  77  83
BRANCH  81  91
ATOM     91  C   UNL A   1      31.882  27.106  23.394  1.00  0.00     0.232 C 
ATOM     92  O   UNL A   1      32.458  27.694  24.298  1.00  0.00    -0.274 OA
BRANCH  91  93
ATOM     93  C   UNL A   1      30.912  27.838  22.553  1.00  0.00     0.154 C 
ATOM     94  C   UNL A   1      29.481  27.998  23.046  1.00  0.00     0.097 C 
ATOM     95  C   UNL A   1      30.392  29.163  22.960  1.00  0.00     0.260 C 
ATOM     96  F   UNL A   1      30.751  29.806  24.120  1.00  0.00    -0.206 F 
ATOM     97  F   UNL A   1      30.117  30.136  22.023  1.00  0.00    -0.206 F 
ENDBRANCH  91  93
ENDBRANCH  81  91
ENDBRANCH  72  74
ENDBRANCH  71  72
ENDBRANCH  70  71
ENDBRANCH  69  70
ENDBRANCH  68  69
ENDBRANCH   1  68
TORSDOF 21
ENDMDL
MODEL 2
REMARK VINA RESULT:     -12.1      1.225      4.511
REMARK SMILES O=C(OCCOCCOC(=O)c1nn(Cc2ccc(F)cc2)c2c1CN(C(=O)[C@H]1CC1(F)F)CC2)c1ccc(-c2c3nc(c(-c4ccc(S(=O)(=O)[O-])cc4)c4ccc([nH]4)c(-c4ccc(S(=O)(=O)[O-])cc4)c4nc(c(-c5ccc(S(=O)(=O)[O-])cc5)c5ccc2[nH]5)C=C4)C=C3)cc1
REMARK SMILES IDX 5 1 4 2 3 3 2 4 1 5 36 6 37 7 95 8 38 9 94 10 39 11 40 12
REMARK SMILES IDX 41 13 88 14 42 15 93 16 87 17 89 18 43 19 92 20 86 21 85 22
REMARK SMILES IDX 44 24 74 25 55 26 73 27 56 28 59 29 72 30 90 31 57 32 58 33
REMARK SMILES IDX 71 35 91 36 60 37 45 38 46 39 54 40 47 41 53 42 48 43 49 44
REMARK SMILES IDX 50 45 51 46 52 47 75 48 76 49 84 50 77 51 83 52 78 53 79 54
REMARK SMILES IDX 80 55 81 56 82 57 61 58 62 59 70 60 63 61 69 62 64 63 65 64
REMARK SMILES IDX 66 65 67 66 68 67 6 68 7 69 8 70 9 71 10 72 11 73 12 74
REMARK SMILES IDX 13 75 24 76 14 77 23 78 25 79 35 80 26 81 34 82 15 83 16 84
REMARK SMILES IDX 17 85 22 86 18 87 21 88 19 89 20 90 27 91 28 92 29 93 30 94
REMARK SMILES IDX 31 95 32 96 33 97
REMARK H PARENT 89 23 59 34
REMARK Flexibility Score: inf
ROOT
ATOM      1  C   UNL A   1      40.047  22.148  26.849  1.00  0.00     0.202 C 
ENDROOT
BRANCH   1   2
ATOM      2  C   UNL A   1      41.242  21.580  27.611  1.00  0.00     0.261 C 
BRANCH   2   3
ATOM      3  O   UNL A   1      42.450  21.572  26.830  1.00  0.00    -0.460 OA
BRANCH   3   4
ATOM      4  C   UNL A   1      42.877  22.584  26.041  1.00  0.00     0.338 C 
ATOM      5  O   UNL A   1      42.908  22.440  24.821  1.00  0.00    -0.246 OA
BRANCH   4   6
ATOM      6  C   UNL A   1      43.039  23.942  26.614  1.00  0.00     0.060 A 
ATOM      7  C   UNL A   1      43.704  24.246  27.799  1.00  0.00     0.016 A 
ATOM      8  C   UNL A   1      42.366  24.966  25.927  1.00  0.00     0.016 A 
ATOM      9  C   UNL A   1      43.454  25.445  28.438  1.00  0.00     0.010 A 
ATOM     10  C   UNL A   1      42.187  26.203  26.518  1.00  0.00     0.010 A 
ATOM     11  C   UNL A   1      42.636  26.390  27.820  1.00  0.00    -0.014 A 
BRANCH  11  12
ATOM     12  C   UNL A   1      42.334  27.600  28.564  1.00  0.00     0.031 A 
ATOM     13  C   UNL A   1      43.410  28.626  28.542  1.00  0.00     0.074 A 
ATOM     14  C   UNL A   1      41.145  27.797  29.164  1.00  0.00     0.049 A 
ATOM     15  N   UNL A   1      44.086  29.101  29.536  1.00  0.00    -0.248 NA
ATOM     16  C   UNL A   1      43.882  29.076  27.223  1.00  0.00     0.031 C 
ATOM     17  C   UNL A   1      39.919  27.001  29.052  1.00  0.00     0.029 A 
ATOM     18  N   UNL A   1      40.755  28.850  29.926  1.00  0.00    -0.354 N 
ATOM     19  C   UNL A   1      44.957  30.041  28.992  1.00  0.00     0.074 A 
ATOM     20  C   UNL A   1      44.885  29.885  27.560  1.00  0.00     0.031 C 
ATOM     21  C   UNL A   1      38.873  27.733  29.500  1.00  0.00     0.029 A 
ATOM     22  C   UNL A   1      39.380  28.970  30.069  1.00  0.00     0.049 A 
ATOM     23  H   UNL A   1      41.391  29.475  30.341  1.00  0.00     0.167 HD
ATOM     24  C   UNL A   1      45.543  31.016  29.740  1.00  0.00     0.031 A 
ATOM     25  C   UNL A   1      38.713  30.050  30.549  1.00  0.00     0.031 A 
ATOM     26  C   UNL A   1      45.506  30.718  31.145  1.00  0.00     0.049 A 
ATOM     27  C   UNL A   1      39.685  30.849  31.337  1.00  0.00     0.074 A 
ATOM     28  C   UNL A   1      46.051  29.723  31.932  1.00  0.00     0.029 A 
ATOM     29  N   UNL A   1      44.496  31.277  31.892  1.00  0.00    -0.354 N 
ATOM     30  N   UNL A   1      40.234  30.421  32.439  1.00  0.00    -0.248 NA
ATOM     31  C   UNL A   1      40.404  31.918  30.659  1.00  0.00     0.031 C 
ATOM     32  C   UNL A   1      45.035  29.408  32.880  1.00  0.00     0.029 A 
ATOM     33  C   UNL A   1      43.960  30.275  32.664  1.00  0.00     0.049 A 
ATOM     34  H   UNL A   1      44.211  32.219  31.877  1.00  0.00     0.167 HD
ATOM     35  C   UNL A   1      41.553  30.850  32.375  1.00  0.00     0.074 A 
ATOM     36  C   UNL A   1      41.574  31.842  31.300  1.00  0.00     0.031 C 
ATOM     37  C   UNL A   1      42.557  30.170  33.007  1.00  0.00     0.031 A 
BRANCH  24  38
ATOM     38  C   UNL A   1      45.849  32.388  29.200  1.00  0.00    -0.014 A 
ATOM     39  C   UNL A   1      44.925  33.435  29.379  1.00  0.00     0.010 A 
ATOM     40  C   UNL A   1      46.909  32.616  28.295  1.00  0.00     0.010 A 
ATOM     41  C   UNL A   1      45.036  34.631  28.655  1.00  0.00     0.020 A 
ATOM     42  C   UNL A   1      47.052  33.818  27.602  1.00  0.00     0.020 A 
ATOM     43  C   UNL A   1      46.095  34.809  27.764  1.00  0.00     0.054 A 
BRANCH  43  44
ATOM     44  S   UNL A   1      46.178  36.314  26.761  1.00  0.00     0.124 S 
ATOM     45  O   UNL A   1      44.777  36.723  26.713  1.00  0.00    -0.237 OA
ATOM     46  O   UNL A   1      47.061  37.166  27.553  1.00  0.00    -0.237 OA
ATOM     47  O   UNL A   1      46.739  35.852  25.493  1.00  0.00    -0.744 OA
ENDBRANCH  43  44
ENDBRANCH  24  38
BRANCH  25  48
ATOM     48  C   UNL A   1      37.433  30.602  30.038  1.00  0.00    -0.014 A 
ATOM     49  C   UNL A   1      36.483  31.166  30.907  1.00  0.00     0.010 A 
ATOM     50  C   UNL A   1      37.270  30.826  28.654  1.00  0.00     0.010 A 
ATOM     51  C   UNL A   1      35.439  31.969  30.412  1.00  0.00     0.020 A 
ATOM     52  C   UNL A   1      36.232  31.619  28.154  1.00  0.00     0.020 A 
ATOM     53  C   UNL A   1      35.333  32.208  29.038  1.00  0.00     0.054 A 
BRANCH  53  54
ATOM     54  S   UNL A   1      34.094  33.387  28.425  1.00  0.00     0.124 S 
ATOM     55  O   UNL A   1      33.605  33.996  29.659  1.00  0.00    -0.237 OA
ATOM     56  O   UNL A   1      34.885  34.258  27.560  1.00  0.00    -0.237 OA
ATOM     57  O   UNL A   1      33.127  32.540  27.728  1.00  0.00    -0.744 OA
ENDBRANCH  53  54
ENDBRANCH  25  48
BRANCH  37  58
ATOM     58  C   UNL A   1      42.177  29.057  33.963  1.00  0.00    -0.014 A 
ATOM     59  C   UNL A   1      41.973  27.719  33.562  1.00  0.00     0.010 A 
ATOM     60  C   UNL A   1      42.179  29.344  35.338  1.00  0.00     0.010 A 
ATOM     61  C   UNL A   1      41.748  26.708  34.510  1.00  0.00     0.020 A 
ATOM     62  C   UNL A   1      41.974  28.339  36.290  1.00  0.00     0.020 A 
ATOM     63  C   UNL A   1      41.748  27.027  35.872  1.00  0.00     0.054 A 
BRANCH  63  64
ATOM     64  S   UNL A   1      41.496  25.713  37.099  1.00  0.00     0.124 S 
ATOM     65  O   UNL A   1      41.429  24.513  36.271  1.00  0.00    -0.237 OA
ATOM     66  O   UNL A   1      42.681  25.827  37.948  1.00  0.00    -0.237 OA
ATOM     67  O   UNL A   1      40.241  26.083  37.753  1.00  0.00    -0.744 OA
ENDBRANCH  63  64
ENDBRANCH  37  58
ENDBRANCH  11  12
ENDBRANCH   4   6
ENDBRANCH   3   4
ENDBRANCH   2   3
ENDBRANCH   1   2
BRANCH   1  68
ATOM     68  O   UNL A   1      39.492  23.367  27.337  1.00  0.00    -0.374 OA
BRANCH  68  69
ATOM     69  C   UNL A   1      38.591  24.046  26.454  1.00  0.00     0.202 C 
BRANCH  69  70
ATOM     70  C   UNL A   1      37.760  23.192  25.486  1.00  0.00     0.261 C 
BRANCH  70  71
ATOM     71  O   UNL A   1      36.823  23.966  24.721  1.00  0.00    -0.458 OA
BRANCH  71  72
ATOM     72  C   UNL A   1      36.314  23.360  23.601  1.00  0.00     0.359 C 
ATOM     73  O   UNL A   1      36.969  22.729  22.797  1.00  0.00    -0.244 OA
BRANCH  72  74
ATOM     74  C   UNL A   1      34.844  23.422  23.562  1.00  0.00     0.175 A 
ATOM     75  N   UNL A   1      34.181  24.417  22.940  1.00  0.00    -0.165 NA
ATOM     76  C   UNL A   1      33.932  22.492  24.141  1.00  0.00     0.028 A 
ATOM     77  N   UNL A   1      32.872  24.119  23.098  1.00  0.00    -0.264 N 
ATOM     78  C   UNL A   1      32.680  22.981  23.818  1.00  0.00     0.046 A 
ATOM     79  C   UNL A   1      34.158  21.260  24.959  1.00  0.00     0.159 C 
ATOM     80  C   UNL A   1      31.399  22.314  24.170  1.00  0.00     0.078 C 
ATOM     81  N   UNL A   1      32.885  20.520  25.065  1.00  0.00    -0.337 N 
ATOM     82  C   UNL A   1      31.670  21.324  25.321  1.00  0.00     0.126 C 
BRANCH  77  83
ATOM     83  C   UNL A   1      31.872  24.894  22.373  1.00  0.00     0.180 C 
BRANCH  83  84
ATOM     84  C   UNL A   1      31.516  26.194  23.053  1.00  0.00    -0.026 A 
ATOM     85  C   UNL A   1      31.759  26.368  24.426  1.00  0.00     0.008 A 
ATOM     86  C   UNL A   1      30.989  27.267  22.315  1.00  0.00     0.008 A 
ATOM     87  C   UNL A   1      31.500  27.591  25.045  1.00  0.00     0.039 A 
ATOM     88  C   UNL A   1      30.733  28.491  22.937  1.00  0.00     0.039 A 
ATOM     89  C   UNL A   1      30.996  28.644  24.292  1.00  0.00     0.123 A 
ATOM     90  F   UNL A   1      30.769  29.827  24.878  1.00  0.00    -0.207 F 
ENDBRANCH  83  84
ENDBRANCH  77  83
BRANCH  81  91
ATOM     91  C   UNL A   1      32.915  19.136  24.970  1.00  0.00     0.232 C 
ATOM     92  O   UNL A   1      32.170  18.396  25.598  1.00  0.00    -0.274 OA
BRANCH  91  93
ATOM     93  C   UNL A   1      33.910  18.553  24.047  1.00  0.00     0.154 C 
ATOM     94  C   UNL A   1      34.984  17.632  24.607  1.00  0.00     0.097 C 
ATOM     95  C   UNL A   1      33.909  17.105  23.734  1.00  0.00     0.260 C 
ATOM     96  F   UNL A   1      33.014  16.206  24.261  1.00  0.00    -0.206 F 
ATOM     97  F   UNL A   1      34.253  16.650  22.480  1.00  0.00    -0.206 F 
ENDBRANCH  91  93
ENDBRANCH  81  91
ENDBRANCH  72  74
ENDBRANCH  71  72
ENDBRANCH  70  71
ENDBRANCH  69  70
ENDBRANCH  68  69
ENDBRANCH   1  68
TORSDOF 21
ENDMDL
MODEL 3
REMARK VINA RESULT:     -12.0      1.480      2.072
REMARK SMILES O=C(OCCOCCOC(=O)c1nn(Cc2ccc(F)cc2)c2c1CN(C(=O)[C@H]1CC1(F)F)CC2)c1ccc(-c2c3nc(c(-c4ccc(S(=O)(=O)[O-])cc4)c4ccc([nH]4)c(-c4ccc(S(=O)(=O)[O-])cc4)c4nc(c(-c5ccc(S(=O)(=O)[O-])cc5)c5ccc2[nH]5)C=C4)C=C3)cc1
REMARK SMILES IDX 5 1 4 2 3 3 2 4 1 5 36 6 37 7 95 8 38 9 94 10 39 11 40 12
REMARK SMILES IDX 41 13 88 14 42 15 93 16 87 17 89 18 43 19 92 20 86 21 85 22
REMARK SMILES IDX 44 24 74 25 55 26 73 27 56 28 59 29 72 30 90 31 57 32 58 33
REMARK SMILES IDX 71 35 91 36 60 37 45 38 46 39 54 40 47 41 53 42 48 43 49 44
REMARK SMILES IDX 50 45 51 46 52 47 75 48 76 49 84 50 77 51 83 52 78 53 79 54
REMARK SMILES IDX 80 55 81 56 82 57 61 58 62 59 70 60 63 61 69 62 64 63 65 64
REMARK SMILES IDX 66 65 67 66 68 67 6 68 7 69 8 70 9 71 10 72 11 73 12 74
REMARK SMILES IDX 13 75 24 76 14 77 23 78 25 79 35 80 26 81 34 82 15 83 16 84
REMARK SMILES IDX 17 85 22 86 18 87 21 88 19 89 20 90 27 91 28 92 29 93 30 94
REMARK SMILES IDX 31 95 32 96 33 97
REMARK H PARENT 89 23 59 34
REMARK Flexibility Score: inf
ROOT
ATOM      1  C   UNL A   1      39.606  22.061  26.629  1.00  0.00     0.202 C 
ENDROOT
BRANCH   1   2
ATOM      2  C   UNL A   1      40.790  21.527  27.433  1.00  0.00     0.261 C 
BRANCH   2   3
ATOM      3  O   UNL A   1      41.810  20.944  26.604  1.00  0.00    -0.460 OA
BRANCH   3   4
ATOM      4  C   UNL A   1      43.049  21.456  26.413  1.00  0.00     0.338 C 
ATOM      5  O   UNL A   1      43.832  20.897  25.648  1.00  0.00    -0.246 OA
BRANCH   4   6
ATOM      6  C   UNL A   1      43.361  22.821  26.900  1.00  0.00     0.060 A 
ATOM      7  C   UNL A   1      43.891  23.132  28.150  1.00  0.00     0.016 A 
ATOM      8  C   UNL A   1      42.985  23.865  26.039  1.00  0.00     0.016 A 
ATOM      9  C   UNL A   1      43.765  24.414  28.648  1.00  0.00     0.010 A 
ATOM     10  C   UNL A   1      42.941  25.168  26.500  1.00  0.00     0.010 A 
ATOM     11  C   UNL A   1      43.223  25.411  27.838  1.00  0.00    -0.014 A 
BRANCH  11  12
ATOM     12  C   UNL A   1      43.033  26.723  28.432  1.00  0.00     0.031 A 
ATOM     13  C   UNL A   1      44.215  27.621  28.342  1.00  0.00     0.074 A 
ATOM     14  C   UNL A   1      41.855  27.112  28.954  1.00  0.00     0.049 A 
ATOM     15  N   UNL A   1      44.909  28.132  29.306  1.00  0.00    -0.248 NA
ATOM     16  C   UNL A   1      44.774  27.864  27.002  1.00  0.00     0.031 C 
ATOM     17  C   UNL A   1      40.554  26.442  28.880  1.00  0.00     0.029 A 
ATOM     18  N   UNL A   1      41.560  28.280  29.579  1.00  0.00    -0.354 N 
ATOM     19  C   UNL A   1      45.894  28.907  28.698  1.00  0.00     0.074 A 
ATOM     20  C   UNL A   1      45.848  28.596  27.291  1.00  0.00     0.031 C 
ATOM     21  C   UNL A   1      39.581  27.327  29.199  1.00  0.00     0.029 A 
ATOM     22  C   UNL A   1      40.203  28.560  29.649  1.00  0.00     0.049 A 
ATOM     23  H   UNL A   1      42.248  28.878  29.949  1.00  0.00     0.167 HD
ATOM     24  C   UNL A   1      46.561  29.893  29.359  1.00  0.00     0.031 A 
ATOM     25  C   UNL A   1      39.644  29.752  29.979  1.00  0.00     0.031 A 
ATOM     26  C   UNL A   1      46.448  29.764  30.785  1.00  0.00     0.049 A 
ATOM     27  C   UNL A   1      40.674  30.529  30.714  1.00  0.00     0.074 A 
ATOM     28  C   UNL A   1      46.857  28.812  31.699  1.00  0.00     0.029 A 
ATOM     29  N   UNL A   1      45.484  30.508  31.422  1.00  0.00    -0.354 N 
ATOM     30  N   UNL A   1      41.139  30.174  31.879  1.00  0.00    -0.248 NA
ATOM     31  C   UNL A   1      41.526  31.431  29.953  1.00  0.00     0.031 C 
ATOM     32  C   UNL A   1      45.784  28.717  32.632  1.00  0.00     0.029 A 
ATOM     33  C   UNL A   1      44.818  29.662  32.276  1.00  0.00     0.049 A 
ATOM     34  H   UNL A   1      45.304  31.467  31.291  1.00  0.00     0.167 HD
ATOM     35  C   UNL A   1      42.498  30.451  31.824  1.00  0.00     0.074 A 
ATOM     36  C   UNL A   1      42.661  31.306  30.648  1.00  0.00     0.031 C 
ATOM     37  C   UNL A   1      43.402  29.746  32.569  1.00  0.00     0.031 A 
BRANCH  24  38
ATOM     38  C   UNL A   1      47.031  31.155  28.684  1.00  0.00    -0.014 A 
ATOM     39  C   UNL A   1      46.160  32.255  28.566  1.00  0.00     0.010 A 
ATOM     40  C   UNL A   1      48.225  31.199  27.932  1.00  0.00     0.010 A 
ATOM     41  C   UNL A   1      46.455  33.323  27.707  1.00  0.00     0.020 A 
ATOM     42  C   UNL A   1      48.547  32.277  27.106  1.00  0.00     0.020 A 
ATOM     43  C   UNL A   1      47.643  33.320  26.975  1.00  0.00     0.054 A 
BRANCH  43  44
ATOM     44  S   UNL A   1      47.971  34.653  25.795  1.00  0.00     0.124 S 
ATOM     45  O   UNL A   1      47.986  35.828  26.662  1.00  0.00    -0.237 OA
ATOM     46  O   UNL A   1      49.261  34.261  25.234  1.00  0.00    -0.237 OA
ATOM     47  O   UNL A   1      46.845  34.575  24.867  1.00  0.00    -0.744 OA
ENDBRANCH  43  44
ENDBRANCH  24  38
BRANCH  25  48
ATOM     48  C   UNL A   1      38.448  30.374  29.356  1.00  0.00    -0.014 A 
ATOM     49  C   UNL A   1      37.244  29.664  29.217  1.00  0.00     0.010 A 
ATOM     50  C   UNL A   1      38.414  31.771  29.151  1.00  0.00     0.010 A 
ATOM     51  C   UNL A   1      36.039  30.333  28.936  1.00  0.00     0.020 A 
ATOM     52  C   UNL A   1      37.220  32.443  28.866  1.00  0.00     0.020 A 
ATOM     53  C   UNL A   1      36.032  31.723  28.783  1.00  0.00     0.054 A 
BRANCH  53  54
ATOM     54  S   UNL A   1      34.450  32.598  28.599  1.00  0.00     0.124 S 
ATOM     55  O   UNL A   1      33.596  31.576  28.001  1.00  0.00    -0.237 OA
ATOM     56  O   UNL A   1      34.128  32.966  29.974  1.00  0.00    -0.237 OA
ATOM     57  O   UNL A   1      34.777  33.721  27.721  1.00  0.00    -0.744 OA
ENDBRANCH  53  54
ENDBRANCH  25  48
BRANCH  37  58
ATOM     58  C   UNL A   1      42.874  28.795  33.625  1.00  0.00    -0.014 A 
ATOM     59  C   UNL A   1      42.687  27.413  33.409  1.00  0.00     0.010 A 
ATOM     60  C   UNL A   1      42.707  29.290  34.929  1.00  0.00     0.010 A 
ATOM     61  C   UNL A   1      42.316  26.561  34.461  1.00  0.00     0.020 A 
ATOM     62  C   UNL A   1      42.356  28.445  35.987  1.00  0.00     0.020 A 
ATOM     63  C   UNL A   1      42.151  27.086  35.747  1.00  0.00     0.054 A 
BRANCH  63  64
ATOM     64  S   UNL A   1      41.709  25.978  37.115  1.00  0.00     0.124 S 
ATOM     65  O   UNL A   1      41.767  24.660  36.491  1.00  0.00    -0.237 OA
ATOM     66  O   UNL A   1      42.749  26.251  38.106  1.00  0.00    -0.237 OA
ATOM     67  O   UNL A   1      40.368  26.419  37.502  1.00  0.00    -0.744 OA
ENDBRANCH  63  64
ENDBRANCH  37  58
ENDBRANCH  11  12
ENDBRANCH   4   6
ENDBRANCH   3   4
ENDBRANCH   2   3
ENDBRANCH   1   2
BRANCH   1  68
ATOM     68  O   UNL A   1      39.510  23.475  26.487  1.00  0.00    -0.374 OA
BRANCH  68  69
ATOM     69  C   UNL A   1      38.187  24.024  26.529  1.00  0.00     0.202 C 
BRANCH  69  70
ATOM     70  C   UNL A   1      37.085  23.290  25.750  1.00  0.00     0.261 C 
BRANCH  70  71
ATOM     71  O   UNL A   1      36.554  24.069  24.666  1.00  0.00    -0.458 OA
BRANCH  71  72
ATOM     72  C   UNL A   1      36.029  23.358  23.617  1.00  0.00     0.359 C 
ATOM     73  O   UNL A   1      36.679  22.868  22.717  1.00  0.00    -0.244 OA
BRANCH  72  74
ATOM     74  C   UNL A   1      34.587  23.115  23.787  1.00  0.00     0.175 A 
ATOM     75  N   UNL A   1      34.098  21.919  24.171  1.00  0.00    -0.165 NA
ATOM     76  C   UNL A   1      33.530  24.051  23.588  1.00  0.00     0.028 A 
ATOM     77  N   UNL A   1      32.759  22.091  24.238  1.00  0.00    -0.264 N 
ATOM     78  C   UNL A   1      32.378  23.350  23.888  1.00  0.00     0.046 A 
ATOM     79  C   UNL A   1      33.542  25.475  23.129  1.00  0.00     0.159 C 
ATOM     80  C   UNL A   1      31.010  23.930  23.870  1.00  0.00     0.078 C 
ATOM     81  N   UNL A   1      32.208  26.060  23.365  1.00  0.00    -0.337 N 
ATOM     82  C   UNL A   1      31.042  25.217  23.020  1.00  0.00     0.126 C 
BRANCH  77  83
ATOM     83  C   UNL A   1      31.933  21.038  24.816  1.00  0.00     0.180 C 
BRANCH  83  84
ATOM     84  C   UNL A   1      32.426  19.648  24.493  1.00  0.00    -0.026 A 
ATOM     85  C   UNL A   1      32.905  18.809  25.514  1.00  0.00     0.008 A 
ATOM     86  C   UNL A   1      32.362  19.153  23.180  1.00  0.00     0.008 A 
ATOM     87  C   UNL A   1      33.293  17.498  25.233  1.00  0.00     0.039 A 
ATOM     88  C   UNL A   1      32.749  17.840  22.903  1.00  0.00     0.039 A 
ATOM     89  C   UNL A   1      33.204  17.024  23.931  1.00  0.00     0.123 A 
ATOM     90  F   UNL A   1      33.553  15.759  23.662  1.00  0.00    -0.207 F 
ENDBRANCH  83  84
ENDBRANCH  77  83
BRANCH  81  91
ATOM     91  C   UNL A   1      32.132  27.362  23.840  1.00  0.00     0.232 C 
ATOM     92  O   UNL A   1      32.302  28.351  23.140  1.00  0.00    -0.274 OA
BRANCH  91  93
ATOM     93  C   UNL A   1      31.821  27.531  25.274  1.00  0.00     0.154 C 
ATOM     94  C   UNL A   1      32.944  27.395  26.293  1.00  0.00     0.097 C 
ATOM     95  C   UNL A   1      32.308  28.707  26.031  1.00  0.00     0.260 C 
ATOM     96  F   UNL A   1      33.071  29.710  25.483  1.00  0.00    -0.206 F 
ATOM     97  F   UNL A   1      31.547  29.272  27.030  1.00  0.00    -0.206 F 
ENDBRANCH  91  93
ENDBRANCH  81  91
ENDBRANCH  72  74
ENDBRANCH  71  72
ENDBRANCH  70  71
ENDBRANCH  69  70
ENDBRANCH  68  69
ENDBRANCH   1  68
TORSDOF 21
ENDMDL
