MODEL 1
REMARK VINA RESULT:      -8.9      0.000      0.000
REMARK SMILES CC[NH2+][C@@]1(C(=O)OCCOCCOC(=O)c2ccc(-c3c4nc(c(-c5ccc(S(=O)(=O)[O-])cc5)c5ccc([nH]5)c(-c5ccc(S(=O)(=O)[O-])cc5)c5nc(c(-c6ccc(S(=O)(=O)[O-])cc6)c6ccc3[nH]6)C=C5)C=C4)cc2)CCC[C@H](SC(C)C)C1
REMARK SMILES IDX 11 1 10 2 9 3 8 4 7 5 5 6 6 7 4 8 76 9 84 10 77 11 79 12
REMARK SMILES IDX 78 13 3 14 2 17 1 18 80 19 81 20 82 21 83 22 12 23 13 24
REMARK SMILES IDX 14 25 15 26 16 27 17 28 75 29 18 30 74 31 19 32 20 33 21 34
REMARK SMILES IDX 68 35 22 36 73 37 67 38 69 39 23 40 72 41 66 42 65 43 24 45
REMARK SMILES IDX 54 46 35 47 53 48 36 49 39 50 52 51 70 52 37 53 38 54 51 56
REMARK SMILES IDX 71 57 40 58 25 59 26 60 34 61 27 62 33 63 28 64 29 65 30 66
REMARK SMILES IDX 31 67 32 68 55 69 56 70 64 71 57 72 63 73 58 74 59 75 60 76
REMARK SMILES IDX 61 77 62 78 41 79 42 80 50 81 43 82 49 83 44 84 45 85 46 86
REMARK SMILES IDX 47 87 48 88
REMARK H PARENT 3 15 3 16 69 44 39 55
REMARK Flexibility Score: inf
ROOT
ATOM      1  C   UNL A   1      31.811  30.006  25.207  1.00  0.00     0.202 C 
ENDROOT
BRANCH   1   2
ATOM      2  O   UNL A   1      31.710  28.738  24.564  1.00  0.00    -0.374 OA
BRANCH   2   3
ATOM      3  C   UNL A   1      32.496  28.568  23.379  1.00  0.00     0.202 C 
BRANCH   3   4
ATOM      4  C   UNL A   1      32.166  27.318  22.569  1.00  0.00     0.261 C 
BRANCH   4   5
ATOM      5  O   UNL A   1      33.156  26.282  22.803  1.00  0.00    -0.459 OA
BRANCH   5   6
ATOM      6  C   UNL A   1      32.695  25.159  23.390  1.00  0.00     0.368 C 
ATOM      7  O   UNL A   1      31.917  24.399  22.808  1.00  0.00    -0.245 OA
BRANCH   6   8
ATOM      8  C   UNL A   1      33.117  24.901  24.898  1.00  0.00     0.195 C 
ATOM      9  C   UNL A   1      34.661  25.000  24.856  1.00  0.00     0.081 C 
ATOM     10  C   UNL A   1      32.846  23.622  25.734  1.00  0.00     0.095 C 
ATOM     11  C   UNL A   1      35.253  23.735  24.199  1.00  0.00     0.008 C 
ATOM     12  C   UNL A   1      33.384  22.284  25.272  1.00  0.00     0.053 C 
ATOM     13  C   UNL A   1      34.883  22.437  24.935  1.00  0.00     0.015 C 
BRANCH   8  14
ATOM     14  N   UNL A   1      32.438  25.905  25.783  1.00  0.00    -0.332 N 
ATOM     15  H   UNL A   1      33.110  26.169  26.504  1.00  0.00     0.347 HD
ATOM     16  H   UNL A   1      32.145  26.636  25.136  1.00  0.00     0.347 HD
BRANCH  14  17
ATOM     17  C   UNL A   1      31.211  25.537  26.465  1.00  0.00     0.257 C 
ATOM     18  C   UNL A   1      30.041  25.966  25.586  1.00  0.00     0.071 C 
ENDBRANCH  14  17
ENDBRANCH   8  14
BRANCH  12  19
ATOM     19  S   UNL A   1      32.449  21.473  23.933  1.00  0.00    -0.155 SA
BRANCH  19  20
ATOM     20  C   UNL A   1      32.885  19.670  23.996  1.00  0.00     0.040 C 
ATOM     21  C   UNL A   1      32.823  19.059  25.386  1.00  0.00     0.019 C 
ATOM     22  C   UNL A   1      32.298  18.677  22.999  1.00  0.00     0.019 C 
ENDBRANCH  19  20
ENDBRANCH  12  19
ENDBRANCH   6   8
ENDBRANCH   5   6
ENDBRANCH   4   5
ENDBRANCH   3   4
ENDBRANCH   2   3
ENDBRANCH   1   2
BRANCH   1  23
ATOM     23  C   UNL A   1      32.153  29.963  26.712  1.00  0.00     0.261 C 
BRANCH  23  24
ATOM     24  O   UNL A   1      33.532  30.287  26.983  1.00  0.00    -0.460 OA
BRANCH  24  25
ATOM     25  C   UNL A   1      34.350  29.214  27.125  1.00  0.00     0.338 C 
ATOM     26  O   UNL A   1      34.251  28.160  26.525  1.00  0.00    -0.246 OA
BRANCH  25  27
ATOM     27  C   UNL A   1      35.537  29.518  27.969  1.00  0.00     0.060 A 
ATOM     28  C   UNL A   1      36.684  29.908  27.271  1.00  0.00     0.016 A 
ATOM     29  C   UNL A   1      35.602  29.347  29.356  1.00  0.00     0.016 A 
ATOM     30  C   UNL A   1      37.913  29.994  27.921  1.00  0.00     0.010 A 
ATOM     31  C   UNL A   1      36.841  29.473  30.019  1.00  0.00     0.010 A 
ATOM     32  C   UNL A   1      38.021  29.712  29.290  1.00  0.00    -0.014 A 
BRANCH  32  33
ATOM     33  C   UNL A   1      39.394  29.470  29.837  1.00  0.00     0.031 A 
ATOM     34  C   UNL A   1      39.831  30.194  31.093  1.00  0.00     0.074 A 
ATOM     35  C   UNL A   1      40.177  28.486  29.349  1.00  0.00     0.049 A 
ATOM     36  N   UNL A   1      40.866  29.966  31.865  1.00  0.00    -0.248 NA
ATOM     37  C   UNL A   1      38.990  31.314  31.545  1.00  0.00     0.031 C 
ATOM     38  C   UNL A   1      39.884  27.681  28.164  1.00  0.00     0.029 A 
ATOM     39  N   UNL A   1      41.362  27.966  29.819  1.00  0.00    -0.354 N 
ATOM     40  C   UNL A   1      40.789  30.899  32.895  1.00  0.00     0.074 A 
ATOM     41  C   UNL A   1      39.644  31.735  32.617  1.00  0.00     0.031 C 
ATOM     42  C   UNL A   1      40.839  26.746  28.021  1.00  0.00     0.029 A 
ATOM     43  C   UNL A   1      41.828  26.896  29.089  1.00  0.00     0.049 A 
ATOM     44  H   UNL A   1      41.832  28.325  30.606  1.00  0.00     0.167 HD
ATOM     45  C   UNL A   1      41.578  31.042  33.988  1.00  0.00     0.031 A 
ATOM     46  C   UNL A   1      42.917  26.116  29.256  1.00  0.00     0.031 A 
ATOM     47  C   UNL A   1      42.733  30.230  34.273  1.00  0.00     0.049 A 
ATOM     48  C   UNL A   1      43.818  26.330  30.447  1.00  0.00     0.074 A 
ATOM     49  C   UNL A   1      43.584  30.300  35.362  1.00  0.00     0.029 A 
ATOM     50  N   UNL A   1      43.204  29.208  33.464  1.00  0.00    -0.354 N 
ATOM     51  N   UNL A   1      43.699  27.190  31.430  1.00  0.00    -0.248 NA
ATOM     52  C   UNL A   1      44.992  25.452  30.559  1.00  0.00     0.031 C 
ATOM     53  C   UNL A   1      44.609  29.365  35.179  1.00  0.00     0.029 A 
ATOM     54  C   UNL A   1      44.352  28.660  34.016  1.00  0.00     0.049 A 
ATOM     55  H   UNL A   1      42.786  28.913  32.623  1.00  0.00     0.167 HD
ATOM     56  C   UNL A   1      44.765  26.937  32.290  1.00  0.00     0.074 A 
ATOM     57  C   UNL A   1      45.506  25.831  31.721  1.00  0.00     0.031 C 
ATOM     58  C   UNL A   1      45.096  27.564  33.447  1.00  0.00     0.031 A 
BRANCH  45  59
ATOM     59  C   UNL A   1      41.231  32.148  34.955  1.00  0.00    -0.014 A 
ATOM     60  C   UNL A   1      41.722  33.455  34.777  1.00  0.00     0.010 A 
ATOM     61  C   UNL A   1      40.374  31.883  36.037  1.00  0.00     0.010 A 
ATOM     62  C   UNL A   1      41.401  34.464  35.690  1.00  0.00     0.020 A 
ATOM     63  C   UNL A   1      40.023  32.897  36.934  1.00  0.00     0.020 A 
ATOM     64  C   UNL A   1      40.555  34.177  36.765  1.00  0.00     0.054 A 
BRANCH  64  65
ATOM     65  S   UNL A   1      40.146  35.506  37.929  1.00  0.00     0.124 S 
ATOM     66  O   UNL A   1      38.936  34.989  38.565  1.00  0.00    -0.237 OA
ATOM     67  O   UNL A   1      41.331  35.558  38.784  1.00  0.00    -0.237 OA
ATOM     68  O   UNL A   1      39.949  36.672  37.072  1.00  0.00    -0.744 OA
ENDBRANCH  64  65
ENDBRANCH  45  59
BRANCH  46  69
ATOM     69  C   UNL A   1      43.230  25.055  28.255  1.00  0.00    -0.014 A 
ATOM     70  C   UNL A   1      43.943  25.343  27.077  1.00  0.00     0.010 A 
ATOM     71  C   UNL A   1      42.798  23.734  28.481  1.00  0.00     0.010 A 
ATOM     72  C   UNL A   1      44.204  24.337  26.141  1.00  0.00     0.020 A 
ATOM     73  C   UNL A   1      43.084  22.720  27.565  1.00  0.00     0.020 A 
ATOM     74  C   UNL A   1      43.778  23.030  26.394  1.00  0.00     0.054 A 
BRANCH  74  75
ATOM     75  S   UNL A   1      44.178  21.726  25.196  1.00  0.00     0.124 S 
ATOM     76  O   UNL A   1      43.131  20.743  25.456  1.00  0.00    -0.237 OA
ATOM     77  O   UNL A   1      44.082  22.432  23.921  1.00  0.00    -0.237 OA
ATOM     78  O   UNL A   1      45.529  21.317  25.573  1.00  0.00    -0.744 OA
ENDBRANCH  74  75
ENDBRANCH  46  69
BRANCH  58  79
ATOM     79  C   UNL A   1      46.296  27.050  34.207  1.00  0.00    -0.014 A 
ATOM     80  C   UNL A   1      47.584  27.575  33.996  1.00  0.00     0.010 A 
ATOM     81  C   UNL A   1      46.121  26.050  35.183  1.00  0.00     0.010 A 
ATOM     82  C   UNL A   1      48.679  27.077  34.710  1.00  0.00     0.020 A 
ATOM     83  C   UNL A   1      47.207  25.574  35.923  1.00  0.00     0.020 A 
ATOM     84  C   UNL A   1      48.484  26.077  35.669  1.00  0.00     0.054 A 
BRANCH  84  85
ATOM     85  S   UNL A   1      49.917  25.464  36.597  1.00  0.00     0.124 S 
ATOM     86  O   UNL A   1      49.358  24.304  37.287  1.00  0.00    -0.237 OA
ATOM     87  O   UNL A   1      50.878  25.162  35.539  1.00  0.00    -0.237 OA
ATOM     88  O   UNL A   1      50.279  26.586  37.460  1.00  0.00    -0.744 OA
ENDBRANCH  84  85
ENDBRANCH  58  79
ENDBRANCH  32  33
ENDBRANCH  25  27
ENDBRANCH  24  25
ENDBRANCH  23  24
ENDBRANCH   1  23
TORSDOF 21
ENDMDL
MODEL 2
REMARK VINA RESULT:      -8.7      4.884     10.228
REMARK SMILES CC[NH2+][C@@]1(C(=O)OCCOCCOC(=O)c2ccc(-c3c4nc(c(-c5ccc(S(=O)(=O)[O-])cc5)c5ccc([nH]5)c(-c5ccc(S(=O)(=O)[O-])cc5)c5nc(c(-c6ccc(S(=O)(=O)[O-])cc6)c6ccc3[nH]6)C=C5)C=C4)cc2)CCC[C@H](SC(C)C)C1
REMARK SMILES IDX 11 1 10 2 9 3 8 4 7 5 5 6 6 7 4 8 76 9 84 10 77 11 79 12
REMARK SMILES IDX 78 13 3 14 2 17 1 18 80 19 81 20 82 21 83 22 12 23 13 24
REMARK SMILES IDX 14 25 15 26 16 27 17 28 75 29 18 30 74 31 19 32 20 33 21 34
REMARK SMILES IDX 68 35 22 36 73 37 67 38 69 39 23 40 72 41 66 42 65 43 24 45
REMARK SMILES IDX 54 46 35 47 53 48 36 49 39 50 52 51 70 52 37 53 38 54 51 56
REMARK SMILES IDX 71 57 40 58 25 59 26 60 34 61 27 62 33 63 28 64 29 65 30 66
REMARK SMILES IDX 31 67 32 68 55 69 56 70 64 71 57 72 63 73 58 74 59 75 60 76
REMARK SMILES IDX 61 77 62 78 41 79 42 80 50 81 43 82 49 83 44 84 45 85 46 86
REMARK SMILES IDX 47 87 48 88
REMARK H PARENT 3 15 3 16 69 44 39 55
REMARK Flexibility Score: inf
ROOT
ATOM      1  C   UNL A   1      36.895  21.686  24.305  1.00  0.00     0.202 C 
ENDROOT
BRANCH   1   2
ATOM      2  O   UNL A   1      35.540  21.427  24.660  1.00  0.00    -0.374 OA
BRANCH   2   3
ATOM      3  C   UNL A   1      35.198  21.639  26.035  1.00  0.00     0.202 C 
BRANCH   3   4
ATOM      4  C   UNL A   1      35.025  23.103  26.431  1.00  0.00     0.261 C 
BRANCH   4   5
ATOM      5  O   UNL A   1      34.442  23.861  25.340  1.00  0.00    -0.459 OA
BRANCH   5   6
ATOM      6  C   UNL A   1      33.095  23.916  25.323  1.00  0.00     0.368 C 
ATOM      7  O   UNL A   1      32.452  24.300  26.304  1.00  0.00    -0.245 OA
BRANCH   6   8
ATOM      8  C   UNL A   1      32.361  23.375  24.024  1.00  0.00     0.195 C 
ATOM      9  C   UNL A   1      33.424  23.558  22.914  1.00  0.00     0.081 C 
ATOM     10  C   UNL A   1      31.058  23.932  23.391  1.00  0.00     0.095 C 
ATOM     11  C   UNL A   1      33.546  25.051  22.542  1.00  0.00     0.008 C 
ATOM     12  C   UNL A   1      30.996  25.371  22.923  1.00  0.00     0.053 C 
ATOM     13  C   UNL A   1      32.229  25.663  22.040  1.00  0.00     0.015 C 
BRANCH   8  14
ATOM     14  N   UNL A   1      31.919  21.960  24.256  1.00  0.00    -0.332 N 
ATOM     15  H   UNL A   1      32.326  21.663  25.143  1.00  0.00     0.347 HD
ATOM     16  H   UNL A   1      30.902  22.015  24.211  1.00  0.00     0.347 HD
BRANCH  14  17
ATOM     17  C   UNL A   1      32.251  20.941  23.278  1.00  0.00     0.257 C 
ATOM     18  C   UNL A   1      32.553  19.649  24.032  1.00  0.00     0.071 C 
ENDBRANCH  14  17
ENDBRANCH   8  14
BRANCH  12  19
ATOM     19  S   UNL A   1      30.765  26.621  24.230  1.00  0.00    -0.155 SA
BRANCH  19  20
ATOM     20  C   UNL A   1      30.009  28.108  23.416  1.00  0.00     0.040 C 
ATOM     21  C   UNL A   1      28.506  28.012  23.207  1.00  0.00     0.019 C 
ATOM     22  C   UNL A   1      30.348  29.522  23.876  1.00  0.00     0.019 C 
ENDBRANCH  19  20
ENDBRANCH  12  19
ENDBRANCH   6   8
ENDBRANCH   5   6
ENDBRANCH   4   5
ENDBRANCH   3   4
ENDBRANCH   2   3
ENDBRANCH   1   2
BRANCH   1  23
ATOM     23  C   UNL A   1      37.952  21.211  25.326  1.00  0.00     0.261 C 
BRANCH  23  24
ATOM     24  O   UNL A   1      38.586  22.303  26.024  1.00  0.00    -0.460 OA
BRANCH  24  25
ATOM     25  C   UNL A   1      39.835  22.035  26.483  1.00  0.00     0.338 C 
ATOM     26  O   UNL A   1      40.556  21.134  26.096  1.00  0.00    -0.246 OA
BRANCH  25  27
ATOM     27  C   UNL A   1      40.339  23.094  27.399  1.00  0.00     0.060 A 
ATOM     28  C   UNL A   1      39.564  24.256  27.454  1.00  0.00     0.016 A 
ATOM     29  C   UNL A   1      41.546  23.039  28.104  1.00  0.00     0.016 A 
ATOM     30  C   UNL A   1      40.045  25.398  28.088  1.00  0.00     0.010 A 
ATOM     31  C   UNL A   1      42.014  24.187  28.778  1.00  0.00     0.010 A 
ATOM     32  C   UNL A   1      41.306  25.401  28.700  1.00  0.00    -0.014 A 
BRANCH  32  33
ATOM     33  C   UNL A   1      41.907  26.731  29.036  1.00  0.00     0.031 A 
ATOM     34  C   UNL A   1      43.340  27.020  28.641  1.00  0.00     0.074 A 
ATOM     35  C   UNL A   1      41.147  27.741  29.509  1.00  0.00     0.049 A 
ATOM     36  N   UNL A   1      43.979  28.164  28.618  1.00  0.00    -0.248 NA
ATOM     37  C   UNL A   1      44.157  25.876  28.207  1.00  0.00     0.031 C 
ATOM     38  C   UNL A   1      39.745  27.629  29.909  1.00  0.00     0.029 A 
ATOM     39  N   UNL A   1      41.439  29.074  29.690  1.00  0.00    -0.354 N 
ATOM     40  C   UNL A   1      45.260  27.878  28.155  1.00  0.00     0.074 A 
ATOM     41  C   UNL A   1      45.327  26.446  27.968  1.00  0.00     0.031 C 
ATOM     42  C   UNL A   1      39.288  28.846  30.252  1.00  0.00     0.029 A 
ATOM     43  C   UNL A   1      40.368  29.824  30.120  1.00  0.00     0.049 A 
ATOM     44  H   UNL A   1      42.332  29.456  29.527  1.00  0.00     0.167 HD
ATOM     45  C   UNL A   1      46.286  28.721  27.883  1.00  0.00     0.031 A 
ATOM     46  C   UNL A   1      40.256  31.146  30.372  1.00  0.00     0.031 A 
ATOM     47  C   UNL A   1      46.244  30.147  28.078  1.00  0.00     0.049 A 
ATOM     48  C   UNL A   1      41.429  32.060  30.122  1.00  0.00     0.074 A 
ATOM     49  C   UNL A   1      47.236  31.079  27.820  1.00  0.00     0.029 A 
ATOM     50  N   UNL A   1      45.161  30.848  28.584  1.00  0.00    -0.354 N 
ATOM     51  N   UNL A   1      42.615  31.771  29.642  1.00  0.00    -0.248 NA
ATOM     52  C   UNL A   1      41.239  33.485  30.431  1.00  0.00     0.031 C 
ATOM     53  C   UNL A   1      46.776  32.334  28.233  1.00  0.00     0.029 A 
ATOM     54  C   UNL A   1      45.471  32.196  28.675  1.00  0.00     0.049 A 
ATOM     55  H   UNL A   1      44.299  30.448  28.841  1.00  0.00     0.167 HD
ATOM     56  C   UNL A   1      43.300  32.981  29.565  1.00  0.00     0.074 A 
ATOM     57  C   UNL A   1      42.391  34.007  30.028  1.00  0.00     0.031 C 
ATOM     58  C   UNL A   1      44.569  33.218  29.144  1.00  0.00     0.031 A 
BRANCH  45  59
ATOM     59  C   UNL A   1      47.567  28.112  27.365  1.00  0.00    -0.014 A 
ATOM     60  C   UNL A   1      48.536  27.592  28.244  1.00  0.00     0.010 A 
ATOM     61  C   UNL A   1      47.788  28.028  25.979  1.00  0.00     0.010 A 
ATOM     62  C   UNL A   1      49.722  27.044  27.746  1.00  0.00     0.020 A 
ATOM     63  C   UNL A   1      48.958  27.450  25.477  1.00  0.00     0.020 A 
ATOM     64  C   UNL A   1      49.927  26.979  26.365  1.00  0.00     0.054 A 
BRANCH  64  65
ATOM     65  S   UNL A   1      51.470  26.254  25.747  1.00  0.00     0.124 S 
ATOM     66  O   UNL A   1      51.458  24.936  26.377  1.00  0.00    -0.237 OA
ATOM     67  O   UNL A   1      51.268  26.260  24.300  1.00  0.00    -0.237 OA
ATOM     68  O   UNL A   1      52.503  27.166  26.232  1.00  0.00    -0.744 OA
ENDBRANCH  64  65
ENDBRANCH  45  59
BRANCH  46  69
ATOM     69  C   UNL A   1      38.976  31.692  30.911  1.00  0.00    -0.014 A 
ATOM     70  C   UNL A   1      37.957  32.152  30.059  1.00  0.00     0.010 A 
ATOM     71  C   UNL A   1      38.779  31.759  32.303  1.00  0.00     0.010 A 
ATOM     72  C   UNL A   1      36.774  32.682  30.587  1.00  0.00     0.020 A 
ATOM     73  C   UNL A   1      37.588  32.258  32.835  1.00  0.00     0.020 A 
ATOM     74  C   UNL A   1      36.596  32.726  31.973  1.00  0.00     0.054 A 
BRANCH  74  75
ATOM     75  S   UNL A   1      35.032  33.362  32.639  1.00  0.00     0.124 S 
ATOM     76  O   UNL A   1      35.114  34.781  32.308  1.00  0.00    -0.237 OA
ATOM     77  O   UNL A   1      34.038  32.594  31.894  1.00  0.00    -0.237 OA
ATOM     78  O   UNL A   1      35.112  33.046  34.063  1.00  0.00    -0.744 OA
ENDBRANCH  74  75
ENDBRANCH  46  69
BRANCH  58  79
ATOM     79  C   UNL A   1      45.047  34.650  29.127  1.00  0.00    -0.014 A 
ATOM     80  C   UNL A   1      44.848  35.482  28.010  1.00  0.00     0.010 A 
ATOM     81  C   UNL A   1      45.670  35.187  30.271  1.00  0.00     0.010 A 
ATOM     82  C   UNL A   1      45.305  36.804  28.019  1.00  0.00     0.020 A 
ATOM     83  C   UNL A   1      46.098  36.517  30.296  1.00  0.00     0.020 A 
ATOM     84  C   UNL A   1      45.930  37.313  29.162  1.00  0.00     0.054 A 
BRANCH  84  85
ATOM     85  S   UNL A   1      46.496  39.037  29.156  1.00  0.00     0.124 S 
ATOM     86  O   UNL A   1      47.796  38.933  29.813  1.00  0.00    -0.237 OA
ATOM     87  O   UNL A   1      46.535  39.356  27.732  1.00  0.00    -0.237 OA
ATOM     88  O   UNL A   1      45.468  39.743  29.919  1.00  0.00    -0.744 OA
ENDBRANCH  84  85
ENDBRANCH  58  79
ENDBRANCH  32  33
ENDBRANCH  25  27
ENDBRANCH  24  25
ENDBRANCH  23  24
ENDBRANCH   1  23
TORSDOF 21
ENDMDL
MODEL 3
REMARK VINA RESULT:      -8.7      2.891      4.749
REMARK SMILES CC[NH2+][C@@]1(C(=O)OCCOCCOC(=O)c2ccc(-c3c4nc(c(-c5ccc(S(=O)(=O)[O-])cc5)c5ccc([nH]5)c(-c5ccc(S(=O)(=O)[O-])cc5)c5nc(c(-c6ccc(S(=O)(=O)[O-])cc6)c6ccc3[nH]6)C=C5)C=C4)cc2)CCC[C@H](SC(C)C)C1
REMARK SMILES IDX 11 1 10 2 9 3 8 4 7 5 5 6 6 7 4 8 76 9 84 10 77 11 79 12
REMARK SMILES IDX 78 13 3 14 2 17 1 18 80 19 81 20 82 21 83 22 12 23 13 24
REMARK SMILES IDX 14 25 15 26 16 27 17 28 75 29 18 30 74 31 19 32 20 33 21 34
REMARK SMILES IDX 68 35 22 36 73 37 67 38 69 39 23 40 72 41 66 42 65 43 24 45
REMARK SMILES IDX 54 46 35 47 53 48 36 49 39 50 52 51 70 52 37 53 38 54 51 56
REMARK SMILES IDX 71 57 40 58 25 59 26 60 34 61 27 62 33 63 28 64 29 65 30 66
REMARK SMILES IDX 31 67 32 68 55 69 56 70 64 71 57 72 63 73 58 74 59 75 60 76
REMARK SMILES IDX 61 77 62 78 41 79 42 80 50 81 43 82 49 83 44 84 45 85 46 86
REMARK SMILES IDX 47 87 48 88
REMARK H PARENT 3 15 3 16 69 44 39 55
REMARK Flexibility Score: inf
ROOT
ATOM      1  C   UNL A   1      34.314  31.216  27.624  1.00  0.00     0.202 C 
ENDROOT
BRANCH   1   2
ATOM      2  O   UNL A   1      33.869  29.886  27.376  1.00  0.00    -0.374 OA
BRANCH   2   3
ATOM      3  C   UNL A   1      32.463  29.723  27.156  1.00  0.00     0.202 C 
BRANCH   3   4
ATOM      4  C   UNL A   1      31.951  28.296  27.336  1.00  0.00     0.261 C 
BRANCH   4   5
ATOM      5  O   UNL A   1      32.923  27.339  26.841  1.00  0.00    -0.459 OA
BRANCH   5   6
ATOM      6  C   UNL A   1      32.893  27.112  25.513  1.00  0.00     0.368 C 
ATOM      7  O   UNL A   1      33.700  27.647  24.748  1.00  0.00    -0.245 OA
BRANCH   6   8
ATOM      8  C   UNL A   1      31.717  26.203  24.957  1.00  0.00     0.195 C 
ATOM      9  C   UNL A   1      32.321  25.586  23.673  1.00  0.00     0.081 C 
ATOM     10  C   UNL A   1      30.305  26.674  24.517  1.00  0.00     0.095 C 
ATOM     11  C   UNL A   1      32.381  26.648  22.555  1.00  0.00     0.008 C 
ATOM     12  C   UNL A   1      30.156  27.687  23.402  1.00  0.00     0.053 C 
ATOM     13  C   UNL A   1      31.005  27.231  22.196  1.00  0.00     0.015 C 
BRANCH   8  14
ATOM     14  N   UNL A   1      31.313  25.214  26.011  1.00  0.00    -0.332 N 
ATOM     15  H   UNL A   1      32.114  25.098  26.632  1.00  0.00     0.347 HD
ATOM     16  H   UNL A   1      30.472  25.623  26.415  1.00  0.00     0.347 HD
BRANCH  14  17
ATOM     17  C   UNL A   1      30.891  23.883  25.614  1.00  0.00     0.257 C 
ATOM     18  C   UNL A   1      30.290  23.199  26.838  1.00  0.00     0.071 C 
ENDBRANCH  14  17
ENDBRANCH   8  14
BRANCH  12  19
ATOM     19  S   UNL A   1      30.472  29.423  23.860  1.00  0.00    -0.155 SA
BRANCH  19  20
ATOM     20  C   UNL A   1      29.157  30.439  23.032  1.00  0.00     0.040 C 
ATOM     21  C   UNL A   1      28.223  29.644  22.134  1.00  0.00     0.019 C 
ATOM     22  C   UNL A   1      28.333  31.458  23.812  1.00  0.00     0.019 C 
ENDBRANCH  19  20
ENDBRANCH  12  19
ENDBRANCH   6   8
ENDBRANCH   5   6
ENDBRANCH   4   5
ENDBRANCH   3   4
ENDBRANCH   2   3
ENDBRANCH   1   2
BRANCH   1  23
ATOM     23  C   UNL A   1      33.210  32.296  27.631  1.00  0.00     0.261 C 
BRANCH  23  24
ATOM     24  O   UNL A   1      33.738  33.636  27.559  1.00  0.00    -0.460 OA
BRANCH  24  25
ATOM     25  C   UNL A   1      33.540  34.386  28.672  1.00  0.00     0.338 C 
ATOM     26  O   UNL A   1      32.531  35.013  28.937  1.00  0.00    -0.246 OA
BRANCH  25  27
ATOM     27  C   UNL A   1      34.630  34.213  29.670  1.00  0.00     0.060 A 
ATOM     28  C   UNL A   1      35.915  34.515  29.210  1.00  0.00     0.016 A 
ATOM     29  C   UNL A   1      34.466  33.692  30.958  1.00  0.00     0.016 A 
ATOM     30  C   UNL A   1      37.035  34.177  29.966  1.00  0.00     0.010 A 
ATOM     31  C   UNL A   1      35.602  33.386  31.738  1.00  0.00     0.010 A 
ATOM     32  C   UNL A   1      36.897  33.546  31.209  1.00  0.00    -0.014 A 
BRANCH  32  33
ATOM     33  C   UNL A   1      38.113  32.893  31.790  1.00  0.00     0.031 A 
ATOM     34  C   UNL A   1      38.642  33.366  33.128  1.00  0.00     0.074 A 
ATOM     35  C   UNL A   1      38.633  31.774  31.245  1.00  0.00     0.049 A 
ATOM     36  N   UNL A   1      39.522  32.800  33.919  1.00  0.00    -0.248 NA
ATOM     37  C   UNL A   1      38.106  34.633  33.649  1.00  0.00     0.031 C 
ATOM     38  C   UNL A   1      38.215  31.179  29.976  1.00  0.00     0.029 A 
ATOM     39  N   UNL A   1      39.598  30.912  31.714  1.00  0.00    -0.354 N 
ATOM     40  C   UNL A   1      39.630  33.633  35.029  1.00  0.00     0.074 A 
ATOM     41  C   UNL A   1      38.774  34.771  34.783  1.00  0.00     0.031 C 
ATOM     42  C   UNL A   1      38.890  30.032  29.786  1.00  0.00     0.029 A 
ATOM     43  C   UNL A   1      39.807  29.818  30.906  1.00  0.00     0.049 A 
ATOM     44  H   UNL A   1      40.093  31.064  32.551  1.00  0.00     0.167 HD
ATOM     45  C   UNL A   1      40.352  33.465  36.164  1.00  0.00     0.031 A 
ATOM     46  C   UNL A   1      40.631  28.758  31.045  1.00  0.00     0.031 A 
ATOM     47  C   UNL A   1      41.222  32.346  36.420  1.00  0.00     0.049 A 
ATOM     48  C   UNL A   1      41.473  28.620  32.288  1.00  0.00     0.074 A 
ATOM     49  C   UNL A   1      41.984  32.092  37.548  1.00  0.00     0.029 A 
ATOM     50  N   UNL A   1      41.454  31.302  35.538  1.00  0.00    -0.354 N 
ATOM     51  N   UNL A   1      41.524  29.397  33.343  1.00  0.00    -0.248 NA
ATOM     52  C   UNL A   1      42.356  27.446  32.367  1.00  0.00     0.031 C 
ATOM     53  C   UNL A   1      42.728  30.929  37.321  1.00  0.00     0.029 A 
ATOM     54  C   UNL A   1      42.371  30.418  36.085  1.00  0.00     0.049 A 
ATOM     55  H   UNL A   1      41.030  31.203  34.655  1.00  0.00     0.167 HD
ATOM     56  C   UNL A   1      42.421  28.792  34.221  1.00  0.00     0.074 A 
ATOM     57  C   UNL A   1      42.873  27.575  33.581  1.00  0.00     0.031 C 
ATOM     58  C   UNL A   1      42.829  29.208  35.446  1.00  0.00     0.031 A 
BRANCH  45  59
ATOM     59  C   UNL A   1      40.250  34.542  37.217  1.00  0.00    -0.014 A 
ATOM     60  C   UNL A   1      39.247  34.507  38.204  1.00  0.00     0.010 A 
ATOM     61  C   UNL A   1      41.193  35.585  37.240  1.00  0.00     0.010 A 
ATOM     62  C   UNL A   1      39.161  35.521  39.163  1.00  0.00     0.020 A 
ATOM     63  C   UNL A   1      41.131  36.582  38.217  1.00  0.00     0.020 A 
ATOM     64  C   UNL A   1      40.102  36.554  39.162  1.00  0.00     0.054 A 
BRANCH  64  65
ATOM     65  S   UNL A   1      39.973  37.851  40.423  1.00  0.00     0.124 S 
ATOM     66  O   UNL A   1      40.883  38.869  39.903  1.00  0.00    -0.237 OA
ATOM     67  O   UNL A   1      38.554  38.196  40.381  1.00  0.00    -0.237 OA
ATOM     68  O   UNL A   1      40.415  37.191  41.649  1.00  0.00    -0.744 OA
ENDBRANCH  64  65
ENDBRANCH  45  59
BRANCH  46  69
ATOM     69  C   UNL A   1      40.714  27.736  29.960  1.00  0.00    -0.014 A 
ATOM     70  C   UNL A   1      39.672  26.820  29.732  1.00  0.00     0.010 A 
ATOM     71  C   UNL A   1      41.863  27.675  29.148  1.00  0.00     0.010 A 
ATOM     72  C   UNL A   1      39.783  25.855  28.724  1.00  0.00     0.020 A 
ATOM     73  C   UNL A   1      41.964  26.735  28.120  1.00  0.00     0.020 A 
ATOM     74  C   UNL A   1      40.927  25.823  27.921  1.00  0.00     0.054 A 
BRANCH  74  75
ATOM     75  S   UNL A   1      41.027  24.603  26.581  1.00  0.00     0.124 S 
ATOM     76  O   UNL A   1      42.072  25.167  25.733  1.00  0.00    -0.237 OA
ATOM     77  O   UNL A   1      41.383  23.380  27.297  1.00  0.00    -0.237 OA
ATOM     78  O   UNL A   1      39.683  24.612  26.008  1.00  0.00    -0.744 OA
ENDBRANCH  74  75
ENDBRANCH  46  69
BRANCH  58  79
ATOM     79  C   UNL A   1      43.790  28.325  36.205  1.00  0.00    -0.014 A 
ATOM     80  C   UNL A   1      45.179  28.545  36.170  1.00  0.00     0.010 A 
ATOM     81  C   UNL A   1      43.288  27.280  37.004  1.00  0.00     0.010 A 
ATOM     82  C   UNL A   1      46.048  27.709  36.879  1.00  0.00     0.020 A 
ATOM     83  C   UNL A   1      44.150  26.462  37.740  1.00  0.00     0.020 A 
ATOM     84  C   UNL A   1      45.528  26.671  37.658  1.00  0.00     0.054 A 
BRANCH  84  85
ATOM     85  S   UNL A   1      46.675  25.613  38.585  1.00  0.00     0.124 S 
ATOM     86  O   UNL A   1      46.469  24.313  37.952  1.00  0.00    -0.237 OA
ATOM     87  O   UNL A   1      47.968  26.239  38.326  1.00  0.00    -0.237 OA
ATOM     88  O   UNL A   1      46.204  25.715  39.965  1.00  0.00    -0.744 OA
ENDBRANCH  84  85
ENDBRANCH  58  79
ENDBRANCH  32  33
ENDBRANCH  25  27
ENDBRANCH  24  25
ENDBRANCH  23  24
ENDBRANCH   1  23
TORSDOF 21
ENDMDL
