MODEL 1
REMARK VINA RESULT:     -10.3      0.000      0.000
REMARK SMILES CC[C@@H](O)C[NH+]1CC(n2cc(C(=O)OCCOCCOC(=O)c3ccc(-c4c5nc(c(-c6ccc(S(=O)(=O)[O-])cc6)c6ccc([nH]6)c(-c6ccc(S(=O)(=O)[O-])cc6)c6nc(c(-c7ccc(S(=O)(=O)[O-])cc7)c7ccc4[nH]7)C=C6)C=C5)cc3)nn2)C1
REMARK SMILES IDX 16 1 15 2 14 3 12 4 13 5 11 6 9 7 10 8 84 9 83 10 8 11 6 12
REMARK SMILES IDX 7 13 85 14 5 16 3 17 2 18 1 19 4 20 17 22 18 23 19 24 20 25
REMARK SMILES IDX 21 26 22 27 23 28 24 29 82 30 25 31 81 32 26 33 27 34 28 35
REMARK SMILES IDX 75 36 29 37 80 38 74 39 76 40 30 41 79 42 73 43 72 44 31 46
REMARK SMILES IDX 61 47 42 48 60 49 43 50 46 51 59 52 77 53 44 54 45 55 58 57
REMARK SMILES IDX 78 58 47 59 32 60 33 61 41 62 34 63 40 64 35 65 36 66 37 67
REMARK SMILES IDX 38 68 39 69 62 70 63 71 71 72 64 73 70 74 65 75 66 76 67 77
REMARK SMILES IDX 68 78 69 79 48 80 49 81 57 82 50 83 56 84 51 85 52 86 53 87
REMARK SMILES IDX 54 88 55 89
REMARK H PARENT 6 15 4 21 76 45 46 56
REMARK Flexibility Score: inf
ROOT
ATOM      1  C   UNL A   1      31.048  29.106  24.530  1.00  0.00     0.202 C 
ENDROOT
BRANCH   1   2
ATOM      2  C   UNL A   1      31.455  28.461  23.203  1.00  0.00     0.261 C 
BRANCH   2   3
ATOM      3  O   UNL A   1      31.938  27.121  23.384  1.00  0.00    -0.458 OA
BRANCH   3   4
ATOM      4  C   UNL A   1      33.295  26.987  23.278  1.00  0.00     0.360 C 
ATOM      5  O   UNL A   1      34.071  27.912  23.098  1.00  0.00    -0.244 OA
BRANCH   4   6
ATOM      6  C   UNL A   1      33.738  25.621  23.509  1.00  0.00     0.190 A 
ATOM      7  N   UNL A   1      34.324  23.692  24.289  1.00  0.00    -0.237 N 
ATOM      8  C   UNL A   1      34.074  24.977  24.685  1.00  0.00     0.147 A 
ATOM      9  N   UNL A   1      34.264  23.575  22.952  1.00  0.00    -0.066 NA
ATOM     10  N   UNL A   1      33.898  24.745  22.462  1.00  0.00    -0.123 NA
BRANCH   7  11
ATOM     11  C   UNL A   1      34.493  22.581  25.173  1.00  0.00     0.218 C 
ATOM     12  N   UNL A   1      34.063  20.531  25.230  1.00  0.00    -0.329 N 
ATOM     13  C   UNL A   1      35.101  21.312  24.526  1.00  0.00     0.296 C 
ATOM     14  C   UNL A   1      33.195  21.730  25.241  1.00  0.00     0.296 C 
ATOM     15  H   UNL A   1      34.314  20.028  26.081  1.00  0.00     0.348 HD
BRANCH  12  16
ATOM     16  C   UNL A   1      33.469  19.410  24.484  1.00  0.00     0.294 C 
BRANCH  16  17
ATOM     17  C   UNL A   1      32.865  18.161  25.182  1.00  0.00     0.169 C 
BRANCH  17  18
ATOM     18  C   UNL A   1      33.795  16.936  25.174  1.00  0.00     0.034 C 
ATOM     19  C   UNL A   1      33.811  16.250  23.812  1.00  0.00     0.007 C 
ENDBRANCH  17  18
BRANCH  17  20
ATOM     20  O   UNL A   1      32.607  18.509  26.554  1.00  0.00    -0.387 OA
ATOM     21  H   UNL A   1      33.127  19.292  26.792  1.00  0.00     0.211 HD
ENDBRANCH  17  20
ENDBRANCH  16  17
ENDBRANCH  12  16
ENDBRANCH   7  11
ENDBRANCH   4   6
ENDBRANCH   3   4
ENDBRANCH   2   3
ENDBRANCH   1   2
BRANCH   1  22
ATOM     22  O   UNL A   1      32.091  29.437  25.445  1.00  0.00    -0.374 OA
BRANCH  22  23
ATOM     23  C   UNL A   1      32.052  30.675  26.148  1.00  0.00     0.202 C 
BRANCH  23  24
ATOM     24  C   UNL A   1      32.952  30.846  27.363  1.00  0.00     0.261 C 
BRANCH  24  25
ATOM     25  O   UNL A   1      34.329  30.706  27.045  1.00  0.00    -0.460 OA
BRANCH  25  26
ATOM     26  C   UNL A   1      35.122  31.627  27.644  1.00  0.00     0.338 C 
ATOM     27  O   UNL A   1      35.047  32.836  27.546  1.00  0.00    -0.246 OA
BRANCH  26  28
ATOM     28  C   UNL A   1      36.195  30.926  28.357  1.00  0.00     0.060 A 
ATOM     29  C   UNL A   1      37.170  31.719  28.963  1.00  0.00     0.016 A 
ATOM     30  C   UNL A   1      36.356  29.541  28.196  1.00  0.00     0.016 A 
ATOM     31  C   UNL A   1      38.400  31.154  29.223  1.00  0.00     0.010 A 
ATOM     32  C   UNL A   1      37.583  28.981  28.454  1.00  0.00     0.010 A 
ATOM     33  C   UNL A   1      38.613  29.813  28.877  1.00  0.00    -0.014 A 
BRANCH  33  34
ATOM     34  C   UNL A   1      39.939  29.266  29.055  1.00  0.00     0.031 A 
ATOM     35  C   UNL A   1      40.291  29.090  30.482  1.00  0.00     0.074 A 
ATOM     36  C   UNL A   1      40.712  28.875  28.024  1.00  0.00     0.049 A 
ATOM     37  N   UNL A   1      41.139  29.778  31.169  1.00  0.00    -0.248 NA
ATOM     38  C   UNL A   1      39.456  28.182  31.287  1.00  0.00     0.031 C 
ATOM     39  C   UNL A   1      40.359  28.752  26.607  1.00  0.00     0.029 A 
ATOM     40  N   UNL A   1      41.981  28.398  28.056  1.00  0.00    -0.354 N 
ATOM     41  C   UNL A   1      41.112  29.232  32.444  1.00  0.00     0.074 A 
ATOM     42  C   UNL A   1      39.932  28.406  32.510  1.00  0.00     0.031 C 
ATOM     43  C   UNL A   1      41.297  28.006  25.976  1.00  0.00     0.029 A 
ATOM     44  C   UNL A   1      42.382  27.731  26.904  1.00  0.00     0.049 A 
ATOM     45  H   UNL A   1      42.573  28.515  28.834  1.00  0.00     0.167 HD
ATOM     46  C   UNL A   1      42.201  29.280  33.257  1.00  0.00     0.031 A 
ATOM     47  C   UNL A   1      43.495  26.962  26.764  1.00  0.00     0.031 A 
ATOM     48  C   UNL A   1      43.160  30.253  32.806  1.00  0.00     0.049 A 
ATOM     49  C   UNL A   1      44.428  27.359  27.852  1.00  0.00     0.074 A 
ATOM     50  C   UNL A   1      43.130  31.620  32.614  1.00  0.00     0.029 A 
ATOM     51  N   UNL A   1      44.225  29.786  32.071  1.00  0.00    -0.354 N 
ATOM     52  N   UNL A   1      44.973  28.542  27.930  1.00  0.00    -0.248 NA
ATOM     53  C   UNL A   1      44.358  26.621  29.105  1.00  0.00     0.031 C 
ATOM     54  C   UNL A   1      43.861  31.835  31.411  1.00  0.00     0.029 A 
ATOM     55  C   UNL A   1      44.370  30.606  30.981  1.00  0.00     0.049 A 
ATOM     56  H   UNL A   1      44.782  29.004  32.287  1.00  0.00     0.167 HD
ATOM     57  C   UNL A   1      44.919  28.871  29.277  1.00  0.00     0.074 A 
ATOM     58  C   UNL A   1      44.597  27.619  29.961  1.00  0.00     0.031 C 
ATOM     59  C   UNL A   1      44.862  30.172  29.689  1.00  0.00     0.031 A 
BRANCH  46  60
ATOM     60  C   UNL A   1      42.566  28.158  34.192  1.00  0.00    -0.014 A 
ATOM     61  C   UNL A   1      42.874  28.457  35.532  1.00  0.00     0.010 A 
ATOM     62  C   UNL A   1      42.881  26.861  33.733  1.00  0.00     0.010 A 
ATOM     63  C   UNL A   1      43.512  27.518  36.353  1.00  0.00     0.020 A 
ATOM     64  C   UNL A   1      43.474  25.905  34.554  1.00  0.00     0.020 A 
ATOM     65  C   UNL A   1      43.814  26.250  35.853  1.00  0.00     0.054 A 
BRANCH  65  66
ATOM     66  S   UNL A   1      44.710  25.074  36.893  1.00  0.00     0.124 S 
ATOM     67  O   UNL A   1      46.057  25.634  36.888  1.00  0.00    -0.237 OA
ATOM     68  O   UNL A   1      43.986  25.170  38.157  1.00  0.00    -0.237 OA
ATOM     69  O   UNL A   1      44.555  23.805  36.186  1.00  0.00    -0.744 OA
ENDBRANCH  65  66
ENDBRANCH  46  60
BRANCH  47  70
ATOM     70  C   UNL A   1      43.621  25.671  26.033  1.00  0.00    -0.014 A 
ATOM     71  C   UNL A   1      44.759  25.373  25.258  1.00  0.00     0.010 A 
ATOM     72  C   UNL A   1      42.748  24.606  26.337  1.00  0.00     0.010 A 
ATOM     73  C   UNL A   1      45.040  24.054  24.850  1.00  0.00     0.020 A 
ATOM     74  C   UNL A   1      43.019  23.291  25.933  1.00  0.00     0.020 A 
ATOM     75  C   UNL A   1      44.176  23.016  25.209  1.00  0.00     0.054 A 
BRANCH  75  76
ATOM     76  S   UNL A   1      44.628  21.294  24.833  1.00  0.00     0.124 S 
ATOM     77  O   UNL A   1      44.652  21.290  23.372  1.00  0.00    -0.237 OA
ATOM     78  O   UNL A   1      45.925  21.153  25.486  1.00  0.00    -0.237 OA
ATOM     79  O   UNL A   1      43.546  20.515  25.436  1.00  0.00    -0.744 OA
ENDBRANCH  75  76
ENDBRANCH  47  70
BRANCH  59  80
ATOM     80  C   UNL A   1      45.129  31.270  28.686  1.00  0.00    -0.014 A 
ATOM     81  C   UNL A   1      44.127  31.930  27.945  1.00  0.00     0.010 A 
ATOM     82  C   UNL A   1      46.437  31.782  28.647  1.00  0.00     0.010 A 
ATOM     83  C   UNL A   1      44.437  33.074  27.186  1.00  0.00     0.020 A 
ATOM     84  C   UNL A   1      46.747  32.926  27.911  1.00  0.00     0.020 A 
ATOM     85  C   UNL A   1      45.747  33.566  27.180  1.00  0.00     0.054 A 
BRANCH  85  86
ATOM     86  S   UNL A   1      46.136  35.088  26.268  1.00  0.00     0.124 S 
ATOM     87  O   UNL A   1      45.146  36.029  26.782  1.00  0.00    -0.237 OA
ATOM     88  O   UNL A   1      47.519  35.355  26.654  1.00  0.00    -0.237 OA
ATOM     89  O   UNL A   1      45.958  34.708  24.866  1.00  0.00    -0.744 OA
ENDBRANCH  85  86
ENDBRANCH  59  80
ENDBRANCH  33  34
ENDBRANCH  26  28
ENDBRANCH  25  26
ENDBRANCH  24  25
ENDBRANCH  23  24
ENDBRANCH  22  23
ENDBRANCH   1  22
TORSDOF 22
ENDMDL
MODEL 2
REMARK VINA RESULT:     -10.2      2.890     10.171
REMARK SMILES CC[C@@H](O)C[NH+]1CC(n2cc(C(=O)OCCOCCOC(=O)c3ccc(-c4c5nc(c(-c6ccc(S(=O)(=O)[O-])cc6)c6ccc([nH]6)c(-c6ccc(S(=O)(=O)[O-])cc6)c6nc(c(-c7ccc(S(=O)(=O)[O-])cc7)c7ccc4[nH]7)C=C6)C=C5)cc3)nn2)C1
REMARK SMILES IDX 16 1 15 2 14 3 12 4 13 5 11 6 9 7 10 8 84 9 83 10 8 11 6 12
REMARK SMILES IDX 7 13 85 14 5 16 3 17 2 18 1 19 4 20 17 22 18 23 19 24 20 25
REMARK SMILES IDX 21 26 22 27 23 28 24 29 82 30 25 31 81 32 26 33 27 34 28 35
REMARK SMILES IDX 75 36 29 37 80 38 74 39 76 40 30 41 79 42 73 43 72 44 31 46
REMARK SMILES IDX 61 47 42 48 60 49 43 50 46 51 59 52 77 53 44 54 45 55 58 57
REMARK SMILES IDX 78 58 47 59 32 60 33 61 41 62 34 63 40 64 35 65 36 66 37 67
REMARK SMILES IDX 38 68 39 69 62 70 63 71 71 72 64 73 70 74 65 75 66 76 67 77
REMARK SMILES IDX 68 78 69 79 48 80 49 81 57 82 50 83 56 84 51 85 52 86 53 87
REMARK SMILES IDX 54 88 55 89
REMARK H PARENT 6 15 4 21 76 45 46 56
REMARK Flexibility Score: inf
ROOT
ATOM      1  C   UNL A   1      44.499  19.059  24.778  1.00  0.00     0.202 C 
ENDROOT
BRANCH   1   2
ATOM      2  C   UNL A   1      43.324  18.661  25.675  1.00  0.00     0.261 C 
BRANCH   2   3
ATOM      3  O   UNL A   1      42.122  19.366  25.327  1.00  0.00    -0.458 OA
BRANCH   3   4
ATOM      4  C   UNL A   1      41.312  19.667  26.388  1.00  0.00     0.360 C 
ATOM      5  O   UNL A   1      41.641  19.571  27.559  1.00  0.00    -0.244 OA
BRANCH   4   6
ATOM      6  C   UNL A   1      40.035  20.221  25.971  1.00  0.00     0.190 A 
ATOM      7  N   UNL A   1      38.323  21.442  25.466  1.00  0.00    -0.237 N 
ATOM      8  C   UNL A   1      39.513  21.491  26.138  1.00  0.00     0.147 A 
ATOM      9  N   UNL A   1      38.070  20.202  25.017  1.00  0.00    -0.066 NA
ATOM     10  N   UNL A   1      39.111  19.446  25.311  1.00  0.00    -0.123 NA
BRANCH   7  11
ATOM     11  C   UNL A   1      37.512  22.577  25.154  1.00  0.00     0.218 C 
ATOM     12  N   UNL A   1      35.641  22.994  24.308  1.00  0.00    -0.329 N 
ATOM     13  C   UNL A   1      36.043  22.489  25.637  1.00  0.00     0.296 C 
ATOM     14  C   UNL A   1      36.887  22.435  23.738  1.00  0.00     0.296 C 
ATOM     15  H   UNL A   1      35.385  23.977  24.209  1.00  0.00     0.348 HD
BRANCH  12  16
ATOM     16  C   UNL A   1      34.432  22.396  23.719  1.00  0.00     0.294 C 
BRANCH  16  17
ATOM     17  C   UNL A   1      33.153  23.220  23.408  1.00  0.00     0.169 C 
BRANCH  17  18
ATOM     18  C   UNL A   1      33.412  24.726  23.234  1.00  0.00     0.034 C 
ATOM     19  C   UNL A   1      32.703  25.546  24.308  1.00  0.00     0.007 C 
ENDBRANCH  17  18
BRANCH  17  20
ATOM     20  O   UNL A   1      32.602  22.724  22.175  1.00  0.00    -0.387 OA
ATOM     21  H   UNL A   1      33.190  22.046  21.808  1.00  0.00     0.211 HD
ENDBRANCH  17  20
ENDBRANCH  16  17
ENDBRANCH  12  16
ENDBRANCH   7  11
ENDBRANCH   4   6
ENDBRANCH   3   4
ENDBRANCH   2   3
ENDBRANCH   1   2
BRANCH   1  22
ATOM     22  O   UNL A   1      45.273  20.190  25.174  1.00  0.00    -0.374 OA
BRANCH  22  23
ATOM     23  C   UNL A   1      44.891  21.495  24.753  1.00  0.00     0.202 C 
BRANCH  23  24
ATOM     24  C   UNL A   1      43.962  22.303  25.648  1.00  0.00     0.261 C 
BRANCH  24  25
ATOM     25  O   UNL A   1      43.327  23.368  24.953  1.00  0.00    -0.460 OA
BRANCH  25  26
ATOM     26  C   UNL A   1      43.933  24.568  25.127  1.00  0.00     0.338 C 
ATOM     27  O   UNL A   1      45.040  24.893  24.745  1.00  0.00    -0.246 OA
BRANCH  26  28
ATOM     28  C   UNL A   1      43.078  25.403  25.976  1.00  0.00     0.060 A 
ATOM     29  C   UNL A   1      42.499  26.523  25.379  1.00  0.00     0.016 A 
ATOM     30  C   UNL A   1      43.076  25.218  27.368  1.00  0.00     0.016 A 
ATOM     31  C   UNL A   1      42.098  27.560  26.191  1.00  0.00     0.010 A 
ATOM     32  C   UNL A   1      42.678  26.255  28.176  1.00  0.00     0.010 A 
ATOM     33  C   UNL A   1      42.280  27.443  27.575  1.00  0.00    -0.014 A 
BRANCH  33  34
ATOM     34  C   UNL A   1      41.955  28.583  28.403  1.00  0.00     0.031 A 
ATOM     35  C   UNL A   1      43.023  29.607  28.401  1.00  0.00     0.074 A 
ATOM     36  C   UNL A   1      40.765  28.721  29.019  1.00  0.00     0.049 A 
ATOM     37  N   UNL A   1      43.827  29.900  29.366  1.00  0.00    -0.248 NA
ATOM     38  C   UNL A   1      43.370  30.233  27.113  1.00  0.00     0.031 C 
ATOM     39  C   UNL A   1      39.553  27.910  28.868  1.00  0.00     0.029 A 
ATOM     40  N   UNL A   1      40.359  29.708  29.855  1.00  0.00    -0.354 N 
ATOM     41  C   UNL A   1      44.636  30.917  28.878  1.00  0.00     0.074 A 
ATOM     42  C   UNL A   1      44.450  30.936  27.449  1.00  0.00     0.031 C 
ATOM     43  C   UNL A   1      38.498  28.583  29.386  1.00  0.00     0.029 A 
ATOM     44  C   UNL A   1      38.983  29.791  30.034  1.00  0.00     0.049 A 
ATOM     45  H   UNL A   1      40.990  30.319  30.302  1.00  0.00     0.167 HD
ATOM     46  C   UNL A   1      45.187  31.843  29.709  1.00  0.00     0.031 A 
ATOM     47  C   UNL A   1      38.307  30.818  30.616  1.00  0.00     0.031 A 
ATOM     48  C   UNL A   1      45.153  31.414  31.081  1.00  0.00     0.049 A 
ATOM     49  C   UNL A   1      39.290  31.561  31.447  1.00  0.00     0.074 A 
ATOM     50  C   UNL A   1      45.688  30.344  31.771  1.00  0.00     0.029 A 
ATOM     51  N   UNL A   1      44.132  31.902  31.864  1.00  0.00    -0.354 N 
ATOM     52  N   UNL A   1      39.874  31.046  32.494  1.00  0.00    -0.248 NA
ATOM     53  C   UNL A   1      39.989  32.679  30.830  1.00  0.00     0.031 C 
ATOM     54  C   UNL A   1      44.666  29.949  32.682  1.00  0.00     0.029 A 
ATOM     55  C   UNL A   1      43.602  30.847  32.562  1.00  0.00     0.049 A 
ATOM     56  H   UNL A   1      43.834  32.839  31.913  1.00  0.00     0.167 HD
ATOM     57  C   UNL A   1      41.193  31.472  32.413  1.00  0.00     0.074 A 
ATOM     58  C   UNL A   1      41.186  32.535  31.407  1.00  0.00     0.031 C 
ATOM     59  C   UNL A   1      42.211  30.742  32.956  1.00  0.00     0.031 A 
BRANCH  46  60
ATOM     60  C   UNL A   1      45.355  33.286  29.316  1.00  0.00    -0.014 A 
ATOM     61  C   UNL A   1      44.326  34.200  29.612  1.00  0.00     0.010 A 
ATOM     62  C   UNL A   1      46.363  33.717  28.427  1.00  0.00     0.010 A 
ATOM     63  C   UNL A   1      44.286  35.462  29.007  1.00  0.00     0.020 A 
ATOM     64  C   UNL A   1      46.357  34.987  27.854  1.00  0.00     0.020 A 
ATOM     65  C   UNL A   1      45.300  35.843  28.125  1.00  0.00     0.054 A 
BRANCH  65  66
ATOM     66  S   UNL A   1      45.196  37.441  27.287  1.00  0.00     0.124 S 
ATOM     67  O   UNL A   1      45.425  38.372  28.387  1.00  0.00    -0.237 OA
ATOM     68  O   UNL A   1      46.271  37.341  26.305  1.00  0.00    -0.237 OA
ATOM     69  O   UNL A   1      43.847  37.447  26.729  1.00  0.00    -0.744 OA
ENDBRANCH  65  66
ENDBRANCH  46  60
BRANCH  47  70
ATOM     70  C   UNL A   1      37.012  31.413  30.184  1.00  0.00    -0.014 A 
ATOM     71  C   UNL A   1      36.091  31.927  31.118  1.00  0.00     0.010 A 
ATOM     72  C   UNL A   1      36.811  31.745  28.827  1.00  0.00     0.010 A 
ATOM     73  C   UNL A   1      35.045  32.782  30.718  1.00  0.00     0.020 A 
ATOM     74  C   UNL A   1      35.771  32.593  28.421  1.00  0.00     0.020 A 
ATOM     75  C   UNL A   1      34.904  33.125  29.371  1.00  0.00     0.054 A 
BRANCH  75  76
ATOM     76  S   UNL A   1      33.664  34.362  28.879  1.00  0.00     0.124 S 
ATOM     77  O   UNL A   1      32.999  34.659  30.145  1.00  0.00    -0.237 OA
ATOM     78  O   UNL A   1      34.484  35.437  28.329  1.00  0.00    -0.237 OA
ATOM     79  O   UNL A   1      32.840  33.653  27.899  1.00  0.00    -0.744 OA
ENDBRANCH  75  76
ENDBRANCH  47  70
BRANCH  59  80
ATOM     80  C   UNL A   1      41.877  29.598  33.885  1.00  0.00    -0.014 A 
ATOM     81  C   UNL A   1      41.622  28.278  33.460  1.00  0.00     0.010 A 
ATOM     82  C   UNL A   1      42.027  29.841  35.261  1.00  0.00     0.010 A 
ATOM     83  C   UNL A   1      41.519  27.233  34.397  1.00  0.00     0.020 A 
ATOM     84  C   UNL A   1      41.944  28.806  36.193  1.00  0.00     0.020 A 
ATOM     85  C   UNL A   1      41.687  27.507  35.759  1.00  0.00     0.054 A 
BRANCH  85  86
ATOM     86  S   UNL A   1      41.636  26.150  36.966  1.00  0.00     0.124 S 
ATOM     87  O   UNL A   1      42.711  26.505  37.888  1.00  0.00    -0.237 OA
ATOM     88  O   UNL A   1      40.283  26.247  37.508  1.00  0.00    -0.237 OA
ATOM     89  O   UNL A   1      41.885  24.956  36.158  1.00  0.00    -0.744 OA
ENDBRANCH  85  86
ENDBRANCH  59  80
ENDBRANCH  33  34
ENDBRANCH  26  28
ENDBRANCH  25  26
ENDBRANCH  24  25
ENDBRANCH  23  24
ENDBRANCH  22  23
ENDBRANCH   1  22
TORSDOF 22
ENDMDL
MODEL 3
REMARK VINA RESULT:     -10.0      4.709     11.542
REMARK SMILES CC[C@@H](O)C[NH+]1CC(n2cc(C(=O)OCCOCCOC(=O)c3ccc(-c4c5nc(c(-c6ccc(S(=O)(=O)[O-])cc6)c6ccc([nH]6)c(-c6ccc(S(=O)(=O)[O-])cc6)c6nc(c(-c7ccc(S(=O)(=O)[O-])cc7)c7ccc4[nH]7)C=C6)C=C5)cc3)nn2)C1
REMARK SMILES IDX 16 1 15 2 14 3 12 4 13 5 11 6 9 7 10 8 84 9 83 10 8 11 6 12
REMARK SMILES IDX 7 13 85 14 5 16 3 17 2 18 1 19 4 20 17 22 18 23 19 24 20 25
REMARK SMILES IDX 21 26 22 27 23 28 24 29 82 30 25 31 81 32 26 33 27 34 28 35
REMARK SMILES IDX 75 36 29 37 80 38 74 39 76 40 30 41 79 42 73 43 72 44 31 46
REMARK SMILES IDX 61 47 42 48 60 49 43 50 46 51 59 52 77 53 44 54 45 55 58 57
REMARK SMILES IDX 78 58 47 59 32 60 33 61 41 62 34 63 40 64 35 65 36 66 37 67
REMARK SMILES IDX 38 68 39 69 62 70 63 71 71 72 64 73 70 74 65 75 66 76 67 77
REMARK SMILES IDX 68 78 69 79 48 80 49 81 57 82 50 83 56 84 51 85 52 86 53 87
REMARK SMILES IDX 54 88 55 89
REMARK H PARENT 6 15 4 21 76 45 46 56
REMARK Flexibility Score: inf
ROOT
ATOM      1  C   UNL A   1      46.124  21.408  24.624  1.00  0.00     0.202 C 
ENDROOT
BRANCH   1   2
ATOM      2  C   UNL A   1      45.747  22.869  24.881  1.00  0.00     0.261 C 
BRANCH   2   3
ATOM      3  O   UNL A   1      46.608  23.776  24.175  1.00  0.00    -0.458 OA
BRANCH   3   4
ATOM      4  C   UNL A   1      47.179  24.743  24.957  1.00  0.00     0.360 C 
ATOM      5  O   UNL A   1      47.400  24.627  26.152  1.00  0.00    -0.244 OA
BRANCH   4   6
ATOM      6  C   UNL A   1      47.598  25.903  24.188  1.00  0.00     0.190 A 
ATOM      7  N   UNL A   1      48.533  27.347  22.877  1.00  0.00    -0.237 N 
ATOM      8  C   UNL A   1      48.733  26.110  23.426  1.00  0.00     0.147 A 
ATOM      9  N   UNL A   1      47.414  27.915  23.356  1.00  0.00    -0.066 NA
ATOM     10  N   UNL A   1      46.827  27.042  24.153  1.00  0.00    -0.123 NA
BRANCH   7  11
ATOM     11  C   UNL A   1      49.324  27.915  21.831  1.00  0.00     0.218 C 
ATOM     12  N   UNL A   1      50.495  27.277  20.214  1.00  0.00    -0.329 N 
ATOM     13  C   UNL A   1      49.033  27.364  20.413  1.00  0.00     0.296 C 
ATOM     14  C   UNL A   1      50.668  27.150  21.679  1.00  0.00     0.296 C 
ATOM     15  H   UNL A   1      50.963  28.000  19.668  1.00  0.00     0.348 HD
BRANCH  12  16
ATOM     16  C   UNL A   1      50.987  26.099  19.483  1.00  0.00     0.294 C 
BRANCH  16  17
ATOM     17  C   UNL A   1      51.828  26.208  18.182  1.00  0.00     0.169 C 
BRANCH  17  18
ATOM     18  C   UNL A   1      52.350  24.857  17.666  1.00  0.00     0.034 C 
ATOM     19  C   UNL A   1      52.082  24.682  16.175  1.00  0.00     0.007 C 
ENDBRANCH  17  18
BRANCH  17  20
ATOM     20  O   UNL A   1      50.984  26.772  17.162  1.00  0.00    -0.387 OA
ATOM     21  H   UNL A   1      50.079  26.443  17.273  1.00  0.00     0.211 HD
ENDBRANCH  17  20
ENDBRANCH  16  17
ENDBRANCH  12  16
ENDBRANCH   7  11
ENDBRANCH   4   6
ENDBRANCH   3   4
ENDBRANCH   2   3
ENDBRANCH   1   2
BRANCH   1  22
ATOM     22  O   UNL A   1      45.238  20.635  23.817  1.00  0.00    -0.374 OA
BRANCH  22  23
ATOM     23  C   UNL A   1      45.191  19.219  23.969  1.00  0.00     0.202 C 
BRANCH  23  24
ATOM     24  C   UNL A   1      44.032  18.613  24.748  1.00  0.00     0.261 C 
BRANCH  24  25
ATOM     25  O   UNL A   1      43.601  19.444  25.817  1.00  0.00    -0.460 OA
BRANCH  25  26
ATOM     26  C   UNL A   1      42.256  19.460  25.983  1.00  0.00     0.338 C 
ATOM     27  O   UNL A   1      41.471  18.576  25.705  1.00  0.00    -0.246 OA
BRANCH  26  28
ATOM     28  C   UNL A   1      41.860  20.792  26.452  1.00  0.00     0.060 A 
ATOM     29  C   UNL A   1      42.418  21.885  25.787  1.00  0.00     0.016 A 
ATOM     30  C   UNL A   1      41.174  20.933  27.668  1.00  0.00     0.016 A 
ATOM     31  C   UNL A   1      42.467  23.093  26.446  1.00  0.00     0.010 A 
ATOM     32  C   UNL A   1      41.225  22.139  28.324  1.00  0.00     0.010 A 
ATOM     33  C   UNL A   1      41.948  23.174  27.745  1.00  0.00    -0.014 A 
BRANCH  33  34
ATOM     34  C   UNL A   1      42.104  24.419  28.464  1.00  0.00     0.031 A 
ATOM     35  C   UNL A   1      41.003  25.371  28.192  1.00  0.00     0.074 A 
ATOM     36  C   UNL A   1      43.094  24.630  29.352  1.00  0.00     0.049 A 
ATOM     37  N   UNL A   1      41.062  26.460  27.505  1.00  0.00    -0.248 NA
ATOM     38  C   UNL A   1      39.636  24.957  28.554  1.00  0.00     0.031 C 
ATOM     39  C   UNL A   1      44.063  23.672  29.892  1.00  0.00     0.029 A 
ATOM     40  N   UNL A   1      43.375  25.761  30.046  1.00  0.00    -0.354 N 
ATOM     41  C   UNL A   1      39.781  26.992  27.542  1.00  0.00     0.074 A 
ATOM     42  C   UNL A   1      38.917  25.941  28.017  1.00  0.00     0.031 C 
ATOM     43  C   UNL A   1      44.644  24.199  30.996  1.00  0.00     0.029 A 
ATOM     44  C   UNL A   1      44.203  25.576  31.149  1.00  0.00     0.049 A 
ATOM     45  H   UNL A   1      43.023  26.644  29.790  1.00  0.00     0.167 HD
ATOM     46  C   UNL A   1      39.569  28.332  27.443  1.00  0.00     0.031 A 
ATOM     47  C   UNL A   1      44.442  26.480  32.137  1.00  0.00     0.031 A 
ATOM     48  C   UNL A   1      40.723  29.017  26.924  1.00  0.00     0.049 A 
ATOM     49  C   UNL A   1      44.087  27.815  31.590  1.00  0.00     0.074 A 
ATOM     50  C   UNL A   1      41.434  28.950  25.742  1.00  0.00     0.029 A 
ATOM     51  N   UNL A   1      41.556  29.620  27.839  1.00  0.00    -0.354 N 
ATOM     52  N   UNL A   1      44.729  28.377  30.603  1.00  0.00    -0.248 NA
ATOM     53  C   UNL A   1      42.728  28.293  31.801  1.00  0.00     0.031 C 
ATOM     54  C   UNL A   1      42.799  29.067  26.131  1.00  0.00     0.029 A 
ATOM     55  C   UNL A   1      42.845  29.285  27.510  1.00  0.00     0.049 A 
ATOM     56  H   UNL A   1      41.277  30.187  28.593  1.00  0.00     0.167 HD
ATOM     57  C   UNL A   1      43.741  28.948  29.812  1.00  0.00     0.074 A 
ATOM     58  C   UNL A   1      42.535  28.926  30.640  1.00  0.00     0.031 C 
ATOM     59  C   UNL A   1      43.919  29.127  28.471  1.00  0.00     0.031 A 
BRANCH  46  60
ATOM     60  C   UNL A   1      38.485  29.040  28.210  1.00  0.00    -0.014 A 
ATOM     61  C   UNL A   1      37.816  30.121  27.607  1.00  0.00     0.010 A 
ATOM     62  C   UNL A   1      38.292  28.856  29.596  1.00  0.00     0.010 A 
ATOM     63  C   UNL A   1      37.034  31.001  28.367  1.00  0.00     0.020 A 
ATOM     64  C   UNL A   1      37.482  29.698  30.353  1.00  0.00     0.020 A 
ATOM     65  C   UNL A   1      36.880  30.785  29.738  1.00  0.00     0.054 A 
BRANCH  65  66
ATOM     66  S   UNL A   1      35.937  31.971  30.725  1.00  0.00     0.124 S 
ATOM     67  O   UNL A   1      34.685  32.054  29.979  1.00  0.00    -0.237 OA
ATOM     68  O   UNL A   1      35.863  31.302  32.019  1.00  0.00    -0.237 OA
ATOM     69  O   UNL A   1      36.765  33.174  30.696  1.00  0.00    -0.744 OA
ENDBRANCH  65  66
ENDBRANCH  46  60
BRANCH  47  70
ATOM     70  C   UNL A   1      44.557  26.218  33.599  1.00  0.00    -0.014 A 
ATOM     71  C   UNL A   1      45.774  26.400  34.284  1.00  0.00     0.010 A 
ATOM     72  C   UNL A   1      43.390  26.071  34.378  1.00  0.00     0.010 A 
ATOM     73  C   UNL A   1      45.814  26.486  35.690  1.00  0.00     0.020 A 
ATOM     74  C   UNL A   1      43.422  26.154  35.777  1.00  0.00     0.020 A 
ATOM     75  C   UNL A   1      44.631  26.383  36.427  1.00  0.00     0.054 A 
BRANCH  75  76
ATOM     76  S   UNL A   1      44.659  26.666  38.225  1.00  0.00     0.124 S 
ATOM     77  O   UNL A   1      45.724  25.770  38.666  1.00  0.00    -0.237 OA
ATOM     78  O   UNL A   1      44.955  28.093  38.319  1.00  0.00    -0.237 OA
ATOM     79  O   UNL A   1      43.313  26.286  38.654  1.00  0.00    -0.744 OA
ENDBRANCH  75  76
ENDBRANCH  47  70
BRANCH  59  80
ATOM     80  C   UNL A   1      45.301  28.950  27.885  1.00  0.00    -0.014 A 
ATOM     81  C   UNL A   1      46.095  30.004  27.391  1.00  0.00     0.010 A 
ATOM     82  C   UNL A   1      45.888  27.681  28.031  1.00  0.00     0.010 A 
ATOM     83  C   UNL A   1      47.443  29.785  27.051  1.00  0.00     0.020 A 
ATOM     84  C   UNL A   1      47.229  27.462  27.714  1.00  0.00     0.020 A 
ATOM     85  C   UNL A   1      48.001  28.513  27.222  1.00  0.00     0.054 A 
BRANCH  85  86
ATOM     86  S   UNL A   1      49.761  28.243  26.862  1.00  0.00     0.124 S 
ATOM     87  O   UNL A   1      50.418  28.852  28.015  1.00  0.00    -0.237 OA
ATOM     88  O   UNL A   1      49.857  26.788  26.778  1.00  0.00    -0.237 OA
ATOM     89  O   UNL A   1      49.968  28.941  25.593  1.00  0.00    -0.744 OA
ENDBRANCH  85  86
ENDBRANCH  59  80
ENDBRANCH  33  34
ENDBRANCH  26  28
ENDBRANCH  25  26
ENDBRANCH  24  25
ENDBRANCH  23  24
ENDBRANCH  22  23
ENDBRANCH   1  22
TORSDOF 22
ENDMDL
