MODEL 1
REMARK VINA RESULT:     -11.2      0.000      0.000
REMARK SMILES Cc1nn(C)c(=O)c(C(=O)N2CCCC[C@H]2C(=O)OCCOCCOC(=O)c2ccc(-c3c4nc(c(-c5ccc(S(=O)(=O)[O-])cc5)c5ccc([nH]5)c(-c5ccc(S(=O)(=O)[O-])cc5)c5nc(c(-c6ccc(S(=O)(=O)[O-])cc6)c6ccc3[nH]6)C=C5)C=C4)cc2)c1C
REMARK SMILES IDX 23 1 22 2 21 3 20 4 19 5 17 6 18 7 16 8 11 9 12 10 13 11
REMARK SMILES IDX 15 12 14 13 9 14 10 15 8 16 1 17 2 18 3 19 88 20 4 21 89 22
REMARK SMILES IDX 5 23 6 24 7 25 24 26 25 27 26 28 27 29 28 30 29 31 87 32
REMARK SMILES IDX 30 33 86 34 31 35 32 36 33 37 80 38 34 39 85 40 79 41 81 42
REMARK SMILES IDX 35 43 84 44 78 45 77 46 36 48 66 49 47 50 65 51 48 52 51 53
REMARK SMILES IDX 64 54 82 55 49 56 50 57 63 59 83 60 52 61 37 62 38 63 46 64
REMARK SMILES IDX 39 65 45 66 40 67 41 68 42 69 43 70 44 71 67 72 68 73 76 74
REMARK SMILES IDX 69 75 75 76 70 77 71 78 72 79 73 80 74 81 53 82 54 83 62 84
REMARK SMILES IDX 55 85 61 86 56 87 57 88 58 89 59 90 60 91
REMARK H PARENT 81 47 51 58
REMARK Flexibility Score: inf
ROOT
ATOM      1  C   UNL A   1      31.861  29.440  25.665  1.00  0.00     0.202 C 
ENDROOT
BRANCH   1   2
ATOM      2  O   UNL A   1      32.127  29.217  24.283  1.00  0.00    -0.374 OA
BRANCH   2   3
ATOM      3  C   UNL A   1      33.224  28.431  23.852  1.00  0.00     0.202 C 
BRANCH   3   4
ATOM      4  C   UNL A   1      33.415  28.210  22.356  1.00  0.00     0.261 C 
BRANCH   4   5
ATOM      5  O   UNL A   1      33.217  26.840  21.995  1.00  0.00    -0.462 OA
BRANCH   5   6
ATOM      6  C   UNL A   1      31.928  26.423  22.088  1.00  0.00     0.328 C 
ATOM      7  O   UNL A   1      30.964  27.068  21.693  1.00  0.00    -0.250 OA
BRANCH   6   8
ATOM      8  C   UNL A   1      31.801  25.057  22.786  1.00  0.00     0.195 C 
ATOM      9  N   UNL A   1      33.025  24.578  23.482  1.00  0.00    -0.325 N 
ATOM     10  C   UNL A   1      33.031  24.585  24.956  1.00  0.00     0.121 C 
ATOM     11  C   UNL A   1      31.910  25.310  25.724  1.00  0.00     0.022 C 
ATOM     12  C   UNL A   1      30.556  25.107  23.666  1.00  0.00     0.037 C 
ATOM     13  C   UNL A   1      30.827  25.961  24.886  1.00  0.00     0.005 C 
BRANCH   9  14
ATOM     14  C   UNL A   1      33.618  23.436  22.909  1.00  0.00     0.260 C 
ATOM     15  O   UNL A   1      33.591  23.281  21.687  1.00  0.00    -0.269 OA
BRANCH  14  16
ATOM     16  C   UNL A   1      34.296  22.408  23.785  1.00  0.00     0.111 A 
ATOM     17  C   UNL A   1      37.584  21.185  25.229  1.00  0.00     0.069 C 
ATOM     18  C   UNL A   1      36.156  21.154  24.721  1.00  0.00     0.062 A 
ATOM     19  N   UNL A   1      35.471  20.091  24.982  1.00  0.00    -0.175 NA
ATOM     20  C   UNL A   1      35.633  22.308  23.932  1.00  0.00    -0.010 A 
ATOM     21  N   UNL A   1      34.149  20.104  24.646  1.00  0.00    -0.232 N 
ATOM     22  C   UNL A   1      36.679  23.133  23.281  1.00  0.00     0.047 C 
ATOM     23  C   UNL A   1      33.465  18.837  24.843  1.00  0.00     0.178 C 
ATOM     24  C   UNL A   1      33.458  21.255  24.265  1.00  0.00     0.279 A 
ATOM     25  O   UNL A   1      32.230  21.330  24.270  1.00  0.00    -0.267 OA
ENDBRANCH  14  16
ENDBRANCH   9  14
ENDBRANCH   6   8
ENDBRANCH   5   6
ENDBRANCH   4   5
ENDBRANCH   3   4
ENDBRANCH   2   3
ENDBRANCH   1   2
BRANCH   1  26
ATOM     26  C   UNL A   1      32.454  30.610  26.475  1.00  0.00     0.261 C 
BRANCH  26  27
ATOM     27  O   UNL A   1      33.674  30.367  27.156  1.00  0.00    -0.460 OA
BRANCH  27  28
ATOM     28  C   UNL A   1      34.345  31.459  27.573  1.00  0.00     0.338 C 
ATOM     29  O   UNL A   1      33.915  32.589  27.708  1.00  0.00    -0.246 OA
BRANCH  28  30
ATOM     30  C   UNL A   1      35.634  30.947  28.064  1.00  0.00     0.060 A 
ATOM     31  C   UNL A   1      35.785  29.560  28.166  1.00  0.00     0.016 A 
ATOM     32  C   UNL A   1      36.713  31.813  28.289  1.00  0.00     0.016 A 
ATOM     33  C   UNL A   1      37.015  29.034  28.541  1.00  0.00     0.010 A 
ATOM     34  C   UNL A   1      37.942  31.286  28.674  1.00  0.00     0.010 A 
ATOM     35  C   UNL A   1      38.078  29.899  28.840  1.00  0.00    -0.014 A 
BRANCH  35  36
ATOM     36  C   UNL A   1      39.236  29.361  29.575  1.00  0.00     0.031 A 
ATOM     37  C   UNL A   1      39.402  29.798  31.003  1.00  0.00     0.074 A 
ATOM     38  C   UNL A   1      40.066  28.471  29.006  1.00  0.00     0.049 A 
ATOM     39  N   UNL A   1      40.285  29.421  31.885  1.00  0.00    -0.248 NA
ATOM     40  C   UNL A   1      38.433  30.793  31.502  1.00  0.00     0.031 C 
ATOM     41  C   UNL A   1      39.958  27.966  27.638  1.00  0.00     0.029 A 
ATOM     42  N   UNL A   1      41.157  27.823  29.521  1.00  0.00    -0.354 N 
ATOM     43  C   UNL A   1      39.966  30.116  33.046  1.00  0.00     0.074 A 
ATOM     44  C   UNL A   1      38.842  30.971  32.748  1.00  0.00     0.031 C 
ATOM     45  C   UNL A   1      40.940  27.072  27.426  1.00  0.00     0.029 A 
ATOM     46  C   UNL A   1      41.753  26.960  28.634  1.00  0.00     0.049 A 
ATOM     47  H   UNL A   1      41.483  27.964  30.439  1.00  0.00     0.167 HD
ATOM     48  C   UNL A   1      40.555  30.035  34.260  1.00  0.00     0.031 A 
ATOM     49  C   UNL A   1      42.833  26.171  28.793  1.00  0.00     0.031 A 
ATOM     50  C   UNL A   1      41.694  29.204  34.528  1.00  0.00     0.049 A 
ATOM     51  C   UNL A   1      43.524  26.158  30.131  1.00  0.00     0.074 A 
ATOM     52  C   UNL A   1      42.388  29.049  35.712  1.00  0.00     0.029 A 
ATOM     53  N   UNL A   1      42.309  28.392  33.587  1.00  0.00    -0.354 N 
ATOM     54  N   UNL A   1      43.202  26.805  31.228  1.00  0.00    -0.248 NA
ATOM     55  C   UNL A   1      44.716  25.310  30.257  1.00  0.00     0.031 C 
ATOM     56  C   UNL A   1      43.457  28.181  35.473  1.00  0.00     0.029 A 
ATOM     57  C   UNL A   1      43.394  27.752  34.154  1.00  0.00     0.049 A 
ATOM     58  H   UNL A   1      42.017  28.288  32.653  1.00  0.00     0.167 HD
ATOM     59  C   UNL A   1      44.145  26.433  32.179  1.00  0.00     0.074 A 
ATOM     60  C   UNL A   1      45.037  25.490  31.532  1.00  0.00     0.031 C 
ATOM     61  C   UNL A   1      44.267  26.832  33.470  1.00  0.00     0.031 A 
BRANCH  48  62
ATOM     62  C   UNL A   1      39.988  30.890  35.359  1.00  0.00    -0.014 A 
ATOM     63  C   UNL A   1      40.710  31.987  35.866  1.00  0.00     0.010 A 
ATOM     64  C   UNL A   1      38.721  30.598  35.892  1.00  0.00     0.010 A 
ATOM     65  C   UNL A   1      40.187  32.756  36.909  1.00  0.00     0.020 A 
ATOM     66  C   UNL A   1      38.184  31.379  36.919  1.00  0.00     0.020 A 
ATOM     67  C   UNL A   1      38.927  32.446  37.430  1.00  0.00     0.054 A 
BRANCH  67  68
ATOM     68  S   UNL A   1      38.265  33.475  38.769  1.00  0.00     0.124 S 
ATOM     69  O   UNL A   1      36.824  33.361  38.552  1.00  0.00    -0.237 OA
ATOM     70  O   UNL A   1      38.775  32.809  39.965  1.00  0.00    -0.237 OA
ATOM     71  O   UNL A   1      38.831  34.795  38.504  1.00  0.00    -0.744 OA
ENDBRANCH  67  68
ENDBRANCH  48  62
BRANCH  49  72
ATOM     72  C   UNL A   1      43.312  25.332  27.660  1.00  0.00    -0.014 A 
ATOM     73  C   UNL A   1      44.085  25.892  26.628  1.00  0.00     0.010 A 
ATOM     74  C   UNL A   1      43.031  23.953  27.631  1.00  0.00     0.010 A 
ATOM     75  C   UNL A   1      44.571  25.088  25.591  1.00  0.00     0.020 A 
ATOM     76  C   UNL A   1      43.534  23.143  26.607  1.00  0.00     0.020 A 
ATOM     77  C   UNL A   1      44.299  23.717  25.592  1.00  0.00     0.054 A 
BRANCH  77  78
ATOM     78  S   UNL A   1      45.010  22.683  24.280  1.00  0.00     0.124 S 
ATOM     79  O   UNL A   1      43.908  22.596  23.328  1.00  0.00    -0.237 OA
ATOM     80  O   UNL A   1      46.160  23.474  23.848  1.00  0.00    -0.237 OA
ATOM     81  O   UNL A   1      45.343  21.438  24.968  1.00  0.00    -0.744 OA
ENDBRANCH  77  78
ENDBRANCH  49  72
BRANCH  61  82
ATOM     82  C   UNL A   1      45.403  26.252  34.266  1.00  0.00    -0.014 A 
ATOM     83  C   UNL A   1      45.241  25.051  34.978  1.00  0.00     0.010 A 
ATOM     84  C   UNL A   1      46.667  26.866  34.223  1.00  0.00     0.010 A 
ATOM     85  C   UNL A   1      46.322  24.484  35.653  1.00  0.00     0.020 A 
ATOM     86  C   UNL A   1      47.758  26.287  34.875  1.00  0.00     0.020 A 
ATOM     87  C   UNL A   1      47.575  25.104  35.594  1.00  0.00     0.054 A 
BRANCH  87  88
ATOM     88  S   UNL A   1      48.976  24.313  36.430  1.00  0.00     0.124 S 
ATOM     89  O   UNL A   1      49.869  24.020  35.313  1.00  0.00    -0.237 OA
ATOM     90  O   UNL A   1      49.433  25.356  37.345  1.00  0.00    -0.237 OA
ATOM     91  O   UNL A   1      48.380  23.144  37.075  1.00  0.00    -0.744 OA
ENDBRANCH  87  88
ENDBRANCH  61  82
ENDBRANCH  35  36
ENDBRANCH  28  30
ENDBRANCH  27  28
ENDBRANCH  26  27
ENDBRANCH   1  26
TORSDOF 19
ENDMDL
MODEL 2
REMARK VINA RESULT:     -11.1      2.891      3.598
REMARK SMILES Cc1nn(C)c(=O)c(C(=O)N2CCCC[C@H]2C(=O)OCCOCCOC(=O)c2ccc(-c3c4nc(c(-c5ccc(S(=O)(=O)[O-])cc5)c5ccc([nH]5)c(-c5ccc(S(=O)(=O)[O-])cc5)c5nc(c(-c6ccc(S(=O)(=O)[O-])cc6)c6ccc3[nH]6)C=C5)C=C4)cc2)c1C
REMARK SMILES IDX 23 1 22 2 21 3 20 4 19 5 17 6 18 7 16 8 11 9 12 10 13 11
REMARK SMILES IDX 15 12 14 13 9 14 10 15 8 16 1 17 2 18 3 19 88 20 4 21 89 22
REMARK SMILES IDX 5 23 6 24 7 25 24 26 25 27 26 28 27 29 28 30 29 31 87 32
REMARK SMILES IDX 30 33 86 34 31 35 32 36 33 37 80 38 34 39 85 40 79 41 81 42
REMARK SMILES IDX 35 43 84 44 78 45 77 46 36 48 66 49 47 50 65 51 48 52 51 53
REMARK SMILES IDX 64 54 82 55 49 56 50 57 63 59 83 60 52 61 37 62 38 63 46 64
REMARK SMILES IDX 39 65 45 66 40 67 41 68 42 69 43 70 44 71 67 72 68 73 76 74
REMARK SMILES IDX 69 75 75 76 70 77 71 78 72 79 73 80 74 81 53 82 54 83 62 84
REMARK SMILES IDX 55 85 61 86 56 87 57 88 58 89 59 90 60 91
REMARK H PARENT 81 47 51 58
REMARK Flexibility Score: inf
ROOT
ATOM      1  C   UNL A   1      31.925  29.903  26.264  1.00  0.00     0.202 C 
ENDROOT
BRANCH   1   2
ATOM      2  O   UNL A   1      32.078  28.968  25.199  1.00  0.00    -0.374 OA
BRANCH   2   3
ATOM      3  C   UNL A   1      33.356  28.580  24.725  1.00  0.00     0.202 C 
BRANCH   3   4
ATOM      4  C   UNL A   1      33.431  27.568  23.588  1.00  0.00     0.261 C 
BRANCH   4   5
ATOM      5  O   UNL A   1      33.766  26.261  24.064  1.00  0.00    -0.462 OA
BRANCH   5   6
ATOM      6  C   UNL A   1      33.257  25.250  23.314  1.00  0.00     0.328 C 
ATOM      7  O   UNL A   1      33.631  24.977  22.180  1.00  0.00    -0.250 OA
BRANCH   6   8
ATOM      8  C   UNL A   1      32.121  24.500  24.032  1.00  0.00     0.195 C 
ATOM      9  N   UNL A   1      31.905  24.875  25.455  1.00  0.00    -0.325 N 
ATOM     10  C   UNL A   1      30.702  25.659  25.790  1.00  0.00     0.121 C 
ATOM     11  C   UNL A   1      29.856  26.281  24.664  1.00  0.00     0.022 C 
ATOM     12  C   UNL A   1      30.876  24.609  23.156  1.00  0.00     0.037 C 
ATOM     13  C   UNL A   1      30.312  26.011  23.244  1.00  0.00     0.005 C 
BRANCH   9  14
ATOM     14  C   UNL A   1      32.208  23.859  26.383  1.00  0.00     0.260 C 
ATOM     15  O   UNL A   1      31.781  23.937  27.536  1.00  0.00    -0.269 OA
BRANCH  14  16
ATOM     16  C   UNL A   1      33.042  22.670  25.966  1.00  0.00     0.111 A 
ATOM     17  C   UNL A   1      36.549  21.307  25.477  1.00  0.00     0.069 C 
ATOM     18  C   UNL A   1      35.055  21.485  25.292  1.00  0.00     0.062 A 
ATOM     19  N   UNL A   1      34.441  20.569  24.620  1.00  0.00    -0.175 NA
ATOM     20  C   UNL A   1      34.386  22.697  25.849  1.00  0.00    -0.010 A 
ATOM     21  N   UNL A   1      33.080  20.648  24.558  1.00  0.00    -0.232 N 
ATOM     22  C   UNL A   1      35.291  23.851  26.075  1.00  0.00     0.047 C 
ATOM     23  C   UNL A   1      32.460  19.669  23.682  1.00  0.00     0.178 C 
ATOM     24  C   UNL A   1      32.317  21.502  25.355  1.00  0.00     0.279 A 
ATOM     25  O   UNL A   1      31.108  21.355  25.526  1.00  0.00    -0.267 OA
ENDBRANCH  14  16
ENDBRANCH   9  14
ENDBRANCH   6   8
ENDBRANCH   5   6
ENDBRANCH   4   5
ENDBRANCH   3   4
ENDBRANCH   2   3
ENDBRANCH   1   2
BRANCH   1  26
ATOM     26  C   UNL A   1      33.062  30.803  26.784  1.00  0.00     0.261 C 
BRANCH  26  27
ATOM     27  O   UNL A   1      33.949  30.235  27.734  1.00  0.00    -0.460 OA
BRANCH  27  28
ATOM     28  C   UNL A   1      34.692  31.107  28.443  1.00  0.00     0.338 C 
ATOM     29  O   UNL A   1      34.315  32.112  29.016  1.00  0.00    -0.246 OA
BRANCH  28  30
ATOM     30  C   UNL A   1      36.005  30.457  28.587  1.00  0.00     0.060 A 
ATOM     31  C   UNL A   1      36.290  29.832  29.806  1.00  0.00     0.016 A 
ATOM     32  C   UNL A   1      36.878  30.350  27.495  1.00  0.00     0.016 A 
ATOM     33  C   UNL A   1      37.481  29.132  29.950  1.00  0.00     0.010 A 
ATOM     34  C   UNL A   1      38.075  29.657  27.644  1.00  0.00     0.010 A 
ATOM     35  C   UNL A   1      38.392  29.085  28.886  1.00  0.00    -0.014 A 
BRANCH  35  36
ATOM     36  C   UNL A   1      39.778  28.666  29.165  1.00  0.00     0.031 A 
ATOM     37  C   UNL A   1      40.636  29.622  29.944  1.00  0.00     0.074 A 
ATOM     38  C   UNL A   1      40.225  27.457  28.790  1.00  0.00     0.049 A 
ATOM     39  N   UNL A   1      41.855  29.469  30.381  1.00  0.00    -0.248 NA
ATOM     40  C   UNL A   1      40.031  30.925  30.279  1.00  0.00     0.031 C 
ATOM     41  C   UNL A   1      39.449  26.453  28.062  1.00  0.00     0.029 A 
ATOM     42  N   UNL A   1      41.443  26.862  28.988  1.00  0.00    -0.354 N 
ATOM     43  C   UNL A   1      42.154  30.646  31.058  1.00  0.00     0.074 A 
ATOM     44  C   UNL A   1      41.012  31.521  30.936  1.00  0.00     0.031 C 
ATOM     45  C   UNL A   1      40.209  25.358  27.886  1.00  0.00     0.029 A 
ATOM     46  C   UNL A   1      41.527  25.593  28.471  1.00  0.00     0.049 A 
ATOM     47  H   UNL A   1      42.187  27.304  29.457  1.00  0.00     0.167 HD
ATOM     48  C   UNL A   1      43.281  30.961  31.734  1.00  0.00     0.031 A 
ATOM     49  C   UNL A   1      42.558  24.726  28.477  1.00  0.00     0.031 A 
ATOM     50  C   UNL A   1      44.419  30.091  31.815  1.00  0.00     0.049 A 
ATOM     51  C   UNL A   1      43.834  25.130  29.166  1.00  0.00     0.074 A 
ATOM     52  C   UNL A   1      45.623  30.305  32.457  1.00  0.00     0.029 A 
ATOM     53  N   UNL A   1      44.490  28.839  31.223  1.00  0.00    -0.354 N 
ATOM     54  N   UNL A   1      44.099  26.238  29.820  1.00  0.00    -0.248 NA
ATOM     55  C   UNL A   1      44.945  24.172  29.125  1.00  0.00     0.031 C 
ATOM     56  C   UNL A   1      46.444  29.200  32.209  1.00  0.00     0.029 A 
ATOM     57  C   UNL A   1      45.730  28.275  31.459  1.00  0.00     0.049 A 
ATOM     58  H   UNL A   1      43.765  28.414  30.709  1.00  0.00     0.167 HD
ATOM     59  C   UNL A   1      45.404  26.106  30.279  1.00  0.00     0.074 A 
ATOM     60  C   UNL A   1      45.867  24.802  29.843  1.00  0.00     0.031 C 
ATOM     61  C   UNL A   1      46.156  26.979  30.994  1.00  0.00     0.031 A 
BRANCH  48  62
ATOM     62  C   UNL A   1      43.331  32.308  32.401  1.00  0.00    -0.014 A 
ATOM     63  C   UNL A   1      43.989  33.391  31.791  1.00  0.00     0.010 A 
ATOM     64  C   UNL A   1      42.713  32.495  33.649  1.00  0.00     0.010 A 
ATOM     65  C   UNL A   1      44.056  34.630  32.434  1.00  0.00     0.020 A 
ATOM     66  C   UNL A   1      42.758  33.739  34.285  1.00  0.00     0.020 A 
ATOM     67  C   UNL A   1      43.441  34.795  33.678  1.00  0.00     0.054 A 
BRANCH  67  68
ATOM     68  S   UNL A   1      43.526  36.420  34.480  1.00  0.00     0.124 S 
ATOM     69  O   UNL A   1      43.022  37.302  33.429  1.00  0.00    -0.237 OA
ATOM     70  O   UNL A   1      42.647  36.253  35.635  1.00  0.00    -0.237 OA
ATOM     71  O   UNL A   1      44.943  36.578  34.796  1.00  0.00    -0.744 OA
ENDBRANCH  67  68
ENDBRANCH  48  62
BRANCH  49  72
ATOM     72  C   UNL A   1      42.414  23.399  27.817  1.00  0.00    -0.014 A 
ATOM     73  C   UNL A   1      42.999  23.153  26.563  1.00  0.00     0.010 A 
ATOM     74  C   UNL A   1      41.724  22.356  28.464  1.00  0.00     0.010 A 
ATOM     75  C   UNL A   1      42.900  21.890  25.970  1.00  0.00     0.020 A 
ATOM     76  C   UNL A   1      41.643  21.086  27.885  1.00  0.00     0.020 A 
ATOM     77  C   UNL A   1      42.229  20.862  26.639  1.00  0.00     0.054 A 
BRANCH  77  78
ATOM     78  S   UNL A   1      42.186  19.210  25.886  1.00  0.00     0.124 S 
ATOM     79  O   UNL A   1      43.029  19.389  24.708  1.00  0.00    -0.237 OA
ATOM     80  O   UNL A   1      42.744  18.370  26.943  1.00  0.00    -0.237 OA
ATOM     81  O   UNL A   1      40.766  18.995  25.614  1.00  0.00    -0.744 OA
ENDBRANCH  77  78
ENDBRANCH  49  72
BRANCH  61  82
ATOM     82  C   UNL A   1      47.554  26.555  31.349  1.00  0.00    -0.014 A 
ATOM     83  C   UNL A   1      48.633  26.861  30.503  1.00  0.00     0.010 A 
ATOM     84  C   UNL A   1      47.799  25.927  32.584  1.00  0.00     0.010 A 
ATOM     85  C   UNL A   1      49.936  26.528  30.878  1.00  0.00     0.020 A 
ATOM     86  C   UNL A   1      49.102  25.616  32.974  1.00  0.00     0.020 A 
ATOM     87  C   UNL A   1      50.162  25.910  32.112  1.00  0.00     0.054 A 
BRANCH  87  88
ATOM     88  S   UNL A   1      51.869  25.542  32.600  1.00  0.00     0.124 S 
ATOM     89  O   UNL A   1      51.847  25.842  34.029  1.00  0.00    -0.237 OA
ATOM     90  O   UNL A   1      52.003  24.129  32.255  1.00  0.00    -0.237 OA
ATOM     91  O   UNL A   1      52.667  26.455  31.784  1.00  0.00    -0.744 OA
ENDBRANCH  87  88
ENDBRANCH  61  82
ENDBRANCH  35  36
ENDBRANCH  28  30
ENDBRANCH  27  28
ENDBRANCH  26  27
ENDBRANCH   1  26
TORSDOF 19
ENDMDL
MODEL 3
REMARK VINA RESULT:     -10.8      5.381      9.052
REMARK SMILES Cc1nn(C)c(=O)c(C(=O)N2CCCC[C@H]2C(=O)OCCOCCOC(=O)c2ccc(-c3c4nc(c(-c5ccc(S(=O)(=O)[O-])cc5)c5ccc([nH]5)c(-c5ccc(S(=O)(=O)[O-])cc5)c5nc(c(-c6ccc(S(=O)(=O)[O-])cc6)c6ccc3[nH]6)C=C5)C=C4)cc2)c1C
REMARK SMILES IDX 23 1 22 2 21 3 20 4 19 5 17 6 18 7 16 8 11 9 12 10 13 11
REMARK SMILES IDX 15 12 14 13 9 14 10 15 8 16 1 17 2 18 3 19 88 20 4 21 89 22
REMARK SMILES IDX 5 23 6 24 7 25 24 26 25 27 26 28 27 29 28 30 29 31 87 32
REMARK SMILES IDX 30 33 86 34 31 35 32 36 33 37 80 38 34 39 85 40 79 41 81 42
REMARK SMILES IDX 35 43 84 44 78 45 77 46 36 48 66 49 47 50 65 51 48 52 51 53
REMARK SMILES IDX 64 54 82 55 49 56 50 57 63 59 83 60 52 61 37 62 38 63 46 64
REMARK SMILES IDX 39 65 45 66 40 67 41 68 42 69 43 70 44 71 67 72 68 73 76 74
REMARK SMILES IDX 69 75 75 76 70 77 71 78 72 79 73 80 74 81 53 82 54 83 62 84
REMARK SMILES IDX 55 85 61 86 56 87 57 88 58 89 59 90 60 91
REMARK H PARENT 81 47 51 58
REMARK Flexibility Score: inf
ROOT
ATOM      1  C   UNL A   1      34.119  28.944  26.415  1.00  0.00     0.202 C 
ENDROOT
BRANCH   1   2
ATOM      2  O   UNL A   1      33.380  29.714  25.469  1.00  0.00    -0.374 OA
BRANCH   2   3
ATOM      3  C   UNL A   1      32.413  29.122  24.620  1.00  0.00     0.202 C 
BRANCH   3   4
ATOM      4  C   UNL A   1      32.757  28.937  23.146  1.00  0.00     0.261 C 
BRANCH   4   5
ATOM      5  O   UNL A   1      32.882  27.554  22.802  1.00  0.00    -0.462 OA
BRANCH   5   6
ATOM      6  C   UNL A   1      31.696  26.918  22.623  1.00  0.00     0.328 C 
ATOM      7  O   UNL A   1      30.727  27.410  22.056  1.00  0.00    -0.250 OA
BRANCH   6   8
ATOM      8  C   UNL A   1      31.682  25.512  23.250  1.00  0.00     0.195 C 
ATOM      9  N   UNL A   1      32.978  25.051  23.815  1.00  0.00    -0.325 N 
ATOM     10  C   UNL A   1      33.108  24.979  25.282  1.00  0.00     0.121 C 
ATOM     11  C   UNL A   1      32.028  25.612  26.179  1.00  0.00     0.022 C 
ATOM     12  C   UNL A   1      30.514  25.460  24.230  1.00  0.00     0.037 C 
ATOM     13  C   UNL A   1      30.853  26.258  25.471  1.00  0.00     0.005 C 
BRANCH   9  14
ATOM     14  C   UNL A   1      33.565  23.968  23.131  1.00  0.00     0.260 C 
ATOM     15  O   UNL A   1      33.665  24.003  21.903  1.00  0.00    -0.269 OA
BRANCH  14  16
ATOM     16  C   UNL A   1      34.083  22.774  23.897  1.00  0.00     0.111 A 
ATOM     17  C   UNL A   1      37.153  20.972  25.212  1.00  0.00     0.069 C 
ATOM     18  C   UNL A   1      35.742  21.188  24.702  1.00  0.00     0.062 A 
ATOM     19  N   UNL A   1      34.915  20.208  24.849  1.00  0.00    -0.175 NA
ATOM     20  C   UNL A   1      35.392  22.477  24.036  1.00  0.00    -0.010 A 
ATOM     21  N   UNL A   1      33.612  20.435  24.513  1.00  0.00    -0.232 N 
ATOM     22  C   UNL A   1      36.551  23.215  23.476  1.00  0.00     0.047 C 
ATOM     23  C   UNL A   1      32.760  19.259  24.577  1.00  0.00     0.178 C 
ATOM     24  C   UNL A   1      33.089  21.702  24.253  1.00  0.00     0.279 A 
ATOM     25  O   UNL A   1      31.883  21.943  24.263  1.00  0.00    -0.267 OA
ENDBRANCH  14  16
ENDBRANCH   9  14
ENDBRANCH   6   8
ENDBRANCH   5   6
ENDBRANCH   4   5
ENDBRANCH   3   4
ENDBRANCH   2   3
ENDBRANCH   1   2
BRANCH   1  26
ATOM     26  C   UNL A   1      34.842  29.548  27.634  1.00  0.00     0.261 C 
BRANCH  26  27
ATOM     27  O   UNL A   1      36.236  29.308  27.738  1.00  0.00    -0.460 OA
BRANCH  27  28
ATOM     28  C   UNL A   1      36.770  29.457  28.967  1.00  0.00     0.338 C 
ATOM     29  O   UNL A   1      36.190  29.451  30.037  1.00  0.00    -0.246 OA
BRANCH  28  30
ATOM     30  C   UNL A   1      38.226  29.380  28.759  1.00  0.00     0.060 A 
ATOM     31  C   UNL A   1      38.690  29.315  27.441  1.00  0.00     0.016 A 
ATOM     32  C   UNL A   1      39.113  29.507  29.836  1.00  0.00     0.016 A 
ATOM     33  C   UNL A   1      40.058  29.330  27.199  1.00  0.00     0.010 A 
ATOM     34  C   UNL A   1      40.484  29.512  29.593  1.00  0.00     0.010 A 
ATOM     35  C   UNL A   1      40.952  29.381  28.278  1.00  0.00    -0.014 A 
BRANCH  35  36
ATOM     36  C   UNL A   1      42.364  29.032  28.036  1.00  0.00     0.031 A 
ATOM     37  C   UNL A   1      42.671  27.589  27.753  1.00  0.00     0.074 A 
ATOM     38  C   UNL A   1      43.317  29.977  28.011  1.00  0.00     0.049 A 
ATOM     39  N   UNL A   1      43.808  27.033  27.438  1.00  0.00    -0.248 NA
ATOM     40  C   UNL A   1      41.536  26.648  27.828  1.00  0.00     0.031 C 
ATOM     41  C   UNL A   1      43.102  31.405  28.241  1.00  0.00     0.029 A 
ATOM     42  N   UNL A   1      44.661  29.873  27.763  1.00  0.00    -0.354 N 
ATOM     43  C   UNL A   1      43.522  25.683  27.261  1.00  0.00     0.074 A 
ATOM     44  C   UNL A   1      42.119  25.494  27.546  1.00  0.00     0.031 C 
ATOM     45  C   UNL A   1      44.276  32.049  28.108  1.00  0.00     0.029 A 
ATOM     46  C   UNL A   1      45.322  31.076  27.805  1.00  0.00     0.049 A 
ATOM     47  H   UNL A   1      45.108  29.018  27.573  1.00  0.00     0.167 HD
ATOM     48  C   UNL A   1      44.357  24.693  26.878  1.00  0.00     0.031 A 
ATOM     49  C   UNL A   1      46.628  31.349  27.618  1.00  0.00     0.031 A 
ATOM     50  C   UNL A   1      45.757  24.894  26.632  1.00  0.00     0.049 A 
ATOM     51  C   UNL A   1      47.557  30.216  27.273  1.00  0.00     0.074 A 
ATOM     52  C   UNL A   1      46.708  23.967  26.256  1.00  0.00     0.029 A 
ATOM     53  N   UNL A   1      46.403  26.116  26.749  1.00  0.00    -0.354 N 
ATOM     54  N   UNL A   1      47.272  28.947  27.088  1.00  0.00    -0.248 NA
ATOM     55  C   UNL A   1      48.978  30.546  27.106  1.00  0.00     0.031 C 
ATOM     56  C   UNL A   1      47.943  24.619  26.195  1.00  0.00     0.029 A 
ATOM     57  C   UNL A   1      47.750  25.964  26.479  1.00  0.00     0.049 A 
ATOM     58  H   UNL A   1      45.968  26.965  26.990  1.00  0.00     0.167 HD
ATOM     59  C   UNL A   1      48.476  28.328  26.771  1.00  0.00     0.074 A 
ATOM     60  C   UNL A   1      49.488  29.368  26.772  1.00  0.00     0.031 C 
ATOM     61  C   UNL A   1      48.728  27.022  26.505  1.00  0.00     0.031 A 
BRANCH  48  62
ATOM     62  C   UNL A   1      43.774  23.314  26.740  1.00  0.00    -0.014 A 
ATOM     63  C   UNL A   1      43.256  22.633  27.858  1.00  0.00     0.010 A 
ATOM     64  C   UNL A   1      43.740  22.690  25.481  1.00  0.00     0.010 A 
ATOM     65  C   UNL A   1      42.744  21.340  27.723  1.00  0.00     0.020 A 
ATOM     66  C   UNL A   1      43.208  21.406  25.338  1.00  0.00     0.020 A 
ATOM     67  C   UNL A   1      42.725  20.734  26.463  1.00  0.00     0.054 A 
BRANCH  67  68
ATOM     68  S   UNL A   1      42.035  19.063  26.315  1.00  0.00     0.124 S 
ATOM     69  O   UNL A   1      42.105  18.584  27.694  1.00  0.00    -0.237 OA
ATOM     70  O   UNL A   1      40.690  19.317  25.805  1.00  0.00    -0.237 OA
ATOM     71  O   UNL A   1      42.939  18.397  25.380  1.00  0.00    -0.744 OA
ENDBRANCH  67  68
ENDBRANCH  48  62
BRANCH  49  72
ATOM     72  C   UNL A   1      47.119  32.749  27.745  1.00  0.00    -0.014 A 
ATOM     73  C   UNL A   1      47.282  33.559  26.609  1.00  0.00     0.010 A 
ATOM     74  C   UNL A   1      47.387  33.293  29.016  1.00  0.00     0.010 A 
ATOM     75  C   UNL A   1      47.699  34.889  26.740  1.00  0.00     0.020 A 
ATOM     76  C   UNL A   1      47.782  34.628  29.153  1.00  0.00     0.020 A 
ATOM     77  C   UNL A   1      47.938  35.416  28.013  1.00  0.00     0.054 A 
BRANCH  77  78
ATOM     78  S   UNL A   1      48.398  37.166  28.161  1.00  0.00     0.124 S 
ATOM     79  O   UNL A   1      49.101  37.406  26.905  1.00  0.00    -0.237 OA
ATOM     80  O   UNL A   1      47.100  37.821  28.296  1.00  0.00    -0.237 OA
ATOM     81  O   UNL A   1      49.232  37.200  29.362  1.00  0.00    -0.744 OA
ENDBRANCH  77  78
ENDBRANCH  49  72
BRANCH  61  82
ATOM     82  C   UNL A   1      50.149  26.644  26.193  1.00  0.00    -0.014 A 
ATOM     83  C   UNL A   1      50.633  26.702  24.875  1.00  0.00     0.010 A 
ATOM     84  C   UNL A   1      51.028  26.318  27.241  1.00  0.00     0.010 A 
ATOM     85  C   UNL A   1      51.974  26.419  24.608  1.00  0.00     0.020 A 
ATOM     86  C   UNL A   1      52.375  26.061  26.980  1.00  0.00     0.020 A 
ATOM     87  C   UNL A   1      52.836  26.104  25.662  1.00  0.00     0.054 A 
BRANCH  87  88
ATOM     88  S   UNL A   1      54.586  25.801  25.293  1.00  0.00     0.124 S 
ATOM     89  O   UNL A   1      55.251  26.468  26.408  1.00  0.00    -0.237 OA
ATOM     90  O   UNL A   1      54.665  24.342  25.295  1.00  0.00    -0.237 OA
ATOM     91  O   UNL A   1      54.778  26.428  23.987  1.00  0.00    -0.744 OA
ENDBRANCH  87  88
ENDBRANCH  61  82
ENDBRANCH  35  36
ENDBRANCH  28  30
ENDBRANCH  27  28
ENDBRANCH  26  27
ENDBRANCH   1  26
TORSDOF 19
ENDMDL
