MODEL 1
REMARK VINA RESULT:     -11.1      0.000      0.000
REMARK SMILES O=C(OCCOCCOC(=O)c1cc(Br)ccc1N1CC2(CCCCC2)C1)c1ccc(-c2c3nc(c(-c4ccc(S(=O)(=O)[O-])cc4)c4ccc([nH]4)c(-c4ccc(S(=O)(=O)[O-])cc4)c4nc(c(-c5ccc(S(=O)(=O)[O-])cc5)c5ccc2[nH]5)C=C4)C=C3)cc1
REMARK SMILES IDX 5 1 4 2 3 3 2 4 1 5 28 6 29 7 87 8 30 9 86 10 31 11 32 12
REMARK SMILES IDX 33 13 80 14 34 15 85 16 79 17 81 18 35 19 84 20 78 21 77 22
REMARK SMILES IDX 36 24 66 25 47 26 65 27 48 28 51 29 64 30 82 31 49 32 50 33
REMARK SMILES IDX 63 35 83 36 52 37 37 38 38 39 46 40 39 41 45 42 40 43 41 44
REMARK SMILES IDX 42 45 43 46 44 47 67 48 68 49 76 50 69 51 75 52 70 53 71 54
REMARK SMILES IDX 72 55 73 56 74 57 53 58 54 59 62 60 55 61 61 62 56 63 57 64
REMARK SMILES IDX 58 65 59 66 60 67 6 68 7 69 8 70 9 71 10 72 11 73 12 74
REMARK SMILES IDX 13 75 18 76 14 77 17 78 15 79 16 80 19 81 20 82 27 83 21 84
REMARK SMILES IDX 22 85 26 86 23 87 25 88 24 89
REMARK H PARENT 81 23 51 34
REMARK Flexibility Score: inf
ROOT
ATOM      1  C   UNL A   1      35.037  30.112  27.710  1.00  0.00     0.202 C 
ENDROOT
BRANCH   1   2
ATOM      2  C   UNL A   1      35.826  31.349  28.149  1.00  0.00     0.261 C 
BRANCH   2   3
ATOM      3  O   UNL A   1      36.171  31.228  29.545  1.00  0.00    -0.460 OA
BRANCH   3   4
ATOM      4  C   UNL A   1      36.863  30.188  30.072  1.00  0.00     0.338 C 
ATOM      5  O   UNL A   1      36.304  29.346  30.767  1.00  0.00    -0.246 OA
BRANCH   4   6
ATOM      6  C   UNL A   1      38.245  29.930  29.602  1.00  0.00     0.060 A 
ATOM      7  C   UNL A   1      39.324  29.828  30.471  1.00  0.00     0.016 A 
ATOM      8  C   UNL A   1      38.438  29.624  28.249  1.00  0.00     0.016 A 
ATOM      9  C   UNL A   1      40.587  29.497  30.004  1.00  0.00     0.010 A 
ATOM     10  C   UNL A   1      39.705  29.242  27.784  1.00  0.00     0.010 A 
ATOM     11  C   UNL A   1      40.796  29.187  28.664  1.00  0.00    -0.014 A 
BRANCH  11  12
ATOM     12  C   UNL A   1      42.175  28.880  28.214  1.00  0.00     0.031 A 
ATOM     13  C   UNL A   1      42.493  27.494  27.737  1.00  0.00     0.074 A 
ATOM     14  C   UNL A   1      43.102  29.857  28.126  1.00  0.00     0.049 A 
ATOM     15  N   UNL A   1      43.651  26.963  27.448  1.00  0.00    -0.248 NA
ATOM     16  C   UNL A   1      41.350  26.581  27.559  1.00  0.00     0.031 C 
ATOM     17  C   UNL A   1      42.872  31.275  28.421  1.00  0.00     0.029 A 
ATOM     18  N   UNL A   1      44.414  29.817  27.723  1.00  0.00    -0.354 N 
ATOM     19  C   UNL A   1      43.386  25.639  27.124  1.00  0.00     0.074 A 
ATOM     20  C   UNL A   1      41.957  25.450  27.230  1.00  0.00     0.031 C 
ATOM     21  C   UNL A   1      43.979  31.973  28.130  1.00  0.00     0.029 A 
ATOM     22  C   UNL A   1      45.036  31.045  27.750  1.00  0.00     0.049 A 
ATOM     23  H   UNL A   1      44.866  28.990  27.443  1.00  0.00     0.167 HD
ATOM     24  C   UNL A   1      44.268  24.666  26.795  1.00  0.00     0.031 A 
ATOM     25  C   UNL A   1      46.326  31.377  27.549  1.00  0.00     0.031 A 
ATOM     26  C   UNL A   1      45.684  24.889  26.685  1.00  0.00     0.049 A 
ATOM     27  C   UNL A   1      47.304  30.268  27.269  1.00  0.00     0.074 A 
ATOM     28  C   UNL A   1      46.688  23.972  26.435  1.00  0.00     0.029 A 
ATOM     29  N   UNL A   1      46.295  26.130  26.808  1.00  0.00    -0.354 N 
ATOM     30  N   UNL A   1      47.067  28.988  27.102  1.00  0.00    -0.248 NA
ATOM     31  C   UNL A   1      48.722  30.638  27.187  1.00  0.00     0.031 C 
ATOM     32  C   UNL A   1      47.911  24.654  26.455  1.00  0.00     0.029 A 
ATOM     33  C   UNL A   1      47.663  26.004  26.652  1.00  0.00     0.049 A 
ATOM     34  H   UNL A   1      45.822  26.977  26.980  1.00  0.00     0.167 HD
ATOM     35  C   UNL A   1      48.307  28.398  26.891  1.00  0.00     0.074 A 
ATOM     36  C   UNL A   1      49.287  29.466  26.926  1.00  0.00     0.031 C 
ATOM     37  C   UNL A   1      48.611  27.090  26.694  1.00  0.00     0.031 A 
BRANCH  24  38
ATOM     38  C   UNL A   1      43.725  23.270  26.648  1.00  0.00    -0.014 A 
ATOM     39  C   UNL A   1      43.093  22.597  27.709  1.00  0.00     0.010 A 
ATOM     40  C   UNL A   1      43.884  22.606  25.416  1.00  0.00     0.010 A 
ATOM     41  C   UNL A   1      42.685  21.268  27.558  1.00  0.00     0.020 A 
ATOM     42  C   UNL A   1      43.451  21.289  25.252  1.00  0.00     0.020 A 
ATOM     43  C   UNL A   1      42.876  20.618  26.333  1.00  0.00     0.054 A 
BRANCH  43  44
ATOM     44  S   UNL A   1      42.359  18.888  26.169  1.00  0.00     0.124 S 
ATOM     45  O   UNL A   1      43.304  18.385  25.175  1.00  0.00    -0.237 OA
ATOM     46  O   UNL A   1      42.537  18.370  27.523  1.00  0.00    -0.237 OA
ATOM     47  O   UNL A   1      40.972  18.981  25.718  1.00  0.00    -0.744 OA
ENDBRANCH  43  44
ENDBRANCH  24  38
BRANCH  25  48
ATOM     48  C   UNL A   1      46.771  32.794  27.700  1.00  0.00    -0.014 A 
ATOM     49  C   UNL A   1      46.800  33.670  26.602  1.00  0.00     0.010 A 
ATOM     50  C   UNL A   1      47.149  33.283  28.967  1.00  0.00     0.010 A 
ATOM     51  C   UNL A   1      47.193  35.005  26.768  1.00  0.00     0.020 A 
ATOM     52  C   UNL A   1      47.508  34.622  29.144  1.00  0.00     0.020 A 
ATOM     53  C   UNL A   1      47.538  35.474  28.040  1.00  0.00     0.054 A 
BRANCH  53  54
ATOM     54  S   UNL A   1      47.976  37.223  28.248  1.00  0.00     0.124 S 
ATOM     55  O   UNL A   1      46.857  37.896  27.598  1.00  0.00    -0.237 OA
ATOM     56  O   UNL A   1      48.042  37.363  29.701  1.00  0.00    -0.237 OA
ATOM     57  O   UNL A   1      49.261  37.338  27.562  1.00  0.00    -0.744 OA
ENDBRANCH  53  54
ENDBRANCH  25  48
BRANCH  37  58
ATOM     58  C   UNL A   1      50.057  26.749  26.465  1.00  0.00    -0.014 A 
ATOM     59  C   UNL A   1      50.888  26.350  27.527  1.00  0.00     0.010 A 
ATOM     60  C   UNL A   1      50.567  26.762  25.155  1.00  0.00     0.010 A 
ATOM     61  C   UNL A   1      52.215  25.989  27.281  1.00  0.00     0.020 A 
ATOM     62  C   UNL A   1      51.884  26.376  24.903  1.00  0.00     0.020 A 
ATOM     63  C   UNL A   1      52.703  26.002  25.970  1.00  0.00     0.054 A 
BRANCH  63  64
ATOM     64  S   UNL A   1      54.411  25.475  25.670  1.00  0.00     0.124 S 
ATOM     65  O   UNL A   1      55.148  26.252  26.662  1.00  0.00    -0.237 OA
ATOM     66  O   UNL A   1      54.350  24.036  25.918  1.00  0.00    -0.237 OA
ATOM     67  O   UNL A   1      54.650  25.851  24.278  1.00  0.00    -0.744 OA
ENDBRANCH  63  64
ENDBRANCH  37  58
ENDBRANCH  11  12
ENDBRANCH   4   6
ENDBRANCH   3   4
ENDBRANCH   2   3
ENDBRANCH   1   2
BRANCH   1  68
ATOM     68  O   UNL A   1      34.095  30.515  26.726  1.00  0.00    -0.374 OA
BRANCH  68  69
ATOM     69  C   UNL A   1      32.796  30.875  27.180  1.00  0.00     0.202 C 
BRANCH  69  70
ATOM     70  C   UNL A   1      31.774  30.559  26.092  1.00  0.00     0.261 C 
BRANCH  70  71
ATOM     71  O   UNL A   1      32.277  29.472  25.299  1.00  0.00    -0.460 OA
BRANCH  71  72
ATOM     72  C   UNL A   1      31.763  28.238  25.581  1.00  0.00     0.340 C 
ATOM     73  O   UNL A   1      31.155  27.933  26.591  1.00  0.00    -0.246 OA
BRANCH  72  74
ATOM     74  C   UNL A   1      32.021  27.356  24.404  1.00  0.00     0.084 A 
ATOM     75  C   UNL A   1      32.982  26.336  24.557  1.00  0.00     0.033 A 
ATOM     76  C   UNL A   1      31.338  27.509  23.173  1.00  0.00     0.051 A 
ATOM     77  C   UNL A   1      33.293  25.500  23.494  1.00  0.00     0.018 A 
ATOM     78  C   UNL A   1      31.669  26.636  22.123  1.00  0.00     0.028 A 
ATOM     79  Br  UNL A   1      34.607  24.160  23.713  1.00  0.00    -0.051 Br
ATOM     80  C   UNL A   1      32.647  25.649  22.273  1.00  0.00     0.018 A 
BRANCH  76  81
ATOM     81  N   UNL A   1      30.355  28.488  22.961  1.00  0.00    -0.370 N 
ATOM     82  C   UNL A   1      30.366  29.563  22.016  1.00  0.00     0.125 C 
ATOM     83  C   UNL A   1      28.922  28.406  22.956  1.00  0.00     0.125 C 
ATOM     84  C   UNL A   1      28.925  29.887  22.490  1.00  0.00     0.005 C 
ATOM     85  C   UNL A   1      27.926  30.282  21.397  1.00  0.00     0.011 C 
ATOM     86  C   UNL A   1      28.847  30.875  23.667  1.00  0.00     0.011 C 
ATOM     87  C   UNL A   1      28.215  31.705  20.908  1.00  0.00     0.001 C 
ATOM     88  C   UNL A   1      29.180  32.275  23.171  1.00  0.00     0.001 C 
ATOM     89  C   UNL A   1      28.238  32.716  22.057  1.00  0.00     0.000 C 
ENDBRANCH  76  81
ENDBRANCH  72  74
ENDBRANCH  71  72
ENDBRANCH  70  71
ENDBRANCH  69  70
ENDBRANCH  68  69
ENDBRANCH   1  68
TORSDOF 18
ENDMDL
MODEL 2
REMARK VINA RESULT:     -11.0      2.600      8.676
REMARK SMILES O=C(OCCOCCOC(=O)c1cc(Br)ccc1N1CC2(CCCCC2)C1)c1ccc(-c2c3nc(c(-c4ccc(S(=O)(=O)[O-])cc4)c4ccc([nH]4)c(-c4ccc(S(=O)(=O)[O-])cc4)c4nc(c(-c5ccc(S(=O)(=O)[O-])cc5)c5ccc2[nH]5)C=C4)C=C3)cc1
REMARK SMILES IDX 5 1 4 2 3 3 2 4 1 5 28 6 29 7 87 8 30 9 86 10 31 11 32 12
REMARK SMILES IDX 33 13 80 14 34 15 85 16 79 17 81 18 35 19 84 20 78 21 77 22
REMARK SMILES IDX 36 24 66 25 47 26 65 27 48 28 51 29 64 30 82 31 49 32 50 33
REMARK SMILES IDX 63 35 83 36 52 37 37 38 38 39 46 40 39 41 45 42 40 43 41 44
REMARK SMILES IDX 42 45 43 46 44 47 67 48 68 49 76 50 69 51 75 52 70 53 71 54
REMARK SMILES IDX 72 55 73 56 74 57 53 58 54 59 62 60 55 61 61 62 56 63 57 64
REMARK SMILES IDX 58 65 59 66 60 67 6 68 7 69 8 70 9 71 10 72 11 73 12 74
REMARK SMILES IDX 13 75 18 76 14 77 17 78 15 79 16 80 19 81 20 82 27 83 21 84
REMARK SMILES IDX 22 85 26 86 23 87 25 88 24 89
REMARK H PARENT 81 23 51 34
REMARK Flexibility Score: inf
ROOT
ATOM      1  C   UNL A   1      38.837  21.554  25.844  1.00  0.00     0.202 C 
ENDROOT
BRANCH   1   2
ATOM      2  C   UNL A   1      39.267  20.100  25.630  1.00  0.00     0.261 C 
BRANCH   2   3
ATOM      3  O   UNL A   1      40.409  19.809  26.464  1.00  0.00    -0.460 OA
BRANCH   3   4
ATOM      4  C   UNL A   1      41.697  19.973  26.076  1.00  0.00     0.338 C 
ATOM      5  O   UNL A   1      42.235  19.172  25.318  1.00  0.00    -0.246 OA
BRANCH   4   6
ATOM      6  C   UNL A   1      42.379  21.256  26.366  1.00  0.00     0.060 A 
ATOM      7  C   UNL A   1      42.608  22.219  25.390  1.00  0.00     0.016 A 
ATOM      8  C   UNL A   1      42.661  21.570  27.701  1.00  0.00     0.016 A 
ATOM      9  C   UNL A   1      43.169  23.445  25.715  1.00  0.00     0.010 A 
ATOM     10  C   UNL A   1      43.183  22.828  28.037  1.00  0.00     0.010 A 
ATOM     11  C   UNL A   1      43.452  23.774  27.037  1.00  0.00    -0.014 A 
BRANCH  11  12
ATOM     12  C   UNL A   1      44.089  25.083  27.321  1.00  0.00     0.031 A 
ATOM     13  C   UNL A   1      43.257  26.183  27.911  1.00  0.00     0.074 A 
ATOM     14  C   UNL A   1      45.418  25.249  27.159  1.00  0.00     0.049 A 
ATOM     15  N   UNL A   1      43.559  27.441  28.094  1.00  0.00    -0.248 NA
ATOM     16  C   UNL A   1      41.902  25.817  28.356  1.00  0.00     0.031 C 
ATOM     17  C   UNL A   1      46.359  24.208  26.731  1.00  0.00     0.029 A 
ATOM     18  N   UNL A   1      46.219  26.343  27.374  1.00  0.00    -0.354 N 
ATOM     19  C   UNL A   1      42.411  28.030  28.609  1.00  0.00     0.074 A 
ATOM     20  C   UNL A   1      41.414  26.991  28.730  1.00  0.00     0.031 C 
ATOM     21  C   UNL A   1      47.608  24.693  26.777  1.00  0.00     0.029 A 
ATOM     22  C   UNL A   1      47.551  26.110  27.112  1.00  0.00     0.049 A 
ATOM     23  H   UNL A   1      45.875  27.210  27.684  1.00  0.00     0.167 HD
ATOM     24  C   UNL A   1      42.209  29.332  28.923  1.00  0.00     0.031 A 
ATOM     25  C   UNL A   1      48.598  26.957  27.087  1.00  0.00     0.031 A 
ATOM     26  C   UNL A   1      43.226  30.340  28.804  1.00  0.00     0.049 A 
ATOM     27  C   UNL A   1      48.335  28.413  27.356  1.00  0.00     0.074 A 
ATOM     28  C   UNL A   1      43.125  31.702  29.017  1.00  0.00     0.029 A 
ATOM     29  N   UNL A   1      44.545  30.086  28.448  1.00  0.00    -0.354 N 
ATOM     30  N   UNL A   1      47.211  28.993  27.707  1.00  0.00    -0.248 NA
ATOM     31  C   UNL A   1      49.466  29.335  27.192  1.00  0.00     0.031 C 
ATOM     32  C   UNL A   1      44.372  32.277  28.743  1.00  0.00     0.029 A 
ATOM     33  C   UNL A   1      45.266  31.265  28.423  1.00  0.00     0.049 A 
ATOM     34  H   UNL A   1      44.913  29.195  28.245  1.00  0.00     0.167 HD
ATOM     35  C   UNL A   1      47.498  30.347  27.810  1.00  0.00     0.074 A 
ATOM     36  C   UNL A   1      48.909  30.497  27.509  1.00  0.00     0.031 C 
ATOM     37  C   UNL A   1      46.671  31.378  28.117  1.00  0.00     0.031 A 
BRANCH  24  38
ATOM     38  C   UNL A   1      40.811  29.733  29.312  1.00  0.00    -0.014 A 
ATOM     39  C   UNL A   1      40.475  30.095  30.629  1.00  0.00     0.010 A 
ATOM     40  C   UNL A   1      39.802  29.712  28.331  1.00  0.00     0.010 A 
ATOM     41  C   UNL A   1      39.147  30.372  30.968  1.00  0.00     0.020 A 
ATOM     42  C   UNL A   1      38.479  30.016  28.659  1.00  0.00     0.020 A 
ATOM     43  C   UNL A   1      38.155  30.321  29.982  1.00  0.00     0.054 A 
BRANCH  43  44
ATOM     44  S   UNL A   1      36.437  30.661  30.451  1.00  0.00     0.124 S 
ATOM     45  O   UNL A   1      36.538  32.009  31.006  1.00  0.00    -0.237 OA
ATOM     46  O   UNL A   1      35.730  30.559  29.177  1.00  0.00    -0.237 OA
ATOM     47  O   UNL A   1      36.126  29.611  31.418  1.00  0.00    -0.744 OA
ENDBRANCH  43  44
ENDBRANCH  24  38
BRANCH  25  48
ATOM     48  C   UNL A   1      49.955  26.464  26.706  1.00  0.00    -0.014 A 
ATOM     49  C   UNL A   1      50.860  25.996  27.674  1.00  0.00     0.010 A 
ATOM     50  C   UNL A   1      50.341  26.439  25.350  1.00  0.00     0.010 A 
ATOM     51  C   UNL A   1      52.119  25.511  27.295  1.00  0.00     0.020 A 
ATOM     52  C   UNL A   1      51.581  25.923  24.964  1.00  0.00     0.020 A 
ATOM     53  C   UNL A   1      52.468  25.471  25.941  1.00  0.00     0.054 A 
BRANCH  53  54
ATOM     54  S   UNL A   1      54.075  24.773  25.463  1.00  0.00     0.124 S 
ATOM     55  O   UNL A   1      53.715  23.408  25.093  1.00  0.00    -0.237 OA
ATOM     56  O   UNL A   1      54.483  25.642  24.362  1.00  0.00    -0.237 OA
ATOM     57  O   UNL A   1      54.878  24.902  26.677  1.00  0.00    -0.744 OA
ENDBRANCH  53  54
ENDBRANCH  25  48
BRANCH  37  58
ATOM     58  C   UNL A   1      47.279  32.752  28.178  1.00  0.00    -0.014 A 
ATOM     59  C   UNL A   1      47.859  33.240  29.362  1.00  0.00     0.010 A 
ATOM     60  C   UNL A   1      47.328  33.533  27.011  1.00  0.00     0.010 A 
ATOM     61  C   UNL A   1      48.462  34.500  29.380  1.00  0.00     0.020 A 
ATOM     62  C   UNL A   1      47.953  34.780  27.018  1.00  0.00     0.020 A 
ATOM     63  C   UNL A   1      48.507  35.260  28.206  1.00  0.00     0.054 A 
BRANCH  63  64
ATOM     64  S   UNL A   1      49.345  36.867  28.240  1.00  0.00     0.124 S 
ATOM     65  O   UNL A   1      48.315  37.759  27.714  1.00  0.00    -0.237 OA
ATOM     66  O   UNL A   1      49.658  37.036  29.657  1.00  0.00    -0.237 OA
ATOM     67  O   UNL A   1      50.504  36.672  27.371  1.00  0.00    -0.744 OA
ENDBRANCH  63  64
ENDBRANCH  37  58
ENDBRANCH  11  12
ENDBRANCH   4   6
ENDBRANCH   3   4
ENDBRANCH   2   3
ENDBRANCH   1   2
BRANCH   1  68
ATOM     68  O   UNL A   1      37.741  21.822  24.981  1.00  0.00    -0.374 OA
BRANCH  68  69
ATOM     69  C   UNL A   1      36.574  22.385  25.568  1.00  0.00     0.202 C 
BRANCH  69  70
ATOM     70  C   UNL A   1      36.164  23.630  24.786  1.00  0.00     0.261 C 
BRANCH  70  71
ATOM     71  O   UNL A   1      35.755  23.223  23.469  1.00  0.00    -0.460 OA
BRANCH  71  72
ATOM     72  C   UNL A   1      34.491  23.583  23.098  1.00  0.00     0.340 C 
ATOM     73  O   UNL A   1      34.206  24.411  22.250  1.00  0.00    -0.246 OA
BRANCH  72  74
ATOM     74  C   UNL A   1      33.530  22.736  23.864  1.00  0.00     0.084 A 
ATOM     75  C   UNL A   1      33.517  21.355  23.584  1.00  0.00     0.033 A 
ATOM     76  C   UNL A   1      32.658  23.270  24.846  1.00  0.00     0.051 A 
ATOM     77  C   UNL A   1      32.626  20.515  24.237  1.00  0.00     0.018 A 
ATOM     78  C   UNL A   1      31.780  22.388  25.496  1.00  0.00     0.028 A 
ATOM     79  Br  UNL A   1      32.605  18.672  23.822  1.00  0.00    -0.051 Br
ATOM     80  C   UNL A   1      31.751  21.025  25.187  1.00  0.00     0.018 A 
BRANCH  76  81
ATOM     81  N   UNL A   1      32.636  24.631  25.188  1.00  0.00    -0.370 N 
ATOM     82  C   UNL A   1      32.018  25.711  24.482  1.00  0.00     0.125 C 
ATOM     83  C   UNL A   1      32.490  25.285  26.458  1.00  0.00     0.125 C 
ATOM     84  C   UNL A   1      32.440  26.620  25.666  1.00  0.00     0.005 C 
ATOM     85  C   UNL A   1      31.415  27.666  26.116  1.00  0.00     0.011 C 
ATOM     86  C   UNL A   1      33.828  27.266  25.512  1.00  0.00     0.011 C 
ATOM     87  C   UNL A   1      31.351  28.812  25.101  1.00  0.00     0.001 C 
ATOM     88  C   UNL A   1      33.755  28.371  24.469  1.00  0.00     0.001 C 
ATOM     89  C   UNL A   1      32.726  29.431  24.844  1.00  0.00     0.000 C 
ENDBRANCH  76  81
ENDBRANCH  72  74
ENDBRANCH  71  72
ENDBRANCH  70  71
ENDBRANCH  69  70
ENDBRANCH  68  69
ENDBRANCH   1  68
TORSDOF 18
ENDMDL
MODEL 3
REMARK VINA RESULT:     -10.9      1.718      8.746
REMARK SMILES O=C(OCCOCCOC(=O)c1cc(Br)ccc1N1CC2(CCCCC2)C1)c1ccc(-c2c3nc(c(-c4ccc(S(=O)(=O)[O-])cc4)c4ccc([nH]4)c(-c4ccc(S(=O)(=O)[O-])cc4)c4nc(c(-c5ccc(S(=O)(=O)[O-])cc5)c5ccc2[nH]5)C=C4)C=C3)cc1
REMARK SMILES IDX 5 1 4 2 3 3 2 4 1 5 28 6 29 7 87 8 30 9 86 10 31 11 32 12
REMARK SMILES IDX 33 13 80 14 34 15 85 16 79 17 81 18 35 19 84 20 78 21 77 22
REMARK SMILES IDX 36 24 66 25 47 26 65 27 48 28 51 29 64 30 82 31 49 32 50 33
REMARK SMILES IDX 63 35 83 36 52 37 37 38 38 39 46 40 39 41 45 42 40 43 41 44
REMARK SMILES IDX 42 45 43 46 44 47 67 48 68 49 76 50 69 51 75 52 70 53 71 54
REMARK SMILES IDX 72 55 73 56 74 57 53 58 54 59 62 60 55 61 61 62 56 63 57 64
REMARK SMILES IDX 58 65 59 66 60 67 6 68 7 69 8 70 9 71 10 72 11 73 12 74
REMARK SMILES IDX 13 75 18 76 14 77 17 78 15 79 16 80 19 81 20 82 27 83 21 84
REMARK SMILES IDX 22 85 26 86 23 87 25 88 24 89
REMARK H PARENT 81 23 51 34
REMARK Flexibility Score: inf
ROOT
ATOM      1  C   UNL A   1      33.646  31.918  27.652  1.00  0.00     0.202 C 
ENDROOT
BRANCH   1   2
ATOM      2  C   UNL A   1      35.084  31.931  28.179  1.00  0.00     0.261 C 
BRANCH   2   3
ATOM      3  O   UNL A   1      35.421  30.621  28.684  1.00  0.00    -0.460 OA
BRANCH   3   4
ATOM      4  C   UNL A   1      36.267  30.399  29.720  1.00  0.00     0.338 C 
ATOM      5  O   UNL A   1      35.844  30.293  30.867  1.00  0.00    -0.246 OA
BRANCH   4   6
ATOM      6  C   UNL A   1      37.674  30.033  29.436  1.00  0.00     0.060 A 
ATOM      7  C   UNL A   1      38.528  29.533  30.412  1.00  0.00     0.016 A 
ATOM      8  C   UNL A   1      38.106  30.047  28.104  1.00  0.00     0.016 A 
ATOM      9  C   UNL A   1      39.812  29.118  30.091  1.00  0.00     0.010 A 
ATOM     10  C   UNL A   1      39.387  29.581  27.772  1.00  0.00     0.010 A 
ATOM     11  C   UNL A   1      40.256  29.122  28.772  1.00  0.00    -0.014 A 
BRANCH  11  12
ATOM     12  C   UNL A   1      41.652  28.705  28.493  1.00  0.00     0.031 A 
ATOM     13  C   UNL A   1      42.762  29.690  28.708  1.00  0.00     0.074 A 
ATOM     14  C   UNL A   1      41.933  27.427  28.162  1.00  0.00     0.049 A 
ATOM     15  N   UNL A   1      44.025  29.597  28.386  1.00  0.00    -0.248 NA
ATOM     16  C   UNL A   1      42.402  30.951  29.378  1.00  0.00     0.031 C 
ATOM     17  C   UNL A   1      40.954  26.339  28.066  1.00  0.00     0.029 A 
ATOM     18  N   UNL A   1      43.129  26.814  27.884  1.00  0.00    -0.354 N 
ATOM     19  C   UNL A   1      44.594  30.812  28.748  1.00  0.00     0.074 A 
ATOM     20  C   UNL A   1      43.547  31.617  29.334  1.00  0.00     0.031 C 
ATOM     21  C   UNL A   1      41.595  25.188  27.816  1.00  0.00     0.029 A 
ATOM     22  C   UNL A   1      43.009  25.471  27.608  1.00  0.00     0.049 A 
ATOM     23  H   UNL A   1      43.990  27.289  27.882  1.00  0.00     0.167 HD
ATOM     24  C   UNL A   1      45.874  31.219  28.577  1.00  0.00     0.031 A 
ATOM     25  C   UNL A   1      43.923  24.580  27.177  1.00  0.00     0.031 A 
ATOM     26  C   UNL A   1      46.896  30.388  28.002  1.00  0.00     0.049 A 
ATOM     27  C   UNL A   1      45.320  25.075  26.912  1.00  0.00     0.074 A 
ATOM     28  C   UNL A   1      48.208  30.709  27.705  1.00  0.00     0.029 A 
ATOM     29  N   UNL A   1      46.718  29.057  27.647  1.00  0.00    -0.354 N 
ATOM     30  N   UNL A   1      45.821  26.269  27.125  1.00  0.00    -0.248 NA
ATOM     31  C   UNL A   1      46.261  24.119  26.318  1.00  0.00     0.031 C 
ATOM     32  C   UNL A   1      48.808  29.585  27.127  1.00  0.00     0.029 A 
ATOM     33  C   UNL A   1      47.891  28.544  27.123  1.00  0.00     0.049 A 
ATOM     34  H   UNL A   1      45.880  28.552  27.755  1.00  0.00     0.167 HD
ATOM     35  C   UNL A   1      47.139  26.210  26.693  1.00  0.00     0.074 A 
ATOM     36  C   UNL A   1      47.364  24.853  26.232  1.00  0.00     0.031 C 
ATOM     37  C   UNL A   1      48.080  27.187  26.672  1.00  0.00     0.031 A 
BRANCH  24  38
ATOM     38  C   UNL A   1      46.187  32.652  28.915  1.00  0.00    -0.014 A 
ATOM     39  C   UNL A   1      46.649  33.037  30.187  1.00  0.00     0.010 A 
ATOM     40  C   UNL A   1      45.981  33.641  27.935  1.00  0.00     0.010 A 
ATOM     41  C   UNL A   1      46.840  34.389  30.488  1.00  0.00     0.020 A 
ATOM     42  C   UNL A   1      46.199  34.990  28.222  1.00  0.00     0.020 A 
ATOM     43  C   UNL A   1      46.604  35.359  29.506  1.00  0.00     0.054 A 
BRANCH  43  44
ATOM     44  S   UNL A   1      46.837  37.107  29.928  1.00  0.00     0.124 S 
ATOM     45  O   UNL A   1      48.099  37.412  29.259  1.00  0.00    -0.237 OA
ATOM     46  O   UNL A   1      45.653  37.737  29.351  1.00  0.00    -0.237 OA
ATOM     47  O   UNL A   1      46.891  37.108  31.388  1.00  0.00    -0.744 OA
ENDBRANCH  43  44
ENDBRANCH  24  38
BRANCH  25  48
ATOM     48  C   UNL A   1      43.523  23.172  26.883  1.00  0.00    -0.014 A 
ATOM     49  C   UNL A   1      43.631  22.639  25.587  1.00  0.00     0.010 A 
ATOM     50  C   UNL A   1      43.050  22.342  27.919  1.00  0.00     0.010 A 
ATOM     51  C   UNL A   1      43.278  21.307  25.335  1.00  0.00     0.020 A 
ATOM     52  C   UNL A   1      42.730  21.003  27.680  1.00  0.00     0.020 A 
ATOM     53  C   UNL A   1      42.836  20.495  26.385  1.00  0.00     0.054 A 
BRANCH  53  54
ATOM     54  S   UNL A   1      42.452  18.752  26.053  1.00  0.00     0.124 S 
ATOM     55  O   UNL A   1      41.042  18.817  25.682  1.00  0.00    -0.237 OA
ATOM     56  O   UNL A   1      43.378  18.423  24.972  1.00  0.00    -0.237 OA
ATOM     57  O   UNL A   1      42.735  18.091  27.326  1.00  0.00    -0.744 OA
ENDBRANCH  53  54
ENDBRANCH  25  48
BRANCH  37  58
ATOM     58  C   UNL A   1      49.445  26.816  26.166  1.00  0.00    -0.014 A 
ATOM     59  C   UNL A   1      50.417  26.272  27.023  1.00  0.00     0.010 A 
ATOM     60  C   UNL A   1      49.731  26.953  24.796  1.00  0.00     0.010 A 
ATOM     61  C   UNL A   1      51.662  25.888  26.519  1.00  0.00     0.020 A 
ATOM     62  C   UNL A   1      50.963  26.545  24.284  1.00  0.00     0.020 A 
ATOM     63  C   UNL A   1      51.925  26.026  25.152  1.00  0.00     0.054 A 
BRANCH  63  64
ATOM     64  S   UNL A   1      53.527  25.467  24.512  1.00  0.00     0.124 S 
ATOM     65  O   UNL A   1      53.453  25.874  23.112  1.00  0.00    -0.237 OA
ATOM     66  O   UNL A   1      54.477  26.213  25.333  1.00  0.00    -0.237 OA
ATOM     67  O   UNL A   1      53.509  24.025  24.744  1.00  0.00    -0.744 OA
ENDBRANCH  63  64
ENDBRANCH  37  58
ENDBRANCH  11  12
ENDBRANCH   4   6
ENDBRANCH   3   4
ENDBRANCH   2   3
ENDBRANCH   1   2
BRANCH   1  68
ATOM     68  O   UNL A   1      33.419  30.669  27.016  1.00  0.00    -0.374 OA
BRANCH  68  69
ATOM     69  C   UNL A   1      32.187  30.506  26.326  1.00  0.00     0.202 C 
BRANCH  69  70
ATOM     70  C   UNL A   1      31.766  29.040  26.379  1.00  0.00     0.261 C 
BRANCH  70  71
ATOM     71  O   UNL A   1      32.464  28.330  25.343  1.00  0.00    -0.460 OA
BRANCH  71  72
ATOM     72  C   UNL A   1      32.254  28.773  24.068  1.00  0.00     0.340 C 
ATOM     73  O   UNL A   1      33.107  29.206  23.314  1.00  0.00    -0.246 OA
BRANCH  72  74
ATOM     74  C   UNL A   1      30.811  28.568  23.744  1.00  0.00     0.084 A 
ATOM     75  C   UNL A   1      30.048  29.711  23.432  1.00  0.00     0.033 A 
ATOM     76  C   UNL A   1      30.207  27.287  23.735  1.00  0.00     0.051 A 
ATOM     77  C   UNL A   1      28.693  29.596  23.153  1.00  0.00     0.018 A 
ATOM     78  C   UNL A   1      28.837  27.206  23.434  1.00  0.00     0.028 A 
ATOM     79  Br  UNL A   1      27.684  31.146  22.768  1.00  0.00    -0.051 Br
ATOM     80  C   UNL A   1      28.081  28.349  23.159  1.00  0.00     0.018 A 
BRANCH  76  81
ATOM     81  N   UNL A   1      30.914  26.106  24.014  1.00  0.00    -0.370 N 
ATOM     82  C   UNL A   1      30.581  25.076  24.950  1.00  0.00     0.125 C 
ATOM     83  C   UNL A   1      31.612  25.195  23.152  1.00  0.00     0.125 C 
ATOM     84  C   UNL A   1      31.806  24.297  24.404  1.00  0.00     0.005 C 
ATOM     85  C   UNL A   1      31.621  22.787  24.221  1.00  0.00     0.011 C 
ATOM     86  C   UNL A   1      33.127  24.587  25.137  1.00  0.00     0.011 C 
ATOM     87  C   UNL A   1      31.631  22.086  25.584  1.00  0.00     0.001 C 
ATOM     88  C   UNL A   1      33.100  23.921  26.505  1.00  0.00     0.001 C 
ATOM     89  C   UNL A   1      32.886  22.416  26.393  1.00  0.00     0.000 C 
ENDBRANCH  76  81
ENDBRANCH  72  74
ENDBRANCH  71  72
ENDBRANCH  70  71
ENDBRANCH  69  70
ENDBRANCH  68  69
ENDBRANCH   1  68
TORSDOF 18
ENDMDL
