MODEL 1
REMARK VINA RESULT:      -8.6      0.000      0.000
REMARK SMILES C[C@@H](C(=O)OCCOCCOC(=O)c1ccc(-c2c3nc(c(-c4ccc(S(=O)(=O)[O-])cc4)c4ccc([nH]4)c(-c4ccc(S(=O)(=O)[O-])cc4)c4nc(c(-c5ccc(S(=O)(=O)[O-])cc5)c5ccc2[nH]5)C=C4)C=C3)cc1)c1cccn(C(F)F)c1=O
REMARK SMILES IDX 9 1 8 2 7 3 6 4 5 5 3 6 4 7 2 8 1 9 74 10 75 11 82 12 76 13
REMARK SMILES IDX 78 14 83 15 77 16 79 17 80 18 81 19 10 20 11 21 12 22 13 23
REMARK SMILES IDX 14 24 15 25 73 26 16 27 72 28 17 29 18 30 19 31 66 32 20 33
REMARK SMILES IDX 71 34 65 35 67 36 21 37 70 38 64 39 63 40 22 42 52 43 33 44
REMARK SMILES IDX 51 45 34 46 37 47 50 48 68 49 35 50 36 51 49 53 69 54 38 55
REMARK SMILES IDX 23 56 24 57 32 58 25 59 31 60 26 61 27 62 28 63 29 64 30 65
REMARK SMILES IDX 53 66 54 67 62 68 55 69 61 70 56 71 57 72 58 73 59 74 60 75
REMARK SMILES IDX 39 76 40 77 48 78 41 79 47 80 42 81 43 82 44 83 45 84 46 85
REMARK H PARENT 67 41 37 52
REMARK Flexibility Score: inf
ROOT
ATOM      1  C   UNL A   1      33.558  34.774  28.704  1.00  0.00     0.202 C 
ENDROOT
BRANCH   1   2
ATOM      2  O   UNL A   1      32.653  35.136  29.751  1.00  0.00    -0.374 OA
BRANCH   2   3
ATOM      3  C   UNL A   1      32.988  36.274  30.549  1.00  0.00     0.202 C 
BRANCH   3   4
ATOM      4  C   UNL A   1      32.931  36.068  32.066  1.00  0.00     0.261 C 
BRANCH   4   5
ATOM      5  O   UNL A   1      34.198  35.598  32.549  1.00  0.00    -0.463 OA
BRANCH   5   6
ATOM      6  C   UNL A   1      34.359  34.250  32.626  1.00  0.00     0.313 C 
ATOM      7  O   UNL A   1      33.616  33.500  33.252  1.00  0.00    -0.252 OA
BRANCH   6   8
ATOM      8  C   UNL A   1      35.498  33.752  31.715  1.00  0.00     0.132 C 
ATOM      9  C   UNL A   1      35.206  32.315  31.246  1.00  0.00     0.025 C 
BRANCH   8  10
ATOM     10  C   UNL A   1      36.876  33.998  32.345  1.00  0.00     0.032 A 
ATOM     11  C   UNL A   1      37.093  34.168  33.668  1.00  0.00     0.012 A 
ATOM     12  C   UNL A   1      38.086  34.127  31.442  1.00  0.00     0.259 A 
ATOM     13  C   UNL A   1      38.392  34.456  34.217  1.00  0.00     0.019 A 
ATOM     14  N   UNL A   1      39.308  34.370  32.051  1.00  0.00    -0.258 N 
ATOM     15  O   UNL A   1      37.978  34.019  30.223  1.00  0.00    -0.269 OA
ATOM     16  C   UNL A   1      39.450  34.550  33.409  1.00  0.00     0.095 A 
BRANCH  14  17
ATOM     17  C   UNL A   1      40.467  34.497  31.203  1.00  0.00     0.451 C 
ATOM     18  F   UNL A   1      41.500  35.018  31.921  1.00  0.00    -0.185 F 
ATOM     19  F   UNL A   1      40.879  33.263  30.798  1.00  0.00    -0.185 F 
ENDBRANCH  14  17
ENDBRANCH   8  10
ENDBRANCH   6   8
ENDBRANCH   5   6
ENDBRANCH   4   5
ENDBRANCH   3   4
ENDBRANCH   2   3
ENDBRANCH   1   2
BRANCH   1  20
ATOM     20  C   UNL A   1      33.358  33.402  28.046  1.00  0.00     0.261 C 
BRANCH  20  21
ATOM     21  O   UNL A   1      34.598  32.730  27.761  1.00  0.00    -0.460 OA
BRANCH  21  22
ATOM     22  C   UNL A   1      34.491  31.388  27.606  1.00  0.00     0.338 C 
ATOM     23  O   UNL A   1      33.565  30.780  27.081  1.00  0.00    -0.246 OA
BRANCH  22  24
ATOM     24  C   UNL A   1      35.743  30.717  27.997  1.00  0.00     0.060 A 
ATOM     25  C   UNL A   1      35.638  29.577  28.803  1.00  0.00     0.016 A 
ATOM     26  C   UNL A   1      36.996  31.242  27.672  1.00  0.00     0.016 A 
ATOM     27  C   UNL A   1      36.785  28.984  29.328  1.00  0.00     0.010 A 
ATOM     28  C   UNL A   1      38.146  30.650  28.208  1.00  0.00     0.010 A 
ATOM     29  C   UNL A   1      38.044  29.539  29.066  1.00  0.00    -0.014 A 
BRANCH  29  30
ATOM     30  C   UNL A   1      39.229  29.039  29.809  1.00  0.00     0.031 A 
ATOM     31  C   UNL A   1      39.536  29.608  31.168  1.00  0.00     0.074 A 
ATOM     32  C   UNL A   1      39.998  28.060  29.300  1.00  0.00     0.049 A 
ATOM     33  N   UNL A   1      40.517  29.320  31.984  1.00  0.00    -0.248 NA
ATOM     34  C   UNL A   1      38.613  30.638  31.676  1.00  0.00     0.031 C 
ATOM     35  C   UNL A   1      39.781  27.397  28.014  1.00  0.00     0.029 A 
ATOM     36  N   UNL A   1      41.121  27.455  29.807  1.00  0.00    -0.354 N 
ATOM     37  C   UNL A   1      40.333  30.130  33.099  1.00  0.00     0.074 A 
ATOM     38  C   UNL A   1      39.165  30.944  32.841  1.00  0.00     0.031 C 
ATOM     39  C   UNL A   1      40.746  26.479  27.830  1.00  0.00     0.029 A 
ATOM     40  C   UNL A   1      41.664  26.512  28.968  1.00  0.00     0.049 A 
ATOM     41  H   UNL A   1      41.501  27.676  30.687  1.00  0.00     0.167 HD
ATOM     42  C   UNL A   1      41.066  30.188  34.237  1.00  0.00     0.031 A 
ATOM     43  C   UNL A   1      42.784  25.771  29.093  1.00  0.00     0.031 A 
ATOM     44  C   UNL A   1      42.238  29.392  34.486  1.00  0.00     0.049 A 
ATOM     45  C   UNL A   1      43.625  25.905  30.335  1.00  0.00     0.074 A 
ATOM     46  C   UNL A   1      43.045  29.377  35.610  1.00  0.00     0.029 A 
ATOM     47  N   UNL A   1      42.777  28.476  33.595  1.00  0.00    -0.354 N 
ATOM     48  N   UNL A   1      43.427  26.663  31.387  1.00  0.00    -0.248 NA
ATOM     49  C   UNL A   1      44.836  25.075  30.410  1.00  0.00     0.031 C 
ATOM     50  C   UNL A   1      44.102  28.489  35.379  1.00  0.00     0.029 A 
ATOM     51  C   UNL A   1      43.919  27.908  34.134  1.00  0.00     0.049 A 
ATOM     52  H   UNL A   1      42.402  28.261  32.711  1.00  0.00     0.167 HD
ATOM     53  C   UNL A   1      44.475  26.384  32.259  1.00  0.00     0.074 A 
ATOM     54  C   UNL A   1      45.296  25.379  31.616  1.00  0.00     0.031 C 
ATOM     55  C   UNL A   1      44.731  26.911  33.482  1.00  0.00     0.031 A 
BRANCH  42  56
ATOM     56  C   UNL A   1      40.633  31.176  35.289  1.00  0.00    -0.014 A 
ATOM     57  C   UNL A   1      41.449  32.265  35.645  1.00  0.00     0.010 A 
ATOM     58  C   UNL A   1      39.381  31.025  35.912  1.00  0.00     0.010 A 
ATOM     59  C   UNL A   1      41.039  33.163  36.633  1.00  0.00     0.020 A 
ATOM     60  C   UNL A   1      38.956  31.937  36.883  1.00  0.00     0.020 A 
ATOM     61  C   UNL A   1      39.796  32.989  37.251  1.00  0.00     0.054 A 
BRANCH  61  62
ATOM     62  S   UNL A   1      39.283  34.175  38.524  1.00  0.00     0.124 S 
ATOM     63  O   UNL A   1      37.983  33.641  38.925  1.00  0.00    -0.237 OA
ATOM     64  O   UNL A   1      40.344  34.057  39.520  1.00  0.00    -0.237 OA
ATOM     65  O   UNL A   1      39.237  35.450  37.813  1.00  0.00    -0.744 OA
ENDBRANCH  61  62
ENDBRANCH  42  56
BRANCH  43  66
ATOM     66  C   UNL A   1      43.187  24.851  27.995  1.00  0.00    -0.014 A 
ATOM     67  C   UNL A   1      44.212  25.202  27.099  1.00  0.00     0.010 A 
ATOM     68  C   UNL A   1      42.549  23.605  27.851  1.00  0.00     0.010 A 
ATOM     69  C   UNL A   1      44.582  24.329  26.072  1.00  0.00     0.020 A 
ATOM     70  C   UNL A   1      42.934  22.720  26.841  1.00  0.00     0.020 A 
ATOM     71  C   UNL A   1      43.943  23.092  25.952  1.00  0.00     0.054 A 
BRANCH  71  72
ATOM     72  S   UNL A   1      44.484  21.948  24.650  1.00  0.00     0.124 S 
ATOM     73  O   UNL A   1      45.930  21.931  24.841  1.00  0.00    -0.237 OA
ATOM     74  O   UNL A   1      43.784  20.715  25.003  1.00  0.00    -0.237 OA
ATOM     75  O   UNL A   1      44.020  22.588  23.421  1.00  0.00    -0.744 OA
ENDBRANCH  71  72
ENDBRANCH  43  66
BRANCH  55  76
ATOM     76  C   UNL A   1      45.933  26.391  34.225  1.00  0.00    -0.014 A 
ATOM     77  C   UNL A   1      45.813  25.373  35.188  1.00  0.00     0.010 A 
ATOM     78  C   UNL A   1      47.212  26.890  33.912  1.00  0.00     0.010 A 
ATOM     79  C   UNL A   1      46.945  24.885  35.846  1.00  0.00     0.020 A 
ATOM     80  C   UNL A   1      48.348  26.386  34.549  1.00  0.00     0.020 A 
ATOM     81  C   UNL A   1      48.207  25.396  35.523  1.00  0.00     0.054 A 
BRANCH  81  82
ATOM     82  S   UNL A   1      49.666  24.715  36.359  1.00  0.00     0.124 S 
ATOM     83  O   UNL A   1      49.993  25.773  37.310  1.00  0.00    -0.237 OA
ATOM     84  O   UNL A   1      49.153  23.479  36.946  1.00  0.00    -0.237 OA
ATOM     85  O   UNL A   1      50.630  24.530  35.276  1.00  0.00    -0.744 OA
ENDBRANCH  81  82
ENDBRANCH  55  76
ENDBRANCH  29  30
ENDBRANCH  22  24
ENDBRANCH  21  22
ENDBRANCH  20  21
ENDBRANCH   1  20
TORSDOF 19
ENDMDL
MODEL 2
REMARK VINA RESULT:      -8.1      0.816      8.340
REMARK SMILES C[C@@H](C(=O)OCCOCCOC(=O)c1ccc(-c2c3nc(c(-c4ccc(S(=O)(=O)[O-])cc4)c4ccc([nH]4)c(-c4ccc(S(=O)(=O)[O-])cc4)c4nc(c(-c5ccc(S(=O)(=O)[O-])cc5)c5ccc2[nH]5)C=C4)C=C3)cc1)c1cccn(C(F)F)c1=O
REMARK SMILES IDX 9 1 8 2 7 3 6 4 5 5 3 6 4 7 2 8 1 9 74 10 75 11 82 12 76 13
REMARK SMILES IDX 78 14 83 15 77 16 79 17 80 18 81 19 10 20 11 21 12 22 13 23
REMARK SMILES IDX 14 24 15 25 73 26 16 27 72 28 17 29 18 30 19 31 66 32 20 33
REMARK SMILES IDX 71 34 65 35 67 36 21 37 70 38 64 39 63 40 22 42 52 43 33 44
REMARK SMILES IDX 51 45 34 46 37 47 50 48 68 49 35 50 36 51 49 53 69 54 38 55
REMARK SMILES IDX 23 56 24 57 32 58 25 59 31 60 26 61 27 62 28 63 29 64 30 65
REMARK SMILES IDX 53 66 54 67 62 68 55 69 61 70 56 71 57 72 58 73 59 74 60 75
REMARK SMILES IDX 39 76 40 77 48 78 41 79 47 80 42 81 43 82 44 83 45 84 46 85
REMARK H PARENT 67 41 37 52
REMARK Flexibility Score: inf
ROOT
ATOM      1  C   UNL A   1      33.791  34.328  28.750  1.00  0.00     0.202 C 
ENDROOT
BRANCH   1   2
ATOM      2  O   UNL A   1      32.730  34.698  29.633  1.00  0.00    -0.374 OA
BRANCH   2   3
ATOM      3  C   UNL A   1      32.864  35.929  30.348  1.00  0.00     0.202 C 
BRANCH   3   4
ATOM      4  C   UNL A   1      32.936  35.812  31.874  1.00  0.00     0.261 C 
BRANCH   4   5
ATOM      5  O   UNL A   1      34.304  35.747  32.300  1.00  0.00    -0.463 OA
BRANCH   5   6
ATOM      6  C   UNL A   1      34.738  34.549  32.775  1.00  0.00     0.313 C 
ATOM      7  O   UNL A   1      34.338  34.031  33.813  1.00  0.00    -0.252 OA
BRANCH   6   8
ATOM      8  C   UNL A   1      35.685  33.844  31.784  1.00  0.00     0.132 C 
ATOM      9  C   UNL A   1      35.282  32.366  31.632  1.00  0.00     0.025 C 
BRANCH   8  10
ATOM     10  C   UNL A   1      37.159  34.120  32.115  1.00  0.00     0.032 A 
ATOM     11  C   UNL A   1      37.622  34.425  33.347  1.00  0.00     0.012 A 
ATOM     12  C   UNL A   1      38.178  34.120  30.994  1.00  0.00     0.259 A 
ATOM     13  C   UNL A   1      39.003  34.736  33.609  1.00  0.00     0.019 A 
ATOM     14  N   UNL A   1      39.494  34.395  31.333  1.00  0.00    -0.258 N 
ATOM     15  O   UNL A   1      37.841  33.886  29.836  1.00  0.00    -0.269 OA
ATOM     16  C   UNL A   1      39.890  34.715  32.612  1.00  0.00     0.095 A 
BRANCH  14  17
ATOM     17  C   UNL A   1      40.473  34.401  30.274  1.00  0.00     0.451 C 
ATOM     18  F   UNL A   1      41.607  35.014  30.709  1.00  0.00    -0.185 F 
ATOM     19  F   UNL A   1      40.832  33.122  29.973  1.00  0.00    -0.185 F 
ENDBRANCH  14  17
ENDBRANCH   8  10
ENDBRANCH   6   8
ENDBRANCH   5   6
ENDBRANCH   4   5
ENDBRANCH   3   4
ENDBRANCH   2   3
ENDBRANCH   1   2
BRANCH   1  20
ATOM     20  C   UNL A   1      33.609  33.042  27.932  1.00  0.00     0.261 C 
BRANCH  20  21
ATOM     21  O   UNL A   1      34.848  32.356  27.680  1.00  0.00    -0.460 OA
BRANCH  21  22
ATOM     22  C   UNL A   1      34.759  31.004  27.695  1.00  0.00     0.338 C 
ATOM     23  O   UNL A   1      33.852  30.321  27.231  1.00  0.00    -0.246 OA
BRANCH  22  24
ATOM     24  C   UNL A   1      36.007  30.404  28.198  1.00  0.00     0.060 A 
ATOM     25  C   UNL A   1      35.916  29.574  29.323  1.00  0.00     0.016 A 
ATOM     26  C   UNL A   1      37.252  30.722  27.651  1.00  0.00     0.016 A 
ATOM     27  C   UNL A   1      37.074  29.096  29.934  1.00  0.00     0.010 A 
ATOM     28  C   UNL A   1      38.415  30.248  28.273  1.00  0.00     0.010 A 
ATOM     29  C   UNL A   1      38.332  29.462  29.438  1.00  0.00    -0.014 A 
BRANCH  29  30
ATOM     30  C   UNL A   1      39.548  29.137  30.226  1.00  0.00     0.031 A 
ATOM     31  C   UNL A   1      40.461  28.041  29.747  1.00  0.00     0.074 A 
ATOM     32  C   UNL A   1      39.858  29.838  31.332  1.00  0.00     0.049 A 
ATOM     33  N   UNL A   1      41.568  27.594  30.280  1.00  0.00    -0.248 NA
ATOM     34  C   UNL A   1      40.076  27.361  28.499  1.00  0.00     0.031 C 
ATOM     35  C   UNL A   1      39.080  30.951  31.875  1.00  0.00     0.029 A 
ATOM     36  N   UNL A   1      40.917  29.712  32.197  1.00  0.00    -0.354 N 
ATOM     37  C   UNL A   1      42.012  26.581  29.438  1.00  0.00     0.074 A 
ATOM     38  C   UNL A   1      41.038  26.458  28.375  1.00  0.00     0.031 C 
ATOM     39  C   UNL A   1      39.685  31.402  32.987  1.00  0.00     0.029 A 
ATOM     40  C   UNL A   1      40.873  30.593  33.251  1.00  0.00     0.049 A 
ATOM     41  H   UNL A   1      41.638  29.054  32.074  1.00  0.00     0.167 HD
ATOM     42  C   UNL A   1      43.132  25.824  29.536  1.00  0.00     0.031 A 
ATOM     43  C   UNL A   1      41.688  30.721  34.317  1.00  0.00     0.031 A 
ATOM     44  C   UNL A   1      44.091  25.934  30.603  1.00  0.00     0.049 A 
ATOM     45  C   UNL A   1      42.888  29.820  34.445  1.00  0.00     0.074 A 
ATOM     46  C   UNL A   1      45.259  25.214  30.787  1.00  0.00     0.029 A 
ATOM     47  N   UNL A   1      43.991  26.811  31.671  1.00  0.00    -0.354 N 
ATOM     48  N   UNL A   1      43.303  28.879  33.630  1.00  0.00    -0.248 NA
ATOM     49  C   UNL A   1      43.735  30.005  35.633  1.00  0.00     0.031 C 
ATOM     50  C   UNL A   1      45.839  25.621  31.994  1.00  0.00     0.029 A 
ATOM     51  C   UNL A   1      45.062  26.636  32.531  1.00  0.00     0.049 A 
ATOM     52  H   UNL A   1      43.265  27.464  31.799  1.00  0.00     0.167 HD
ATOM     53  C   UNL A   1      44.472  28.377  34.194  1.00  0.00     0.074 A 
ATOM     54  C   UNL A   1      44.704  29.127  35.411  1.00  0.00     0.031 C 
ATOM     55  C   UNL A   1      45.280  27.386  33.743  1.00  0.00     0.031 A 
BRANCH  42  56
ATOM     56  C   UNL A   1      43.360  24.785  28.471  1.00  0.00    -0.014 A 
ATOM     57  C   UNL A   1      44.150  25.062  27.340  1.00  0.00     0.010 A 
ATOM     58  C   UNL A   1      42.796  23.504  28.615  1.00  0.00     0.010 A 
ATOM     59  C   UNL A   1      44.339  24.091  26.353  1.00  0.00     0.020 A 
ATOM     60  C   UNL A   1      43.004  22.521  27.643  1.00  0.00     0.020 A 
ATOM     61  C   UNL A   1      43.758  22.827  26.509  1.00  0.00     0.054 A 
BRANCH  61  62
ATOM     62  S   UNL A   1      44.027  21.581  25.218  1.00  0.00     0.124 S 
ATOM     63  O   UNL A   1      43.737  22.339  24.004  1.00  0.00    -0.237 OA
ATOM     64  O   UNL A   1      45.427  21.214  25.411  1.00  0.00    -0.237 OA
ATOM     65  O   UNL A   1      43.060  20.534  25.542  1.00  0.00    -0.744 OA
ENDBRANCH  61  62
ENDBRANCH  42  56
BRANCH  43  66
ATOM     66  C   UNL A   1      41.380  31.733  35.365  1.00  0.00    -0.014 A 
ATOM     67  C   UNL A   1      42.070  32.957  35.410  1.00  0.00     0.010 A 
ATOM     68  C   UNL A   1      40.379  31.475  36.320  1.00  0.00     0.010 A 
ATOM     69  C   UNL A   1      41.773  33.900  36.398  1.00  0.00     0.020 A 
ATOM     70  C   UNL A   1      40.062  32.426  37.293  1.00  0.00     0.020 A 
ATOM     71  C   UNL A   1      40.767  33.630  37.331  1.00  0.00     0.054 A 
BRANCH  71  72
ATOM     72  S   UNL A   1      40.354  34.893  38.567  1.00  0.00     0.124 S 
ATOM     73  O   UNL A   1      38.895  34.875  38.544  1.00  0.00    -0.237 OA
ATOM     74  O   UNL A   1      40.975  34.366  39.778  1.00  0.00    -0.237 OA
ATOM     75  O   UNL A   1      40.975  36.105  38.035  1.00  0.00    -0.744 OA
ENDBRANCH  71  72
ENDBRANCH  43  66
BRANCH  55  76
ATOM     76  C   UNL A   1      46.512  27.071  34.549  1.00  0.00    -0.014 A 
ATOM     77  C   UNL A   1      46.498  26.079  35.546  1.00  0.00     0.010 A 
ATOM     78  C   UNL A   1      47.718  27.738  34.264  1.00  0.00     0.010 A 
ATOM     79  C   UNL A   1      47.660  25.782  36.265  1.00  0.00     0.020 A 
ATOM     80  C   UNL A   1      48.887  27.425  34.962  1.00  0.00     0.020 A 
ATOM     81  C   UNL A   1      48.848  26.459  35.968  1.00  0.00     0.054 A 
BRANCH  81  82
ATOM     82  S   UNL A   1      50.352  26.025  36.883  1.00  0.00     0.124 S 
ATOM     83  O   UNL A   1      50.578  24.646  36.463  1.00  0.00    -0.237 OA
ATOM     84  O   UNL A   1      51.323  27.000  36.389  1.00  0.00    -0.237 OA
ATOM     85  O   UNL A   1      49.967  26.194  38.283  1.00  0.00    -0.744 OA
ENDBRANCH  81  82
ENDBRANCH  55  76
ENDBRANCH  29  30
ENDBRANCH  22  24
ENDBRANCH  21  22
ENDBRANCH  20  21
ENDBRANCH   1  20
TORSDOF 19
ENDMDL
MODEL 3
REMARK VINA RESULT:      -8.1      4.451     11.671
REMARK SMILES C[C@@H](C(=O)OCCOCCOC(=O)c1ccc(-c2c3nc(c(-c4ccc(S(=O)(=O)[O-])cc4)c4ccc([nH]4)c(-c4ccc(S(=O)(=O)[O-])cc4)c4nc(c(-c5ccc(S(=O)(=O)[O-])cc5)c5ccc2[nH]5)C=C4)C=C3)cc1)c1cccn(C(F)F)c1=O
REMARK SMILES IDX 9 1 8 2 7 3 6 4 5 5 3 6 4 7 2 8 1 9 74 10 75 11 82 12 76 13
REMARK SMILES IDX 78 14 83 15 77 16 79 17 80 18 81 19 10 20 11 21 12 22 13 23
REMARK SMILES IDX 14 24 15 25 73 26 16 27 72 28 17 29 18 30 19 31 66 32 20 33
REMARK SMILES IDX 71 34 65 35 67 36 21 37 70 38 64 39 63 40 22 42 52 43 33 44
REMARK SMILES IDX 51 45 34 46 37 47 50 48 68 49 35 50 36 51 49 53 69 54 38 55
REMARK SMILES IDX 23 56 24 57 32 58 25 59 31 60 26 61 27 62 28 63 29 64 30 65
REMARK SMILES IDX 53 66 54 67 62 68 55 69 61 70 56 71 57 72 58 73 59 74 60 75
REMARK SMILES IDX 39 76 40 77 48 78 41 79 47 80 42 81 43 82 44 83 45 84 46 85
REMARK H PARENT 67 41 37 52
REMARK Flexibility Score: inf
ROOT
ATOM      1  C   UNL A   1      42.049  21.506  26.476  1.00  0.00     0.202 C 
ENDROOT
BRANCH   1   2
ATOM      2  O   UNL A   1      40.802  20.882  26.792  1.00  0.00    -0.374 OA
BRANCH   2   3
ATOM      3  C   UNL A   1      39.781  20.902  25.792  1.00  0.00     0.202 C 
BRANCH   3   4
ATOM      4  C   UNL A   1      38.582  21.813  26.076  1.00  0.00     0.261 C 
BRANCH   4   5
ATOM      5  O   UNL A   1      37.779  21.955  24.896  1.00  0.00    -0.463 OA
BRANCH   5   6
ATOM      6  C   UNL A   1      36.448  21.712  25.031  1.00  0.00     0.313 C 
ATOM      7  O   UNL A   1      35.951  21.084  25.960  1.00  0.00    -0.252 OA
BRANCH   6   8
ATOM      8  C   UNL A   1      35.616  22.442  23.958  1.00  0.00     0.132 C 
ATOM      9  C   UNL A   1      36.545  23.025  22.878  1.00  0.00     0.025 C 
BRANCH   8  10
ATOM     10  C   UNL A   1      34.608  23.414  24.588  1.00  0.00     0.032 A 
ATOM     11  C   UNL A   1      34.915  24.648  25.043  1.00  0.00     0.012 A 
ATOM     12  C   UNL A   1      33.175  22.962  24.785  1.00  0.00     0.259 A 
ATOM     13  C   UNL A   1      33.955  25.509  25.683  1.00  0.00     0.019 A 
ATOM     14  N   UNL A   1      32.302  23.862  25.377  1.00  0.00    -0.258 N 
ATOM     15  O   UNL A   1      32.812  21.843  24.431  1.00  0.00    -0.269 OA
ATOM     16  C   UNL A   1      32.693  25.101  25.833  1.00  0.00     0.095 A 
BRANCH  14  17
ATOM     17  C   UNL A   1      30.936  23.443  25.571  1.00  0.00     0.451 C 
ATOM     18  F   UNL A   1      30.874  22.567  26.612  1.00  0.00    -0.185 F 
ATOM     19  F   UNL A   1      30.175  24.512  25.938  1.00  0.00    -0.185 F 
ENDBRANCH  14  17
ENDBRANCH   8  10
ENDBRANCH   6   8
ENDBRANCH   5   6
ENDBRANCH   4   5
ENDBRANCH   3   4
ENDBRANCH   2   3
ENDBRANCH   1   2
BRANCH   1  20
ATOM     20  C   UNL A   1      41.994  22.894  25.823  1.00  0.00     0.261 C 
BRANCH  20  21
ATOM     21  O   UNL A   1      41.886  23.962  26.781  1.00  0.00    -0.460 OA
BRANCH  21  22
ATOM     22  C   UNL A   1      41.974  25.206  26.254  1.00  0.00     0.338 C 
ATOM     23  O   UNL A   1      42.279  25.497  25.102  1.00  0.00    -0.246 OA
BRANCH  22  24
ATOM     24  C   UNL A   1      41.476  26.214  27.206  1.00  0.00     0.060 A 
ATOM     25  C   UNL A   1      42.177  27.423  27.292  1.00  0.00     0.016 A 
ATOM     26  C   UNL A   1      40.411  25.950  28.071  1.00  0.00     0.016 A 
ATOM     27  C   UNL A   1      41.847  28.355  28.273  1.00  0.00     0.010 A 
ATOM     28  C   UNL A   1      40.087  26.884  29.063  1.00  0.00     0.010 A 
ATOM     29  C   UNL A   1      40.826  28.075  29.191  1.00  0.00    -0.014 A 
BRANCH  29  30
ATOM     30  C   UNL A   1      40.637  28.966  30.364  1.00  0.00     0.031 A 
ATOM     31  C   UNL A   1      41.514  28.783  31.573  1.00  0.00     0.074 A 
ATOM     32  C   UNL A   1      39.723  29.954  30.337  1.00  0.00     0.049 A 
ATOM     33  N   UNL A   1      41.517  29.445  32.701  1.00  0.00    -0.248 NA
ATOM     34  C   UNL A   1      42.524  27.714  31.499  1.00  0.00     0.031 C 
ATOM     35  C   UNL A   1      38.843  30.262  29.210  1.00  0.00     0.029 A 
ATOM     36  N   UNL A   1      39.387  30.881  31.292  1.00  0.00    -0.354 N 
ATOM     37  C   UNL A   1      42.523  28.875  33.473  1.00  0.00     0.074 A 
ATOM     38  C   UNL A   1      43.088  27.793  32.696  1.00  0.00     0.031 C 
ATOM     39  C   UNL A   1      38.061  31.303  29.542  1.00  0.00     0.029 A 
ATOM     40  C   UNL A   1      38.363  31.715  30.912  1.00  0.00     0.049 A 
ATOM     41  H   UNL A   1      39.836  30.942  32.165  1.00  0.00     0.167 HD
ATOM     42  C   UNL A   1      42.944  29.223  34.713  1.00  0.00     0.031 A 
ATOM     43  C   UNL A   1      37.728  32.688  31.596  1.00  0.00     0.031 A 
ATOM     44  C   UNL A   1      42.370  30.287  35.492  1.00  0.00     0.049 A 
ATOM     45  C   UNL A   1      38.163  33.009  33.002  1.00  0.00     0.074 A 
ATOM     46  C   UNL A   1      42.731  30.718  36.758  1.00  0.00     0.029 A 
ATOM     47  N   UNL A   1      41.309  31.082  35.087  1.00  0.00    -0.354 N 
ATOM     48  N   UNL A   1      39.129  32.473  33.709  1.00  0.00    -0.248 NA
ATOM     49  C   UNL A   1      37.429  34.076  33.698  1.00  0.00     0.031 C 
ATOM     50  C   UNL A   1      41.854  31.741  37.138  1.00  0.00     0.029 A 
ATOM     51  C   UNL A   1      40.986  31.986  36.086  1.00  0.00     0.049 A 
ATOM     52  H   UNL A   1      40.854  31.016  34.217  1.00  0.00     0.167 HD
ATOM     53  C   UNL A   1      39.132  33.152  34.924  1.00  0.00     0.074 A 
ATOM     54  C   UNL A   1      38.083  34.147  34.849  1.00  0.00     0.031 C 
ATOM     55  C   UNL A   1      39.935  32.969  36.001  1.00  0.00     0.031 A 
BRANCH  42  56
ATOM     56  C   UNL A   1      44.064  28.417  35.314  1.00  0.00    -0.014 A 
ATOM     57  C   UNL A   1      45.408  28.795  35.142  1.00  0.00     0.010 A 
ATOM     58  C   UNL A   1      43.767  27.278  36.085  1.00  0.00     0.010 A 
ATOM     59  C   UNL A   1      46.437  28.027  35.695  1.00  0.00     0.020 A 
ATOM     60  C   UNL A   1      44.792  26.520  36.661  1.00  0.00     0.020 A 
ATOM     61  C   UNL A   1      46.121  26.890  36.446  1.00  0.00     0.054 A 
BRANCH  61  62
ATOM     62  S   UNL A   1      47.474  25.915  37.161  1.00  0.00     0.124 S 
ATOM     63  O   UNL A   1      48.618  26.369  36.375  1.00  0.00    -0.237 OA
ATOM     64  O   UNL A   1      47.468  26.334  38.560  1.00  0.00    -0.237 OA
ATOM     65  O   UNL A   1      47.066  24.532  36.925  1.00  0.00    -0.744 OA
ENDBRANCH  61  62
ENDBRANCH  42  56
BRANCH  43  66
ATOM     66  C   UNL A   1      36.592  33.414  30.965  1.00  0.00    -0.014 A 
ATOM     67  C   UNL A   1      36.683  33.888  29.645  1.00  0.00     0.010 A 
ATOM     68  C   UNL A   1      35.402  33.623  31.687  1.00  0.00     0.010 A 
ATOM     69  C   UNL A   1      35.611  34.570  29.063  1.00  0.00     0.020 A 
ATOM     70  C   UNL A   1      34.319  34.281  31.100  1.00  0.00     0.020 A 
ATOM     71  C   UNL A   1      34.433  34.758  29.793  1.00  0.00     0.054 A 
BRANCH  71  72
ATOM     72  S   UNL A   1      33.030  35.588  28.996  1.00  0.00     0.124 S 
ATOM     73  O   UNL A   1      32.435  34.505  28.221  1.00  0.00    -0.237 OA
ATOM     74  O   UNL A   1      32.248  36.053  30.139  1.00  0.00    -0.237 OA
ATOM     75  O   UNL A   1      33.662  36.648  28.213  1.00  0.00    -0.744 OA
ENDBRANCH  71  72
ENDBRANCH  43  66
BRANCH  55  76
ATOM     76  C   UNL A   1      39.735  33.883  37.181  1.00  0.00    -0.014 A 
ATOM     77  C   UNL A   1      40.360  35.141  37.245  1.00  0.00     0.010 A 
ATOM     78  C   UNL A   1      38.859  33.500  38.215  1.00  0.00     0.010 A 
ATOM     79  C   UNL A   1      40.138  35.986  38.336  1.00  0.00     0.020 A 
ATOM     80  C   UNL A   1      38.615  34.353  39.294  1.00  0.00     0.020 A 
ATOM     81  C   UNL A   1      39.266  35.585  39.355  1.00  0.00     0.054 A 
BRANCH  81  82
ATOM     82  S   UNL A   1      38.960  36.718  40.738  1.00  0.00     0.124 S 
ATOM     83  O   UNL A   1      38.296  37.836  40.076  1.00  0.00    -0.237 OA
ATOM     84  O   UNL A   1      38.114  35.921  41.626  1.00  0.00    -0.237 OA
ATOM     85  O   UNL A   1      40.297  37.004  41.254  1.00  0.00    -0.744 OA
ENDBRANCH  81  82
ENDBRANCH  55  76
ENDBRANCH  29  30
ENDBRANCH  22  24
ENDBRANCH  21  22
ENDBRANCH  20  21
ENDBRANCH   1  20
TORSDOF 19
ENDMDL
