MODEL 1
REMARK VINA RESULT:      -9.1      0.000      0.000
REMARK SMILES C[C@H]1[NH2+]CC[C@@H]1C(=O)N[C@@H](CC(=O)OCCOCCOC(=O)c1ccc(-c2c3nc(c(-c4ccc(S(=O)(=O)[O-])cc4)c4ccc([nH]4)c(-c4ccc(S(=O)(=O)[O-])cc4)c4nc(c(-c5ccc(S(=O)(=O)[O-])cc5)c5ccc2[nH]5)C=C4)C=C3)cc1)c1cccs1
REMARK SMILES IDX 17 1 16 2 15 3 14 4 12 5 13 6 11 7 10 8 9 9 7 10 8 11 6 13
REMARK SMILES IDX 1 14 2 15 3 16 4 17 5 20 83 21 84 22 87 23 85 24 86 25 18 26
REMARK SMILES IDX 19 27 20 28 21 29 22 30 23 31 24 32 82 33 25 34 81 35 26 36
REMARK SMILES IDX 27 37 28 38 75 39 29 40 80 41 74 42 76 43 30 44 79 45 73 46
REMARK SMILES IDX 72 47 31 49 61 50 42 51 60 52 43 53 46 54 59 55 77 56 44 57
REMARK SMILES IDX 45 58 58 60 78 61 47 62 32 63 33 64 41 65 34 66 40 67 35 68
REMARK SMILES IDX 36 69 37 70 38 71 39 72 62 73 63 74 71 75 64 76 70 77 65 78
REMARK SMILES IDX 66 79 67 80 68 81 69 82 48 83 49 84 57 85 50 86 56 87 51 88
REMARK SMILES IDX 52 89 53 90 54 91 55 92
REMARK H PARENT 9 12 3 18 3 19 76 48 46 59
REMARK Flexibility Score: inf
ROOT
ATOM      1  O   UNL A   1      37.216  21.308  24.712  1.00  0.00    -0.374 OA
ENDROOT
BRANCH   1   2
ATOM      2  C   UNL A   1      36.658  22.352  25.505  1.00  0.00     0.202 C 
BRANCH   2   3
ATOM      3  C   UNL A   1      36.058  23.560  24.769  1.00  0.00     0.261 C 
BRANCH   3   4
ATOM      4  O   UNL A   1      34.704  23.407  24.297  1.00  0.00    -0.463 OA
BRANCH   4   5
ATOM      5  C   UNL A   1      33.776  23.346  25.284  1.00  0.00     0.308 C 
ATOM      6  O   UNL A   1      33.010  22.403  25.466  1.00  0.00    -0.252 OA
BRANCH   5   7
ATOM      7  C   UNL A   1      33.662  24.582  26.137  1.00  0.00     0.153 C 
BRANCH   7   8
ATOM      8  C   UNL A   1      32.338  25.305  26.359  1.00  0.00     0.133 C 
BRANCH   8   9
ATOM      9  N   UNL A   1      31.293  24.927  25.428  1.00  0.00    -0.347 N 
ATOM     10  C   UNL A   1      31.157  25.198  24.096  1.00  0.00     0.229 C 
ATOM     11  O   UNL A   1      30.269  24.584  23.505  1.00  0.00    -0.275 OA
ATOM     12  H   UNL A   1      30.566  24.390  25.819  1.00  0.00     0.164 HD
BRANCH  10  13
ATOM     13  C   UNL A   1      31.985  26.309  23.426  1.00  0.00     0.142 C 
ATOM     14  C   UNL A   1      31.448  28.628  22.536  1.00  0.00     0.076 C 
ATOM     15  C   UNL A   1      31.141  27.131  22.426  1.00  0.00     0.192 C 
ATOM     16  N   UNL A   1      31.499  26.668  21.067  1.00  0.00    -0.343 N 
ATOM     17  C   UNL A   1      32.528  25.645  21.190  1.00  0.00     0.261 C 
ATOM     18  H   UNL A   1      31.855  27.451  20.517  1.00  0.00     0.346 HD
ATOM     19  H   UNL A   1      30.678  26.288  20.596  1.00  0.00     0.346 HD
ATOM     20  C   UNL A   1      33.149  25.867  22.549  1.00  0.00     0.081 C 
ENDBRANCH  10  13
ENDBRANCH   8   9
BRANCH   8  21
ATOM     21  C   UNL A   1      32.426  26.819  26.508  1.00  0.00     0.027 A 
ATOM     22  C   UNL A   1      31.399  27.698  26.818  1.00  0.00     0.017 A 
ATOM     23  S   UNL A   1      33.858  27.697  26.113  1.00  0.00    -0.147 S 
ATOM     24  C   UNL A   1      31.779  29.068  26.692  1.00  0.00     0.012 A 
ATOM     25  C   UNL A   1      33.090  29.206  26.300  1.00  0.00     0.065 A 
ENDBRANCH   8  21
ENDBRANCH   7   8
ENDBRANCH   5   7
ENDBRANCH   4   5
ENDBRANCH   3   4
ENDBRANCH   2   3
ENDBRANCH   1   2
BRANCH   1  26
ATOM     26  C   UNL A   1      38.311  20.576  25.268  1.00  0.00     0.202 C 
BRANCH  26  27
ATOM     27  C   UNL A   1      39.318  21.390  26.082  1.00  0.00     0.261 C 
BRANCH  27  28
ATOM     28  O   UNL A   1      40.061  20.519  26.950  1.00  0.00    -0.460 OA
BRANCH  28  29
ATOM     29  C   UNL A   1      41.265  20.157  26.464  1.00  0.00     0.338 C 
ATOM     30  O   UNL A   1      41.546  19.100  25.903  1.00  0.00    -0.246 OA
BRANCH  29  31
ATOM     31  C   UNL A   1      42.177  21.304  26.559  1.00  0.00     0.060 A 
ATOM     32  C   UNL A   1      42.598  21.711  27.829  1.00  0.00     0.016 A 
ATOM     33  C   UNL A   1      42.518  22.038  25.424  1.00  0.00     0.016 A 
ATOM     34  C   UNL A   1      43.314  22.901  27.972  1.00  0.00     0.010 A 
ATOM     35  C   UNL A   1      43.249  23.225  25.569  1.00  0.00     0.010 A 
ATOM     36  C   UNL A   1      43.609  23.686  26.848  1.00  0.00    -0.014 A 
BRANCH  36  37
ATOM     37  C   UNL A   1      44.162  25.053  27.031  1.00  0.00     0.031 A 
ATOM     38  C   UNL A   1      43.271  26.141  27.571  1.00  0.00     0.074 A 
ATOM     39  C   UNL A   1      45.454  25.320  26.769  1.00  0.00     0.049 A 
ATOM     40  N   UNL A   1      43.563  27.385  27.858  1.00  0.00    -0.248 NA
ATOM     41  C   UNL A   1      41.868  25.776  27.833  1.00  0.00     0.031 C 
ATOM     42  C   UNL A   1      46.434  24.355  26.273  1.00  0.00     0.029 A 
ATOM     43  N   UNL A   1      46.163  26.489  26.892  1.00  0.00    -0.354 N 
ATOM     44  C   UNL A   1      42.386  27.950  28.335  1.00  0.00     0.074 A 
ATOM     45  C   UNL A   1      41.368  26.922  28.272  1.00  0.00     0.031 C 
ATOM     46  C   UNL A   1      47.622  24.971  26.141  1.00  0.00     0.029 A 
ATOM     47  C   UNL A   1      47.480  26.376  26.520  1.00  0.00     0.049 A 
ATOM     48  H   UNL A   1      45.765  27.329  27.216  1.00  0.00     0.167 HD
ATOM     49  C   UNL A   1      42.168  29.205  28.795  1.00  0.00     0.031 A 
ATOM     50  C   UNL A   1      48.462  27.299  26.483  1.00  0.00     0.031 A 
ATOM     51  C   UNL A   1      43.164  30.242  28.838  1.00  0.00     0.049 A 
ATOM     52  C   UNL A   1      48.179  28.710  26.921  1.00  0.00     0.074 A 
ATOM     53  C   UNL A   1      43.036  31.543  29.294  1.00  0.00     0.029 A 
ATOM     54  N   UNL A   1      44.470  30.101  28.397  1.00  0.00    -0.354 N 
ATOM     55  N   UNL A   1      47.067  29.219  27.398  1.00  0.00    -0.248 NA
ATOM     56  C   UNL A   1      49.287  29.672  26.822  1.00  0.00     0.031 C 
ATOM     57  C   UNL A   1      44.254  32.202  29.089  1.00  0.00     0.029 A 
ATOM     58  C   UNL A   1      45.153  31.297  28.547  1.00  0.00     0.049 A 
ATOM     59  H   UNL A   1      44.856  29.273  28.031  1.00  0.00     0.167 HD
ATOM     60  C   UNL A   1      47.348  30.552  27.675  1.00  0.00     0.074 A 
ATOM     61  C   UNL A   1      48.736  30.771  27.321  1.00  0.00     0.031 C 
ATOM     62  C   UNL A   1      46.532  31.507  28.184  1.00  0.00     0.031 A 
BRANCH  49  63
ATOM     63  C   UNL A   1      40.777  29.528  29.267  1.00  0.00    -0.014 A 
ATOM     64  C   UNL A   1      39.758  29.841  28.349  1.00  0.00     0.010 A 
ATOM     65  C   UNL A   1      40.480  29.510  30.641  1.00  0.00     0.010 A 
ATOM     66  C   UNL A   1      38.478  30.176  28.800  1.00  0.00     0.020 A 
ATOM     67  C   UNL A   1      39.197  29.824  31.096  1.00  0.00     0.020 A 
ATOM     68  C   UNL A   1      38.210  30.177  30.172  1.00  0.00     0.054 A 
BRANCH  68  69
ATOM     69  S   UNL A   1      36.543  30.620  30.737  1.00  0.00     0.124 S 
ATOM     70  O   UNL A   1      36.833  31.427  31.919  1.00  0.00    -0.237 OA
ATOM     71  O   UNL A   1      35.997  31.351  29.596  1.00  0.00    -0.237 OA
ATOM     72  O   UNL A   1      35.913  29.328  31.002  1.00  0.00    -0.744 OA
ENDBRANCH  68  69
ENDBRANCH  49  63
BRANCH  50  73
ATOM     73  C   UNL A   1      49.818  26.912  26.012  1.00  0.00    -0.014 A 
ATOM     74  C   UNL A   1      50.179  27.079  24.664  1.00  0.00     0.010 A 
ATOM     75  C   UNL A   1      50.761  26.388  26.915  1.00  0.00     0.010 A 
ATOM     76  C   UNL A   1      51.459  26.729  24.226  1.00  0.00     0.020 A 
ATOM     77  C   UNL A   1      52.048  26.056  26.484  1.00  0.00     0.020 A 
ATOM     78  C   UNL A   1      52.387  26.222  25.140  1.00  0.00     0.054 A 
BRANCH  78  79
ATOM     79  S   UNL A   1      54.067  25.844  24.568  1.00  0.00     0.124 S 
ATOM     80  O   UNL A   1      54.861  26.841  25.278  1.00  0.00    -0.237 OA
ATOM     81  O   UNL A   1      54.249  24.462  25.003  1.00  0.00    -0.237 OA
ATOM     82  O   UNL A   1      53.981  26.026  23.120  1.00  0.00    -0.744 OA
ENDBRANCH  78  79
ENDBRANCH  50  73
BRANCH  62  83
ATOM     83  C   UNL A   1      47.119  32.874  28.414  1.00  0.00    -0.014 A 
ATOM     84  C   UNL A   1      47.041  33.872  27.428  1.00  0.00     0.010 A 
ATOM     85  C   UNL A   1      47.711  33.177  29.654  1.00  0.00     0.010 A 
ATOM     86  C   UNL A   1      47.570  35.145  27.667  1.00  0.00     0.020 A 
ATOM     87  C   UNL A   1      48.222  34.454  29.904  1.00  0.00     0.020 A 
ATOM     88  C   UNL A   1      48.160  35.426  28.904  1.00  0.00     0.054 A 
BRANCH  88  89
ATOM     89  S   UNL A   1      48.802  37.096  29.211  1.00  0.00     0.124 S 
ATOM     90  O   UNL A   1      49.099  37.561  27.860  1.00  0.00    -0.237 OA
ATOM     91  O   UNL A   1      47.680  37.759  29.871  1.00  0.00    -0.237 OA
ATOM     92  O   UNL A   1      49.967  36.865  30.062  1.00  0.00    -0.744 OA
ENDBRANCH  88  89
ENDBRANCH  62  83
ENDBRANCH  36  37
ENDBRANCH  29  31
ENDBRANCH  28  29
ENDBRANCH  27  28
ENDBRANCH  26  27
ENDBRANCH   1  26
TORSDOF 21
ENDMDL
MODEL 2
REMARK VINA RESULT:      -8.6      6.498     10.503
REMARK SMILES C[C@H]1[NH2+]CC[C@@H]1C(=O)N[C@@H](CC(=O)OCCOCCOC(=O)c1ccc(-c2c3nc(c(-c4ccc(S(=O)(=O)[O-])cc4)c4ccc([nH]4)c(-c4ccc(S(=O)(=O)[O-])cc4)c4nc(c(-c5ccc(S(=O)(=O)[O-])cc5)c5ccc2[nH]5)C=C4)C=C3)cc1)c1cccs1
REMARK SMILES IDX 17 1 16 2 15 3 14 4 12 5 13 6 11 7 10 8 9 9 7 10 8 11 6 13
REMARK SMILES IDX 1 14 2 15 3 16 4 17 5 20 83 21 84 22 87 23 85 24 86 25 18 26
REMARK SMILES IDX 19 27 20 28 21 29 22 30 23 31 24 32 82 33 25 34 81 35 26 36
REMARK SMILES IDX 27 37 28 38 75 39 29 40 80 41 74 42 76 43 30 44 79 45 73 46
REMARK SMILES IDX 72 47 31 49 61 50 42 51 60 52 43 53 46 54 59 55 77 56 44 57
REMARK SMILES IDX 45 58 58 60 78 61 47 62 32 63 33 64 41 65 34 66 40 67 35 68
REMARK SMILES IDX 36 69 37 70 38 71 39 72 62 73 63 74 71 75 64 76 70 77 65 78
REMARK SMILES IDX 66 79 67 80 68 81 69 82 48 83 49 84 57 85 50 86 56 87 51 88
REMARK SMILES IDX 52 89 53 90 54 91 55 92
REMARK H PARENT 9 12 3 18 3 19 76 48 46 59
REMARK Flexibility Score: inf
ROOT
ATOM      1  O   UNL A   1      34.129  32.830  27.694  1.00  0.00    -0.374 OA
ENDROOT
BRANCH   1   2
ATOM      2  C   UNL A   1      32.893  32.145  27.512  1.00  0.00     0.202 C 
BRANCH   2   3
ATOM      3  C   UNL A   1      32.948  30.623  27.311  1.00  0.00     0.261 C 
BRANCH   3   4
ATOM      4  O   UNL A   1      31.679  29.962  27.127  1.00  0.00    -0.463 OA
BRANCH   4   5
ATOM      5  C   UNL A   1      31.750  28.608  27.160  1.00  0.00     0.308 C 
ATOM      6  O   UNL A   1      31.561  27.923  28.162  1.00  0.00    -0.252 OA
BRANCH   5   7
ATOM      7  C   UNL A   1      32.173  27.954  25.871  1.00  0.00     0.153 C 
BRANCH   7   8
ATOM      8  C   UNL A   1      31.172  27.351  24.891  1.00  0.00     0.133 C 
BRANCH   8   9
ATOM      9  N   UNL A   1      30.264  26.391  25.487  1.00  0.00    -0.347 N 
ATOM     10  C   UNL A   1      30.488  25.115  25.920  1.00  0.00     0.229 C 
ATOM     11  O   UNL A   1      29.581  24.595  26.570  1.00  0.00    -0.275 OA
ATOM     12  H   UNL A   1      29.339  26.710  25.598  1.00  0.00     0.164 HD
BRANCH  10  13
ATOM     13  C   UNL A   1      31.750  24.344  25.494  1.00  0.00     0.142 C 
ATOM     14  C   UNL A   1      32.226  22.538  23.771  1.00  0.00     0.076 C 
ATOM     15  C   UNL A   1      31.416  22.914  25.016  1.00  0.00     0.192 C 
ATOM     16  N   UNL A   1      31.773  21.989  26.115  1.00  0.00    -0.343 N 
ATOM     17  C   UNL A   1      32.331  22.775  27.207  1.00  0.00     0.261 C 
ATOM     18  H   UNL A   1      32.463  21.313  25.788  1.00  0.00     0.346 HD
ATOM     19  H   UNL A   1      30.947  21.482  26.432  1.00  0.00     0.346 HD
ATOM     20  C   UNL A   1      32.788  24.069  26.575  1.00  0.00     0.081 C 
ENDBRANCH  10  13
ENDBRANCH   8   9
BRANCH   8  21
ATOM     21  C   UNL A   1      31.758  26.823  23.587  1.00  0.00     0.027 A 
ATOM     22  C   UNL A   1      31.069  26.305  22.500  1.00  0.00     0.017 A 
ATOM     23  S   UNL A   1      33.457  26.629  23.357  1.00  0.00    -0.147 S 
ATOM     24  C   UNL A   1      31.928  25.724  21.520  1.00  0.00     0.012 A 
ATOM     25  C   UNL A   1      33.253  25.821  21.872  1.00  0.00     0.065 A 
ENDBRANCH   8  21
ENDBRANCH   7   8
ENDBRANCH   5   7
ENDBRANCH   4   5
ENDBRANCH   3   4
ENDBRANCH   2   3
ENDBRANCH   1   2
BRANCH   1  26
ATOM     26  C   UNL A   1      34.078  34.253  27.822  1.00  0.00     0.202 C 
BRANCH  26  27
ATOM     27  C   UNL A   1      34.359  34.812  29.218  1.00  0.00     0.261 C 
BRANCH  27  28
ATOM     28  O   UNL A   1      33.314  34.419  30.120  1.00  0.00    -0.460 OA
BRANCH  28  29
ATOM     29  C   UNL A   1      33.398  34.989  31.339  1.00  0.00     0.338 C 
ATOM     30  O   UNL A   1      32.588  35.759  31.850  1.00  0.00    -0.246 OA
BRANCH  29  31
ATOM     31  C   UNL A   1      34.547  34.413  32.050  1.00  0.00     0.060 A 
ATOM     32  C   UNL A   1      35.629  35.248  32.345  1.00  0.00     0.016 A 
ATOM     33  C   UNL A   1      34.605  33.046  32.319  1.00  0.00     0.016 A 
ATOM     34  C   UNL A   1      36.808  34.699  32.853  1.00  0.00     0.010 A 
ATOM     35  C   UNL A   1      35.784  32.501  32.843  1.00  0.00     0.010 A 
ATOM     36  C   UNL A   1      36.907  33.316  33.068  1.00  0.00    -0.014 A 
BRANCH  36  37
ATOM     37  C   UNL A   1      38.228  32.716  33.386  1.00  0.00     0.031 A 
ATOM     38  C   UNL A   1      38.829  32.941  34.750  1.00  0.00     0.074 A 
ATOM     39  C   UNL A   1      38.870  31.939  32.496  1.00  0.00     0.049 A 
ATOM     40  N   UNL A   1      39.942  32.467  35.252  1.00  0.00    -0.248 NA
ATOM     41  C   UNL A   1      38.072  33.804  35.670  1.00  0.00     0.031 C 
ATOM     42  C   UNL A   1      38.387  31.613  31.155  1.00  0.00     0.029 A 
ATOM     43  N   UNL A   1      40.068  31.276  32.594  1.00  0.00    -0.354 N 
ATOM     44  C   UNL A   1      40.017  32.970  36.546  1.00  0.00     0.074 A 
ATOM     45  C   UNL A   1      38.854  33.810  36.741  1.00  0.00     0.031 C 
ATOM     46  C   UNL A   1      39.280  30.804  30.557  1.00  0.00     0.029 A 
ATOM     47  C   UNL A   1      40.404  30.575  31.462  1.00  0.00     0.049 A 
ATOM     48  H   UNL A   1      40.633  31.301  33.400  1.00  0.00     0.167 HD
ATOM     49  C   UNL A   1      40.960  32.750  37.493  1.00  0.00     0.031 A 
ATOM     50  C   UNL A   1      41.497  29.835  31.183  1.00  0.00     0.031 A 
ATOM     51  C   UNL A   1      42.133  31.939  37.302  1.00  0.00     0.049 A 
ATOM     52  C   UNL A   1      42.573  29.669  32.221  1.00  0.00     0.074 A 
ATOM     53  C   UNL A   1      43.141  31.654  38.208  1.00  0.00     0.029 A 
ATOM     54  N   UNL A   1      42.464  31.295  36.121  1.00  0.00    -0.354 N 
ATOM     55  N   UNL A   1      42.613  30.128  33.449  1.00  0.00    -0.248 NA
ATOM     56  C   UNL A   1      43.752  28.878  31.836  1.00  0.00     0.031 C 
ATOM     57  C   UNL A   1      44.103  30.870  37.560  1.00  0.00     0.029 A 
ATOM     58  C   UNL A   1      43.672  30.632  36.265  1.00  0.00     0.049 A 
ATOM     59  H   UNL A   1      41.921  31.307  35.300  1.00  0.00     0.167 HD
ATOM     60  C   UNL A   1      43.807  29.664  33.989  1.00  0.00     0.074 A 
ATOM     61  C   UNL A   1      44.458  28.882  32.958  1.00  0.00     0.031 C 
ATOM     62  C   UNL A   1      44.315  29.862  35.230  1.00  0.00     0.031 A 
BRANCH  49  63
ATOM     63  C   UNL A   1      40.764  33.426  38.822  1.00  0.00    -0.014 A 
ATOM     64  C   UNL A   1      41.348  34.678  39.088  1.00  0.00     0.010 A 
ATOM     65  C   UNL A   1      39.982  32.809  39.814  1.00  0.00     0.010 A 
ATOM     66  C   UNL A   1      41.190  35.280  40.339  1.00  0.00     0.020 A 
ATOM     67  C   UNL A   1      39.805  33.417  41.060  1.00  0.00     0.020 A 
ATOM     68  C   UNL A   1      40.429  34.639  41.321  1.00  0.00     0.054 A 
BRANCH  68  69
ATOM     69  S   UNL A   1      40.242  35.435  42.941  1.00  0.00     0.124 S 
ATOM     70  O   UNL A   1      39.139  36.359  42.695  1.00  0.00    -0.237 OA
ATOM     71  O   UNL A   1      39.934  34.311  43.822  1.00  0.00    -0.237 OA
ATOM     72  O   UNL A   1      41.542  36.063  43.170  1.00  0.00    -0.744 OA
ENDBRANCH  68  69
ENDBRANCH  49  63
BRANCH  50  73
ATOM     73  C   UNL A   1      41.625  29.188  29.851  1.00  0.00    -0.014 A 
ATOM     74  C   UNL A   1      42.132  29.907  28.755  1.00  0.00     0.010 A 
ATOM     75  C   UNL A   1      41.255  27.842  29.676  1.00  0.00     0.010 A 
ATOM     76  C   UNL A   1      42.266  29.292  27.507  1.00  0.00     0.020 A 
ATOM     77  C   UNL A   1      41.406  27.219  28.435  1.00  0.00     0.020 A 
ATOM     78  C   UNL A   1      41.905  27.951  27.356  1.00  0.00     0.054 A 
BRANCH  78  79
ATOM     79  S   UNL A   1      42.157  27.149  25.747  1.00  0.00     0.124 S 
ATOM     80  O   UNL A   1      40.921  26.390  25.590  1.00  0.00    -0.237 OA
ATOM     81  O   UNL A   1      42.321  28.287  24.846  1.00  0.00    -0.237 OA
ATOM     82  O   UNL A   1      43.364  26.349  25.952  1.00  0.00    -0.744 OA
ENDBRANCH  78  79
ENDBRANCH  50  73
BRANCH  62  83
ATOM     83  C   UNL A   1      45.630  29.206  35.557  1.00  0.00    -0.014 A 
ATOM     84  C   UNL A   1      46.849  29.805  35.197  1.00  0.00     0.010 A 
ATOM     85  C   UNL A   1      45.644  27.998  36.278  1.00  0.00     0.010 A 
ATOM     86  C   UNL A   1      48.062  29.193  35.531  1.00  0.00     0.020 A 
ATOM     87  C   UNL A   1      46.854  27.395  36.631  1.00  0.00     0.020 A 
ATOM     88  C   UNL A   1      48.057  27.989  36.243  1.00  0.00     0.054 A 
BRANCH  88  89
ATOM     89  S   UNL A   1      49.641  27.234  36.704  1.00  0.00     0.124 S 
ATOM     90  O   UNL A   1      49.274  25.829  36.860  1.00  0.00    -0.237 OA
ATOM     91  O   UNL A   1      50.492  27.537  35.556  1.00  0.00    -0.237 OA
ATOM     92  O   UNL A   1      50.005  27.925  37.939  1.00  0.00    -0.744 OA
ENDBRANCH  88  89
ENDBRANCH  62  83
ENDBRANCH  36  37
ENDBRANCH  29  31
ENDBRANCH  28  29
ENDBRANCH  27  28
ENDBRANCH  26  27
ENDBRANCH   1  26
TORSDOF 21
ENDMDL
MODEL 3
REMARK VINA RESULT:      -8.4      7.439     13.393
REMARK SMILES C[C@H]1[NH2+]CC[C@@H]1C(=O)N[C@@H](CC(=O)OCCOCCOC(=O)c1ccc(-c2c3nc(c(-c4ccc(S(=O)(=O)[O-])cc4)c4ccc([nH]4)c(-c4ccc(S(=O)(=O)[O-])cc4)c4nc(c(-c5ccc(S(=O)(=O)[O-])cc5)c5ccc2[nH]5)C=C4)C=C3)cc1)c1cccs1
REMARK SMILES IDX 17 1 16 2 15 3 14 4 12 5 13 6 11 7 10 8 9 9 7 10 8 11 6 13
REMARK SMILES IDX 1 14 2 15 3 16 4 17 5 20 83 21 84 22 87 23 85 24 86 25 18 26
REMARK SMILES IDX 19 27 20 28 21 29 22 30 23 31 24 32 82 33 25 34 81 35 26 36
REMARK SMILES IDX 27 37 28 38 75 39 29 40 80 41 74 42 76 43 30 44 79 45 73 46
REMARK SMILES IDX 72 47 31 49 61 50 42 51 60 52 43 53 46 54 59 55 77 56 44 57
REMARK SMILES IDX 45 58 58 60 78 61 47 62 32 63 33 64 41 65 34 66 40 67 35 68
REMARK SMILES IDX 36 69 37 70 38 71 39 72 62 73 63 74 71 75 64 76 70 77 65 78
REMARK SMILES IDX 66 79 67 80 68 81 69 82 48 83 49 84 57 85 50 86 56 87 51 88
REMARK SMILES IDX 52 89 53 90 54 91 55 92
REMARK H PARENT 9 12 3 18 3 19 76 48 46 59
REMARK Flexibility Score: inf
ROOT
ATOM      1  O   UNL A   1      51.392  23.961  35.959  1.00  0.00    -0.374 OA
ENDROOT
BRANCH   1   2
ATOM      2  C   UNL A   1      52.025  23.377  34.824  1.00  0.00     0.202 C 
BRANCH   2   3
ATOM      3  C   UNL A   1      51.680  21.918  34.491  1.00  0.00     0.261 C 
BRANCH   3   4
ATOM      4  O   UNL A   1      50.309  21.525  34.704  1.00  0.00    -0.463 OA
BRANCH   4   5
ATOM      5  C   UNL A   1      49.847  20.617  33.810  1.00  0.00     0.308 C 
ATOM      6  O   UNL A   1      50.451  20.259  32.802  1.00  0.00    -0.252 OA
BRANCH   5   7
ATOM      7  C   UNL A   1      48.456  20.104  34.075  1.00  0.00     0.153 C 
BRANCH   7   8
ATOM      8  C   UNL A   1      47.444  20.875  34.916  1.00  0.00     0.133 C 
BRANCH   8   9
ATOM      9  N   UNL A   1      47.589  22.316  34.843  1.00  0.00    -0.347 N 
ATOM     10  C   UNL A   1      46.671  23.282  34.540  1.00  0.00     0.229 C 
ATOM     11  O   UNL A   1      47.019  24.444  34.747  1.00  0.00    -0.275 OA
ATOM     12  H   UNL A   1      48.493  22.651  35.044  1.00  0.00     0.164 HD
BRANCH  10  13
ATOM     13  C   UNL A   1      45.341  22.923  33.854  1.00  0.00     0.142 C 
ATOM     14  C   UNL A   1      44.171  23.704  31.738  1.00  0.00     0.076 C 
ATOM     15  C   UNL A   1      44.743  24.127  33.095  1.00  0.00     0.192 C 
ATOM     16  N   UNL A   1      43.646  24.669  33.927  1.00  0.00    -0.343 N 
ATOM     17  C   UNL A   1      43.529  23.843  35.120  1.00  0.00     0.261 C 
ATOM     18  H   UNL A   1      42.770  24.645  33.404  1.00  0.00     0.346 HD
ATOM     19  H   UNL A   1      43.843  25.636  34.185  1.00  0.00     0.346 HD
ATOM     20  C   UNL A   1      44.183  22.529  34.761  1.00  0.00     0.081 C 
ENDBRANCH  10  13
ENDBRANCH   8   9
BRANCH   8  21
ATOM     21  C   UNL A   1      47.286  20.407  36.357  1.00  0.00     0.027 A 
ATOM     22  C   UNL A   1      46.485  19.376  36.827  1.00  0.00     0.017 A 
ATOM     23  S   UNL A   1      47.988  21.262  37.681  1.00  0.00    -0.147 S 
ATOM     24  C   UNL A   1      46.423  19.323  38.252  1.00  0.00     0.012 A 
ATOM     25  C   UNL A   1      47.185  20.304  38.839  1.00  0.00     0.065 A 
ENDBRANCH   8  21
ENDBRANCH   7   8
ENDBRANCH   5   7
ENDBRANCH   4   5
ENDBRANCH   3   4
ENDBRANCH   2   3
ENDBRANCH   1   2
BRANCH   1  26
ATOM     26  C   UNL A   1      50.455  25.014  35.719  1.00  0.00     0.202 C 
BRANCH  26  27
ATOM     27  C   UNL A   1      49.957  25.764  36.955  1.00  0.00     0.261 C 
BRANCH  27  28
ATOM     28  O   UNL A   1      48.694  26.387  36.673  1.00  0.00    -0.460 OA
BRANCH  28  29
ATOM     29  C   UNL A   1      48.199  27.112  37.696  1.00  0.00     0.338 C 
ATOM     30  O   UNL A   1      48.709  27.269  38.802  1.00  0.00    -0.246 OA
BRANCH  29  31
ATOM     31  C   UNL A   1      47.011  27.838  37.227  1.00  0.00     0.060 A 
ATOM     32  C   UNL A   1      45.760  27.236  37.392  1.00  0.00     0.016 A 
ATOM     33  C   UNL A   1      47.140  29.040  36.533  1.00  0.00     0.016 A 
ATOM     34  C   UNL A   1      44.633  27.809  36.799  1.00  0.00     0.010 A 
ATOM     35  C   UNL A   1      46.006  29.620  35.951  1.00  0.00     0.010 A 
ATOM     36  C   UNL A   1      44.755  28.983  36.041  1.00  0.00    -0.014 A 
BRANCH  36  37
ATOM     37  C   UNL A   1      43.605  29.455  35.229  1.00  0.00     0.031 A 
ATOM     38  C   UNL A   1      42.650  30.461  35.818  1.00  0.00     0.074 A 
ATOM     39  C   UNL A   1      43.430  29.034  33.963  1.00  0.00     0.049 A 
ATOM     40  N   UNL A   1      41.615  31.043  35.266  1.00  0.00    -0.248 NA
ATOM     41  C   UNL A   1      42.902  30.873  37.209  1.00  0.00     0.031 C 
ATOM     42  C   UNL A   1      44.294  28.089  33.258  1.00  0.00     0.029 A 
ATOM     43  N   UNL A   1      42.464  29.358  33.043  1.00  0.00    -0.354 N 
ATOM     44  C   UNL A   1      41.095  31.891  36.237  1.00  0.00     0.074 A 
ATOM     45  C   UNL A   1      41.910  31.725  37.423  1.00  0.00     0.031 C 
ATOM     46  C   UNL A   1      43.823  27.915  32.011  1.00  0.00     0.029 A 
ATOM     47  C   UNL A   1      42.613  28.717  31.838  1.00  0.00     0.049 A 
ATOM     48  H   UNL A   1      41.733  29.992  33.229  1.00  0.00     0.167 HD
ATOM     49  C   UNL A   1      40.043  32.740  36.153  1.00  0.00     0.031 A 
ATOM     50  C   UNL A   1      41.859  28.765  30.721  1.00  0.00     0.031 A 
ATOM     51  C   UNL A   1      39.210  32.893  34.990  1.00  0.00     0.049 A 
ATOM     52  C   UNL A   1      40.644  29.653  30.676  1.00  0.00     0.074 A 
ATOM     53  C   UNL A   1      38.124  33.733  34.812  1.00  0.00     0.029 A 
ATOM     54  N   UNL A   1      39.361  32.181  33.811  1.00  0.00    -0.354 N 
ATOM     55  N   UNL A   1      40.185  30.470  31.594  1.00  0.00    -0.248 NA
ATOM     56  C   UNL A   1      39.850  29.630  29.439  1.00  0.00     0.031 C 
ATOM     57  C   UNL A   1      37.593  33.499  33.538  1.00  0.00     0.029 A 
ATOM     58  C   UNL A   1      38.376  32.544  32.908  1.00  0.00     0.049 A 
ATOM     59  H   UNL A   1      40.066  31.514  33.641  1.00  0.00     0.167 HD
ATOM     60  C   UNL A   1      39.063  31.073  31.038  1.00  0.00     0.074 A 
ATOM     61  C   UNL A   1      38.915  30.533  29.701  1.00  0.00     0.031 C 
ATOM     62  C   UNL A   1      38.233  31.996  31.583  1.00  0.00     0.031 A 
BRANCH  49  63
ATOM     63  C   UNL A   1      39.721  33.552  37.378  1.00  0.00    -0.014 A 
ATOM     64  C   UNL A   1      40.282  34.828  37.564  1.00  0.00     0.010 A 
ATOM     65  C   UNL A   1      38.843  33.039  38.348  1.00  0.00     0.010 A 
ATOM     66  C   UNL A   1      40.006  35.559  38.723  1.00  0.00     0.020 A 
ATOM     67  C   UNL A   1      38.548  33.775  39.499  1.00  0.00     0.020 A 
ATOM     68  C   UNL A   1      39.149  35.022  39.689  1.00  0.00     0.054 A 
BRANCH  68  69
ATOM     69  S   UNL A   1      38.809  35.985  41.189  1.00  0.00     0.124 S 
ATOM     70  O   UNL A   1      37.554  35.394  41.645  1.00  0.00    -0.237 OA
ATOM     71  O   UNL A   1      39.974  35.706  42.025  1.00  0.00    -0.237 OA
ATOM     72  O   UNL A   1      38.711  37.360  40.702  1.00  0.00    -0.744 OA
ENDBRANCH  68  69
ENDBRANCH  49  63
BRANCH  50  73
ATOM     73  C   UNL A   1      42.237  27.941  29.543  1.00  0.00    -0.014 A 
ATOM     74  C   UNL A   1      41.743  26.633  29.400  1.00  0.00     0.010 A 
ATOM     75  C   UNL A   1      43.080  28.468  28.548  1.00  0.00     0.010 A 
ATOM     76  C   UNL A   1      42.087  25.865  28.284  1.00  0.00     0.020 A 
ATOM     77  C   UNL A   1      43.410  27.711  27.422  1.00  0.00     0.020 A 
ATOM     78  C   UNL A   1      42.916  26.411  27.301  1.00  0.00     0.054 A 
BRANCH  78  79
ATOM     79  S   UNL A   1      43.291  25.426  25.823  1.00  0.00     0.124 S 
ATOM     80  O   UNL A   1      42.971  24.074  26.270  1.00  0.00    -0.237 OA
ATOM     81  O   UNL A   1      42.388  25.993  24.824  1.00  0.00    -0.237 OA
ATOM     82  O   UNL A   1      44.709  25.690  25.588  1.00  0.00    -0.744 OA
ENDBRANCH  78  79
ENDBRANCH  50  73
BRANCH  62  83
ATOM     83  C   UNL A   1      37.101  32.503  30.730  1.00  0.00    -0.014 A 
ATOM     84  C   UNL A   1      35.848  31.866  30.733  1.00  0.00     0.010 A 
ATOM     85  C   UNL A   1      37.280  33.664  29.955  1.00  0.00     0.010 A 
ATOM     86  C   UNL A   1      34.800  32.366  29.954  1.00  0.00     0.020 A 
ATOM     87  C   UNL A   1      36.229  34.178  29.192  1.00  0.00     0.020 A 
ATOM     88  C   UNL A   1      34.998  33.518  29.185  1.00  0.00     0.054 A 
BRANCH  88  89
ATOM     89  S   UNL A   1      33.613  34.176  28.214  1.00  0.00     0.124 S 
ATOM     90  O   UNL A   1      34.300  34.996  27.221  1.00  0.00    -0.237 OA
ATOM     91  O   UNL A   1      32.975  32.968  27.698  1.00  0.00    -0.237 OA
ATOM     92  O   UNL A   1      32.825  34.915  29.198  1.00  0.00    -0.744 OA
ENDBRANCH  88  89
ENDBRANCH  62  83
ENDBRANCH  36  37
ENDBRANCH  29  31
ENDBRANCH  28  29
ENDBRANCH  27  28
ENDBRANCH  26  27
ENDBRANCH   1  26
TORSDOF 21
ENDMDL
