MODEL 1
REMARK VINA RESULT:      -9.8      0.000      0.000
REMARK SMILES [NH3+][C@H]1C=C[C@@H](C(=O)NC2(CC(=O)OCCOCCOC(=O)c3ccc(-c4c5nc(c(-c6ccc(S(=O)(=O)[O-])cc6)c6ccc([nH]6)c(-c6ccc(S(=O)(=O)[O-])cc6)c6nc(c(-c7ccc(S(=O)(=O)[O-])cc7)c7ccc4[nH]7)C=C6)C=C5)cc3)CCC2)C1
REMARK SMILES IDX 15 1 14 2 13 3 11 4 12 5 10 6 9 7 82 8 84 9 83 10 8 11 6 12
REMARK SMILES IDX 7 13 5 15 2 16 3 17 85 18 4 19 1 20 16 24 17 25 18 26 19 27
REMARK SMILES IDX 20 28 21 29 22 30 23 31 81 32 24 33 80 34 25 35 26 36 27 37
REMARK SMILES IDX 74 38 28 39 79 40 73 41 75 42 29 43 78 44 72 45 71 46 30 48
REMARK SMILES IDX 60 49 41 50 59 51 42 52 45 53 58 54 76 55 43 56 44 57 57 59
REMARK SMILES IDX 77 60 46 61 31 62 32 63 40 64 33 65 39 66 34 67 35 68 36 69
REMARK SMILES IDX 37 70 38 71 61 72 62 73 70 74 63 75 69 76 64 77 65 78 66 79
REMARK SMILES IDX 67 80 68 81 47 82 48 83 56 84 49 85 55 86 50 87 51 88 52 89
REMARK SMILES IDX 53 90 54 91
REMARK H PARENT 8 14 1 21 1 22 1 23 75 47 45 58
REMARK Flexibility Score: inf
ROOT
ATOM      1  C   UNL A   1      38.002  22.731  25.789  1.00  0.00     0.202 C 
ENDROOT
BRANCH   1   2
ATOM      2  C   UNL A   1      36.707  23.333  25.233  1.00  0.00     0.261 C 
BRANCH   2   3
ATOM      3  O   UNL A   1      36.119  22.490  24.223  1.00  0.00    -0.463 OA
BRANCH   3   4
ATOM      4  C   UNL A   1      34.911  22.861  23.729  1.00  0.00     0.308 C 
ATOM      5  O   UNL A   1      34.637  22.969  22.541  1.00  0.00    -0.252 OA
BRANCH   4   6
ATOM      6  C   UNL A   1      33.929  23.176  24.827  1.00  0.00     0.151 C 
BRANCH   6   7
ATOM      7  C   UNL A   1      33.139  22.013  25.478  1.00  0.00     0.051 C 
ATOM      8  C   UNL A   1      32.148  22.621  26.491  1.00  0.00     0.029 C 
ATOM      9  C   UNL A   1      33.817  21.274  26.670  1.00  0.00     0.029 C 
ATOM     10  C   UNL A   1      33.136  22.275  27.620  1.00  0.00     0.005 C 
BRANCH   7  11
ATOM     11  N   UNL A   1      32.599  21.116  24.425  1.00  0.00    -0.350 N 
ATOM     12  C   UNL A   1      32.742  19.842  23.978  1.00  0.00     0.227 C 
ATOM     13  O   UNL A   1      32.136  19.632  22.911  1.00  0.00    -0.274 OA
ATOM     14  H   UNL A   1      31.931  21.594  23.882  1.00  0.00     0.164 HD
BRANCH  12  15
ATOM     15  C   UNL A   1      33.438  18.644  24.634  1.00  0.00     0.107 C 
ATOM     16  C   UNL A   1      33.202  16.320  25.383  1.00  0.00     0.205 C 
ATOM     17  C   UNL A   1      33.835  16.411  24.034  1.00  0.00     0.033 C 
ATOM     18  C   UNL A   1      32.745  17.764  25.669  1.00  0.00     0.087 C 
ATOM     19  C   UNL A   1      33.968  17.676  23.621  1.00  0.00    -0.012 C 
BRANCH  16  20
ATOM     20  N   UNL A   1      32.083  15.393  25.375  1.00  0.00    -0.352 N 
ATOM     21  H   UNL A   1      32.327  14.571  24.825  1.00  0.00     0.345 HD
ATOM     22  H   UNL A   1      31.268  15.848  24.963  1.00  0.00     0.345 HD
ATOM     23  H   UNL A   1      31.868  15.113  26.332  1.00  0.00     0.345 HD
ENDBRANCH  16  20
ENDBRANCH  12  15
ENDBRANCH   7  11
ENDBRANCH   6   7
ENDBRANCH   4   6
ENDBRANCH   3   4
ENDBRANCH   2   3
ENDBRANCH   1   2
BRANCH   1  24
ATOM     24  O   UNL A   1      38.712  23.564  26.708  1.00  0.00    -0.374 OA
BRANCH  24  25
ATOM     25  C   UNL A   1      40.004  23.096  27.095  1.00  0.00     0.202 C 
BRANCH  25  26
ATOM     26  C   UNL A   1      41.187  23.807  26.436  1.00  0.00     0.261 C 
BRANCH  26  27
ATOM     27  O   UNL A   1      41.557  24.970  27.198  1.00  0.00    -0.460 OA
BRANCH  27  28
ATOM     28  C   UNL A   1      41.044  26.129  26.731  1.00  0.00     0.338 C 
ATOM     29  O   UNL A   1      40.802  26.410  25.564  1.00  0.00    -0.246 OA
BRANCH  28  30
ATOM     30  C   UNL A   1      40.626  26.988  27.854  1.00  0.00     0.060 A 
ATOM     31  C   UNL A   1      41.206  28.261  27.922  1.00  0.00     0.016 A 
ATOM     32  C   UNL A   1      39.745  26.555  28.848  1.00  0.00     0.016 A 
ATOM     33  C   UNL A   1      40.975  29.072  29.027  1.00  0.00     0.010 A 
ATOM     34  C   UNL A   1      39.512  27.373  29.959  1.00  0.00     0.010 A 
ATOM     35  C   UNL A   1      40.170  28.611  30.075  1.00  0.00    -0.014 A 
BRANCH  35  36
ATOM     36  C   UNL A   1      40.181  29.353  31.358  1.00  0.00     0.031 A 
ATOM     37  C   UNL A   1      41.281  29.074  32.346  1.00  0.00     0.074 A 
ATOM     38  C   UNL A   1      39.269  30.309  31.605  1.00  0.00     0.049 A 
ATOM     39  N   UNL A   1      41.511  29.629  33.508  1.00  0.00    -0.248 NA
ATOM     40  C   UNL A   1      42.252  28.032  31.974  1.00  0.00     0.031 C 
ATOM     41  C   UNL A   1      38.182  30.692  30.704  1.00  0.00     0.029 A 
ATOM     42  N   UNL A   1      39.118  31.135  32.688  1.00  0.00    -0.354 N 
ATOM     43  C   UNL A   1      42.648  29.003  34.005  1.00  0.00     0.074 A 
ATOM     44  C   UNL A   1      43.035  27.997  33.041  1.00  0.00     0.031 C 
ATOM     45  C   UNL A   1      37.472  31.679  31.276  1.00  0.00     0.029 A 
ATOM     46  C   UNL A   1      38.038  31.977  32.591  1.00  0.00     0.049 A 
ATOM     47  H   UNL A   1      39.727  31.127  33.462  1.00  0.00     0.167 HD
ATOM     48  C   UNL A   1      43.319  29.251  35.157  1.00  0.00     0.031 A 
ATOM     49  C   UNL A   1      37.549  32.875  33.468  1.00  0.00     0.031 A 
ATOM     50  C   UNL A   1      42.915  30.237  36.123  1.00  0.00     0.049 A 
ATOM     51  C   UNL A   1      38.271  33.095  34.770  1.00  0.00     0.074 A 
ATOM     52  C   UNL A   1      43.519  30.569  37.321  1.00  0.00     0.029 A 
ATOM     53  N   UNL A   1      41.793  31.046  36.002  1.00  0.00    -0.354 N 
ATOM     54  N   UNL A   1      39.356  32.508  35.219  1.00  0.00    -0.248 NA
ATOM     55  C   UNL A   1      37.712  34.107  35.677  1.00  0.00     0.031 C 
ATOM     56  C   UNL A   1      42.731  31.539  37.952  1.00  0.00     0.029 A 
ATOM     57  C   UNL A   1      41.673  31.859  37.117  1.00  0.00     0.049 A 
ATOM     58  H   UNL A   1      41.173  31.042  35.237  1.00  0.00     0.167 HD
ATOM     59  C   UNL A   1      39.624  33.096  36.452  1.00  0.00     0.074 A 
ATOM     60  C   UNL A   1      38.594  34.093  36.668  1.00  0.00     0.031 C 
ATOM     61  C   UNL A   1      40.632  32.838  37.322  1.00  0.00     0.031 A 
BRANCH  48  62
ATOM     62  C   UNL A   1      44.531  28.402  35.442  1.00  0.00    -0.014 A 
ATOM     63  C   UNL A   1      45.785  28.701  34.875  1.00  0.00     0.010 A 
ATOM     64  C   UNL A   1      44.416  27.280  36.283  1.00  0.00     0.010 A 
ATOM     65  C   UNL A   1      46.881  27.861  35.093  1.00  0.00     0.020 A 
ATOM     66  C   UNL A   1      45.517  26.456  36.529  1.00  0.00     0.020 A 
ATOM     67  C   UNL A   1      46.737  26.738  35.911  1.00  0.00     0.054 A 
BRANCH  67  68
ATOM     68  S   UNL A   1      48.168  25.654  36.164  1.00  0.00     0.124 S 
ATOM     69  O   UNL A   1      47.664  24.372  35.677  1.00  0.00    -0.237 OA
ATOM     70  O   UNL A   1      49.196  26.280  35.337  1.00  0.00    -0.237 OA
ATOM     71  O   UNL A   1      48.406  25.721  37.605  1.00  0.00    -0.744 OA
ENDBRANCH  67  68
ENDBRANCH  48  62
BRANCH  49  72
ATOM     72  C   UNL A   1      36.304  33.617  33.134  1.00  0.00    -0.014 A 
ATOM     73  C   UNL A   1      36.353  34.884  32.528  1.00  0.00     0.010 A 
ATOM     74  C   UNL A   1      35.050  33.024  33.377  1.00  0.00     0.010 A 
ATOM     75  C   UNL A   1      35.172  35.542  32.167  1.00  0.00     0.020 A 
ATOM     76  C   UNL A   1      33.870  33.664  32.994  1.00  0.00     0.020 A 
ATOM     77  C   UNL A   1      33.939  34.923  32.394  1.00  0.00     0.054 A 
BRANCH  77  78
ATOM     78  S   UNL A   1      32.425  35.752  31.832  1.00  0.00     0.124 S 
ATOM     79  O   UNL A   1      31.420  35.191  32.727  1.00  0.00    -0.237 OA
ATOM     80  O   UNL A   1      32.744  37.163  32.040  1.00  0.00    -0.237 OA
ATOM     81  O   UNL A   1      32.315  35.349  30.431  1.00  0.00    -0.744 OA
ENDBRANCH  77  78
ENDBRANCH  49  72
BRANCH  61  82
ATOM     82  C   UNL A   1      40.690  33.663  38.581  1.00  0.00    -0.014 A 
ATOM     83  C   UNL A   1      40.093  33.219  39.774  1.00  0.00     0.010 A 
ATOM     84  C   UNL A   1      41.401  34.877  38.581  1.00  0.00     0.010 A 
ATOM     85  C   UNL A   1      40.176  33.993  40.935  1.00  0.00     0.020 A 
ATOM     86  C   UNL A   1      41.512  35.638  39.747  1.00  0.00     0.020 A 
ATOM     87  C   UNL A   1      40.885  35.198  40.914  1.00  0.00     0.054 A 
BRANCH  87  88
ATOM     88  S   UNL A   1      41.011  36.164  42.444  1.00  0.00     0.124 S 
ATOM     89  O   UNL A   1      41.282  35.126  43.436  1.00  0.00    -0.237 OA
ATOM     90  O   UNL A   1      42.121  37.070  42.161  1.00  0.00    -0.237 OA
ATOM     91  O   UNL A   1      39.703  36.806  42.557  1.00  0.00    -0.744 OA
ENDBRANCH  87  88
ENDBRANCH  61  82
ENDBRANCH  35  36
ENDBRANCH  28  30
ENDBRANCH  27  28
ENDBRANCH  26  27
ENDBRANCH  25  26
ENDBRANCH  24  25
ENDBRANCH   1  24
TORSDOF 21
ENDMDL
MODEL 2
REMARK VINA RESULT:      -9.6      6.588      9.099
REMARK SMILES [NH3+][C@H]1C=C[C@@H](C(=O)NC2(CC(=O)OCCOCCOC(=O)c3ccc(-c4c5nc(c(-c6ccc(S(=O)(=O)[O-])cc6)c6ccc([nH]6)c(-c6ccc(S(=O)(=O)[O-])cc6)c6nc(c(-c7ccc(S(=O)(=O)[O-])cc7)c7ccc4[nH]7)C=C6)C=C5)cc3)CCC2)C1
REMARK SMILES IDX 15 1 14 2 13 3 11 4 12 5 10 6 9 7 82 8 84 9 83 10 8 11 6 12
REMARK SMILES IDX 7 13 5 15 2 16 3 17 85 18 4 19 1 20 16 24 17 25 18 26 19 27
REMARK SMILES IDX 20 28 21 29 22 30 23 31 81 32 24 33 80 34 25 35 26 36 27 37
REMARK SMILES IDX 74 38 28 39 79 40 73 41 75 42 29 43 78 44 72 45 71 46 30 48
REMARK SMILES IDX 60 49 41 50 59 51 42 52 45 53 58 54 76 55 43 56 44 57 57 59
REMARK SMILES IDX 77 60 46 61 31 62 32 63 40 64 33 65 39 66 34 67 35 68 36 69
REMARK SMILES IDX 37 70 38 71 61 72 62 73 70 74 63 75 69 76 64 77 65 78 66 79
REMARK SMILES IDX 67 80 68 81 47 82 48 83 56 84 49 85 55 86 50 87 51 88 52 89
REMARK SMILES IDX 53 90 54 91
REMARK H PARENT 8 14 1 21 1 22 1 23 75 47 45 58
REMARK Flexibility Score: inf
ROOT
ATOM      1  C   UNL A   1      35.688  21.780  25.702  1.00  0.00     0.202 C 
ENDROOT
BRANCH   1   2
ATOM      2  C   UNL A   1      34.451  22.019  24.829  1.00  0.00     0.261 C 
BRANCH   2   3
ATOM      3  O   UNL A   1      34.569  23.235  24.062  1.00  0.00    -0.463 OA
BRANCH   3   4
ATOM      4  C   UNL A   1      33.584  23.503  23.168  1.00  0.00     0.308 C 
ATOM      5  O   UNL A   1      33.724  23.542  21.953  1.00  0.00    -0.252 OA
BRANCH   4   6
ATOM      6  C   UNL A   1      32.273  23.799  23.850  1.00  0.00     0.151 C 
BRANCH   6   7
ATOM      7  C   UNL A   1      32.050  25.205  24.461  1.00  0.00     0.051 C 
ATOM      8  C   UNL A   1      32.173  25.083  25.993  1.00  0.00     0.029 C 
ATOM      9  C   UNL A   1      30.576  25.661  24.672  1.00  0.00     0.029 C 
ATOM     10  C   UNL A   1      30.636  25.053  26.083  1.00  0.00     0.005 C 
BRANCH   7  11
ATOM     11  N   UNL A   1      32.909  26.200  23.769  1.00  0.00    -0.350 N 
ATOM     12  C   UNL A   1      33.260  27.508  23.864  1.00  0.00     0.227 C 
ATOM     13  O   UNL A   1      33.925  27.903  22.888  1.00  0.00    -0.274 OA
ATOM     14  H   UNL A   1      33.364  25.781  23.003  1.00  0.00     0.164 HD
BRANCH  12  15
ATOM     15  C   UNL A   1      33.043  28.502  25.011  1.00  0.00     0.107 C 
ATOM     16  C   UNL A   1      32.005  28.877  27.202  1.00  0.00     0.205 C 
ATOM     17  C   UNL A   1      33.444  28.495  27.323  1.00  0.00     0.033 C 
ATOM     18  C   UNL A   1      31.695  28.662  25.707  1.00  0.00     0.087 C 
ATOM     19  C   UNL A   1      34.016  28.291  26.131  1.00  0.00    -0.012 C 
BRANCH  16  20
ATOM     20  N   UNL A   1      31.169  28.046  28.049  1.00  0.00    -0.352 N 
ATOM     21  H   UNL A   1      31.308  27.066  27.807  1.00  0.00     0.345 HD
ATOM     22  H   UNL A   1      30.189  28.295  27.910  1.00  0.00     0.345 HD
ATOM     23  H   UNL A   1      31.421  28.195  29.026  1.00  0.00     0.345 HD
ENDBRANCH  16  20
ENDBRANCH  12  15
ENDBRANCH   7  11
ENDBRANCH   6   7
ENDBRANCH   4   6
ENDBRANCH   3   4
ENDBRANCH   2   3
ENDBRANCH   1   2
BRANCH   1  24
ATOM     24  O   UNL A   1      36.730  21.023  25.083  1.00  0.00    -0.374 OA
BRANCH  24  25
ATOM     25  C   UNL A   1      38.061  21.392  25.444  1.00  0.00     0.202 C 
BRANCH  25  26
ATOM     26  C   UNL A   1      39.092  20.264  25.399  1.00  0.00     0.261 C 
BRANCH  26  27
ATOM     27  O   UNL A   1      39.971  20.346  26.535  1.00  0.00    -0.460 OA
BRANCH  27  28
ATOM     28  C   UNL A   1      41.261  20.047  26.265  1.00  0.00     0.338 C 
ATOM     29  O   UNL A   1      41.693  19.001  25.798  1.00  0.00    -0.246 OA
BRANCH  28  30
ATOM     30  C   UNL A   1      42.105  21.243  26.439  1.00  0.00     0.060 A 
ATOM     31  C   UNL A   1      42.448  21.584  27.753  1.00  0.00     0.016 A 
ATOM     32  C   UNL A   1      42.506  22.047  25.368  1.00  0.00     0.016 A 
ATOM     33  C   UNL A   1      43.118  22.775  28.010  1.00  0.00     0.010 A 
ATOM     34  C   UNL A   1      43.180  23.244  25.628  1.00  0.00     0.010 A 
ATOM     35  C   UNL A   1      43.440  23.636  26.954  1.00  0.00    -0.014 A 
BRANCH  35  36
ATOM     36  C   UNL A   1      43.875  25.017  27.271  1.00  0.00     0.031 A 
ATOM     37  C   UNL A   1      45.311  25.397  27.029  1.00  0.00     0.074 A 
ATOM     38  C   UNL A   1      42.990  25.935  27.696  1.00  0.00     0.049 A 
ATOM     39  N   UNL A   1      45.901  26.552  27.194  1.00  0.00    -0.248 NA
ATOM     40  C   UNL A   1      46.198  24.332  26.533  1.00  0.00     0.031 C 
ATOM     41  C   UNL A   1      41.566  25.690  27.927  1.00  0.00     0.029 A 
ATOM     42  N   UNL A   1      43.159  27.260  28.001  1.00  0.00    -0.354 N 
ATOM     43  C   UNL A   1      47.227  26.353  26.826  1.00  0.00     0.074 A 
ATOM     44  C   UNL A   1      47.363  24.958  26.472  1.00  0.00     0.031 C 
ATOM     45  C   UNL A   1      40.992  26.831  28.344  1.00  0.00     0.029 A 
ATOM     46  C   UNL A   1      42.011  27.876  28.434  1.00  0.00     0.049 A 
ATOM     47  H   UNL A   1      44.024  27.726  27.920  1.00  0.00     0.167 HD
ATOM     48  C   UNL A   1      48.238  27.254  26.777  1.00  0.00     0.031 A 
ATOM     49  C   UNL A   1      41.807  29.135  28.868  1.00  0.00     0.031 A 
ATOM     50  C   UNL A   1      48.100  28.636  27.153  1.00  0.00     0.049 A 
ATOM     51  C   UNL A   1      42.955  30.107  28.864  1.00  0.00     0.074 A 
ATOM     52  C   UNL A   1      49.057  29.633  27.142  1.00  0.00     0.029 A 
ATOM     53  N   UNL A   1      46.926  29.212  27.619  1.00  0.00    -0.354 N 
ATOM     54  N   UNL A   1      44.199  29.909  28.497  1.00  0.00    -0.248 NA
ATOM     55  C   UNL A   1      42.670  31.474  29.320  1.00  0.00     0.031 C 
ATOM     56  C   UNL A   1      48.478  30.799  27.655  1.00  0.00     0.029 A 
ATOM     57  C   UNL A   1      47.142  30.546  27.923  1.00  0.00     0.049 A 
ATOM     58  H   UNL A   1      46.067  28.743  27.720  1.00  0.00     0.167 HD
ATOM     59  C   UNL A   1      44.842  31.134  28.654  1.00  0.00     0.074 A 
ATOM     60  C   UNL A   1      43.842  32.067  29.137  1.00  0.00     0.031 C 
ATOM     61  C   UNL A   1      46.138  31.457  28.416  1.00  0.00     0.031 A 
BRANCH  48  62
ATOM     62  C   UNL A   1      49.588  26.747  26.338  1.00  0.00    -0.014 A 
ATOM     63  C   UNL A   1      50.036  26.906  25.013  1.00  0.00     0.010 A 
ATOM     64  C   UNL A   1      50.422  26.093  27.264  1.00  0.00     0.010 A 
ATOM     65  C   UNL A   1      51.260  26.365  24.608  1.00  0.00     0.020 A 
ATOM     66  C   UNL A   1      51.660  25.580  26.871  1.00  0.00     0.020 A 
ATOM     67  C   UNL A   1      52.060  25.697  25.538  1.00  0.00     0.054 A 
BRANCH  67  68
ATOM     68  S   UNL A   1      53.635  24.988  24.984  1.00  0.00     0.124 S 
ATOM     69  O   UNL A   1      53.629  25.320  23.561  1.00  0.00    -0.237 OA
ATOM     70  O   UNL A   1      54.614  25.710  25.793  1.00  0.00    -0.237 OA
ATOM     71  O   UNL A   1      53.504  23.566  25.292  1.00  0.00    -0.744 OA
ENDBRANCH  67  68
ENDBRANCH  48  62
BRANCH  49  72
ATOM     72  C   UNL A   1      40.456  29.528  29.352  1.00  0.00    -0.014 A 
ATOM     73  C   UNL A   1      40.189  29.669  30.725  1.00  0.00     0.010 A 
ATOM     74  C   UNL A   1      39.438  29.819  28.424  1.00  0.00     0.010 A 
ATOM     75  C   UNL A   1      38.930  30.097  31.160  1.00  0.00     0.020 A 
ATOM     76  C   UNL A   1      38.189  30.272  28.852  1.00  0.00     0.020 A 
ATOM     77  C   UNL A   1      37.941  30.405  30.220  1.00  0.00     0.054 A 
BRANCH  77  78
ATOM     78  S   UNL A   1      36.348  31.049  30.803  1.00  0.00     0.124 S 
ATOM     79  O   UNL A   1      35.955  30.047  31.787  1.00  0.00    -0.237 OA
ATOM     80  O   UNL A   1      36.715  32.357  31.340  1.00  0.00    -0.237 OA
ATOM     81  O   UNL A   1      35.532  31.091  29.590  1.00  0.00    -0.744 OA
ENDBRANCH  77  78
ENDBRANCH  49  72
BRANCH  61  82
ATOM     82  C   UNL A   1      46.549  32.888  28.651  1.00  0.00    -0.014 A 
ATOM     83  C   UNL A   1      46.480  33.846  27.625  1.00  0.00     0.010 A 
ATOM     84  C   UNL A   1      46.960  33.288  29.936  1.00  0.00     0.010 A 
ATOM     85  C   UNL A   1      46.848  35.172  27.871  1.00  0.00     0.020 A 
ATOM     86  C   UNL A   1      47.300  34.618  30.193  1.00  0.00     0.020 A 
ATOM     87  C   UNL A   1      47.256  35.549  29.155  1.00  0.00     0.054 A 
BRANCH  87  88
ATOM     88  S   UNL A   1      47.692  37.283  29.458  1.00  0.00     0.124 S 
ATOM     89  O   UNL A   1      48.702  37.164  30.506  1.00  0.00    -0.237 OA
ATOM     90  O   UNL A   1      48.185  37.723  28.155  1.00  0.00    -0.237 OA
ATOM     91  O   UNL A   1      46.430  37.890  29.877  1.00  0.00    -0.744 OA
ENDBRANCH  87  88
ENDBRANCH  61  82
ENDBRANCH  35  36
ENDBRANCH  28  30
ENDBRANCH  27  28
ENDBRANCH  26  27
ENDBRANCH  25  26
ENDBRANCH  24  25
ENDBRANCH   1  24
TORSDOF 21
ENDMDL
MODEL 3
REMARK VINA RESULT:      -9.5      3.628      9.789
REMARK SMILES [NH3+][C@H]1C=C[C@@H](C(=O)NC2(CC(=O)OCCOCCOC(=O)c3ccc(-c4c5nc(c(-c6ccc(S(=O)(=O)[O-])cc6)c6ccc([nH]6)c(-c6ccc(S(=O)(=O)[O-])cc6)c6nc(c(-c7ccc(S(=O)(=O)[O-])cc7)c7ccc4[nH]7)C=C6)C=C5)cc3)CCC2)C1
REMARK SMILES IDX 15 1 14 2 13 3 11 4 12 5 10 6 9 7 82 8 84 9 83 10 8 11 6 12
REMARK SMILES IDX 7 13 5 15 2 16 3 17 85 18 4 19 1 20 16 24 17 25 18 26 19 27
REMARK SMILES IDX 20 28 21 29 22 30 23 31 81 32 24 33 80 34 25 35 26 36 27 37
REMARK SMILES IDX 74 38 28 39 79 40 73 41 75 42 29 43 78 44 72 45 71 46 30 48
REMARK SMILES IDX 60 49 41 50 59 51 42 52 45 53 58 54 76 55 43 56 44 57 57 59
REMARK SMILES IDX 77 60 46 61 31 62 32 63 40 64 33 65 39 66 34 67 35 68 36 69
REMARK SMILES IDX 37 70 38 71 61 72 62 73 70 74 63 75 69 76 64 77 65 78 66 79
REMARK SMILES IDX 67 80 68 81 47 82 48 83 56 84 49 85 55 86 50 87 51 88 52 89
REMARK SMILES IDX 53 90 54 91
REMARK H PARENT 8 14 1 21 1 22 1 23 75 47 45 58
REMARK Flexibility Score: inf
ROOT
ATOM      1  C   UNL A   1      31.966  28.859  23.380  1.00  0.00     0.202 C 
ENDROOT
BRANCH   1   2
ATOM      2  C   UNL A   1      31.736  27.356  23.572  1.00  0.00     0.261 C 
BRANCH   2   3
ATOM      3  O   UNL A   1      30.502  27.093  24.269  1.00  0.00    -0.463 OA
BRANCH   3   4
ATOM      4  C   UNL A   1      30.578  26.369  25.414  1.00  0.00     0.308 C 
ATOM      5  O   UNL A   1      30.828  26.824  26.523  1.00  0.00    -0.252 OA
BRANCH   4   6
ATOM      6  C   UNL A   1      30.358  24.900  25.164  1.00  0.00     0.151 C 
BRANCH   6   7
ATOM      7  C   UNL A   1      31.584  23.952  25.152  1.00  0.00     0.051 C 
ATOM      8  C   UNL A   1      31.163  22.621  25.805  1.00  0.00     0.029 C 
ATOM      9  C   UNL A   1      32.623  24.122  26.301  1.00  0.00     0.029 C 
ATOM     10  C   UNL A   1      31.826  23.087  27.114  1.00  0.00     0.005 C 
BRANCH   7  11
ATOM     11  N   UNL A   1      32.175  23.907  23.790  1.00  0.00    -0.350 N 
ATOM     12  C   UNL A   1      33.255  23.394  23.148  1.00  0.00     0.227 C 
ATOM     13  O   UNL A   1      33.360  23.802  21.976  1.00  0.00    -0.274 OA
ATOM     14  H   UNL A   1      31.607  24.404  23.157  1.00  0.00     0.164 HD
BRANCH  12  15
ATOM     15  C   UNL A   1      34.269  22.344  23.616  1.00  0.00     0.107 C 
ATOM     16  C   UNL A   1      35.392  21.326  25.546  1.00  0.00     0.205 C 
ATOM     17  C   UNL A   1      34.222  20.518  25.089  1.00  0.00     0.033 C 
ATOM     18  C   UNL A   1      35.282  22.625  24.722  1.00  0.00     0.087 C 
ATOM     19  C   UNL A   1      33.606  21.068  24.036  1.00  0.00    -0.012 C 
BRANCH  16  20
ATOM     20  N   UNL A   1      35.324  21.587  26.973  1.00  0.00    -0.352 N 
ATOM     21  H   UNL A   1      34.416  21.988  27.202  1.00  0.00     0.345 HD
ATOM     22  H   UNL A   1      36.061  22.243  27.234  1.00  0.00     0.345 HD
ATOM     23  H   UNL A   1      35.451  20.713  27.483  1.00  0.00     0.345 HD
ENDBRANCH  16  20
ENDBRANCH  12  15
ENDBRANCH   7  11
ENDBRANCH   6   7
ENDBRANCH   4   6
ENDBRANCH   3   4
ENDBRANCH   2   3
ENDBRANCH   1   2
BRANCH   1  24
ATOM     24  O   UNL A   1      32.972  29.431  24.218  1.00  0.00    -0.374 OA
BRANCH  24  25
ATOM     25  C   UNL A   1      32.561  29.750  25.547  1.00  0.00     0.202 C 
BRANCH  25  26
ATOM     26  C   UNL A   1      33.497  29.273  26.659  1.00  0.00     0.261 C 
BRANCH  26  27
ATOM     27  O   UNL A   1      33.521  30.228  27.735  1.00  0.00    -0.460 OA
BRANCH  27  28
ATOM     28  C   UNL A   1      34.561  31.089  27.692  1.00  0.00     0.338 C 
ATOM     29  O   UNL A   1      34.507  32.302  27.535  1.00  0.00    -0.246 OA
BRANCH  28  30
ATOM     30  C   UNL A   1      35.811  30.392  28.048  1.00  0.00     0.060 A 
ATOM     31  C   UNL A   1      35.841  29.749  29.291  1.00  0.00     0.016 A 
ATOM     32  C   UNL A   1      36.943  30.410  27.229  1.00  0.00     0.016 A 
ATOM     33  C   UNL A   1      37.027  29.196  29.759  1.00  0.00     0.010 A 
ATOM     34  C   UNL A   1      38.136  29.851  27.700  1.00  0.00     0.010 A 
ATOM     35  C   UNL A   1      38.192  29.291  28.990  1.00  0.00    -0.014 A 
BRANCH  35  36
ATOM     36  C   UNL A   1      39.492  28.970  29.626  1.00  0.00     0.031 A 
ATOM     37  C   UNL A   1      39.916  29.751  30.841  1.00  0.00     0.074 A 
ATOM     38  C   UNL A   1      40.244  27.952  29.174  1.00  0.00     0.049 A 
ATOM     39  N   UNL A   1      40.986  29.616  31.580  1.00  0.00    -0.248 NA
ATOM     40  C   UNL A   1      39.011  30.826  31.281  1.00  0.00     0.031 C 
ATOM     41  C   UNL A   1      39.914  27.102  28.030  1.00  0.00     0.029 A 
ATOM     42  N   UNL A   1      41.439  27.459  29.628  1.00  0.00    -0.354 N 
ATOM     43  C   UNL A   1      40.885  30.588  32.569  1.00  0.00     0.074 A 
ATOM     44  C   UNL A   1      39.674  31.333  32.309  1.00  0.00     0.031 C 
ATOM     45  C   UNL A   1      40.889  26.192  27.871  1.00  0.00     0.029 A 
ATOM     46  C   UNL A   1      41.922  26.413  28.881  1.00  0.00     0.049 A 
ATOM     47  H   UNL A   1      41.908  27.821  30.416  1.00  0.00     0.167 HD
ATOM     48  C   UNL A   1      41.721  30.832  33.608  1.00  0.00     0.031 A 
ATOM     49  C   UNL A   1      43.073  25.721  28.990  1.00  0.00     0.031 A 
ATOM     50  C   UNL A   1      42.937  30.102  33.846  1.00  0.00     0.049 A 
ATOM     51  C   UNL A   1      44.020  26.045  30.113  1.00  0.00     0.074 A 
ATOM     52  C   UNL A   1      43.856  30.266  34.866  1.00  0.00     0.029 A 
ATOM     53  N   UNL A   1      43.408  29.070  33.045  1.00  0.00    -0.354 N 
ATOM     54  N   UNL A   1      43.903  26.955  31.051  1.00  0.00    -0.248 NA
ATOM     55  C   UNL A   1      45.246  25.241  30.202  1.00  0.00     0.031 C 
ATOM     56  C   UNL A   1      44.912  29.373  34.649  1.00  0.00     0.029 A 
ATOM     57  C   UNL A   1      44.618  28.606  33.533  1.00  0.00     0.049 A 
ATOM     58  H   UNL A   1      42.950  28.721  32.247  1.00  0.00     0.167 HD
ATOM     59  C   UNL A   1      45.029  26.819  31.857  1.00  0.00     0.074 A 
ATOM     60  C   UNL A   1      45.806  25.728  31.301  1.00  0.00     0.031 C 
ATOM     61  C   UNL A   1      45.385  27.527  32.958  1.00  0.00     0.031 A 
BRANCH  48  62
ATOM     62  C   UNL A   1      41.357  31.967  34.530  1.00  0.00    -0.014 A 
ATOM     63  C   UNL A   1      40.635  31.743  35.718  1.00  0.00     0.010 A 
ATOM     64  C   UNL A   1      41.734  33.282  34.200  1.00  0.00     0.010 A 
ATOM     65  C   UNL A   1      40.244  32.817  36.524  1.00  0.00     0.020 A 
ATOM     66  C   UNL A   1      41.372  34.355  35.020  1.00  0.00     0.020 A 
ATOM     67  C   UNL A   1      40.607  34.117  36.164  1.00  0.00     0.054 A 
BRANCH  67  68
ATOM     68  S   UNL A   1      40.073  35.495  37.215  1.00  0.00     0.124 S 
ATOM     69  O   UNL A   1      39.786  36.533  36.228  1.00  0.00    -0.237 OA
ATOM     70  O   UNL A   1      38.908  34.943  37.902  1.00  0.00    -0.237 OA
ATOM     71  O   UNL A   1      41.231  35.751  38.068  1.00  0.00    -0.744 OA
ENDBRANCH  67  68
ENDBRANCH  48  62
BRANCH  49  72
ATOM     72  C   UNL A   1      43.385  24.665  27.990  1.00  0.00    -0.014 A 
ATOM     73  C   UNL A   1      44.147  24.952  26.844  1.00  0.00     0.010 A 
ATOM     74  C   UNL A   1      42.961  23.342  28.215  1.00  0.00     0.010 A 
ATOM     75  C   UNL A   1      44.481  23.934  25.944  1.00  0.00     0.020 A 
ATOM     76  C   UNL A   1      43.315  22.318  27.333  1.00  0.00     0.020 A 
ATOM     77  C   UNL A   1      44.071  22.622  26.200  1.00  0.00     0.054 A 
BRANCH  77  78
ATOM     78  S   UNL A   1      44.596  21.303  25.070  1.00  0.00     0.124 S 
ATOM     79  O   UNL A   1      43.581  20.282  25.300  1.00  0.00    -0.237 OA
ATOM     80  O   UNL A   1      44.546  21.965  23.768  1.00  0.00    -0.237 OA
ATOM     81  O   UNL A   1      45.941  20.968  25.536  1.00  0.00    -0.744 OA
ENDBRANCH  77  78
ENDBRANCH  49  72
BRANCH  61  82
ATOM     82  C   UNL A   1      46.661  27.131  33.654  1.00  0.00    -0.014 A 
ATOM     83  C   UNL A   1      46.675  26.133  34.644  1.00  0.00     0.010 A 
ATOM     84  C   UNL A   1      47.874  27.733  33.271  1.00  0.00     0.010 A 
ATOM     85  C   UNL A   1      47.874  25.769  35.263  1.00  0.00     0.020 A 
ATOM     86  C   UNL A   1      49.079  27.349  33.865  1.00  0.00     0.020 A 
ATOM     87  C   UNL A   1      49.069  26.380  34.868  1.00  0.00     0.054 A 
BRANCH  87  88
ATOM     88  S   UNL A   1      50.617  25.861  35.659  1.00  0.00     0.124 S 
ATOM     89  O   UNL A   1      50.221  24.617  36.314  1.00  0.00    -0.237 OA
ATOM     90  O   UNL A   1      51.524  25.714  34.524  1.00  0.00    -0.237 OA
ATOM     91  O   UNL A   1      50.932  26.966  36.562  1.00  0.00    -0.744 OA
ENDBRANCH  87  88
ENDBRANCH  61  82
ENDBRANCH  35  36
ENDBRANCH  28  30
ENDBRANCH  27  28
ENDBRANCH  26  27
ENDBRANCH  25  26
ENDBRANCH  24  25
ENDBRANCH   1  24
TORSDOF 21
ENDMDL
