MODEL 1
REMARK VINA RESULT:     -10.3      0.000      0.000
REMARK SMILES Cc1cc(C(=O)Nc2ccn(C)n2)sc1/C=C/C(=O)OCCOCCOC(=O)c1ccc(-c2c3nc(c(-c4ccc(S(=O)(=O)[O-])cc4)c4ccc([nH]4)c(-c4ccc(S(=O)(=O)[O-])cc4)c4nc(c(-c5ccc(S(=O)(=O)[O-])cc5)c5ccc2[nH]5)C=C4)C=C3)cc1
REMARK SMILES IDX 23 1 22 2 21 3 20 4 18 5 19 6 17 7 16 8 15 9 1 10 2 11 3 12
REMARK SMILES IDX 4 13 14 14 5 15 6 16 7 17 8 19 9 20 13 21 10 22 11 23 12 24
REMARK SMILES IDX 24 25 25 26 26 27 27 28 28 29 29 30 30 31 88 32 31 33 87 34
REMARK SMILES IDX 32 35 33 36 34 37 81 38 35 39 86 40 80 41 82 42 36 43 85 44
REMARK SMILES IDX 79 45 78 46 37 48 67 49 48 50 66 51 49 52 52 53 65 54 83 55
REMARK SMILES IDX 50 56 51 57 64 59 84 60 53 61 38 62 39 63 47 64 40 65 46 66
REMARK SMILES IDX 41 67 42 68 43 69 44 70 45 71 68 72 69 73 77 74 70 75 76 76
REMARK SMILES IDX 71 77 72 78 73 79 74 80 75 81 54 82 55 83 63 84 56 85 62 86
REMARK SMILES IDX 57 87 58 88 59 89 60 90 61 91
REMARK H PARENT 7 18 82 47 52 58
REMARK Flexibility Score: inf
ROOT
ATOM      1  O   UNL A   1      40.315  21.425  26.809  1.00  0.00    -0.374 OA
ENDROOT
BRANCH   1   2
ATOM      2  C   UNL A   1      39.135  21.345  26.010  1.00  0.00     0.202 C 
BRANCH   2   3
ATOM      3  C   UNL A   1      38.238  22.586  26.030  1.00  0.00     0.261 C 
BRANCH   3   4
ATOM      4  O   UNL A   1      36.871  22.261  25.717  1.00  0.00    -0.460 OA
BRANCH   4   5
ATOM      5  C   UNL A   1      36.504  22.521  24.443  1.00  0.00     0.330 C 
ATOM      6  O   UNL A   1      37.089  22.171  23.427  1.00  0.00    -0.247 OA
BRANCH   5   7
ATOM      7  C   UNL A   1      35.199  23.204  24.358  1.00  0.00     0.095 C 
ATOM      8  C   UNL A   1      34.699  23.892  23.317  1.00  0.00     0.027 C 
BRANCH   8   9
ATOM      9  C   UNL A   1      33.429  24.564  23.380  1.00  0.00     0.031 A 
ATOM     10  C   UNL A   1      31.763  22.595  23.517  1.00  0.00     0.046 C 
ATOM     11  C   UNL A   1      32.135  24.039  23.387  1.00  0.00    -0.032 A 
ATOM     12  C   UNL A   1      31.143  25.076  23.237  1.00  0.00     0.029 A 
ATOM     13  C   UNL A   1      31.675  26.349  23.179  1.00  0.00     0.093 A 
ATOM     14  S   UNL A   1      33.331  26.276  23.576  1.00  0.00    -0.130 S 
BRANCH  13  15
ATOM     15  C   UNL A   1      30.952  27.616  23.054  1.00  0.00     0.266 C 
ATOM     16  O   UNL A   1      30.434  27.955  21.986  1.00  0.00    -0.268 OA
ATOM     17  N   UNL A   1      30.733  28.426  24.146  1.00  0.00    -0.304 N 
ATOM     18  H   UNL A   1      29.933  28.997  24.093  1.00  0.00     0.171 HD
BRANCH  17  19
ATOM     19  C   UNL A   1      31.467  28.554  25.298  1.00  0.00     0.154 A 
ATOM     20  C   UNL A   1      31.409  27.789  26.487  1.00  0.00     0.068 A 
ATOM     21  N   UNL A   1      32.408  29.498  25.377  1.00  0.00    -0.155 NA
ATOM     22  C   UNL A   1      32.263  28.420  27.361  1.00  0.00     0.110 A 
ATOM     23  N   UNL A   1      32.758  29.490  26.678  1.00  0.00    -0.274 N 
ATOM     24  C   UNL A   1      33.499  30.601  27.223  1.00  0.00     0.173 C 
ENDBRANCH  17  19
ENDBRANCH  13  15
ENDBRANCH   8   9
ENDBRANCH   5   7
ENDBRANCH   4   5
ENDBRANCH   3   4
ENDBRANCH   2   3
ENDBRANCH   1   2
BRANCH   1  25
ATOM     25  C   UNL A   1      41.520  21.788  26.131  1.00  0.00     0.202 C 
BRANCH  25  26
ATOM     26  C   UNL A   1      42.085  23.172  26.478  1.00  0.00     0.261 C 
BRANCH  26  27
ATOM     27  O   UNL A   1      41.117  24.215  26.257  1.00  0.00    -0.460 OA
BRANCH  27  28
ATOM     28  C   UNL A   1      41.638  25.450  26.063  1.00  0.00     0.338 C 
ATOM     29  O   UNL A   1      41.954  25.957  24.995  1.00  0.00    -0.246 OA
BRANCH  28  30
ATOM     30  C   UNL A   1      41.606  26.212  27.328  1.00  0.00     0.060 A 
ATOM     31  C   UNL A   1      40.521  25.995  28.187  1.00  0.00     0.016 A 
ATOM     32  C   UNL A   1      42.584  27.157  27.646  1.00  0.00     0.016 A 
ATOM     33  C   UNL A   1      40.385  26.757  29.346  1.00  0.00     0.010 A 
ATOM     34  C   UNL A   1      42.441  27.926  28.807  1.00  0.00     0.010 A 
ATOM     35  C   UNL A   1      41.324  27.753  29.644  1.00  0.00    -0.014 A 
BRANCH  35  36
ATOM     36  C   UNL A   1      41.064  28.699  30.756  1.00  0.00     0.031 A 
ATOM     37  C   UNL A   1      41.911  28.619  31.999  1.00  0.00     0.074 A 
ATOM     38  C   UNL A   1      40.102  29.634  30.656  1.00  0.00     0.049 A 
ATOM     39  N   UNL A   1      41.841  29.328  33.095  1.00  0.00    -0.248 NA
ATOM     40  C   UNL A   1      42.978  27.604  32.003  1.00  0.00     0.031 C 
ATOM     41  C   UNL A   1      39.242  29.841  29.491  1.00  0.00     0.029 A 
ATOM     42  N   UNL A   1      39.688  30.585  31.554  1.00  0.00    -0.354 N 
ATOM     43  C   UNL A   1      42.847  28.843  33.923  1.00  0.00     0.074 A 
ATOM     44  C   UNL A   1      43.494  27.760  33.213  1.00  0.00     0.031 C 
ATOM     45  C   UNL A   1      38.395  30.853  29.749  1.00  0.00     0.029 A 
ATOM     46  C   UNL A   1      38.632  31.343  31.107  1.00  0.00     0.049 A 
ATOM     47  H   UNL A   1      40.107  30.713  32.436  1.00  0.00     0.167 HD
ATOM     48  C   UNL A   1      43.206  29.264  35.159  1.00  0.00     0.031 A 
ATOM     49  C   UNL A   1      37.923  32.308  31.726  1.00  0.00     0.031 A 
ATOM     50  C   UNL A   1      42.553  30.332  35.871  1.00  0.00     0.049 A 
ATOM     51  C   UNL A   1      38.295  32.713  33.129  1.00  0.00     0.074 A 
ATOM     52  C   UNL A   1      42.851  30.839  37.123  1.00  0.00     0.029 A 
ATOM     53  N   UNL A   1      41.467  31.050  35.396  1.00  0.00    -0.354 N 
ATOM     54  N   UNL A   1      39.263  32.259  33.889  1.00  0.00    -0.248 NA
ATOM     55  C   UNL A   1      37.481  33.765  33.754  1.00  0.00     0.031 C 
ATOM     56  C   UNL A   1      41.911  31.829  37.428  1.00  0.00     0.029 A 
ATOM     57  C   UNL A   1      41.065  31.980  36.341  1.00  0.00     0.049 A 
ATOM     58  H   UNL A   1      41.043  30.920  34.517  1.00  0.00     0.167 HD
ATOM     59  C   UNL A   1      39.191  32.990  35.070  1.00  0.00     0.074 A 
ATOM     60  C   UNL A   1      38.093  33.923  34.920  1.00  0.00     0.031 C 
ATOM     61  C   UNL A   1      39.968  32.900  36.179  1.00  0.00     0.031 A 
BRANCH  48  62
ATOM     62  C   UNL A   1      44.340  28.541  35.836  1.00  0.00    -0.014 A 
ATOM     63  C   UNL A   1      44.100  27.457  36.699  1.00  0.00     0.010 A 
ATOM     64  C   UNL A   1      45.667  28.933  35.581  1.00  0.00     0.010 A 
ATOM     65  C   UNL A   1      45.165  26.803  37.325  1.00  0.00     0.020 A 
ATOM     66  C   UNL A   1      46.736  28.265  36.186  1.00  0.00     0.020 A 
ATOM     67  C   UNL A   1      46.476  27.215  37.068  1.00  0.00     0.054 A 
BRANCH  67  68
ATOM     68  S   UNL A   1      47.840  26.340  37.884  1.00  0.00     0.124 S 
ATOM     69  O   UNL A   1      47.628  26.693  39.285  1.00  0.00    -0.237 OA
ATOM     70  O   UNL A   1      47.578  24.945  37.541  1.00  0.00    -0.237 OA
ATOM     71  O   UNL A   1      49.036  26.915  37.272  1.00  0.00    -0.744 OA
ENDBRANCH  67  68
ENDBRANCH  48  62
BRANCH  49  72
ATOM     72  C   UNL A   1      36.776  32.948  31.028  1.00  0.00    -0.014 A 
ATOM     73  C   UNL A   1      35.454  32.680  31.423  1.00  0.00     0.010 A 
ATOM     74  C   UNL A   1      37.004  33.837  29.961  1.00  0.00     0.010 A 
ATOM     75  C   UNL A   1      34.380  33.281  30.757  1.00  0.00     0.020 A 
ATOM     76  C   UNL A   1      35.936  34.459  29.310  1.00  0.00     0.020 A 
ATOM     77  C   UNL A   1      34.630  34.169  29.706  1.00  0.00     0.054 A 
BRANCH  77  78
ATOM     78  S   UNL A   1      33.225  34.982  28.894  1.00  0.00     0.124 S 
ATOM     79  O   UNL A   1      32.791  33.963  27.945  1.00  0.00    -0.237 OA
ATOM     80  O   UNL A   1      32.319  35.236  30.011  1.00  0.00    -0.237 OA
ATOM     81  O   UNL A   1      33.821  36.179  28.302  1.00  0.00    -0.744 OA
ENDBRANCH  77  78
ENDBRANCH  49  72
BRANCH  61  82
ATOM     82  C   UNL A   1      39.684  33.855  37.308  1.00  0.00    -0.014 A 
ATOM     83  C   UNL A   1      38.984  33.442  38.456  1.00  0.00     0.010 A 
ATOM     84  C   UNL A   1      40.176  35.172  37.242  1.00  0.00     0.010 A 
ATOM     85  C   UNL A   1      38.756  34.337  39.504  1.00  0.00     0.020 A 
ATOM     86  C   UNL A   1      39.973  36.062  38.301  1.00  0.00     0.020 A 
ATOM     87  C   UNL A   1      39.252  35.642  39.420  1.00  0.00     0.054 A 
BRANCH  87  88
ATOM     88  S   UNL A   1      38.981  36.773  40.813  1.00  0.00     0.124 S 
ATOM     89  O   UNL A   1      38.433  37.950  40.146  1.00  0.00    -0.237 OA
ATOM     90  O   UNL A   1      38.043  36.031  41.651  1.00  0.00    -0.237 OA
ATOM     91  O   UNL A   1      40.316  36.946  41.384  1.00  0.00    -0.744 OA
ENDBRANCH  87  88
ENDBRANCH  61  82
ENDBRANCH  35  36
ENDBRANCH  28  30
ENDBRANCH  27  28
ENDBRANCH  26  27
ENDBRANCH  25  26
ENDBRANCH   1  25
TORSDOF 20
ENDMDL
MODEL 2
REMARK VINA RESULT:     -10.3      5.196      9.716
REMARK SMILES Cc1cc(C(=O)Nc2ccn(C)n2)sc1/C=C/C(=O)OCCOCCOC(=O)c1ccc(-c2c3nc(c(-c4ccc(S(=O)(=O)[O-])cc4)c4ccc([nH]4)c(-c4ccc(S(=O)(=O)[O-])cc4)c4nc(c(-c5ccc(S(=O)(=O)[O-])cc5)c5ccc2[nH]5)C=C4)C=C3)cc1
REMARK SMILES IDX 23 1 22 2 21 3 20 4 18 5 19 6 17 7 16 8 15 9 1 10 2 11 3 12
REMARK SMILES IDX 4 13 14 14 5 15 6 16 7 17 8 19 9 20 13 21 10 22 11 23 12 24
REMARK SMILES IDX 24 25 25 26 26 27 27 28 28 29 29 30 30 31 88 32 31 33 87 34
REMARK SMILES IDX 32 35 33 36 34 37 81 38 35 39 86 40 80 41 82 42 36 43 85 44
REMARK SMILES IDX 79 45 78 46 37 48 67 49 48 50 66 51 49 52 52 53 65 54 83 55
REMARK SMILES IDX 50 56 51 57 64 59 84 60 53 61 38 62 39 63 47 64 40 65 46 66
REMARK SMILES IDX 41 67 42 68 43 69 44 70 45 71 68 72 69 73 77 74 70 75 76 76
REMARK SMILES IDX 71 77 72 78 73 79 74 80 75 81 54 82 55 83 63 84 56 85 62 86
REMARK SMILES IDX 57 87 58 88 59 89 60 90 61 91
REMARK H PARENT 7 18 82 47 52 58
REMARK Flexibility Score: inf
ROOT
ATOM      1  O   UNL A   1      35.451  21.393  26.438  1.00  0.00    -0.374 OA
ENDROOT
BRANCH   1   2
ATOM      2  C   UNL A   1      34.046  21.559  26.627  1.00  0.00     0.202 C 
BRANCH   2   3
ATOM      3  C   UNL A   1      33.283  22.139  25.434  1.00  0.00     0.261 C 
BRANCH   3   4
ATOM      4  O   UNL A   1      31.911  21.705  25.416  1.00  0.00    -0.460 OA
BRANCH   4   5
ATOM      5  C   UNL A   1      31.016  22.635  25.819  1.00  0.00     0.330 C 
ATOM      6  O   UNL A   1      30.038  22.450  26.530  1.00  0.00    -0.247 OA
BRANCH   5   7
ATOM      7  C   UNL A   1      31.394  23.999  25.406  1.00  0.00     0.095 C 
ATOM      8  C   UNL A   1      31.327  25.126  26.136  1.00  0.00     0.027 C 
BRANCH   8   9
ATOM      9  C   UNL A   1      31.675  26.413  25.596  1.00  0.00     0.031 A 
ATOM     10  C   UNL A   1      31.444  27.961  27.650  1.00  0.00     0.046 C 
ATOM     11  C   UNL A   1      31.661  27.673  26.198  1.00  0.00    -0.032 A 
ATOM     12  C   UNL A   1      31.874  28.723  25.230  1.00  0.00     0.029 A 
ATOM     13  C   UNL A   1      32.101  28.259  23.950  1.00  0.00     0.093 A 
ATOM     14  S   UNL A   1      32.315  26.570  24.001  1.00  0.00    -0.130 S 
BRANCH  13  15
ATOM     15  C   UNL A   1      32.373  29.051  22.748  1.00  0.00     0.266 C 
ATOM     16  O   UNL A   1      33.528  29.286  22.384  1.00  0.00    -0.268 OA
ATOM     17  N   UNL A   1      31.352  29.474  21.924  1.00  0.00    -0.304 N 
ATOM     18  H   UNL A   1      31.603  29.612  20.982  1.00  0.00     0.171 HD
BRANCH  17  19
ATOM     19  C   UNL A   1      30.039  29.732  22.224  1.00  0.00     0.154 A 
ATOM     20  C   UNL A   1      29.411  30.967  22.513  1.00  0.00     0.068 A 
ATOM     21  N   UNL A   1      29.160  28.727  22.244  1.00  0.00    -0.155 NA
ATOM     22  C   UNL A   1      28.123  30.640  22.865  1.00  0.00     0.110 A 
ATOM     23  N   UNL A   1      28.056  29.282  22.781  1.00  0.00    -0.274 N 
ATOM     24  C   UNL A   1      27.004  28.431  23.283  1.00  0.00     0.173 C 
ENDBRANCH  17  19
ENDBRANCH  13  15
ENDBRANCH   8   9
ENDBRANCH   5   7
ENDBRANCH   4   5
ENDBRANCH   3   4
ENDBRANCH   2   3
ENDBRANCH   1   2
BRANCH   1  25
ATOM     25  C   UNL A   1      35.891  21.154  25.099  1.00  0.00     0.202 C 
BRANCH  25  26
ATOM     26  C   UNL A   1      37.368  21.463  24.820  1.00  0.00     0.261 C 
BRANCH  26  27
ATOM     27  O   UNL A   1      37.862  22.517  25.668  1.00  0.00    -0.460 OA
BRANCH  27  28
ATOM     28  C   UNL A   1      39.082  22.291  26.211  1.00  0.00     0.338 C 
ATOM     29  O   UNL A   1      39.756  21.275  26.111  1.00  0.00    -0.246 OA
BRANCH  28  30
ATOM     30  C   UNL A   1      39.602  23.536  26.811  1.00  0.00     0.060 A 
ATOM     31  C   UNL A   1      39.451  24.720  26.077  1.00  0.00     0.016 A 
ATOM     32  C   UNL A   1      40.272  23.543  28.037  1.00  0.00     0.016 A 
ATOM     33  C   UNL A   1      40.010  25.908  26.546  1.00  0.00     0.010 A 
ATOM     34  C   UNL A   1      40.838  24.735  28.501  1.00  0.00     0.010 A 
ATOM     35  C   UNL A   1      40.739  25.915  27.742  1.00  0.00    -0.014 A 
BRANCH  35  36
ATOM     36  C   UNL A   1      41.508  27.124  28.126  1.00  0.00     0.031 A 
ATOM     37  C   UNL A   1      40.773  28.308  28.697  1.00  0.00     0.074 A 
ATOM     38  C   UNL A   1      42.846  27.162  27.993  1.00  0.00     0.049 A 
ATOM     39  N   UNL A   1      41.242  29.469  29.075  1.00  0.00    -0.248 NA
ATOM     40  C   UNL A   1      39.318  28.161  28.862  1.00  0.00     0.031 C 
ATOM     41  C   UNL A   1      43.678  26.068  27.492  1.00  0.00     0.029 A 
ATOM     42  N   UNL A   1      43.740  28.166  28.267  1.00  0.00    -0.354 N 
ATOM     43  C   UNL A   1      40.141  30.194  29.517  1.00  0.00     0.074 A 
ATOM     44  C   UNL A   1      38.978  29.353  29.331  1.00  0.00     0.031 C 
ATOM     45  C   UNL A   1      44.962  26.464  27.488  1.00  0.00     0.029 A 
ATOM     46  C   UNL A   1      45.041  27.847  27.955  1.00  0.00     0.049 A 
ATOM     47  H   UNL A   1      43.476  29.033  28.651  1.00  0.00     0.167 HD
ATOM     48  C   UNL A   1      40.101  31.445  30.035  1.00  0.00     0.031 A 
ATOM     49  C   UNL A   1      46.163  28.590  28.018  1.00  0.00     0.031 A 
ATOM     50  C   UNL A   1      41.256  32.287  30.205  1.00  0.00     0.049 A 
ATOM     51  C   UNL A   1      46.085  30.005  28.532  1.00  0.00     0.074 A 
ATOM     52  C   UNL A   1      41.319  33.565  30.732  1.00  0.00     0.029 A 
ATOM     53  N   UNL A   1      42.549  31.939  29.845  1.00  0.00    -0.354 N 
ATOM     54  N   UNL A   1      45.039  30.667  28.967  1.00  0.00    -0.248 NA
ATOM     55  C   UNL A   1      47.341  30.767  28.572  1.00  0.00     0.031 C 
ATOM     56  C   UNL A   1      42.642  34.009  30.642  1.00  0.00     0.029 A 
ATOM     57  C   UNL A   1      43.413  32.986  30.114  1.00  0.00     0.049 A 
ATOM     58  H   UNL A   1      42.814  31.074  29.456  1.00  0.00     0.167 HD
ATOM     59  C   UNL A   1      45.516  31.915  29.356  1.00  0.00     0.074 A 
ATOM     60  C   UNL A   1      46.945  31.910  29.117  1.00  0.00     0.031 C 
ATOM     61  C   UNL A   1      44.834  32.969  29.869  1.00  0.00     0.031 A 
BRANCH  48  62
ATOM     62  C   UNL A   1      38.753  31.991  30.424  1.00  0.00    -0.014 A 
ATOM     63  C   UNL A   1      38.224  31.776  31.710  1.00  0.00     0.010 A 
ATOM     64  C   UNL A   1      38.020  32.759  29.501  1.00  0.00     0.010 A 
ATOM     65  C   UNL A   1      36.967  32.285  32.050  1.00  0.00     0.020 A 
ATOM     66  C   UNL A   1      36.774  33.290  29.847  1.00  0.00     0.020 A 
ATOM     67  C   UNL A   1      36.248  33.035  31.115  1.00  0.00     0.054 A 
BRANCH  67  68
ATOM     68  S   UNL A   1      34.626  33.694  31.587  1.00  0.00     0.124 S 
ATOM     69  O   UNL A   1      34.092  32.614  32.413  1.00  0.00    -0.237 OA
ATOM     70  O   UNL A   1      34.973  34.919  32.304  1.00  0.00    -0.237 OA
ATOM     71  O   UNL A   1      33.947  33.895  30.309  1.00  0.00    -0.744 OA
ENDBRANCH  67  68
ENDBRANCH  48  62
BRANCH  49  72
ATOM     72  C   UNL A   1      47.459  28.016  27.566  1.00  0.00    -0.014 A 
ATOM     73  C   UNL A   1      48.281  27.305  28.457  1.00  0.00     0.010 A 
ATOM     74  C   UNL A   1      47.875  28.176  26.231  1.00  0.00     0.010 A 
ATOM     75  C   UNL A   1      49.501  26.775  28.026  1.00  0.00     0.020 A 
ATOM     76  C   UNL A   1      49.080  27.625  25.789  1.00  0.00     0.020 A 
ATOM     77  C   UNL A   1      49.891  26.936  26.692  1.00  0.00     0.054 A 
BRANCH  77  78
ATOM     78  S   UNL A   1      51.449  26.189  26.139  1.00  0.00     0.124 S 
ATOM     79  O   UNL A   1      51.431  24.903  26.828  1.00  0.00    -0.237 OA
ATOM     80  O   UNL A   1      51.276  26.135  24.690  1.00  0.00    -0.237 OA
ATOM     81  O   UNL A   1      52.463  27.135  26.602  1.00  0.00    -0.744 OA
ENDBRANCH  77  78
ENDBRANCH  49  72
BRANCH  61  82
ATOM     82  C   UNL A   1      45.622  34.196  30.240  1.00  0.00    -0.014 A 
ATOM     83  C   UNL A   1      45.873  35.215  29.304  1.00  0.00     0.010 A 
ATOM     84  C   UNL A   1      46.072  34.357  31.565  1.00  0.00     0.010 A 
ATOM     85  C   UNL A   1      46.583  36.359  29.678  1.00  0.00     0.020 A 
ATOM     86  C   UNL A   1      46.759  35.511  31.949  1.00  0.00     0.020 A 
ATOM     87  C   UNL A   1      47.022  36.500  30.999  1.00  0.00     0.054 A 
BRANCH  87  88
ATOM     88  S   UNL A   1      47.904  38.013  31.471  1.00  0.00     0.124 S 
ATOM     89  O   UNL A   1      49.268  37.526  31.652  1.00  0.00    -0.237 OA
ATOM     90  O   UNL A   1      47.694  38.882  30.315  1.00  0.00    -0.237 OA
ATOM     91  O   UNL A   1      47.228  38.441  32.694  1.00  0.00    -0.744 OA
ENDBRANCH  87  88
ENDBRANCH  61  82
ENDBRANCH  35  36
ENDBRANCH  28  30
ENDBRANCH  27  28
ENDBRANCH  26  27
ENDBRANCH  25  26
ENDBRANCH   1  25
TORSDOF 20
ENDMDL
MODEL 3
REMARK VINA RESULT:     -10.0      5.115      6.739
REMARK SMILES Cc1cc(C(=O)Nc2ccn(C)n2)sc1/C=C/C(=O)OCCOCCOC(=O)c1ccc(-c2c3nc(c(-c4ccc(S(=O)(=O)[O-])cc4)c4ccc([nH]4)c(-c4ccc(S(=O)(=O)[O-])cc4)c4nc(c(-c5ccc(S(=O)(=O)[O-])cc5)c5ccc2[nH]5)C=C4)C=C3)cc1
REMARK SMILES IDX 23 1 22 2 21 3 20 4 18 5 19 6 17 7 16 8 15 9 1 10 2 11 3 12
REMARK SMILES IDX 4 13 14 14 5 15 6 16 7 17 8 19 9 20 13 21 10 22 11 23 12 24
REMARK SMILES IDX 24 25 25 26 26 27 27 28 28 29 29 30 30 31 88 32 31 33 87 34
REMARK SMILES IDX 32 35 33 36 34 37 81 38 35 39 86 40 80 41 82 42 36 43 85 44
REMARK SMILES IDX 79 45 78 46 37 48 67 49 48 50 66 51 49 52 52 53 65 54 83 55
REMARK SMILES IDX 50 56 51 57 64 59 84 60 53 61 38 62 39 63 47 64 40 65 46 66
REMARK SMILES IDX 41 67 42 68 43 69 44 70 45 71 68 72 69 73 77 74 70 75 76 76
REMARK SMILES IDX 71 77 72 78 73 79 74 80 75 81 54 82 55 83 63 84 56 85 62 86
REMARK SMILES IDX 57 87 58 88 59 89 60 90 61 91
REMARK H PARENT 7 18 82 47 52 58
REMARK Flexibility Score: inf
ROOT
ATOM      1  O   UNL A   1      34.895  21.334  26.525  1.00  0.00    -0.374 OA
ENDROOT
BRANCH   1   2
ATOM      2  C   UNL A   1      33.672  22.042  26.723  1.00  0.00     0.202 C 
BRANCH   2   3
ATOM      3  C   UNL A   1      32.774  22.168  25.490  1.00  0.00     0.261 C 
BRANCH   3   4
ATOM      4  O   UNL A   1      31.383  22.004  25.824  1.00  0.00    -0.460 OA
BRANCH   4   5
ATOM      5  C   UNL A   1      30.836  23.042  26.495  1.00  0.00     0.330 C 
ATOM      6  O   UNL A   1      30.184  22.983  27.529  1.00  0.00    -0.247 OA
BRANCH   5   7
ATOM      7  C   UNL A   1      31.202  24.348  25.916  1.00  0.00     0.095 C 
ATOM      8  C   UNL A   1      31.462  25.493  26.571  1.00  0.00     0.027 C 
BRANCH   8   9
ATOM      9  C   UNL A   1      31.755  26.722  25.883  1.00  0.00     0.031 A 
ATOM     10  C   UNL A   1      31.511  28.482  27.756  1.00  0.00     0.046 C 
ATOM     11  C   UNL A   1      31.709  28.040  26.340  1.00  0.00    -0.032 A 
ATOM     12  C   UNL A   1      31.867  28.981  25.257  1.00  0.00     0.029 A 
ATOM     13  C   UNL A   1      32.086  28.384  24.032  1.00  0.00     0.093 A 
ATOM     14  S   UNL A   1      32.359  26.719  24.266  1.00  0.00    -0.130 S 
BRANCH  13  15
ATOM     15  C   UNL A   1      32.307  29.044  22.743  1.00  0.00     0.266 C 
ATOM     16  O   UNL A   1      33.447  29.238  22.310  1.00  0.00    -0.268 OA
ATOM     17  N   UNL A   1      31.254  29.380  21.921  1.00  0.00    -0.304 N 
ATOM     18  H   UNL A   1      31.466  29.417  20.960  1.00  0.00     0.171 HD
BRANCH  17  19
ATOM     19  C   UNL A   1      29.953  29.669  22.244  1.00  0.00     0.154 A 
ATOM     20  C   UNL A   1      29.362  30.918  22.552  1.00  0.00     0.068 A 
ATOM     21  N   UNL A   1      29.047  28.688  22.271  1.00  0.00    -0.155 NA
ATOM     22  C   UNL A   1      28.072  30.622  22.923  1.00  0.00     0.110 A 
ATOM     23  N   UNL A   1      27.968  29.267  22.830  1.00  0.00    -0.274 N 
ATOM     24  C   UNL A   1      26.901  28.440  23.342  1.00  0.00     0.173 C 
ENDBRANCH  17  19
ENDBRANCH  13  15
ENDBRANCH   8   9
ENDBRANCH   5   7
ENDBRANCH   4   5
ENDBRANCH   3   4
ENDBRANCH   2   3
ENDBRANCH   1   2
BRANCH   1  25
ATOM     25  C   UNL A   1      35.573  21.566  25.288  1.00  0.00     0.202 C 
BRANCH  25  26
ATOM     26  C   UNL A   1      36.433  22.835  25.230  1.00  0.00     0.261 C 
BRANCH  26  27
ATOM     27  O   UNL A   1      37.250  22.980  26.406  1.00  0.00    -0.460 OA
BRANCH  27  28
ATOM     28  C   UNL A   1      38.550  22.635  26.248  1.00  0.00     0.338 C 
ATOM     29  O   UNL A   1      38.983  21.605  25.747  1.00  0.00    -0.246 OA
BRANCH  28  30
ATOM     30  C   UNL A   1      39.420  23.775  26.599  1.00  0.00     0.060 A 
ATOM     31  C   UNL A   1      39.838  23.884  27.932  1.00  0.00     0.016 A 
ATOM     32  C   UNL A   1      39.777  24.749  25.664  1.00  0.00     0.016 A 
ATOM     33  C   UNL A   1      40.576  24.992  28.344  1.00  0.00     0.010 A 
ATOM     34  C   UNL A   1      40.512  25.864  26.082  1.00  0.00     0.010 A 
ATOM     35  C   UNL A   1      40.886  26.007  27.430  1.00  0.00    -0.014 A 
BRANCH  35  36
ATOM     36  C   UNL A   1      41.482  27.275  27.915  1.00  0.00     0.031 A 
ATOM     37  C   UNL A   1      42.975  27.457  27.843  1.00  0.00     0.074 A 
ATOM     38  C   UNL A   1      40.705  28.264  28.393  1.00  0.00     0.049 A 
ATOM     39  N   UNL A   1      43.704  28.471  28.231  1.00  0.00    -0.248 NA
ATOM     40  C   UNL A   1      43.745  26.349  27.254  1.00  0.00     0.031 C 
ATOM     41  C   UNL A   1      39.245  28.227  28.478  1.00  0.00     0.029 A 
ATOM     42  N   UNL A   1      41.041  29.495  28.900  1.00  0.00    -0.354 N 
ATOM     43  C   UNL A   1      45.019  28.123  27.941  1.00  0.00     0.074 A 
ATOM     44  C   UNL A   1      44.988  26.792  27.372  1.00  0.00     0.031 C 
ATOM     45  C   UNL A   1      38.810  29.381  29.013  1.00  0.00     0.029 A 
ATOM     46  C   UNL A   1      39.960  30.224  29.337  1.00  0.00     0.049 A 
ATOM     47  H   UNL A   1      41.967  29.824  28.946  1.00  0.00     0.167 HD
ATOM     48  C   UNL A   1      46.149  28.845  28.125  1.00  0.00     0.031 A 
ATOM     49  C   UNL A   1      39.905  31.424  29.948  1.00  0.00     0.031 A 
ATOM     50  C   UNL A   1      46.181  30.162  28.705  1.00  0.00     0.049 A 
ATOM     51  C   UNL A   1      41.182  32.181  30.207  1.00  0.00     0.074 A 
ATOM     52  C   UNL A   1      47.276  30.980  28.923  1.00  0.00     0.029 A 
ATOM     53  N   UNL A   1      45.069  30.851  29.166  1.00  0.00    -0.354 N 
ATOM     54  N   UNL A   1      42.414  31.846  29.907  1.00  0.00    -0.248 NA
ATOM     55  C   UNL A   1      41.058  33.481  30.882  1.00  0.00     0.031 C 
ATOM     56  C   UNL A   1      46.832  32.142  29.564  1.00  0.00     0.029 A 
ATOM     57  C   UNL A   1      45.454  32.073  29.691  1.00  0.00     0.049 A 
ATOM     58  H   UNL A   1      44.143  30.521  29.125  1.00  0.00     0.167 HD
ATOM     59  C   UNL A   1      43.209  32.907  30.331  1.00  0.00     0.074 A 
ATOM     60  C   UNL A   1      42.317  33.898  30.899  1.00  0.00     0.031 C 
ATOM     61  C   UNL A   1      44.555  33.049  30.255  1.00  0.00     0.031 A 
BRANCH  48  62
ATOM     62  C   UNL A   1      47.453  28.208  27.725  1.00  0.00    -0.014 A 
ATOM     63  C   UNL A   1      48.037  28.468  26.472  1.00  0.00     0.010 A 
ATOM     64  C   UNL A   1      48.120  27.361  28.629  1.00  0.00     0.010 A 
ATOM     65  C   UNL A   1      49.244  27.861  26.115  1.00  0.00     0.020 A 
ATOM     66  C   UNL A   1      49.341  26.772  28.285  1.00  0.00     0.020 A 
ATOM     67  C   UNL A   1      49.886  27.013  27.022  1.00  0.00     0.054 A 
BRANCH  67  68
ATOM     68  S   UNL A   1      51.458  26.248  26.538  1.00  0.00     0.124 S 
ATOM     69  O   UNL A   1      51.404  24.974  27.250  1.00  0.00    -0.237 OA
ATOM     70  O   UNL A   1      51.339  26.161  25.085  1.00  0.00    -0.237 OA
ATOM     71  O   UNL A   1      52.465  27.189  27.023  1.00  0.00    -0.744 OA
ENDBRANCH  67  68
ENDBRANCH  48  62
BRANCH  49  72
ATOM     72  C   UNL A   1      38.592  31.979  30.373  1.00  0.00    -0.014 A 
ATOM     73  C   UNL A   1      38.107  31.764  31.674  1.00  0.00     0.010 A 
ATOM     74  C   UNL A   1      37.818  32.734  29.471  1.00  0.00     0.010 A 
ATOM     75  C   UNL A   1      36.868  32.283  32.064  1.00  0.00     0.020 A 
ATOM     76  C   UNL A   1      36.592  33.276  29.864  1.00  0.00     0.020 A 
ATOM     77  C   UNL A   1      36.120  33.039  31.156  1.00  0.00     0.054 A 
BRANCH  77  78
ATOM     78  S   UNL A   1      34.543  33.753  31.700  1.00  0.00     0.124 S 
ATOM     79  O   UNL A   1      34.981  34.951  32.409  1.00  0.00    -0.237 OA
ATOM     80  O   UNL A   1      33.848  33.982  30.436  1.00  0.00    -0.237 OA
ATOM     81  O   UNL A   1      33.966  32.703  32.538  1.00  0.00    -0.744 OA
ENDBRANCH  77  78
ENDBRANCH  49  72
BRANCH  61  82
ATOM     82  C   UNL A   1      45.150  34.334  30.765  1.00  0.00    -0.014 A 
ATOM     83  C   UNL A   1      45.207  35.485  29.958  1.00  0.00     0.010 A 
ATOM     84  C   UNL A   1      45.609  34.407  32.094  1.00  0.00     0.010 A 
ATOM     85  C   UNL A   1      45.738  36.676  30.461  1.00  0.00     0.020 A 
ATOM     86  C   UNL A   1      46.116  35.603  32.609  1.00  0.00     0.020 A 
ATOM     87  C   UNL A   1      46.190  36.727  31.784  1.00  0.00     0.054 A 
BRANCH  87  88
ATOM     88  S   UNL A   1      46.835  38.295  32.428  1.00  0.00     0.124 S 
ATOM     89  O   UNL A   1      46.550  39.215  31.330  1.00  0.00    -0.237 OA
ATOM     90  O   UNL A   1      46.042  38.496  33.639  1.00  0.00    -0.237 OA
ATOM     91  O   UNL A   1      48.252  38.019  32.658  1.00  0.00    -0.744 OA
ENDBRANCH  87  88
ENDBRANCH  61  82
ENDBRANCH  35  36
ENDBRANCH  28  30
ENDBRANCH  27  28
ENDBRANCH  26  27
ENDBRANCH  25  26
ENDBRANCH   1  25
TORSDOF 20
ENDMDL
