MODEL 1
REMARK VINA RESULT:     -11.6      0.000      0.000
REMARK SMILES O=C(OCCOCCOC(=O)c1ccc(-c2c3nc(c(-c4ccc(S(=O)(=O)[O-])cc4)c4ccc([nH]4)c(-c4ccc(S(=O)(=O)[O-])cc4)c4nc(c(-c5ccc(S(=O)(=O)[O-])cc5)c5ccc2[nH]5)C=C4)C=C3)cc1)c1ccc(NC(=O)[C@@H]2CC=CC[C@H]2C(=O)Nc2cccc([N+](=O)[O-])c2)cc1
REMARK SMILES IDX 5 1 4 2 3 3 2 4 1 5 72 6 73 7 98 8 74 9 97 10 75 11 76 12
REMARK SMILES IDX 77 13 78 15 79 16 80 17 84 18 81 19 83 20 82 21 85 22 86 23
REMARK SMILES IDX 87 24 88 26 89 27 96 28 90 29 92 30 91 31 93 32 94 33 95 34
REMARK SMILES IDX 6 35 7 36 8 37 9 38 10 39 11 40 12 41 13 42 71 43 14 44
REMARK SMILES IDX 70 45 15 46 16 47 17 48 64 49 18 50 69 51 63 52 65 53 19 54
REMARK SMILES IDX 68 55 62 56 61 57 20 59 50 60 31 61 49 62 32 63 35 64 48 65
REMARK SMILES IDX 66 66 33 67 34 68 47 70 67 71 36 72 21 73 22 74 30 75 23 76
REMARK SMILES IDX 29 77 24 78 25 79 26 80 27 81 28 82 51 83 52 84 60 85 53 86
REMARK SMILES IDX 59 87 54 88 55 89 56 90 57 91 58 92 37 93 38 94 46 95 39 96
REMARK SMILES IDX 45 97 40 98 41 99 42 100 43 101 44 102
REMARK H PARENT 76 14 87 25 65 58 35 69
REMARK Flexibility Score: inf
ROOT
ATOM      1  C   UNL A   1      40.354  22.160  26.309  1.00  0.00     0.202 C 
ENDROOT
BRANCH   1   2
ATOM      2  C   UNL A   1      38.893  22.630  26.271  1.00  0.00     0.261 C 
BRANCH   2   3
ATOM      3  O   UNL A   1      38.175  21.966  25.201  1.00  0.00    -0.460 OA
BRANCH   3   4
ATOM      4  C   UNL A   1      36.892  22.081  24.774  1.00  0.00     0.338 C 
ATOM      5  O   UNL A   1      36.682  22.215  23.568  1.00  0.00    -0.246 OA
BRANCH   4   6
ATOM      6  C   UNL A   1      35.700  22.112  25.679  1.00  0.00     0.060 A 
ATOM      7  C   UNL A   1      35.292  23.240  26.353  1.00  0.00     0.018 A 
ATOM      8  C   UNL A   1      34.864  20.988  25.795  1.00  0.00     0.018 A 
ATOM      9  C   UNL A   1      34.121  23.261  27.105  1.00  0.00     0.027 A 
ATOM     10  C   UNL A   1      33.608  21.070  26.448  1.00  0.00     0.027 A 
ATOM     11  C   UNL A   1      33.188  22.269  27.031  1.00  0.00     0.041 A 
BRANCH  11  12
ATOM     12  N   UNL A   1      31.848  22.467  27.410  1.00  0.00    -0.326 N 
ATOM     13  C   UNL A   1      30.779  23.180  26.916  1.00  0.00     0.228 C 
ATOM     14  H   UNL A   1      31.618  21.974  28.230  1.00  0.00     0.169 HD
ATOM     15  O   UNL A   1      29.705  22.924  27.483  1.00  0.00    -0.274 OA
BRANCH  13  16
ATOM     16  C   UNL A   1      30.826  24.316  25.841  1.00  0.00     0.095 C 
ATOM     17  C   UNL A   1      29.546  25.183  26.042  1.00  0.00     0.041 C 
ATOM     18  C   UNL A   1      31.029  23.961  24.335  1.00  0.00     0.095 C 
ATOM     19  C   UNL A   1      29.284  26.230  25.007  1.00  0.00    -0.030 C 
ATOM     20  C   UNL A   1      30.345  24.855  23.257  1.00  0.00     0.041 C 
ATOM     21  C   UNL A   1      29.640  26.070  23.734  1.00  0.00    -0.030 C 
BRANCH  18  22
ATOM     22  C   UNL A   1      32.420  23.749  23.721  1.00  0.00     0.228 C 
ATOM     23  O   UNL A   1      32.769  22.572  23.530  1.00  0.00    -0.274 OA
ATOM     24  N   UNL A   1      33.270  24.711  23.233  1.00  0.00    -0.326 N 
ATOM     25  H   UNL A   1      33.927  24.311  22.619  1.00  0.00     0.169 HD
BRANCH  24  26
ATOM     26  C   UNL A   1      33.484  26.109  23.349  1.00  0.00     0.048 A 
ATOM     27  C   UNL A   1      33.752  26.814  22.170  1.00  0.00     0.026 A 
ATOM     28  C   UNL A   1      33.563  26.851  24.516  1.00  0.00     0.111 A 
ATOM     29  C   UNL A   1      33.947  28.207  22.152  1.00  0.00     0.009 A 
ATOM     30  C   UNL A   1      33.763  28.242  24.525  1.00  0.00     0.271 A 
ATOM     31  C   UNL A   1      33.924  28.937  23.334  1.00  0.00     0.086 A 
BRANCH  30  32
ATOM     32  N   UNL A   1      33.815  28.945  25.815  1.00  0.00     0.062 N 
ATOM     33  O   UNL A   1      33.002  29.858  26.011  1.00  0.00    -0.258 OA
ATOM     34  O   UNL A   1      34.672  28.580  26.637  1.00  0.00    -0.258 OA
ENDBRANCH  30  32
ENDBRANCH  24  26
ENDBRANCH  18  22
ENDBRANCH  13  16
ENDBRANCH  11  12
ENDBRANCH   4   6
ENDBRANCH   3   4
ENDBRANCH   2   3
ENDBRANCH   1   2
BRANCH   1  35
ATOM     35  O   UNL A   1      41.248  23.196  26.728  1.00  0.00    -0.374 OA
BRANCH  35  36
ATOM     36  C   UNL A   1      42.560  23.107  26.148  1.00  0.00     0.202 C 
BRANCH  36  37
ATOM     37  C   UNL A   1      42.951  24.419  25.454  1.00  0.00     0.261 C 
BRANCH  37  38
ATOM     38  O   UNL A   1      41.829  25.317  25.428  1.00  0.00    -0.460 OA
BRANCH  38  39
ATOM     39  C   UNL A   1      42.165  26.637  25.464  1.00  0.00     0.338 C 
ATOM     40  O   UNL A   1      42.496  27.336  24.532  1.00  0.00    -0.246 OA
BRANCH  39  41
ATOM     41  C   UNL A   1      41.838  27.180  26.807  1.00  0.00     0.060 A 
ATOM     42  C   UNL A   1      42.494  28.355  27.194  1.00  0.00     0.016 A 
ATOM     43  C   UNL A   1      40.868  26.619  27.639  1.00  0.00     0.016 A 
ATOM     44  C   UNL A   1      42.130  29.021  28.360  1.00  0.00     0.010 A 
ATOM     45  C   UNL A   1      40.532  27.260  28.832  1.00  0.00     0.010 A 
ATOM     46  C   UNL A   1      41.151  28.471  29.189  1.00  0.00    -0.014 A 
BRANCH  46  47
ATOM     47  C   UNL A   1      40.851  29.089  30.496  1.00  0.00     0.031 A 
ATOM     48  C   UNL A   1      39.716  30.064  30.579  1.00  0.00     0.074 A 
ATOM     49  C   UNL A   1      41.602  28.803  31.575  1.00  0.00     0.049 A 
ATOM     50  N   UNL A   1      39.354  30.822  31.578  1.00  0.00    -0.248 NA
ATOM     51  C   UNL A   1      38.881  30.208  29.374  1.00  0.00     0.031 C 
ATOM     52  C   UNL A   1      42.698  27.832  31.615  1.00  0.00     0.029 A 
ATOM     53  N   UNL A   1      41.571  29.325  32.843  1.00  0.00    -0.354 N 
ATOM     54  C   UNL A   1      38.266  31.551  31.118  1.00  0.00     0.074 A 
ATOM     55  C   UNL A   1      38.026  31.149  29.751  1.00  0.00     0.031 C 
ATOM     56  C   UNL A   1      43.254  27.852  32.839  1.00  0.00     0.029 A 
ATOM     57  C   UNL A   1      42.585  28.867  33.651  1.00  0.00     0.049 A 
ATOM     58  H   UNL A   1      40.887  29.965  33.147  1.00  0.00     0.167 HD
ATOM     59  C   UNL A   1      37.539  32.479  31.781  1.00  0.00     0.031 A 
ATOM     60  C   UNL A   1      42.956  29.257  34.887  1.00  0.00     0.031 A 
ATOM     61  C   UNL A   1      37.796  32.878  33.138  1.00  0.00     0.049 A 
ATOM     62  C   UNL A   1      42.177  30.356  35.569  1.00  0.00     0.074 A 
ATOM     63  C   UNL A   1      37.096  33.787  33.910  1.00  0.00     0.029 A 
ATOM     64  N   UNL A   1      38.841  32.407  33.917  1.00  0.00    -0.354 N 
ATOM     65  N   UNL A   1      41.118  31.003  35.142  1.00  0.00    -0.248 NA
ATOM     66  C   UNL A   1      42.647  30.779  36.897  1.00  0.00     0.031 C 
ATOM     67  C   UNL A   1      37.758  33.918  35.133  1.00  0.00     0.029 A 
ATOM     68  C   UNL A   1      38.831  33.040  35.147  1.00  0.00     0.049 A 
ATOM     69  H   UNL A   1      39.493  31.725  33.637  1.00  0.00     0.167 HD
ATOM     70  C   UNL A   1      40.786  31.896  36.157  1.00  0.00     0.074 A 
ATOM     71  C   UNL A   1      41.738  31.685  37.228  1.00  0.00     0.031 C 
ATOM     72  C   UNL A   1      39.788  32.812  36.199  1.00  0.00     0.031 A 
BRANCH  59  73
ATOM     73  C   UNL A   1      36.425  33.162  31.040  1.00  0.00    -0.014 A 
ATOM     74  C   UNL A   1      35.098  33.100  31.500  1.00  0.00     0.010 A 
ATOM     75  C   UNL A   1      36.728  33.950  29.914  1.00  0.00     0.010 A 
ATOM     76  C   UNL A   1      34.091  33.811  30.839  1.00  0.00     0.020 A 
ATOM     77  C   UNL A   1      35.729  34.680  29.266  1.00  0.00     0.020 A 
ATOM     78  C   UNL A   1      34.414  34.602  29.731  1.00  0.00     0.054 A 
BRANCH  78  79
ATOM     79  S   UNL A   1      33.099  35.570  28.943  1.00  0.00     0.124 S 
ATOM     80  O   UNL A   1      32.368  36.081  30.100  1.00  0.00    -0.237 OA
ATOM     81  O   UNL A   1      33.850  36.567  28.185  1.00  0.00    -0.237 OA
ATOM     82  O   UNL A   1      32.380  34.588  28.137  1.00  0.00    -0.744 OA
ENDBRANCH  78  79
ENDBRANCH  59  73
BRANCH  60  83
ATOM     83  C   UNL A   1      44.157  28.665  35.541  1.00  0.00    -0.014 A 
ATOM     84  C   UNL A   1      44.041  27.548  36.386  1.00  0.00     0.010 A 
ATOM     85  C   UNL A   1      45.424  29.250  35.356  1.00  0.00     0.010 A 
ATOM     86  C   UNL A   1      45.161  27.049  37.060  1.00  0.00     0.020 A 
ATOM     87  C   UNL A   1      46.552  28.734  36.002  1.00  0.00     0.020 A 
ATOM     88  C   UNL A   1      46.409  27.648  36.866  1.00  0.00     0.054 A 
BRANCH  88  89
ATOM     89  S   UNL A   1      47.850  26.974  37.737  1.00  0.00     0.124 S 
ATOM     90  O   UNL A   1      48.953  27.441  36.902  1.00  0.00    -0.237 OA
ATOM     91  O   UNL A   1      47.742  27.601  39.052  1.00  0.00    -0.237 OA
ATOM     92  O   UNL A   1      47.616  25.533  37.720  1.00  0.00    -0.744 OA
ENDBRANCH  88  89
ENDBRANCH  60  83
BRANCH  72  93
ATOM     93  C   UNL A   1      39.658  33.644  37.448  1.00  0.00    -0.014 A 
ATOM     94  C   UNL A   1      40.202  34.939  37.517  1.00  0.00     0.010 A 
ATOM     95  C   UNL A   1      38.919  33.151  38.539  1.00  0.00     0.010 A 
ATOM     96  C   UNL A   1      40.029  35.716  38.664  1.00  0.00     0.020 A 
ATOM     97  C   UNL A   1      38.717  33.938  39.676  1.00  0.00     0.020 A 
ATOM     98  C   UNL A   1      39.284  35.212  39.736  1.00  0.00     0.054 A 
BRANCH  98  99
ATOM     99  S   UNL A   1      39.027  36.266  41.189  1.00  0.00     0.124 S 
ATOM    100  O   UNL A   1      37.869  35.637  41.819  1.00  0.00    -0.237 OA
ATOM    101  O   UNL A   1      40.289  36.127  41.911  1.00  0.00    -0.237 OA
ATOM    102  O   UNL A   1      38.784  37.589  40.619  1.00  0.00    -0.744 OA
ENDBRANCH  98  99
ENDBRANCH  72  93
ENDBRANCH  46  47
ENDBRANCH  39  41
ENDBRANCH  38  39
ENDBRANCH  37  38
ENDBRANCH  36  37
ENDBRANCH  35  36
ENDBRANCH   1  35
TORSDOF 22
ENDMDL
MODEL 2
REMARK VINA RESULT:     -11.4      6.347     11.657
REMARK SMILES O=C(OCCOCCOC(=O)c1ccc(-c2c3nc(c(-c4ccc(S(=O)(=O)[O-])cc4)c4ccc([nH]4)c(-c4ccc(S(=O)(=O)[O-])cc4)c4nc(c(-c5ccc(S(=O)(=O)[O-])cc5)c5ccc2[nH]5)C=C4)C=C3)cc1)c1ccc(NC(=O)[C@@H]2CC=CC[C@H]2C(=O)Nc2cccc([N+](=O)[O-])c2)cc1
REMARK SMILES IDX 5 1 4 2 3 3 2 4 1 5 72 6 73 7 98 8 74 9 97 10 75 11 76 12
REMARK SMILES IDX 77 13 78 15 79 16 80 17 84 18 81 19 83 20 82 21 85 22 86 23
REMARK SMILES IDX 87 24 88 26 89 27 96 28 90 29 92 30 91 31 93 32 94 33 95 34
REMARK SMILES IDX 6 35 7 36 8 37 9 38 10 39 11 40 12 41 13 42 71 43 14 44
REMARK SMILES IDX 70 45 15 46 16 47 17 48 64 49 18 50 69 51 63 52 65 53 19 54
REMARK SMILES IDX 68 55 62 56 61 57 20 59 50 60 31 61 49 62 32 63 35 64 48 65
REMARK SMILES IDX 66 66 33 67 34 68 47 70 67 71 36 72 21 73 22 74 30 75 23 76
REMARK SMILES IDX 29 77 24 78 25 79 26 80 27 81 28 82 51 83 52 84 60 85 53 86
REMARK SMILES IDX 59 87 54 88 55 89 56 90 57 91 58 92 37 93 38 94 46 95 39 96
REMARK SMILES IDX 45 97 40 98 41 99 42 100 43 101 44 102
REMARK H PARENT 76 14 87 25 65 58 35 69
REMARK Flexibility Score: inf
ROOT
ATOM      1  C   UNL A   1      32.420  29.959  27.033  1.00  0.00     0.202 C 
ENDROOT
BRANCH   1   2
ATOM      2  C   UNL A   1      31.738  30.016  25.659  1.00  0.00     0.261 C 
BRANCH   2   3
ATOM      3  O   UNL A   1      31.986  28.795  24.919  1.00  0.00    -0.460 OA
BRANCH   3   4
ATOM      4  C   UNL A   1      33.073  28.368  24.227  1.00  0.00     0.338 C 
ATOM      5  O   UNL A   1      34.056  29.107  24.159  1.00  0.00    -0.246 OA
BRANCH   4   6
ATOM      6  C   UNL A   1      33.146  27.071  23.485  1.00  0.00     0.060 A 
ATOM      7  C   UNL A   1      33.961  26.028  23.863  1.00  0.00     0.018 A 
ATOM      8  C   UNL A   1      32.281  26.817  22.406  1.00  0.00     0.018 A 
ATOM      9  C   UNL A   1      33.928  24.798  23.212  1.00  0.00     0.027 A 
ATOM     10  C   UNL A   1      32.163  25.518  21.848  1.00  0.00     0.027 A 
ATOM     11  C   UNL A   1      32.939  24.464  22.335  1.00  0.00     0.041 A 
BRANCH  11  12
ATOM     12  N   UNL A   1      32.634  23.127  22.020  1.00  0.00    -0.326 N 
ATOM     13  C   UNL A   1      32.175  22.031  22.715  1.00  0.00     0.228 C 
ATOM     14  H   UNL A   1      32.786  22.926  21.069  1.00  0.00     0.169 HD
ATOM     15  O   UNL A   1      31.873  21.071  21.988  1.00  0.00    -0.274 OA
BRANCH  13  16
ATOM     16  C   UNL A   1      32.124  21.860  24.269  1.00  0.00     0.095 C 
ATOM     17  C   UNL A   1      31.107  22.914  24.808  1.00  0.00     0.041 C 
ATOM     18  C   UNL A   1      33.443  21.880  25.103  1.00  0.00     0.095 C 
ATOM     19  C   UNL A   1      31.025  23.059  26.294  1.00  0.00    -0.030 C 
ATOM     20  C   UNL A   1      33.407  22.471  26.545  1.00  0.00     0.041 C 
ATOM     21  C   UNL A   1      32.082  22.867  27.082  1.00  0.00    -0.030 C 
BRANCH  18  22
ATOM     22  C   UNL A   1      34.305  20.627  25.306  1.00  0.00     0.228 C 
ATOM     23  O   UNL A   1      33.713  19.535  25.286  1.00  0.00    -0.274 OA
ATOM     24  N   UNL A   1      35.676  20.562  25.373  1.00  0.00    -0.326 N 
ATOM     25  H   UNL A   1      35.987  19.648  25.184  1.00  0.00     0.169 HD
BRANCH  24  26
ATOM     26  C   UNL A   1      36.777  21.418  25.634  1.00  0.00     0.048 A 
ATOM     27  C   UNL A   1      36.530  22.795  25.633  1.00  0.00     0.026 A 
ATOM     28  C   UNL A   1      38.105  21.052  25.789  1.00  0.00     0.111 A 
ATOM     29  C   UNL A   1      37.533  23.742  25.913  1.00  0.00     0.009 A 
ATOM     30  C   UNL A   1      39.125  21.979  26.063  1.00  0.00     0.271 A 
ATOM     31  C   UNL A   1      38.838  23.333  26.159  1.00  0.00     0.086 A 
BRANCH  30  32
ATOM     32  N   UNL A   1      40.502  21.491  26.227  1.00  0.00     0.062 N 
ATOM     33  O   UNL A   1      40.666  20.392  26.773  1.00  0.00    -0.258 OA
ATOM     34  O   UNL A   1      41.423  22.211  25.807  1.00  0.00    -0.258 OA
ENDBRANCH  30  32
ENDBRANCH  24  26
ENDBRANCH  18  22
ENDBRANCH  13  16
ENDBRANCH  11  12
ENDBRANCH   4   6
ENDBRANCH   3   4
ENDBRANCH   2   3
ENDBRANCH   1   2
BRANCH   1  35
ATOM     35  O   UNL A   1      32.976  31.220  27.417  1.00  0.00    -0.374 OA
BRANCH  35  36
ATOM     36  C   UNL A   1      34.398  31.194  27.628  1.00  0.00     0.202 C 
BRANCH  36  37
ATOM     37  C   UNL A   1      34.921  29.754  27.715  1.00  0.00     0.261 C 
BRANCH  37  38
ATOM     38  O   UNL A   1      36.353  29.741  27.588  1.00  0.00    -0.460 OA
BRANCH  38  39
ATOM     39  C   UNL A   1      37.021  29.626  28.770  1.00  0.00     0.338 C 
ATOM     40  O   UNL A   1      36.542  29.508  29.875  1.00  0.00    -0.246 OA
BRANCH  39  41
ATOM     41  C   UNL A   1      38.465  29.425  28.488  1.00  0.00     0.060 A 
ATOM     42  C   UNL A   1      39.292  29.140  29.581  1.00  0.00     0.016 A 
ATOM     43  C   UNL A   1      38.997  29.432  27.197  1.00  0.00     0.016 A 
ATOM     44  C   UNL A   1      40.622  28.778  29.392  1.00  0.00     0.010 A 
ATOM     45  C   UNL A   1      40.342  29.114  27.007  1.00  0.00     0.010 A 
ATOM     46  C   UNL A   1      41.155  28.771  28.102  1.00  0.00    -0.014 A 
BRANCH  46  47
ATOM     47  C   UNL A   1      42.596  28.525  27.895  1.00  0.00     0.031 A 
ATOM     48  C   UNL A   1      43.549  29.663  28.101  1.00  0.00     0.074 A 
ATOM     49  C   UNL A   1      43.033  27.314  27.504  1.00  0.00     0.049 A 
ATOM     50  N   UNL A   1      44.829  29.718  27.854  1.00  0.00    -0.248 NA
ATOM     51  C   UNL A   1      42.983  30.906  28.653  1.00  0.00     0.031 C 
ATOM     52  C   UNL A   1      42.197  26.126  27.323  1.00  0.00     0.029 A 
ATOM     53  N   UNL A   1      44.293  26.892  27.160  1.00  0.00    -0.354 N 
ATOM     54  C   UNL A   1      45.220  31.006  28.196  1.00  0.00     0.074 A 
ATOM     55  C   UNL A   1      44.043  31.702  28.665  1.00  0.00     0.031 C 
ATOM     56  C   UNL A   1      42.963  25.118  26.872  1.00  0.00     0.029 A 
ATOM     57  C   UNL A   1      44.330  25.601  26.689  1.00  0.00     0.049 A 
ATOM     58  H   UNL A   1      45.093  27.459  27.244  1.00  0.00     0.167 HD
ATOM     59  C   UNL A   1      46.453  31.556  28.115  1.00  0.00     0.031 A 
ATOM     60  C   UNL A   1      45.343  24.908  26.131  1.00  0.00     0.031 A 
ATOM     61  C   UNL A   1      47.612  30.856  27.635  1.00  0.00     0.049 A 
ATOM     62  C   UNL A   1      46.687  25.578  25.976  1.00  0.00     0.074 A 
ATOM     63  C   UNL A   1      48.914  31.316  27.546  1.00  0.00     0.029 A 
ATOM     64  N   UNL A   1      47.609  29.558  27.150  1.00  0.00    -0.354 N 
ATOM     65  N   UNL A   1      47.056  26.781  26.350  1.00  0.00    -0.248 NA
ATOM     66  C   UNL A   1      47.748  24.799  25.321  1.00  0.00     0.031 C 
ATOM     67  C   UNL A   1      49.685  30.320  26.942  1.00  0.00     0.029 A 
ATOM     68  C   UNL A   1      48.878  29.216  26.717  1.00  0.00     0.049 A 
ATOM     69  H   UNL A   1      46.822  28.969  27.117  1.00  0.00     0.167 HD
ATOM     70  C   UNL A   1      48.396  26.893  25.991  1.00  0.00     0.074 A 
ATOM     71  C   UNL A   1      48.779  25.628  25.397  1.00  0.00     0.031 C 
ATOM     72  C   UNL A   1      49.236  27.949  26.132  1.00  0.00     0.031 A 
BRANCH  59  73
ATOM     73  C   UNL A   1      46.608  32.997  28.511  1.00  0.00    -0.014 A 
ATOM     74  C   UNL A   1      47.137  33.357  29.764  1.00  0.00     0.010 A 
ATOM     75  C   UNL A   1      46.299  34.005  27.579  1.00  0.00     0.010 A 
ATOM     76  C   UNL A   1      47.348  34.702  30.078  1.00  0.00     0.020 A 
ATOM     77  C   UNL A   1      46.530  35.349  27.881  1.00  0.00     0.020 A 
ATOM     78  C   UNL A   1      47.050  35.689  29.132  1.00  0.00     0.054 A 
BRANCH  78  79
ATOM     79  S   UNL A   1      47.405  37.420  29.542  1.00  0.00     0.124 S 
ATOM     80  O   UNL A   1      46.254  37.775  30.369  1.00  0.00    -0.237 OA
ATOM     81  O   UNL A   1      48.680  37.323  30.248  1.00  0.00    -0.237 OA
ATOM     82  O   UNL A   1      47.463  38.080  28.241  1.00  0.00    -0.744 OA
ENDBRANCH  78  79
ENDBRANCH  59  73
BRANCH  60  83
ATOM     83  C   UNL A   1      45.123  23.529  25.610  1.00  0.00    -0.014 A 
ATOM     84  C   UNL A   1      45.409  22.405  26.404  1.00  0.00     0.010 A 
ATOM     85  C   UNL A   1      44.666  23.335  24.293  1.00  0.00     0.010 A 
ATOM     86  C   UNL A   1      45.277  21.114  25.879  1.00  0.00     0.020 A 
ATOM     87  C   UNL A   1      44.501  22.046  23.776  1.00  0.00     0.020 A 
ATOM     88  C   UNL A   1      44.827  20.944  24.567  1.00  0.00     0.054 A 
BRANCH  88  89
ATOM     89  S   UNL A   1      44.647  19.261  23.913  1.00  0.00     0.124 S 
ATOM     90  O   UNL A   1      45.910  18.647  24.310  1.00  0.00    -0.237 OA
ATOM     91  O   UNL A   1      43.460  18.779  24.613  1.00  0.00    -0.237 OA
ATOM     92  O   UNL A   1      44.474  19.471  22.478  1.00  0.00    -0.744 OA
ENDBRANCH  88  89
ENDBRANCH  60  83
BRANCH  72  93
ATOM     93  C   UNL A   1      50.655  27.780  25.658  1.00  0.00    -0.014 A 
ATOM     94  C   UNL A   1      51.588  27.044  26.411  1.00  0.00     0.010 A 
ATOM     95  C   UNL A   1      51.039  28.302  24.409  1.00  0.00     0.010 A 
ATOM     96  C   UNL A   1      52.886  26.855  25.933  1.00  0.00     0.020 A 
ATOM     97  C   UNL A   1      52.328  28.087  23.915  1.00  0.00     0.020 A 
ATOM     98  C   UNL A   1      53.248  27.374  24.685  1.00  0.00     0.054 A 
BRANCH  98  99
ATOM     99  S   UNL A   1      54.923  27.063  24.065  1.00  0.00     0.124 S 
ATOM    100  O   UNL A   1      55.588  28.334  24.338  1.00  0.00    -0.237 OA
ATOM    101  O   UNL A   1      55.362  25.935  24.881  1.00  0.00    -0.237 OA
ATOM    102  O   UNL A   1      54.717  26.760  22.650  1.00  0.00    -0.744 OA
ENDBRANCH  98  99
ENDBRANCH  72  93
ENDBRANCH  46  47
ENDBRANCH  39  41
ENDBRANCH  38  39
ENDBRANCH  37  38
ENDBRANCH  36  37
ENDBRANCH  35  36
ENDBRANCH   1  35
TORSDOF 22
ENDMDL
MODEL 3
REMARK VINA RESULT:     -11.0      1.613      2.437
REMARK SMILES O=C(OCCOCCOC(=O)c1ccc(-c2c3nc(c(-c4ccc(S(=O)(=O)[O-])cc4)c4ccc([nH]4)c(-c4ccc(S(=O)(=O)[O-])cc4)c4nc(c(-c5ccc(S(=O)(=O)[O-])cc5)c5ccc2[nH]5)C=C4)C=C3)cc1)c1ccc(NC(=O)[C@@H]2CC=CC[C@H]2C(=O)Nc2cccc([N+](=O)[O-])c2)cc1
REMARK SMILES IDX 5 1 4 2 3 3 2 4 1 5 72 6 73 7 98 8 74 9 97 10 75 11 76 12
REMARK SMILES IDX 77 13 78 15 79 16 80 17 84 18 81 19 83 20 82 21 85 22 86 23
REMARK SMILES IDX 87 24 88 26 89 27 96 28 90 29 92 30 91 31 93 32 94 33 95 34
REMARK SMILES IDX 6 35 7 36 8 37 9 38 10 39 11 40 12 41 13 42 71 43 14 44
REMARK SMILES IDX 70 45 15 46 16 47 17 48 64 49 18 50 69 51 63 52 65 53 19 54
REMARK SMILES IDX 68 55 62 56 61 57 20 59 50 60 31 61 49 62 32 63 35 64 48 65
REMARK SMILES IDX 66 66 33 67 34 68 47 70 67 71 36 72 21 73 22 74 30 75 23 76
REMARK SMILES IDX 29 77 24 78 25 79 26 80 27 81 28 82 51 83 52 84 60 85 53 86
REMARK SMILES IDX 59 87 54 88 55 89 56 90 57 91 58 92 37 93 38 94 46 95 39 96
REMARK SMILES IDX 45 97 40 98 41 99 42 100 43 101 44 102
REMARK H PARENT 76 14 87 25 65 58 35 69
REMARK Flexibility Score: inf
ROOT
ATOM      1  C   UNL A   1      43.020  20.815  26.125  1.00  0.00     0.202 C 
ENDROOT
BRANCH   1   2
ATOM      2  C   UNL A   1      41.651  20.310  26.601  1.00  0.00     0.261 C 
BRANCH   2   3
ATOM      3  O   UNL A   1      40.593  20.860  25.776  1.00  0.00    -0.460 OA
BRANCH   3   4
ATOM      4  C   UNL A   1      39.609  21.753  26.053  1.00  0.00     0.338 C 
ATOM      5  O   UNL A   1      39.885  22.741  26.735  1.00  0.00    -0.246 OA
BRANCH   4   6
ATOM      6  C   UNL A   1      38.183  21.596  25.631  1.00  0.00     0.060 A 
ATOM      7  C   UNL A   1      37.681  20.440  25.076  1.00  0.00     0.018 A 
ATOM      8  C   UNL A   1      37.246  22.612  25.889  1.00  0.00     0.018 A 
ATOM      9  C   UNL A   1      36.327  20.292  24.789  1.00  0.00     0.027 A 
ATOM     10  C   UNL A   1      35.855  22.390  25.721  1.00  0.00     0.027 A 
ATOM     11  C   UNL A   1      35.384  21.162  25.251  1.00  0.00     0.041 A 
BRANCH  11  12
ATOM     12  N   UNL A   1      34.027  20.810  25.362  1.00  0.00    -0.326 N 
ATOM     13  C   UNL A   1      32.829  21.373  24.987  1.00  0.00     0.228 C 
ATOM     14  H   UNL A   1      33.904  19.946  25.819  1.00  0.00     0.169 HD
ATOM     15  O   UNL A   1      31.855  20.617  25.131  1.00  0.00    -0.274 OA
BRANCH  13  16
ATOM     16  C   UNL A   1      32.589  22.853  24.537  1.00  0.00     0.095 C 
ATOM     17  C   UNL A   1      33.407  23.066  23.227  1.00  0.00     0.041 C 
ATOM     18  C   UNL A   1      32.824  24.025  25.540  1.00  0.00     0.095 C 
ATOM     19  C   UNL A   1      33.474  24.466  22.706  1.00  0.00    -0.030 C 
ATOM     20  C   UNL A   1      33.339  25.389  24.989  1.00  0.00     0.041 C 
ATOM     21  C   UNL A   1      33.455  25.523  23.516  1.00  0.00    -0.030 C 
BRANCH  18  22
ATOM     22  C   UNL A   1      31.751  24.482  26.537  1.00  0.00     0.228 C 
ATOM     23  O   UNL A   1      31.363  23.637  27.361  1.00  0.00    -0.274 OA
ATOM     24  N   UNL A   1      31.265  25.754  26.711  1.00  0.00    -0.326 N 
ATOM     25  H   UNL A   1      30.843  25.843  27.596  1.00  0.00     0.169 HD
BRANCH  24  26
ATOM     26  C   UNL A   1      31.188  26.979  25.998  1.00  0.00     0.048 A 
ATOM     27  C   UNL A   1      31.676  28.122  26.639  1.00  0.00     0.026 A 
ATOM     28  C   UNL A   1      30.585  27.196  24.769  1.00  0.00     0.111 A 
ATOM     29  C   UNL A   1      31.688  29.387  26.021  1.00  0.00     0.009 A 
ATOM     30  C   UNL A   1      30.578  28.450  24.135  1.00  0.00     0.271 A 
ATOM     31  C   UNL A   1      31.161  29.552  24.745  1.00  0.00     0.086 A 
BRANCH  30  32
ATOM     32  N   UNL A   1      29.927  28.579  22.822  1.00  0.00     0.062 N 
ATOM     33  O   UNL A   1      28.921  29.296  22.742  1.00  0.00    -0.258 OA
ATOM     34  O   UNL A   1      30.427  27.961  21.868  1.00  0.00    -0.258 OA
ENDBRANCH  30  32
ENDBRANCH  24  26
ENDBRANCH  18  22
ENDBRANCH  13  16
ENDBRANCH  11  12
ENDBRANCH   4   6
ENDBRANCH   3   4
ENDBRANCH   2   3
ENDBRANCH   1   2
BRANCH   1  35
ATOM     35  O   UNL A   1      43.143  22.237  26.233  1.00  0.00    -0.374 OA
BRANCH  35  36
ATOM     36  C   UNL A   1      44.099  22.814  25.328  1.00  0.00     0.202 C 
BRANCH  36  37
ATOM     37  C   UNL A   1      43.996  24.344  25.310  1.00  0.00     0.261 C 
BRANCH  37  38
ATOM     38  O   UNL A   1      43.190  24.797  26.412  1.00  0.00    -0.460 OA
BRANCH  38  39
ATOM     39  C   UNL A   1      42.280  25.757  26.085  1.00  0.00     0.338 C 
ATOM     40  O   UNL A   1      41.640  25.844  25.061  1.00  0.00    -0.246 OA
BRANCH  39  41
ATOM     41  C   UNL A   1      41.999  26.581  27.288  1.00  0.00     0.060 A 
ATOM     42  C   UNL A   1      40.980  26.136  28.139  1.00  0.00     0.016 A 
ATOM     43  C   UNL A   1      42.747  27.708  27.630  1.00  0.00     0.016 A 
ATOM     44  C   UNL A   1      40.758  26.753  29.367  1.00  0.00     0.010 A 
ATOM     45  C   UNL A   1      42.498  28.357  28.840  1.00  0.00     0.010 A 
ATOM     46  C   UNL A   1      41.514  27.872  29.719  1.00  0.00    -0.014 A 
BRANCH  46  47
ATOM     47  C   UNL A   1      41.200  28.621  30.952  1.00  0.00     0.031 A 
ATOM     48  C   UNL A   1      40.061  29.595  30.924  1.00  0.00     0.074 A 
ATOM     49  C   UNL A   1      41.941  28.450  32.063  1.00  0.00     0.049 A 
ATOM     50  N   UNL A   1      39.688  30.451  31.836  1.00  0.00    -0.248 NA
ATOM     51  C   UNL A   1      39.237  29.611  29.703  1.00  0.00     0.031 C 
ATOM     52  C   UNL A   1      43.038  27.492  32.212  1.00  0.00     0.029 A 
ATOM     53  N   UNL A   1      41.896  29.100  33.270  1.00  0.00    -0.354 N 
ATOM     54  C   UNL A   1      38.603  31.125  31.293  1.00  0.00     0.074 A 
ATOM     55  C   UNL A   1      38.377  30.583  29.972  1.00  0.00     0.031 C 
ATOM     56  C   UNL A   1      43.582  27.641  33.433  1.00  0.00     0.029 A 
ATOM     57  C   UNL A   1      42.903  28.731  34.130  1.00  0.00     0.049 A 
ATOM     58  H   UNL A   1      41.208  29.766  33.499  1.00  0.00     0.167 HD
ATOM     59  C   UNL A   1      37.868  32.114  31.849  1.00  0.00     0.031 A 
ATOM     60  C   UNL A   1      43.262  29.249  35.322  1.00  0.00     0.031 A 
ATOM     61  C   UNL A   1      38.111  32.652  33.160  1.00  0.00     0.049 A 
ATOM     62  C   UNL A   1      42.474  30.409  35.880  1.00  0.00     0.074 A 
ATOM     63  C   UNL A   1      37.401  33.634  33.827  1.00  0.00     0.029 A 
ATOM     64  N   UNL A   1      39.149  32.268  33.994  1.00  0.00    -0.354 N 
ATOM     65  N   UNL A   1      41.418  31.005  35.379  1.00  0.00    -0.248 NA
ATOM     66  C   UNL A   1      42.930  30.969  37.161  1.00  0.00     0.031 C 
ATOM     67  C   UNL A   1      38.051  33.892  35.037  1.00  0.00     0.029 A 
ATOM     68  C   UNL A   1      39.126  33.024  35.151  1.00  0.00     0.049 A 
ATOM     69  H   UNL A   1      39.805  31.563  33.792  1.00  0.00     0.167 HD
ATOM     70  C   UNL A   1      41.073  31.997  36.293  1.00  0.00     0.074 A 
ATOM     71  C   UNL A   1      42.016  31.902  37.389  1.00  0.00     0.031 C 
ATOM     72  C   UNL A   1      40.073  32.910  36.230  1.00  0.00     0.031 A 
BRANCH  59  73
ATOM     73  C   UNL A   1      36.759  32.714  31.032  1.00  0.00    -0.014 A 
ATOM     74  C   UNL A   1      35.425  32.304  31.199  1.00  0.00     0.010 A 
ATOM     75  C   UNL A   1      37.050  33.765  30.142  1.00  0.00     0.010 A 
ATOM     76  C   UNL A   1      34.401  32.933  30.485  1.00  0.00     0.020 A 
ATOM     77  C   UNL A   1      36.027  34.411  29.445  1.00  0.00     0.020 A 
ATOM     78  C   UNL A   1      34.708  33.987  29.618  1.00  0.00     0.054 A 
BRANCH  78  79
ATOM     79  S   UNL A   1      33.349  34.832  28.764  1.00  0.00     0.124 S 
ATOM     80  O   UNL A   1      32.481  35.208  29.878  1.00  0.00    -0.237 OA
ATOM     81  O   UNL A   1      34.032  35.938  28.098  1.00  0.00    -0.237 OA
ATOM     82  O   UNL A   1      32.809  33.808  27.874  1.00  0.00    -0.744 OA
ENDBRANCH  78  79
ENDBRANCH  59  73
BRANCH  60  83
ATOM     83  C   UNL A   1      44.458  28.732  36.045  1.00  0.00    -0.014 A 
ATOM     84  C   UNL A   1      45.634  29.496  36.131  1.00  0.00     0.010 A 
ATOM     85  C   UNL A   1      44.438  27.445  36.616  1.00  0.00     0.010 A 
ATOM     86  C   UNL A   1      46.779  28.970  36.741  1.00  0.00     0.020 A 
ATOM     87  C   UNL A   1      45.569  26.929  37.256  1.00  0.00     0.020 A 
ATOM     88  C   UNL A   1      46.739  27.688  37.296  1.00  0.00     0.054 A 
BRANCH  88  89
ATOM     89  S   UNL A   1      48.230  27.032  38.097  1.00  0.00     0.124 S 
ATOM     90  O   UNL A   1      49.110  26.805  36.955  1.00  0.00    -0.237 OA
ATOM     91  O   UNL A   1      48.614  28.125  38.986  1.00  0.00    -0.237 OA
ATOM     92  O   UNL A   1      47.752  25.828  38.772  1.00  0.00    -0.744 OA
ENDBRANCH  88  89
ENDBRANCH  60  83
BRANCH  72  93
ATOM     93  C   UNL A   1      39.929  33.866  37.385  1.00  0.00    -0.014 A 
ATOM     94  C   UNL A   1      40.712  35.032  37.465  1.00  0.00     0.010 A 
ATOM     95  C   UNL A   1      38.946  33.632  38.365  1.00  0.00     0.010 A 
ATOM     96  C   UNL A   1      40.531  35.933  38.515  1.00  0.00     0.020 A 
ATOM     97  C   UNL A   1      38.741  34.547  39.400  1.00  0.00     0.020 A 
ATOM     98  C   UNL A   1      39.543  35.687  39.475  1.00  0.00     0.054 A 
BRANCH  98  99
ATOM     99  S   UNL A   1      39.291  36.903  40.797  1.00  0.00     0.124 S 
ATOM    100  O   UNL A   1      38.295  37.791  40.205  1.00  0.00    -0.237 OA
ATOM    101  O   UNL A   1      38.820  36.078  41.905  1.00  0.00    -0.237 OA
ATOM    102  O   UNL A   1      40.616  37.491  40.983  1.00  0.00    -0.744 OA
ENDBRANCH  98  99
ENDBRANCH  72  93
ENDBRANCH  46  47
ENDBRANCH  39  41
ENDBRANCH  38  39
ENDBRANCH  37  38
ENDBRANCH  36  37
ENDBRANCH  35  36
ENDBRANCH   1  35
TORSDOF 22
ENDMDL
