MODEL 1
REMARK VINA RESULT:      -9.3      0.000      0.000
REMARK SMILES O=C(OCCOCCOC(=O)c1cc(-c2ccn(C(F)F)c(=O)c2)ccc1O)c1ccc(-c2c3nc(c(-c4ccc(S(=O)(=O)[O-])cc4)c4ccc([nH]4)c(-c4ccc(S(=O)(=O)[O-])cc4)c4nc(c(-c5ccc(S(=O)(=O)[O-])cc5)c5ccc2[nH]5)C=C4)C=C3)cc1
REMARK SMILES IDX 5 1 4 2 3 3 2 4 1 5 29 6 30 7 88 8 31 9 87 10 32 11 33 12
REMARK SMILES IDX 34 13 81 14 35 15 86 16 80 17 82 18 36 19 85 20 79 21 78 22
REMARK SMILES IDX 37 24 67 25 48 26 66 27 49 28 52 29 65 30 83 31 50 32 51 33
REMARK SMILES IDX 64 35 84 36 53 37 38 38 39 39 47 40 40 41 46 42 41 43 42 44
REMARK SMILES IDX 43 45 44 46 45 47 68 48 69 49 77 50 70 51 76 52 71 53 72 54
REMARK SMILES IDX 73 55 74 56 75 57 54 58 55 59 63 60 56 61 62 62 57 63 58 64
REMARK SMILES IDX 59 65 60 66 61 67 6 68 7 69 8 70 9 71 10 72 11 73 12 74
REMARK SMILES IDX 13 75 27 76 14 77 26 78 25 79 28 80 15 82 16 83 24 84 17 85
REMARK SMILES IDX 22 86 18 87 23 88 19 89 20 90 21 91
REMARK H PARENT 82 23 52 34 28 81
REMARK Flexibility Score: inf
ROOT
ATOM      1  C   UNL A   1      34.019  33.800  28.178  1.00  0.00     0.202 C 
ENDROOT
BRANCH   1   2
ATOM      2  C   UNL A   1      33.328  32.643  27.454  1.00  0.00     0.261 C 
BRANCH   2   3
ATOM      3  O   UNL A   1      33.641  31.386  28.072  1.00  0.00    -0.460 OA
BRANCH   3   4
ATOM      4  C   UNL A   1      34.324  30.326  27.583  1.00  0.00     0.338 C 
ATOM      5  O   UNL A   1      33.740  29.612  26.766  1.00  0.00    -0.246 OA
BRANCH   4   6
ATOM      6  C   UNL A   1      35.712  29.913  27.993  1.00  0.00     0.060 A 
ATOM      7  C   UNL A   1      35.878  29.542  29.343  1.00  0.00     0.016 A 
ATOM      8  C   UNL A   1      36.857  29.942  27.195  1.00  0.00     0.016 A 
ATOM      9  C   UNL A   1      37.139  29.248  29.873  1.00  0.00     0.010 A 
ATOM     10  C   UNL A   1      38.119  29.675  27.716  1.00  0.00     0.010 A 
ATOM     11  C   UNL A   1      38.267  29.327  29.055  1.00  0.00    -0.014 A 
BRANCH  11  12
ATOM     12  C   UNL A   1      39.600  28.885  29.494  1.00  0.00     0.031 A 
ATOM     13  C   UNL A   1      40.537  29.821  30.185  1.00  0.00     0.074 A 
ATOM     14  C   UNL A   1      39.996  27.673  29.067  1.00  0.00     0.049 A 
ATOM     15  N   UNL A   1      41.753  29.594  30.602  1.00  0.00    -0.248 NA
ATOM     16  C   UNL A   1      40.064  31.195  30.420  1.00  0.00     0.031 C 
ATOM     17  C   UNL A   1      39.158  26.755  28.289  1.00  0.00     0.029 A 
ATOM     18  N   UNL A   1      41.195  27.026  29.173  1.00  0.00    -0.354 N 
ATOM     19  C   UNL A   1      42.191  30.788  31.162  1.00  0.00     0.074 A 
ATOM     20  C   UNL A   1      41.126  31.752  30.992  1.00  0.00     0.031 C 
ATOM     21  C   UNL A   1      39.876  25.670  27.975  1.00  0.00     0.029 A 
ATOM     22  C   UNL A   1      41.220  25.818  28.522  1.00  0.00     0.049 A 
ATOM     23  H   UNL A   1      41.965  27.391  29.668  1.00  0.00     0.167 HD
ATOM     24  C   UNL A   1      43.378  31.031  31.767  1.00  0.00     0.031 A 
ATOM     25  C   UNL A   1      42.214  24.921  28.387  1.00  0.00     0.031 A 
ATOM     26  C   UNL A   1      44.416  30.035  31.876  1.00  0.00     0.049 A 
ATOM     27  C   UNL A   1      43.510  25.196  29.081  1.00  0.00     0.074 A 
ATOM     28  C   UNL A   1      45.607  30.112  32.574  1.00  0.00     0.029 A 
ATOM     29  N   UNL A   1      44.400  28.796  31.245  1.00  0.00    -0.354 N 
ATOM     30  N   UNL A   1      43.853  26.259  29.770  1.00  0.00    -0.248 NA
ATOM     31  C   UNL A   1      44.543  24.157  29.014  1.00  0.00     0.031 C 
ATOM     32  C   UNL A   1      46.346  28.960  32.295  1.00  0.00     0.029 A 
ATOM     33  C   UNL A   1      45.585  28.124  31.490  1.00  0.00     0.049 A 
ATOM     34  H   UNL A   1      43.655  28.448  30.704  1.00  0.00     0.167 HD
ATOM     35  C   UNL A   1      45.138  26.018  30.230  1.00  0.00     0.074 A 
ATOM     36  C   UNL A   1      45.506  24.697  29.754  1.00  0.00     0.031 C 
ATOM     37  C   UNL A   1      45.937  26.818  30.978  1.00  0.00     0.031 A 
BRANCH  24  38
ATOM     38  C   UNL A   1      43.628  32.393  32.371  1.00  0.00    -0.014 A 
ATOM     39  C   UNL A   1      44.343  33.365  31.647  1.00  0.00     0.010 A 
ATOM     40  C   UNL A   1      43.275  32.670  33.705  1.00  0.00     0.010 A 
ATOM     41  C   UNL A   1      44.725  34.570  32.248  1.00  0.00     0.020 A 
ATOM     42  C   UNL A   1      43.629  33.886  34.302  1.00  0.00     0.020 A 
ATOM     43  C   UNL A   1      44.374  34.819  33.576  1.00  0.00     0.054 A 
BRANCH  43  44
ATOM     44  S   UNL A   1      44.903  36.373  34.351  1.00  0.00     0.124 S 
ATOM     45  O   UNL A   1      45.346  35.926  35.668  1.00  0.00    -0.237 OA
ATOM     46  O   UNL A   1      45.958  36.837  33.453  1.00  0.00    -0.237 OA
ATOM     47  O   UNL A   1      43.690  37.189  34.345  1.00  0.00    -0.744 OA
ENDBRANCH  43  44
ENDBRANCH  24  38
BRANCH  25  48
ATOM     48  C   UNL A   1      41.915  23.664  27.650  1.00  0.00    -0.014 A 
ATOM     49  C   UNL A   1      41.231  22.610  28.290  1.00  0.00     0.010 A 
ATOM     50  C   UNL A   1      42.533  23.428  26.411  1.00  0.00     0.010 A 
ATOM     51  C   UNL A   1      41.255  21.321  27.747  1.00  0.00     0.020 A 
ATOM     52  C   UNL A   1      42.539  22.147  25.855  1.00  0.00     0.020 A 
ATOM     53  C   UNL A   1      41.938  21.093  26.549  1.00  0.00     0.054 A 
BRANCH  53  54
ATOM     54  S   UNL A   1      42.105  19.388  25.954  1.00  0.00     0.124 S 
ATOM     55  O   UNL A   1      42.685  18.721  27.116  1.00  0.00    -0.237 OA
ATOM     56  O   UNL A   1      40.727  19.023  25.640  1.00  0.00    -0.237 OA
ATOM     57  O   UNL A   1      42.993  19.512  24.799  1.00  0.00    -0.744 OA
ENDBRANCH  53  54
ENDBRANCH  25  48
BRANCH  37  58
ATOM     58  C   UNL A   1      47.321  26.323  31.300  1.00  0.00    -0.014 A 
ATOM     59  C   UNL A   1      47.556  25.628  32.500  1.00  0.00     0.010 A 
ATOM     60  C   UNL A   1      48.411  26.699  30.495  1.00  0.00     0.010 A 
ATOM     61  C   UNL A   1      48.861  25.374  32.924  1.00  0.00     0.020 A 
ATOM     62  C   UNL A   1      49.717  26.419  30.901  1.00  0.00     0.020 A 
ATOM     63  C   UNL A   1      49.934  25.789  32.129  1.00  0.00     0.054 A 
BRANCH  63  64
ATOM     64  S   UNL A   1      51.621  25.527  32.738  1.00  0.00     0.124 S 
ATOM     65  O   UNL A   1      52.343  26.639  32.128  1.00  0.00    -0.237 OA
ATOM     66  O   UNL A   1      51.452  25.604  34.187  1.00  0.00    -0.237 OA
ATOM     67  O   UNL A   1      51.969  24.202  32.228  1.00  0.00    -0.744 OA
ENDBRANCH  63  64
ENDBRANCH  37  58
ENDBRANCH  11  12
ENDBRANCH   4   6
ENDBRANCH   3   4
ENDBRANCH   2   3
ENDBRANCH   1   2
BRANCH   1  68
ATOM     68  O   UNL A   1      33.165  34.486  29.090  1.00  0.00    -0.374 OA
BRANCH  68  69
ATOM     69  C   UNL A   1      33.744  35.612  29.757  1.00  0.00     0.202 C 
BRANCH  69  70
ATOM     70  C   UNL A   1      33.725  35.373  31.264  1.00  0.00     0.261 C 
BRANCH  70  71
ATOM     71  O   UNL A   1      34.897  34.622  31.609  1.00  0.00    -0.460 OA
BRANCH  71  72
ATOM     72  C   UNL A   1      34.687  33.380  32.110  1.00  0.00     0.342 C 
ATOM     73  O   UNL A   1      34.049  32.469  31.612  1.00  0.00    -0.246 OA
BRANCH  72  74
ATOM     74  C   UNL A   1      35.584  33.200  33.271  1.00  0.00     0.102 A 
ATOM     75  C   UNL A   1      36.477  32.114  33.235  1.00  0.00     0.028 A 
ATOM     76  C   UNL A   1      35.618  34.103  34.338  1.00  0.00     0.130 A 
ATOM     77  C   UNL A   1      37.435  31.968  34.241  1.00  0.00    -0.017 A 
ATOM     78  C   UNL A   1      36.559  33.948  35.352  1.00  0.00     0.048 A 
ATOM     79  C   UNL A   1      37.467  32.890  35.298  1.00  0.00     0.012 A 
BRANCH  76  80
ATOM     80  O   UNL A   1      34.720  35.129  34.410  1.00  0.00    -0.507 OA
ATOM     81  H   UNL A   1      34.610  35.707  33.680  1.00  0.00     0.293 HD
ENDBRANCH  76  80
BRANCH  77  82
ATOM     82  C   UNL A   1      38.401  30.858  34.248  1.00  0.00    -0.011 A 
ATOM     83  C   UNL A   1      39.670  30.952  34.939  1.00  0.00     0.027 A 
ATOM     84  C   UNL A   1      38.142  29.777  33.492  1.00  0.00     0.080 A 
ATOM     85  C   UNL A   1      40.614  30.023  34.754  1.00  0.00     0.095 A 
ATOM     86  C   UNL A   1      39.176  28.720  33.295  1.00  0.00     0.255 A 
ATOM     87  N   UNL A   1      40.390  28.936  33.928  1.00  0.00    -0.258 N 
ATOM     88  O   UNL A   1      38.911  27.771  32.563  1.00  0.00    -0.269 OA
BRANCH  87  89
ATOM     89  C   UNL A   1      41.448  27.998  33.656  1.00  0.00     0.451 C 
ATOM     90  F   UNL A   1      42.667  28.528  33.916  1.00  0.00    -0.185 F 
ATOM     91  F   UNL A   1      41.306  26.882  34.415  1.00  0.00    -0.185 F 
ENDBRANCH  87  89
ENDBRANCH  77  82
ENDBRANCH  72  74
ENDBRANCH  71  72
ENDBRANCH  70  71
ENDBRANCH  69  70
ENDBRANCH  68  69
ENDBRANCH   1  68
TORSDOF 20
ENDMDL
MODEL 2
REMARK VINA RESULT:      -9.2      4.895     12.203
REMARK SMILES O=C(OCCOCCOC(=O)c1cc(-c2ccn(C(F)F)c(=O)c2)ccc1O)c1ccc(-c2c3nc(c(-c4ccc(S(=O)(=O)[O-])cc4)c4ccc([nH]4)c(-c4ccc(S(=O)(=O)[O-])cc4)c4nc(c(-c5ccc(S(=O)(=O)[O-])cc5)c5ccc2[nH]5)C=C4)C=C3)cc1
REMARK SMILES IDX 5 1 4 2 3 3 2 4 1 5 29 6 30 7 88 8 31 9 87 10 32 11 33 12
REMARK SMILES IDX 34 13 81 14 35 15 86 16 80 17 82 18 36 19 85 20 79 21 78 22
REMARK SMILES IDX 37 24 67 25 48 26 66 27 49 28 52 29 65 30 83 31 50 32 51 33
REMARK SMILES IDX 64 35 84 36 53 37 38 38 39 39 47 40 40 41 46 42 41 43 42 44
REMARK SMILES IDX 43 45 44 46 45 47 68 48 69 49 77 50 70 51 76 52 71 53 72 54
REMARK SMILES IDX 73 55 74 56 75 57 54 58 55 59 63 60 56 61 62 62 57 63 58 64
REMARK SMILES IDX 59 65 60 66 61 67 6 68 7 69 8 70 9 71 10 72 11 73 12 74
REMARK SMILES IDX 13 75 27 76 14 77 26 78 25 79 28 80 15 82 16 83 24 84 17 85
REMARK SMILES IDX 22 86 18 87 23 88 19 89 20 90 21 91
REMARK H PARENT 82 23 52 34 28 81
REMARK Flexibility Score: inf
ROOT
ATOM      1  C   UNL A   1      44.083  23.346  24.418  1.00  0.00     0.202 C 
ENDROOT
BRANCH   1   2
ATOM      2  C   UNL A   1      44.183  24.502  25.415  1.00  0.00     0.261 C 
BRANCH   2   3
ATOM      3  O   UNL A   1      42.885  25.037  25.716  1.00  0.00    -0.460 OA
BRANCH   3   4
ATOM      4  C   UNL A   1      42.451  26.318  25.697  1.00  0.00     0.338 C 
ATOM      5  O   UNL A   1      42.284  26.836  24.591  1.00  0.00    -0.246 OA
BRANCH   4   6
ATOM      6  C   UNL A   1      42.211  27.181  26.906  1.00  0.00     0.060 A 
ATOM      7  C   UNL A   1      41.304  26.676  27.861  1.00  0.00     0.016 A 
ATOM      8  C   UNL A   1      42.728  28.458  27.132  1.00  0.00     0.016 A 
ATOM      9  C   UNL A   1      40.911  27.433  28.970  1.00  0.00     0.010 A 
ATOM     10  C   UNL A   1      42.327  29.228  28.218  1.00  0.00     0.010 A 
ATOM     11  C   UNL A   1      41.418  28.722  29.141  1.00  0.00    -0.014 A 
BRANCH  11  12
ATOM     12  C   UNL A   1      41.176  29.516  30.355  1.00  0.00     0.031 A 
ATOM     13  C   UNL A   1      41.952  29.268  31.609  1.00  0.00     0.074 A 
ATOM     14  C   UNL A   1      40.101  30.324  30.336  1.00  0.00     0.049 A 
ATOM     15  N   UNL A   1      41.835  29.858  32.768  1.00  0.00    -0.248 NA
ATOM     16  C   UNL A   1      42.974  28.210  31.568  1.00  0.00     0.031 C 
ATOM     17  C   UNL A   1      39.237  30.522  29.169  1.00  0.00     0.029 A 
ATOM     18  N   UNL A   1      39.523  31.080  31.317  1.00  0.00    -0.354 N 
ATOM     19  C   UNL A   1      42.775  29.255  33.596  1.00  0.00     0.074 A 
ATOM     20  C   UNL A   1      43.425  28.224  32.819  1.00  0.00     0.031 C 
ATOM     21  C   UNL A   1      38.228  31.334  29.507  1.00  0.00     0.029 A 
ATOM     22  C   UNL A   1      38.372  31.707  30.910  1.00  0.00     0.049 A 
ATOM     23  H   UNL A   1      39.895  31.166  32.224  1.00  0.00     0.167 HD
ATOM     24  C   UNL A   1      43.058  29.561  34.884  1.00  0.00     0.031 A 
ATOM     25  C   UNL A   1      37.526  32.504  31.589  1.00  0.00     0.031 A 
ATOM     26  C   UNL A   1      42.349  30.582  35.617  1.00  0.00     0.049 A 
ATOM     27  C   UNL A   1      37.868  32.849  33.004  1.00  0.00     0.074 A 
ATOM     28  C   UNL A   1      42.623  31.076  36.879  1.00  0.00     0.029 A 
ATOM     29  N   UNL A   1      41.210  31.240  35.166  1.00  0.00    -0.354 N 
ATOM     30  N   UNL A   1      38.873  32.413  33.726  1.00  0.00    -0.248 NA
ATOM     31  C   UNL A   1      36.996  33.806  33.692  1.00  0.00     0.031 C 
ATOM     32  C   UNL A   1      41.603  31.966  37.224  1.00  0.00     0.029 A 
ATOM     33  C   UNL A   1      40.736  32.093  36.148  1.00  0.00     0.049 A 
ATOM     34  H   UNL A   1      40.802  31.118  34.279  1.00  0.00     0.167 HD
ATOM     35  C   UNL A   1      38.764  33.047  34.954  1.00  0.00     0.074 A 
ATOM     36  C   UNL A   1      37.602  33.913  34.870  1.00  0.00     0.031 C 
ATOM     37  C   UNL A   1      39.557  32.924  36.048  1.00  0.00     0.031 A 
BRANCH  24  38
ATOM     38  C   UNL A   1      44.172  28.821  35.585  1.00  0.00    -0.014 A 
ATOM     39  C   UNL A   1      43.909  27.598  36.230  1.00  0.00     0.010 A 
ATOM     40  C   UNL A   1      45.449  29.396  35.725  1.00  0.00     0.010 A 
ATOM     41  C   UNL A   1      44.884  26.979  37.021  1.00  0.00     0.020 A 
ATOM     42  C   UNL A   1      46.438  28.767  36.491  1.00  0.00     0.020 A 
ATOM     43  C   UNL A   1      46.141  27.573  37.154  1.00  0.00     0.054 A 
BRANCH  43  44
ATOM     44  S   UNL A   1      47.385  26.775  38.208  1.00  0.00     0.124 S 
ATOM     45  O   UNL A   1      47.477  27.700  39.333  1.00  0.00    -0.237 OA
ATOM     46  O   UNL A   1      46.775  25.481  38.501  1.00  0.00    -0.237 OA
ATOM     47  O   UNL A   1      48.570  26.714  37.353  1.00  0.00    -0.744 OA
ENDBRANCH  43  44
ENDBRANCH  24  38
BRANCH  25  48
ATOM     48  C   UNL A   1      36.372  33.078  30.848  1.00  0.00    -0.014 A 
ATOM     49  C   UNL A   1      36.574  33.751  29.626  1.00  0.00     0.010 A 
ATOM     50  C   UNL A   1      35.123  33.174  31.486  1.00  0.00     0.010 A 
ATOM     51  C   UNL A   1      35.579  34.586  29.107  1.00  0.00     0.020 A 
ATOM     52  C   UNL A   1      34.120  33.990  30.957  1.00  0.00     0.020 A 
ATOM     53  C   UNL A   1      34.371  34.724  29.796  1.00  0.00     0.054 A 
BRANCH  53  54
ATOM     54  S   UNL A   1      33.165  35.943  29.201  1.00  0.00     0.124 S 
ATOM     55  O   UNL A   1      32.322  35.128  28.329  1.00  0.00    -0.237 OA
ATOM     56  O   UNL A   1      32.536  36.398  30.438  1.00  0.00    -0.237 OA
ATOM     57  O   UNL A   1      33.988  36.939  28.519  1.00  0.00    -0.744 OA
ENDBRANCH  53  54
ENDBRANCH  25  48
BRANCH  37  58
ATOM     58  C   UNL A   1      39.178  33.702  37.279  1.00  0.00    -0.014 A 
ATOM     59  C   UNL A   1      39.621  35.029  37.432  1.00  0.00     0.010 A 
ATOM     60  C   UNL A   1      38.535  33.060  38.351  1.00  0.00     0.010 A 
ATOM     61  C   UNL A   1      39.484  35.679  38.660  1.00  0.00     0.020 A 
ATOM     62  C   UNL A   1      38.369  33.719  39.570  1.00  0.00     0.020 A 
ATOM     63  C   UNL A   1      38.875  35.012  39.727  1.00  0.00     0.054 A 
BRANCH  63  64
ATOM     64  S   UNL A   1      38.786  35.842  41.336  1.00  0.00     0.124 S 
ATOM     65  O   UNL A   1      38.881  37.249  40.960  1.00  0.00    -0.237 OA
ATOM     66  O   UNL A   1      37.486  35.411  41.844  1.00  0.00    -0.237 OA
ATOM     67  O   UNL A   1      39.937  35.309  42.061  1.00  0.00    -0.744 OA
ENDBRANCH  63  64
ENDBRANCH  37  58
ENDBRANCH  11  12
ENDBRANCH   4   6
ENDBRANCH   3   4
ENDBRANCH   2   3
ENDBRANCH   1   2
BRANCH   1  68
ATOM     68  O   UNL A   1      43.223  22.296  24.853  1.00  0.00    -0.374 OA
BRANCH  68  69
ATOM     69  C   UNL A   1      43.875  21.124  25.349  1.00  0.00     0.202 C 
BRANCH  69  70
ATOM     70  C   UNL A   1      42.834  20.171  25.931  1.00  0.00     0.261 C 
BRANCH  70  71
ATOM     71  O   UNL A   1      41.538  20.625  25.517  1.00  0.00    -0.460 OA
BRANCH  71  72
ATOM     72  C   UNL A   1      40.558  20.569  26.452  1.00  0.00     0.342 C 
ATOM     73  O   UNL A   1      40.426  19.757  27.352  1.00  0.00    -0.246 OA
BRANCH  72  74
ATOM     74  C   UNL A   1      39.783  21.825  26.375  1.00  0.00     0.102 A 
ATOM     75  C   UNL A   1      38.475  21.748  25.864  1.00  0.00     0.028 A 
ATOM     76  C   UNL A   1      40.279  23.041  26.855  1.00  0.00     0.130 A 
ATOM     77  C   UNL A   1      37.652  22.876  25.886  1.00  0.00    -0.017 A 
ATOM     78  C   UNL A   1      39.468  24.172  26.861  1.00  0.00     0.048 A 
ATOM     79  C   UNL A   1      38.158  24.085  26.386  1.00  0.00     0.012 A 
BRANCH  76  80
ATOM     80  O   UNL A   1      41.566  23.139  27.303  1.00  0.00    -0.507 OA
ATOM     81  H   UNL A   1      42.122  23.823  26.983  1.00  0.00     0.293 HD
ENDBRANCH  76  80
BRANCH  77  82
ATOM     82  C   UNL A   1      36.272  22.849  25.377  1.00  0.00    -0.011 A 
ATOM     83  C   UNL A   1      35.174  22.331  26.167  1.00  0.00     0.027 A 
ATOM     84  C   UNL A   1      36.052  23.206  24.100  1.00  0.00     0.080 A 
ATOM     85  C   UNL A   1      33.977  22.119  25.608  1.00  0.00     0.095 A 
ATOM     86  C   UNL A   1      34.717  22.999  23.470  1.00  0.00     0.255 A 
ATOM     87  N   UNL A   1      33.750  22.421  24.277  1.00  0.00    -0.258 N 
ATOM     88  O   UNL A   1      34.573  23.302  22.289  1.00  0.00    -0.269 OA
BRANCH  87  89
ATOM     89  C   UNL A   1      32.490  22.093  23.661  1.00  0.00     0.451 C 
ATOM     90  F   UNL A   1      31.937  23.166  23.048  1.00  0.00    -0.185 F 
ATOM     91  F   UNL A   1      32.650  21.116  22.734  1.00  0.00    -0.185 F 
ENDBRANCH  87  89
ENDBRANCH  77  82
ENDBRANCH  72  74
ENDBRANCH  71  72
ENDBRANCH  70  71
ENDBRANCH  69  70
ENDBRANCH  68  69
ENDBRANCH   1  68
TORSDOF 20
ENDMDL
MODEL 3
REMARK VINA RESULT:      -9.1      5.278     11.449
REMARK SMILES O=C(OCCOCCOC(=O)c1cc(-c2ccn(C(F)F)c(=O)c2)ccc1O)c1ccc(-c2c3nc(c(-c4ccc(S(=O)(=O)[O-])cc4)c4ccc([nH]4)c(-c4ccc(S(=O)(=O)[O-])cc4)c4nc(c(-c5ccc(S(=O)(=O)[O-])cc5)c5ccc2[nH]5)C=C4)C=C3)cc1
REMARK SMILES IDX 5 1 4 2 3 3 2 4 1 5 29 6 30 7 88 8 31 9 87 10 32 11 33 12
REMARK SMILES IDX 34 13 81 14 35 15 86 16 80 17 82 18 36 19 85 20 79 21 78 22
REMARK SMILES IDX 37 24 67 25 48 26 66 27 49 28 52 29 65 30 83 31 50 32 51 33
REMARK SMILES IDX 64 35 84 36 53 37 38 38 39 39 47 40 40 41 46 42 41 43 42 44
REMARK SMILES IDX 43 45 44 46 45 47 68 48 69 49 77 50 70 51 76 52 71 53 72 54
REMARK SMILES IDX 73 55 74 56 75 57 54 58 55 59 63 60 56 61 62 62 57 63 58 64
REMARK SMILES IDX 59 65 60 66 61 67 6 68 7 69 8 70 9 71 10 72 11 73 12 74
REMARK SMILES IDX 13 75 27 76 14 77 26 78 25 79 28 80 15 82 16 83 24 84 17 85
REMARK SMILES IDX 22 86 18 87 23 88 19 89 20 90 21 91
REMARK H PARENT 82 23 52 34 28 81
REMARK Flexibility Score: inf
ROOT
ATOM      1  C   UNL A   1      36.309  22.489  23.774  1.00  0.00     0.202 C 
ENDROOT
BRANCH   1   2
ATOM      2  C   UNL A   1      36.616  23.354  24.998  1.00  0.00     0.261 C 
BRANCH   2   3
ATOM      3  O   UNL A   1      37.521  22.684  25.890  1.00  0.00    -0.460 OA
BRANCH   3   4
ATOM      4  C   UNL A   1      38.794  22.994  26.224  1.00  0.00     0.338 C 
ATOM      5  O   UNL A   1      39.652  22.134  26.015  1.00  0.00    -0.246 OA
BRANCH   4   6
ATOM      6  C   UNL A   1      39.243  24.271  26.881  1.00  0.00     0.060 A 
ATOM      7  C   UNL A   1      40.074  25.109  26.109  1.00  0.00     0.016 A 
ATOM      8  C   UNL A   1      38.988  24.663  28.196  1.00  0.00     0.016 A 
ATOM      9  C   UNL A   1      40.649  26.266  26.646  1.00  0.00     0.010 A 
ATOM     10  C   UNL A   1      39.572  25.798  28.748  1.00  0.00     0.010 A 
ATOM     11  C   UNL A   1      40.405  26.605  27.978  1.00  0.00    -0.014 A 
BRANCH  11  12
ATOM     12  C   UNL A   1      40.842  27.880  28.567  1.00  0.00     0.031 A 
ATOM     13  C   UNL A   1      42.183  28.014  29.212  1.00  0.00     0.074 A 
ATOM     14  C   UNL A   1      39.907  28.841  28.669  1.00  0.00     0.049 A 
ATOM     15  N   UNL A   1      42.700  29.058  29.803  1.00  0.00    -0.248 NA
ATOM     16  C   UNL A   1      43.049  26.824  29.217  1.00  0.00     0.031 C 
ATOM     17  C   UNL A   1      38.539  28.723  28.153  1.00  0.00     0.029 A 
ATOM     18  N   UNL A   1      39.935  30.067  29.273  1.00  0.00    -0.354 N 
ATOM     19  C   UNL A   1      43.957  28.659  30.242  1.00  0.00     0.074 A 
ATOM     20  C   UNL A   1      44.109  27.266  29.887  1.00  0.00     0.031 C 
ATOM     21  C   UNL A   1      37.855  29.827  28.478  1.00  0.00     0.029 A 
ATOM     22  C   UNL A   1      38.731  30.723  29.225  1.00  0.00     0.049 A 
ATOM     23  H   UNL A   1      40.740  30.442  29.699  1.00  0.00     0.167 HD
ATOM     24  C   UNL A   1      44.888  29.413  30.874  1.00  0.00     0.031 A 
ATOM     25  C   UNL A   1      38.370  31.921  29.722  1.00  0.00     0.031 A 
ATOM     26  C   UNL A   1      44.665  30.792  31.230  1.00  0.00     0.049 A 
ATOM     27  C   UNL A   1      39.418  32.748  30.397  1.00  0.00     0.074 A 
ATOM     28  C   UNL A   1      45.568  31.699  31.753  1.00  0.00     0.029 A 
ATOM     29  N   UNL A   1      43.446  31.453  31.130  1.00  0.00    -0.354 N 
ATOM     30  N   UNL A   1      40.667  32.430  30.645  1.00  0.00    -0.248 NA
ATOM     31  C   UNL A   1      39.035  34.094  30.833  1.00  0.00     0.031 C 
ATOM     32  C   UNL A   1      44.876  32.876  32.049  1.00  0.00     0.029 A 
ATOM     33  C   UNL A   1      43.559  32.736  31.636  1.00  0.00     0.049 A 
ATOM     34  H   UNL A   1      42.623  31.064  30.755  1.00  0.00     0.167 HD
ATOM     35  C   UNL A   1      41.228  33.540  31.259  1.00  0.00     0.074 A 
ATOM     36  C   UNL A   1      40.182  34.546  31.329  1.00  0.00     0.031 C 
ATOM     37  C   UNL A   1      42.492  33.709  31.720  1.00  0.00     0.031 A 
BRANCH  24  38
ATOM     38  C   UNL A   1      46.227  28.796  31.207  1.00  0.00    -0.014 A 
ATOM     39  C   UNL A   1      46.396  28.083  32.409  1.00  0.00     0.010 A 
ATOM     40  C   UNL A   1      47.355  29.033  30.400  1.00  0.00     0.010 A 
ATOM     41  C   UNL A   1      47.662  27.646  32.812  1.00  0.00     0.020 A 
ATOM     42  C   UNL A   1      48.621  28.572  30.784  1.00  0.00     0.020 A 
ATOM     43  C   UNL A   1      48.770  27.902  32.001  1.00  0.00     0.054 A 
BRANCH  43  44
ATOM     44  S   UNL A   1      50.410  27.356  32.552  1.00  0.00     0.124 S 
ATOM     45  O   UNL A   1      50.518  27.979  33.867  1.00  0.00    -0.237 OA
ATOM     46  O   UNL A   1      50.282  25.901  32.551  1.00  0.00    -0.237 OA
ATOM     47  O   UNL A   1      51.311  27.892  31.532  1.00  0.00    -0.744 OA
ENDBRANCH  43  44
ENDBRANCH  24  38
BRANCH  25  48
ATOM     48  C   UNL A   1      36.981  32.386  29.464  1.00  0.00    -0.014 A 
ATOM     49  C   UNL A   1      36.657  33.016  28.245  1.00  0.00     0.010 A 
ATOM     50  C   UNL A   1      36.061  32.430  30.525  1.00  0.00     0.010 A 
ATOM     51  C   UNL A   1      35.480  33.761  28.127  1.00  0.00     0.020 A 
ATOM     52  C   UNL A   1      34.874  33.156  30.402  1.00  0.00     0.020 A 
ATOM     53  C   UNL A   1      34.613  33.853  29.219  1.00  0.00     0.054 A 
BRANCH  53  54
ATOM     54  S   UNL A   1      33.182  34.964  29.105  1.00  0.00     0.124 S 
ATOM     55  O   UNL A   1      33.805  36.208  28.660  1.00  0.00    -0.237 OA
ATOM     56  O   UNL A   1      32.337  34.295  28.120  1.00  0.00    -0.237 OA
ATOM     57  O   UNL A   1      32.653  34.984  30.467  1.00  0.00    -0.744 OA
ENDBRANCH  53  54
ENDBRANCH  25  48
BRANCH  37  58
ATOM     58  C   UNL A   1      42.824  35.012  32.394  1.00  0.00    -0.014 A 
ATOM     59  C   UNL A   1      43.441  36.043  31.662  1.00  0.00     0.010 A 
ATOM     60  C   UNL A   1      42.681  35.143  33.786  1.00  0.00     0.010 A 
ATOM     61  C   UNL A   1      43.968  37.156  32.319  1.00  0.00     0.020 A 
ATOM     62  C   UNL A   1      43.180  36.270  34.443  1.00  0.00     0.020 A 
ATOM     63  C   UNL A   1      43.850  37.252  33.709  1.00  0.00     0.054 A 
BRANCH  63  64
ATOM     64  S   UNL A   1      44.617  38.661  34.552  1.00  0.00     0.124 S 
ATOM     65  O   UNL A   1      43.991  38.608  35.870  1.00  0.00    -0.237 OA
ATOM     66  O   UNL A   1      46.037  38.321  34.514  1.00  0.00    -0.237 OA
ATOM     67  O   UNL A   1      44.236  39.805  33.726  1.00  0.00    -0.744 OA
ENDBRANCH  63  64
ENDBRANCH  37  58
ENDBRANCH  11  12
ENDBRANCH   4   6
ENDBRANCH   3   4
ENDBRANCH   2   3
ENDBRANCH   1   2
BRANCH   1  68
ATOM     68  O   UNL A   1      34.949  22.564  23.355  1.00  0.00    -0.374 OA
BRANCH  68  69
ATOM     69  C   UNL A   1      33.990  22.004  24.257  1.00  0.00     0.202 C 
BRANCH  69  70
ATOM     70  C   UNL A   1      32.715  21.660  23.491  1.00  0.00     0.261 C 
BRANCH  70  71
ATOM     71  O   UNL A   1      31.882  22.827  23.468  1.00  0.00    -0.460 OA
BRANCH  71  72
ATOM     72  C   UNL A   1      31.322  23.187  24.649  1.00  0.00     0.342 C 
ATOM     73  O   UNL A   1      30.912  22.457  25.537  1.00  0.00    -0.246 OA
BRANCH  72  74
ATOM     74  C   UNL A   1      31.517  24.641  24.822  1.00  0.00     0.102 A 
ATOM     75  C   UNL A   1      30.764  25.496  23.998  1.00  0.00     0.028 A 
ATOM     76  C   UNL A   1      32.352  25.172  25.809  1.00  0.00     0.130 A 
ATOM     77  C   UNL A   1      30.809  26.877  24.203  1.00  0.00    -0.017 A 
ATOM     78  C   UNL A   1      32.415  26.549  26.003  1.00  0.00     0.048 A 
ATOM     79  C   UNL A   1      31.640  27.395  25.208  1.00  0.00     0.012 A 
BRANCH  76  80
ATOM     80  O   UNL A   1      33.129  24.353  26.578  1.00  0.00    -0.507 OA
ATOM     81  H   UNL A   1      33.494  23.573  26.209  1.00  0.00     0.293 HD
ENDBRANCH  76  80
BRANCH  77  82
ATOM     82  C   UNL A   1      30.033  27.817  23.379  1.00  0.00    -0.011 A 
ATOM     83  C   UNL A   1      30.674  28.784  22.511  1.00  0.00     0.027 A 
ATOM     84  C   UNL A   1      28.698  27.854  23.532  1.00  0.00     0.080 A 
ATOM     85  C   UNL A   1      29.961  29.762  21.942  1.00  0.00     0.095 A 
ATOM     86  C   UNL A   1      27.886  28.924  22.884  1.00  0.00     0.255 A 
ATOM     87  N   UNL A   1      28.594  29.854  22.139  1.00  0.00    -0.258 N 
ATOM     88  O   UNL A   1      26.676  28.942  23.084  1.00  0.00    -0.269 OA
BRANCH  87  89
ATOM     89  C   UNL A   1      27.856  30.969  21.606  1.00  0.00     0.451 C 
ATOM     90  F   UNL A   1      27.683  31.944  22.529  1.00  0.00    -0.185 F 
ATOM     91  F   UNL A   1      28.505  31.508  20.543  1.00  0.00    -0.185 F 
ENDBRANCH  87  89
ENDBRANCH  77  82
ENDBRANCH  72  74
ENDBRANCH  71  72
ENDBRANCH  70  71
ENDBRANCH  69  70
ENDBRANCH  68  69
ENDBRANCH   1  68
TORSDOF 20
ENDMDL
