MODEL 1
REMARK VINA RESULT:     -10.3      0.000      0.000
REMARK SMILES O=C(N[C@@H](C(=O)OCCOCCOC(=O)c1ccc(-c2c3nc(c(-c4ccc(S(=O)(=O)[O-])cc4)c4ccc([nH]4)c(-c4ccc(S(=O)(=O)[O-])cc4)c4nc(c(-c5ccc(S(=O)(=O)[O-])cc5)c5ccc2[nH]5)C=C4)C=C3)cc1)c1ccccc1)c1ccc(Br)nc1
REMARK SMILES IDX 11 1 10 2 9 3 8 4 7 5 5 6 6 7 4 8 3 9 1 10 2 11 82 13 83 14
REMARK SMILES IDX 88 15 84 16 87 17 85 18 86 19 76 20 77 21 81 22 78 23 80 24
REMARK SMILES IDX 79 25 12 26 13 27 14 28 15 29 16 30 17 31 75 32 18 33 74 34
REMARK SMILES IDX 19 35 20 36 21 37 68 38 22 39 73 40 67 41 69 42 23 43 72 44
REMARK SMILES IDX 66 45 65 46 24 48 54 49 35 50 53 51 36 52 39 53 52 54 70 55
REMARK SMILES IDX 37 56 38 57 51 59 71 60 40 61 25 62 26 63 34 64 27 65 33 66
REMARK SMILES IDX 28 67 29 68 30 69 31 70 32 71 55 72 56 73 64 74 57 75 63 76
REMARK SMILES IDX 58 77 59 78 60 79 61 80 62 81 41 82 42 83 50 84 43 85 49 86
REMARK SMILES IDX 44 87 45 88 46 89 47 90 48 91
REMARK H PARENT 3 12 69 47 39 58
REMARK Flexibility Score: inf
ROOT
ATOM      1  C   UNL A   1      34.771  28.953  27.070  1.00  0.00     0.202 C 
ENDROOT
BRANCH   1   2
ATOM      2  O   UNL A   1      33.904  29.064  25.943  1.00  0.00    -0.374 OA
BRANCH   2   3
ATOM      3  C   UNL A   1      33.419  27.847  25.370  1.00  0.00     0.202 C 
BRANCH   3   4
ATOM      4  C   UNL A   1      33.334  27.803  23.841  1.00  0.00     0.261 C 
BRANCH   4   5
ATOM      5  O   UNL A   1      32.560  26.673  23.400  1.00  0.00    -0.461 OA
BRANCH   5   6
ATOM      6  C   UNL A   1      33.235  25.734  22.681  1.00  0.00     0.333 C 
ATOM      7  O   UNL A   1      33.804  25.954  21.617  1.00  0.00    -0.249 OA
BRANCH   6   8
ATOM      8  C   UNL A   1      33.241  24.347  23.377  1.00  0.00     0.223 C 
BRANCH   8   9
ATOM      9  N   UNL A   1      32.253  24.175  24.460  1.00  0.00    -0.335 N 
ATOM     10  O   UNL A   1      30.806  23.127  25.827  1.00  0.00    -0.269 OA
ATOM     11  C   UNL A   1      31.753  23.047  25.050  1.00  0.00     0.253 C 
ATOM     12  H   UNL A   1      31.895  25.018  24.822  1.00  0.00     0.165 HD
BRANCH  11  13
ATOM     13  C   UNL A   1      32.335  21.731  24.763  1.00  0.00     0.058 A 
ATOM     14  C   UNL A   1      33.221  21.140  25.659  1.00  0.00     0.018 A 
ATOM     15  C   UNL A   1      32.066  21.069  23.576  1.00  0.00     0.126 A 
ATOM     16  C   UNL A   1      33.719  19.868  25.378  1.00  0.00     0.037 A 
ATOM     17  N   UNL A   1      32.514  19.827  23.283  1.00  0.00    -0.249 NA
ATOM     18  C   UNL A   1      33.319  19.244  24.202  1.00  0.00     0.106 A 
ATOM     19  Br  UNL A   1      33.908  17.479  23.845  1.00  0.00    -0.029 Br
ENDBRANCH  11  13
ENDBRANCH   8   9
BRANCH   8  20
ATOM     20  C   UNL A   1      34.613  23.967  23.928  1.00  0.00    -0.014 A 
ATOM     21  C   UNL A   1      35.409  23.048  23.224  1.00  0.00     0.006 A 
ATOM     22  C   UNL A   1      35.095  24.444  25.159  1.00  0.00     0.006 A 
ATOM     23  C   UNL A   1      36.633  22.613  23.734  1.00  0.00     0.000 A 
ATOM     24  C   UNL A   1      36.317  24.004  25.673  1.00  0.00     0.000 A 
ATOM     25  C   UNL A   1      37.084  23.087  24.962  1.00  0.00     0.000 A 
ENDBRANCH   8  20
ENDBRANCH   6   8
ENDBRANCH   5   6
ENDBRANCH   4   5
ENDBRANCH   3   4
ENDBRANCH   2   3
ENDBRANCH   1   2
BRANCH   1  26
ATOM     26  C   UNL A   1      35.074  30.221  27.875  1.00  0.00     0.261 C 
BRANCH  26  27
ATOM     27  O   UNL A   1      36.480  30.433  28.049  1.00  0.00    -0.460 OA
BRANCH  27  28
ATOM     28  C   UNL A   1      37.036  29.710  29.050  1.00  0.00     0.338 C 
ATOM     29  O   UNL A   1      36.484  29.315  30.069  1.00  0.00    -0.246 OA
BRANCH  28  30
ATOM     30  C   UNL A   1      38.384  29.272  28.654  1.00  0.00     0.060 A 
ATOM     31  C   UNL A   1      39.235  28.811  29.667  1.00  0.00     0.016 A 
ATOM     32  C   UNL A   1      38.825  29.347  27.331  1.00  0.00     0.016 A 
ATOM     33  C   UNL A   1      40.550  28.468  29.370  1.00  0.00     0.010 A 
ATOM     34  C   UNL A   1      40.149  29.013  27.037  1.00  0.00     0.010 A 
ATOM     35  C   UNL A   1      41.024  28.605  28.059  1.00  0.00    -0.014 A 
BRANCH  35  36
ATOM     36  C   UNL A   1      42.472  28.464  27.786  1.00  0.00     0.031 A 
ATOM     37  C   UNL A   1      43.375  29.639  28.043  1.00  0.00     0.074 A 
ATOM     38  C   UNL A   1      42.975  27.301  27.340  1.00  0.00     0.049 A 
ATOM     39  N   UNL A   1      44.660  29.754  27.839  1.00  0.00    -0.248 NA
ATOM     40  C   UNL A   1      42.742  30.842  28.609  1.00  0.00     0.031 C 
ATOM     41  C   UNL A   1      42.204  26.079  27.111  1.00  0.00     0.029 A 
ATOM     42  N   UNL A   1      44.258  26.958  26.999  1.00  0.00    -0.354 N 
ATOM     43  C   UNL A   1      44.991  31.043  28.242  1.00  0.00     0.074 A 
ATOM     44  C   UNL A   1      43.766  31.680  28.675  1.00  0.00     0.031 C 
ATOM     45  C   UNL A   1      43.032  25.120  26.660  1.00  0.00     0.029 A 
ATOM     46  C   UNL A   1      44.379  25.672  26.532  1.00  0.00     0.049 A 
ATOM     47  H   UNL A   1      45.020  27.577  27.079  1.00  0.00     0.167 HD
ATOM     48  C   UNL A   1      46.206  31.640  28.253  1.00  0.00     0.031 A 
ATOM     49  C   UNL A   1      45.451  25.023  26.039  1.00  0.00     0.031 A 
ATOM     50  C   UNL A   1      47.415  31.007  27.798  1.00  0.00     0.049 A 
ATOM     51  C   UNL A   1      46.775  25.740  25.969  1.00  0.00     0.074 A 
ATOM     52  C   UNL A   1      48.699  31.522  27.767  1.00  0.00     0.029 A 
ATOM     53  N   UNL A   1      47.487  29.721  27.283  1.00  0.00    -0.354 N 
ATOM     54  N   UNL A   1      47.076  26.954  26.364  1.00  0.00    -0.248 NA
ATOM     55  C   UNL A   1      47.902  24.997  25.390  1.00  0.00     0.031 C 
ATOM     56  C   UNL A   1      49.537  30.569  27.178  1.00  0.00     0.029 A 
ATOM     57  C   UNL A   1      48.788  29.435  26.904  1.00  0.00     0.049 A 
ATOM     58  H   UNL A   1      46.725  29.103  27.199  1.00  0.00     0.167 HD
ATOM     59  C   UNL A   1      48.434  27.110  26.108  1.00  0.00     0.074 A 
ATOM     60  C   UNL A   1      48.896  25.863  25.534  1.00  0.00     0.031 C 
ATOM     61  C   UNL A   1      49.228  28.187  26.331  1.00  0.00     0.031 A 
BRANCH  48  62
ATOM     62  C   UNL A   1      46.274  33.064  28.739  1.00  0.00    -0.014 A 
ATOM     63  C   UNL A   1      46.520  33.365  30.090  1.00  0.00     0.010 A 
ATOM     64  C   UNL A   1      46.108  34.121  27.824  1.00  0.00     0.010 A 
ATOM     65  C   UNL A   1      46.553  34.692  30.527  1.00  0.00     0.020 A 
ATOM     66  C   UNL A   1      46.169  35.450  28.251  1.00  0.00     0.020 A 
ATOM     67  C   UNL A   1      46.372  35.727  29.604  1.00  0.00     0.054 A 
BRANCH  67  68
ATOM     68  S   UNL A   1      46.428  37.441  30.196  1.00  0.00     0.124 S 
ATOM     69  O   UNL A   1      45.317  38.047  29.464  1.00  0.00    -0.237 OA
ATOM     70  O   UNL A   1      46.223  37.290  31.634  1.00  0.00    -0.237 OA
ATOM     71  O   UNL A   1      47.757  37.901  29.803  1.00  0.00    -0.744 OA
ENDBRANCH  67  68
ENDBRANCH  48  62
BRANCH  49  72
ATOM     72  C   UNL A   1      45.313  23.622  25.554  1.00  0.00    -0.014 A 
ATOM     73  C   UNL A   1      45.452  22.541  26.441  1.00  0.00     0.010 A 
ATOM     74  C   UNL A   1      45.031  23.364  24.200  1.00  0.00     0.010 A 
ATOM     75  C   UNL A   1      45.321  21.227  25.982  1.00  0.00     0.020 A 
ATOM     76  C   UNL A   1      44.872  22.053  23.743  1.00  0.00     0.020 A 
ATOM     77  C   UNL A   1      45.027  20.992  24.635  1.00  0.00     0.054 A 
BRANCH  77  78
ATOM     78  S   UNL A   1      44.800  19.281  24.074  1.00  0.00     0.124 S 
ATOM     79  O   UNL A   1      44.575  19.459  22.643  1.00  0.00    -0.237 OA
ATOM     80  O   UNL A   1      46.069  18.660  24.444  1.00  0.00    -0.237 OA
ATOM     81  O   UNL A   1      43.643  18.822  24.839  1.00  0.00    -0.744 OA
ENDBRANCH  77  78
ENDBRANCH  49  72
BRANCH  61  82
ATOM     82  C   UNL A   1      50.689  28.057  25.988  1.00  0.00    -0.014 A 
ATOM     83  C   UNL A   1      51.179  28.436  24.726  1.00  0.00     0.010 A 
ATOM     84  C   UNL A   1      51.593  27.609  26.969  1.00  0.00     0.010 A 
ATOM     85  C   UNL A   1      52.546  28.346  24.444  1.00  0.00     0.020 A 
ATOM     86  C   UNL A   1      52.963  27.545  26.700  1.00  0.00     0.020 A 
ATOM     87  C   UNL A   1      53.429  27.903  25.434  1.00  0.00     0.054 A 
BRANCH  87  88
ATOM     88  S   UNL A   1      55.203  27.847  25.060  1.00  0.00     0.124 S 
ATOM     89  O   UNL A   1      55.516  26.438  25.280  1.00  0.00    -0.237 OA
ATOM     90  O   UNL A   1      55.250  28.292  23.669  1.00  0.00    -0.237 OA
ATOM     91  O   UNL A   1      55.790  28.774  26.024  1.00  0.00    -0.744 OA
ENDBRANCH  87  88
ENDBRANCH  61  82
ENDBRANCH  35  36
ENDBRANCH  28  30
ENDBRANCH  27  28
ENDBRANCH  26  27
ENDBRANCH   1  26
TORSDOF 20
ENDMDL
MODEL 2
REMARK VINA RESULT:     -10.0      2.289      3.842
REMARK SMILES O=C(N[C@@H](C(=O)OCCOCCOC(=O)c1ccc(-c2c3nc(c(-c4ccc(S(=O)(=O)[O-])cc4)c4ccc([nH]4)c(-c4ccc(S(=O)(=O)[O-])cc4)c4nc(c(-c5ccc(S(=O)(=O)[O-])cc5)c5ccc2[nH]5)C=C4)C=C3)cc1)c1ccccc1)c1ccc(Br)nc1
REMARK SMILES IDX 11 1 10 2 9 3 8 4 7 5 5 6 6 7 4 8 3 9 1 10 2 11 82 13 83 14
REMARK SMILES IDX 88 15 84 16 87 17 85 18 86 19 76 20 77 21 81 22 78 23 80 24
REMARK SMILES IDX 79 25 12 26 13 27 14 28 15 29 16 30 17 31 75 32 18 33 74 34
REMARK SMILES IDX 19 35 20 36 21 37 68 38 22 39 73 40 67 41 69 42 23 43 72 44
REMARK SMILES IDX 66 45 65 46 24 48 54 49 35 50 53 51 36 52 39 53 52 54 70 55
REMARK SMILES IDX 37 56 38 57 51 59 71 60 40 61 25 62 26 63 34 64 27 65 33 66
REMARK SMILES IDX 28 67 29 68 30 69 31 70 32 71 55 72 56 73 64 74 57 75 63 76
REMARK SMILES IDX 58 77 59 78 60 79 61 80 62 81 41 82 42 83 50 84 43 85 49 86
REMARK SMILES IDX 44 87 45 88 46 89 47 90 48 91
REMARK H PARENT 3 12 69 47 39 58
REMARK Flexibility Score: inf
ROOT
ATOM      1  C   UNL A   1      34.375  32.091  27.742  1.00  0.00     0.202 C 
ENDROOT
BRANCH   1   2
ATOM      2  O   UNL A   1      34.048  30.840  27.139  1.00  0.00    -0.374 OA
BRANCH   2   3
ATOM      3  C   UNL A   1      32.663  30.568  26.909  1.00  0.00     0.202 C 
BRANCH   3   4
ATOM      4  C   UNL A   1      32.319  29.159  26.415  1.00  0.00     0.261 C 
BRANCH   4   5
ATOM      5  O   UNL A   1      31.589  29.212  25.177  1.00  0.00    -0.461 OA
BRANCH   5   6
ATOM      6  C   UNL A   1      32.226  28.696  24.088  1.00  0.00     0.333 C 
ATOM      7  O   UNL A   1      33.417  28.854  23.844  1.00  0.00    -0.249 OA
BRANCH   6   8
ATOM      8  C   UNL A   1      31.281  27.847  23.198  1.00  0.00     0.223 C 
BRANCH   8   9
ATOM      9  N   UNL A   1      31.898  27.263  21.991  1.00  0.00    -0.335 N 
ATOM     10  O   UNL A   1      33.181  25.894  20.749  1.00  0.00    -0.269 OA
ATOM     11  C   UNL A   1      32.610  26.108  21.814  1.00  0.00     0.253 C 
ATOM     12  H   UNL A   1      31.775  27.796  21.172  1.00  0.00     0.165 HD
BRANCH  11  13
ATOM     13  C   UNL A   1      32.703  25.114  22.889  1.00  0.00     0.058 A 
ATOM     14  C   UNL A   1      31.704  24.159  23.057  1.00  0.00     0.018 A 
ATOM     15  C   UNL A   1      33.749  25.132  23.796  1.00  0.00     0.126 A 
ATOM     16  C   UNL A   1      31.847  23.200  24.059  1.00  0.00     0.037 A 
ATOM     17  N   UNL A   1      33.929  24.204  24.764  1.00  0.00    -0.249 NA
ATOM     18  C   UNL A   1      32.980  23.245  24.863  1.00  0.00     0.106 A 
ATOM     19  Br  UNL A   1      33.241  21.896  26.168  1.00  0.00    -0.029 Br
ENDBRANCH  11  13
ENDBRANCH   8   9
BRANCH   8  20
ATOM     20  C   UNL A   1      30.032  28.612  22.763  1.00  0.00    -0.014 A 
ATOM     21  C   UNL A   1      30.173  29.794  22.017  1.00  0.00     0.006 A 
ATOM     22  C   UNL A   1      28.736  28.224  23.139  1.00  0.00     0.006 A 
ATOM     23  C   UNL A   1      29.063  30.565  21.669  1.00  0.00     0.000 A 
ATOM     24  C   UNL A   1      27.625  28.999  22.797  1.00  0.00     0.000 A 
ATOM     25  C   UNL A   1      27.789  30.171  22.065  1.00  0.00     0.000 A 
ENDBRANCH   8  20
ENDBRANCH   6   8
ENDBRANCH   5   6
ENDBRANCH   4   5
ENDBRANCH   3   4
ENDBRANCH   2   3
ENDBRANCH   1   2
BRANCH   1  26
ATOM     26  C   UNL A   1      34.562  32.130  29.262  1.00  0.00     0.261 C 
BRANCH  26  27
ATOM     27  O   UNL A   1      35.932  32.324  29.638  1.00  0.00    -0.460 OA
BRANCH  27  28
ATOM     28  C   UNL A   1      36.357  31.520  30.640  1.00  0.00     0.338 C 
ATOM     29  O   UNL A   1      35.771  31.272  31.686  1.00  0.00    -0.246 OA
BRANCH  28  30
ATOM     30  C   UNL A   1      37.566  30.796  30.214  1.00  0.00     0.060 A 
ATOM     31  C   UNL A   1      38.397  30.282  31.218  1.00  0.00     0.016 A 
ATOM     32  C   UNL A   1      37.905  30.655  28.866  1.00  0.00     0.016 A 
ATOM     33  C   UNL A   1      39.599  29.668  30.881  1.00  0.00     0.010 A 
ATOM     34  C   UNL A   1      39.117  30.048  28.531  1.00  0.00     0.010 A 
ATOM     35  C   UNL A   1      39.983  29.583  29.537  1.00  0.00    -0.014 A 
BRANCH  35  36
ATOM     36  C   UNL A   1      41.354  29.143  29.193  1.00  0.00     0.031 A 
ATOM     37  C   UNL A   1      42.478  30.137  29.287  1.00  0.00     0.074 A 
ATOM     38  C   UNL A   1      41.594  27.872  28.829  1.00  0.00     0.049 A 
ATOM     39  N   UNL A   1      43.743  29.984  28.998  1.00  0.00    -0.248 NA
ATOM     40  C   UNL A   1      42.127  31.481  29.776  1.00  0.00     0.031 C 
ATOM     41  C   UNL A   1      40.591  26.809  28.760  1.00  0.00     0.029 A 
ATOM     42  N   UNL A   1      42.760  27.261  28.445  1.00  0.00    -0.354 N 
ATOM     43  C   UNL A   1      44.339  31.213  29.260  1.00  0.00     0.074 A 
ATOM     44  C   UNL A   1      43.293  32.107  29.703  1.00  0.00     0.031 C 
ATOM     45  C   UNL A   1      41.188  25.675  28.351  1.00  0.00     0.029 A 
ATOM     46  C   UNL A   1      42.602  25.943  28.094  1.00  0.00     0.049 A 
ATOM     47  H   UNL A   1      43.629  27.725  28.423  1.00  0.00     0.167 HD
ATOM     48  C   UNL A   1      45.643  31.561  29.145  1.00  0.00     0.031 A 
ATOM     49  C   UNL A   1      43.492  25.061  27.601  1.00  0.00     0.031 A 
ATOM     50  C   UNL A   1      46.673  30.672  28.679  1.00  0.00     0.049 A 
ATOM     51  C   UNL A   1      44.918  25.500  27.387  1.00  0.00     0.074 A 
ATOM     52  C   UNL A   1      48.024  30.924  28.526  1.00  0.00     0.029 A 
ATOM     53  N   UNL A   1      46.463  29.359  28.283  1.00  0.00    -0.354 N 
ATOM     54  N   UNL A   1      45.471  26.661  27.650  1.00  0.00    -0.248 NA
ATOM     55  C   UNL A   1      45.838  24.509  26.814  1.00  0.00     0.031 C 
ATOM     56  C   UNL A   1      48.621  29.782  27.980  1.00  0.00     0.029 A 
ATOM     57  C   UNL A   1      47.654  28.797  27.856  1.00  0.00     0.049 A 
ATOM     58  H   UNL A   1      45.595  28.896  28.302  1.00  0.00     0.167 HD
ATOM     59  C   UNL A   1      46.811  26.529  27.301  1.00  0.00     0.074 A 
ATOM     60  C   UNL A   1      46.985  25.175  26.819  1.00  0.00     0.031 C 
ATOM     61  C   UNL A   1      47.808  27.446  27.377  1.00  0.00     0.031 A 
BRANCH  48  62
ATOM     62  C   UNL A   1      46.013  32.979  29.492  1.00  0.00    -0.014 A 
ATOM     63  C   UNL A   1      46.465  33.323  30.778  1.00  0.00     0.010 A 
ATOM     64  C   UNL A   1      45.928  33.983  28.508  1.00  0.00     0.010 A 
ATOM     65  C   UNL A   1      46.779  34.649  31.089  1.00  0.00     0.020 A 
ATOM     66  C   UNL A   1      46.268  35.305  28.806  1.00  0.00     0.020 A 
ATOM     67  C   UNL A   1      46.674  35.633  30.101  1.00  0.00     0.054 A 
BRANCH  67  68
ATOM     68  S   UNL A   1      47.096  37.344  30.529  1.00  0.00     0.124 S 
ATOM     69  O   UNL A   1      48.556  37.310  30.498  1.00  0.00    -0.237 OA
ATOM     70  O   UNL A   1      46.463  38.108  29.456  1.00  0.00    -0.237 OA
ATOM     71  O   UNL A   1      46.506  37.528  31.852  1.00  0.00    -0.744 OA
ENDBRANCH  67  68
ENDBRANCH  48  62
BRANCH  49  72
ATOM     72  C   UNL A   1      43.057  23.680  27.257  1.00  0.00    -0.014 A 
ATOM     73  C   UNL A   1      42.794  23.324  25.923  1.00  0.00     0.010 A 
ATOM     74  C   UNL A   1      42.914  22.708  28.265  1.00  0.00     0.010 A 
ATOM     75  C   UNL A   1      42.386  22.025  25.605  1.00  0.00     0.020 A 
ATOM     76  C   UNL A   1      42.533  21.402  27.947  1.00  0.00     0.020 A 
ATOM     77  C   UNL A   1      42.263  21.071  26.619  1.00  0.00     0.054 A 
BRANCH  77  78
ATOM     78  S   UNL A   1      41.792  19.376  26.175  1.00  0.00     0.124 S 
ATOM     79  O   UNL A   1      42.151  18.636  27.381  1.00  0.00    -0.237 OA
ATOM     80  O   UNL A   1      40.361  19.506  25.914  1.00  0.00    -0.237 OA
ATOM     81  O   UNL A   1      42.610  19.092  24.997  1.00  0.00    -0.744 OA
ENDBRANCH  77  78
ENDBRANCH  49  72
BRANCH  61  82
ATOM     82  C   UNL A   1      49.188  27.008  26.961  1.00  0.00    -0.014 A 
ATOM     83  C   UNL A   1      50.191  26.753  27.913  1.00  0.00     0.010 A 
ATOM     84  C   UNL A   1      49.462  26.786  25.599  1.00  0.00     0.010 A 
ATOM     85  C   UNL A   1      51.452  26.307  27.505  1.00  0.00     0.020 A 
ATOM     86  C   UNL A   1      50.712  26.312  25.190  1.00  0.00     0.020 A 
ATOM     87  C   UNL A   1      51.703  26.087  26.147  1.00  0.00     0.054 A 
BRANCH  87  88
ATOM     88  S   UNL A   1      53.330  25.457  25.651  1.00  0.00     0.124 S 
ATOM     89  O   UNL A   1      53.600  26.231  24.443  1.00  0.00    -0.237 OA
ATOM     90  O   UNL A   1      54.164  25.781  26.806  1.00  0.00    -0.237 OA
ATOM     91  O   UNL A   1      53.099  24.030  25.438  1.00  0.00    -0.744 OA
ENDBRANCH  87  88
ENDBRANCH  61  82
ENDBRANCH  35  36
ENDBRANCH  28  30
ENDBRANCH  27  28
ENDBRANCH  26  27
ENDBRANCH   1  26
TORSDOF 20
ENDMDL
MODEL 3
REMARK VINA RESULT:     -10.0      7.250     12.690
REMARK SMILES O=C(N[C@@H](C(=O)OCCOCCOC(=O)c1ccc(-c2c3nc(c(-c4ccc(S(=O)(=O)[O-])cc4)c4ccc([nH]4)c(-c4ccc(S(=O)(=O)[O-])cc4)c4nc(c(-c5ccc(S(=O)(=O)[O-])cc5)c5ccc2[nH]5)C=C4)C=C3)cc1)c1ccccc1)c1ccc(Br)nc1
REMARK SMILES IDX 11 1 10 2 9 3 8 4 7 5 5 6 6 7 4 8 3 9 1 10 2 11 82 13 83 14
REMARK SMILES IDX 88 15 84 16 87 17 85 18 86 19 76 20 77 21 81 22 78 23 80 24
REMARK SMILES IDX 79 25 12 26 13 27 14 28 15 29 16 30 17 31 75 32 18 33 74 34
REMARK SMILES IDX 19 35 20 36 21 37 68 38 22 39 73 40 67 41 69 42 23 43 72 44
REMARK SMILES IDX 66 45 65 46 24 48 54 49 35 50 53 51 36 52 39 53 52 54 70 55
REMARK SMILES IDX 37 56 38 57 51 59 71 60 40 61 25 62 26 63 34 64 27 65 33 66
REMARK SMILES IDX 28 67 29 68 30 69 31 70 32 71 55 72 56 73 64 74 57 75 63 76
REMARK SMILES IDX 58 77 59 78 60 79 61 80 62 81 41 82 42 83 50 84 43 85 49 86
REMARK SMILES IDX 44 87 45 88 46 89 47 90 48 91
REMARK H PARENT 3 12 69 47 39 58
REMARK Flexibility Score: inf
ROOT
ATOM      1  C   UNL A   1      37.114  23.591  25.739  1.00  0.00     0.202 C 
ENDROOT
BRANCH   1   2
ATOM      2  O   UNL A   1      36.481  22.316  25.836  1.00  0.00    -0.374 OA
BRANCH   2   3
ATOM      3  C   UNL A   1      35.101  22.242  25.470  1.00  0.00     0.202 C 
BRANCH   3   4
ATOM      4  C   UNL A   1      34.111  22.934  26.413  1.00  0.00     0.261 C 
BRANCH   4   5
ATOM      5  O   UNL A   1      32.794  22.975  25.837  1.00  0.00    -0.461 OA
BRANCH   5   6
ATOM      6  C   UNL A   1      31.932  23.878  26.384  1.00  0.00     0.333 C 
ATOM      7  O   UNL A   1      31.396  23.747  27.479  1.00  0.00    -0.249 OA
BRANCH   6   8
ATOM      8  C   UNL A   1      31.728  25.123  25.481  1.00  0.00     0.223 C 
BRANCH   8   9
ATOM      9  N   UNL A   1      32.324  25.037  24.134  1.00  0.00    -0.335 N 
ATOM     10  O   UNL A   1      32.558  25.376  21.922  1.00  0.00    -0.269 OA
ATOM     11  C   UNL A   1      32.052  25.726  22.984  1.00  0.00     0.253 C 
ATOM     12  H   UNL A   1      33.042  24.369  24.049  1.00  0.00     0.165 HD
BRANCH  11  13
ATOM     13  C   UNL A   1      31.155  26.887  23.002  1.00  0.00     0.058 A 
ATOM     14  C   UNL A   1      29.795  26.726  23.250  1.00  0.00     0.018 A 
ATOM     15  C   UNL A   1      31.622  28.161  22.719  1.00  0.00     0.126 A 
ATOM     16  C   UNL A   1      28.979  27.856  23.307  1.00  0.00     0.037 A 
ATOM     17  N   UNL A   1      30.863  29.278  22.788  1.00  0.00    -0.249 NA
ATOM     18  C   UNL A   1      29.558  29.103  23.099  1.00  0.00     0.106 A 
ATOM     19  Br  UNL A   1      28.487  30.657  23.265  1.00  0.00    -0.029 Br
ENDBRANCH  11  13
ENDBRANCH   8   9
BRANCH   8  20
ATOM     20  C   UNL A   1      32.224  26.413  26.132  1.00  0.00    -0.014 A 
ATOM     21  C   UNL A   1      31.320  27.215  26.849  1.00  0.00     0.006 A 
ATOM     22  C   UNL A   1      33.540  26.880  25.984  1.00  0.00     0.006 A 
ATOM     23  C   UNL A   1      31.713  28.440  27.389  1.00  0.00     0.000 A 
ATOM     24  C   UNL A   1      33.933  28.109  26.519  1.00  0.00     0.000 A 
ATOM     25  C   UNL A   1      33.018  28.890  27.218  1.00  0.00     0.000 A 
ENDBRANCH   8  20
ENDBRANCH   6   8
ENDBRANCH   5   6
ENDBRANCH   4   5
ENDBRANCH   3   4
ENDBRANCH   2   3
ENDBRANCH   1   2
BRANCH   1  26
ATOM     26  C   UNL A   1      38.475  23.773  26.417  1.00  0.00     0.261 C 
BRANCH  26  27
ATOM     27  O   UNL A   1      38.785  25.152  26.656  1.00  0.00    -0.460 OA
BRANCH  27  28
ATOM     28  C   UNL A   1      39.971  25.360  27.274  1.00  0.00     0.338 C 
ATOM     29  O   UNL A   1      41.066  24.930  26.934  1.00  0.00    -0.246 OA
BRANCH  28  30
ATOM     30  C   UNL A   1      39.806  26.368  28.334  1.00  0.00     0.060 A 
ATOM     31  C   UNL A   1      40.561  27.544  28.228  1.00  0.00     0.016 A 
ATOM     32  C   UNL A   1      38.965  26.157  29.429  1.00  0.00     0.016 A 
ATOM     33  C   UNL A   1      40.517  28.494  29.244  1.00  0.00     0.010 A 
ATOM     34  C   UNL A   1      38.931  27.106  30.453  1.00  0.00     0.010 A 
ATOM     35  C   UNL A   1      39.731  28.261  30.379  1.00  0.00    -0.014 A 
BRANCH  35  36
ATOM     36  C   UNL A   1      39.861  29.152  31.555  1.00  0.00     0.031 A 
ATOM     37  C   UNL A   1      41.007  28.936  32.503  1.00  0.00     0.074 A 
ATOM     38  C   UNL A   1      38.984  30.150  31.756  1.00  0.00     0.049 A 
ATOM     39  N   UNL A   1      41.292  29.566  33.612  1.00  0.00    -0.248 NA
ATOM     40  C   UNL A   1      41.960  27.870  32.151  1.00  0.00     0.031 C 
ATOM     41  C   UNL A   1      37.870  30.488  30.872  1.00  0.00     0.029 A 
ATOM     42  N   UNL A   1      38.895  31.064  32.775  1.00  0.00    -0.354 N 
ATOM     43  C   UNL A   1      42.450  28.969  34.097  1.00  0.00     0.074 A 
ATOM     44  C   UNL A   1      42.798  27.909  33.177  1.00  0.00     0.031 C 
ATOM     45  C   UNL A   1      37.203  31.535  31.392  1.00  0.00     0.029 A 
ATOM     46  C   UNL A   1      37.821  31.912  32.662  1.00  0.00     0.049 A 
ATOM     47  H   UNL A   1      39.541  31.106  33.518  1.00  0.00     0.167 HD
ATOM     48  C   UNL A   1      43.161  29.280  35.206  1.00  0.00     0.031 A 
ATOM     49  C   UNL A   1      37.376  32.869  33.499  1.00  0.00     0.031 A 
ATOM     50  C   UNL A   1      42.794  30.321  36.129  1.00  0.00     0.049 A 
ATOM     51  C   UNL A   1      38.127  33.132  34.778  1.00  0.00     0.074 A 
ATOM     52  C   UNL A   1      43.445  30.718  37.283  1.00  0.00     0.029 A 
ATOM     53  N   UNL A   1      41.669  31.124  36.007  1.00  0.00    -0.354 N 
ATOM     54  N   UNL A   1      39.228  32.568  35.218  1.00  0.00    -0.248 NA
ATOM     55  C   UNL A   1      37.579  34.162  35.670  1.00  0.00     0.031 C 
ATOM     56  C   UNL A   1      42.681  31.722  37.890  1.00  0.00     0.029 A 
ATOM     57  C   UNL A   1      41.590  31.995  37.080  1.00  0.00     0.049 A 
ATOM     58  H   UNL A   1      41.022  31.080  35.266  1.00  0.00     0.167 HD
ATOM     59  C   UNL A   1      39.519  33.196  36.425  1.00  0.00     0.074 A 
ATOM     60  C   UNL A   1      38.485  34.188  36.639  1.00  0.00     0.031 C 
ATOM     61  C   UNL A   1      40.551  32.974  37.277  1.00  0.00     0.031 A 
BRANCH  48  62
ATOM     62  C   UNL A   1      44.386  28.453  35.498  1.00  0.00    -0.014 A 
ATOM     63  C   UNL A   1      44.292  27.222  36.171  1.00  0.00     0.010 A 
ATOM     64  C   UNL A   1      45.650  28.906  35.076  1.00  0.00     0.010 A 
ATOM     65  C   UNL A   1      45.443  26.481  36.457  1.00  0.00     0.020 A 
ATOM     66  C   UNL A   1      46.799  28.154  35.334  1.00  0.00     0.020 A 
ATOM     67  C   UNL A   1      46.690  26.955  36.040  1.00  0.00     0.054 A 
BRANCH  67  68
ATOM     68  S   UNL A   1      48.166  25.970  36.417  1.00  0.00     0.124 S 
ATOM     69  O   UNL A   1      47.887  25.521  37.780  1.00  0.00    -0.237 OA
ATOM     70  O   UNL A   1      48.127  24.930  35.393  1.00  0.00    -0.237 OA
ATOM     71  O   UNL A   1      49.263  26.925  36.290  1.00  0.00    -0.744 OA
ENDBRANCH  67  68
ENDBRANCH  48  62
BRANCH  49  72
ATOM     72  C   UNL A   1      36.146  33.637  33.162  1.00  0.00    -0.014 A 
ATOM     73  C   UNL A   1      34.874  33.080  33.378  1.00  0.00     0.010 A 
ATOM     74  C   UNL A   1      36.243  34.937  32.633  1.00  0.00     0.010 A 
ATOM     75  C   UNL A   1      33.721  33.805  33.061  1.00  0.00     0.020 A 
ATOM     76  C   UNL A   1      35.093  35.675  32.341  1.00  0.00     0.020 A 
ATOM     77  C   UNL A   1      33.838  35.101  32.549  1.00  0.00     0.054 A 
BRANCH  77  78
ATOM     78  S   UNL A   1      32.329  36.045  32.203  1.00  0.00     0.124 S 
ATOM     79  O   UNL A   1      32.428  36.259  30.762  1.00  0.00    -0.237 OA
ATOM     80  O   UNL A   1      31.278  35.127  32.636  1.00  0.00    -0.237 OA
ATOM     81  O   UNL A   1      32.479  37.242  33.027  1.00  0.00    -0.744 OA
ENDBRANCH  77  78
ENDBRANCH  49  72
BRANCH  61  82
ATOM     82  C   UNL A   1      40.636  33.842  38.505  1.00  0.00    -0.014 A 
ATOM     83  C   UNL A   1      40.929  35.214  38.412  1.00  0.00     0.010 A 
ATOM     84  C   UNL A   1      40.354  33.285  39.766  1.00  0.00     0.010 A 
ATOM     85  C   UNL A   1      40.962  36.007  39.563  1.00  0.00     0.020 A 
ATOM     86  C   UNL A   1      40.356  34.081  40.915  1.00  0.00     0.020 A 
ATOM     87  C   UNL A   1      40.673  35.436  40.806  1.00  0.00     0.054 A 
BRANCH  87  88
ATOM     88  S   UNL A   1      40.669  36.499  42.276  1.00  0.00     0.124 S 
ATOM     89  O   UNL A   1      39.624  37.466  41.949  1.00  0.00    -0.237 OA
ATOM     90  O   UNL A   1      40.344  35.561  43.347  1.00  0.00    -0.237 OA
ATOM     91  O   UNL A   1      42.026  37.039  42.318  1.00  0.00    -0.744 OA
ENDBRANCH  87  88
ENDBRANCH  61  82
ENDBRANCH  35  36
ENDBRANCH  28  30
ENDBRANCH  27  28
ENDBRANCH  26  27
ENDBRANCH   1  26
TORSDOF 20
ENDMDL
