MODEL 1
REMARK VINA RESULT:     -11.2      0.000      0.000
REMARK SMILES Nn1c(S[C@@H](C(=O)OCCOCCOC(=O)c2ccc(-c3c4nc(c(-c5ccc(S(=O)(=O)[O-])cc5)c5ccc([nH]5)c(-c5ccc(S(=O)(=O)[O-])cc5)c5nc(c(-c6ccc(S(=O)(=O)[O-])cc6)c6ccc3[nH]6)C=C5)C=C4)cc2)c2ccccc2)nc2ccc(Br)cc2c1=O
REMARK SMILES IDX 11 1 10 2 9 3 8 4 6 5 7 6 5 7 4 8 3 9 2 10 91 11 83 12 90 13
REMARK SMILES IDX 92 14 84 15 89 16 85 17 87 18 86 19 88 20 1 21 77 24 78 25
REMARK SMILES IDX 82 26 79 27 81 28 80 29 12 30 13 31 14 32 15 33 16 34 17 35
REMARK SMILES IDX 18 36 76 37 19 38 75 39 20 40 21 41 22 42 69 43 23 44 74 45
REMARK SMILES IDX 68 46 70 47 24 48 73 49 67 50 66 51 25 53 55 54 36 55 54 56
REMARK SMILES IDX 37 57 40 58 53 59 71 60 38 61 39 62 52 64 72 65 41 66 26 67
REMARK SMILES IDX 27 68 35 69 28 70 34 71 29 72 30 73 31 74 32 75 33 76 56 77
REMARK SMILES IDX 57 78 65 79 58 80 64 81 59 82 60 83 61 84 62 85 63 86 42 87
REMARK SMILES IDX 43 88 51 89 44 90 50 91 45 92 46 93 47 94 48 95 49 96
REMARK H PARENT 1 22 1 23 70 52 40 63
REMARK Flexibility Score: inf
ROOT
ATOM      1  O   UNL A   1      32.641  27.889  25.842  1.00  0.00    -0.374 OA
ENDROOT
BRANCH   1   2
ATOM      2  C   UNL A   1      33.667  27.892  24.852  1.00  0.00     0.202 C 
BRANCH   2   3
ATOM      3  C   UNL A   1      33.519  26.962  23.637  1.00  0.00     0.261 C 
BRANCH   3   4
ATOM      4  O   UNL A   1      32.884  27.564  22.483  1.00  0.00    -0.462 OA
BRANCH   4   5
ATOM      5  C   UNL A   1      31.642  27.076  22.193  1.00  0.00     0.324 C 
ATOM      6  O   UNL A   1      31.427  26.382  21.199  1.00  0.00    -0.251 OA
BRANCH   5   7
ATOM      7  C   UNL A   1      30.510  27.441  23.173  1.00  0.00     0.194 C 
BRANCH   7   8
ATOM      8  S   UNL A   1      29.719  26.080  24.057  1.00  0.00    -0.066 SA
BRANCH   8   9
ATOM      9  C   UNL A   1      30.689  24.726  24.594  1.00  0.00     0.191 A 
ATOM     10  N   UNL A   1      31.166  24.490  25.886  1.00  0.00    -0.202 N 
ATOM     11  C   UNL A   1      31.711  23.257  26.268  1.00  0.00     0.280 A 
ATOM     12  N   UNL A   1      30.898  23.861  23.642  1.00  0.00    -0.222 NA
ATOM     13  C   UNL A   1      31.903  22.271  25.206  1.00  0.00     0.069 A 
ATOM     14  O   UNL A   1      31.999  22.980  27.432  1.00  0.00    -0.267 OA
ATOM     15  C   UNL A   1      31.556  22.653  23.914  1.00  0.00     0.079 A 
ATOM     16  C   UNL A   1      32.429  21.007  25.495  1.00  0.00     0.031 A 
ATOM     17  C   UNL A   1      31.818  21.758  22.874  1.00  0.00     0.030 A 
ATOM     18  C   UNL A   1      32.662  20.124  24.449  1.00  0.00     0.018 A 
ATOM     19  C   UNL A   1      32.378  20.499  23.137  1.00  0.00     0.018 A 
ATOM     20  Br  UNL A   1      33.373  18.411  24.815  1.00  0.00    -0.051 Br
BRANCH  10  21
ATOM     21  N   UNL A   1      31.167  25.441  26.903  1.00  0.00    -0.334 N 
ATOM     22  H   UNL A   1      32.016  25.827  27.216  1.00  0.00     0.178 HD
ATOM     23  H   UNL A   1      30.317  25.728  27.309  1.00  0.00     0.178 HD
ENDBRANCH  10  21
ENDBRANCH   8   9
ENDBRANCH   7   8
BRANCH   7  24
ATOM     24  C   UNL A   1      29.637  28.631  22.772  1.00  0.00    -0.023 A 
ATOM     25  C   UNL A   1      30.133  29.717  22.021  1.00  0.00     0.005 A 
ATOM     26  C   UNL A   1      28.266  28.628  23.094  1.00  0.00     0.005 A 
ATOM     27  C   UNL A   1      29.268  30.683  21.499  1.00  0.00     0.000 A 
ATOM     28  C   UNL A   1      27.406  29.596  22.571  1.00  0.00     0.000 A 
ATOM     29  C   UNL A   1      27.903  30.606  21.753  1.00  0.00     0.000 A 
ENDBRANCH   7  24
ENDBRANCH   5   7
ENDBRANCH   4   5
ENDBRANCH   3   4
ENDBRANCH   2   3
ENDBRANCH   1   2
BRANCH   1  30
ATOM     30  C   UNL A   1      31.988  29.121  26.101  1.00  0.00     0.202 C 
BRANCH  30  31
ATOM     31  C   UNL A   1      32.771  30.246  26.784  1.00  0.00     0.261 C 
BRANCH  31  32
ATOM     32  O   UNL A   1      33.727  29.817  27.743  1.00  0.00    -0.460 OA
BRANCH  32  33
ATOM     33  C   UNL A   1      34.512  30.810  28.217  1.00  0.00     0.338 C 
ATOM     34  O   UNL A   1      34.173  31.919  28.598  1.00  0.00    -0.246 OA
BRANCH  33  35
ATOM     35  C   UNL A   1      35.859  30.263  28.377  1.00  0.00     0.060 A 
ATOM     36  C   UNL A   1      36.750  30.235  27.303  1.00  0.00     0.016 A 
ATOM     37  C   UNL A   1      36.210  29.764  29.635  1.00  0.00     0.016 A 
ATOM     38  C   UNL A   1      38.028  29.722  27.506  1.00  0.00     0.010 A 
ATOM     39  C   UNL A   1      37.483  29.253  29.833  1.00  0.00     0.010 A 
ATOM     40  C   UNL A   1      38.405  29.252  28.778  1.00  0.00    -0.014 A 
BRANCH  40  41
ATOM     41  C   UNL A   1      39.810  28.896  29.058  1.00  0.00     0.031 A 
ATOM     42  C   UNL A   1      40.343  27.540  28.722  1.00  0.00     0.074 A 
ATOM     43  C   UNL A   1      40.573  29.815  29.679  1.00  0.00     0.049 A 
ATOM     44  N   UNL A   1      41.547  27.069  28.912  1.00  0.00    -0.248 NA
ATOM     45  C   UNL A   1      39.410  26.584  28.103  1.00  0.00     0.031 C 
ATOM     46  C   UNL A   1      40.118  31.154  30.065  1.00  0.00     0.029 A 
ATOM     47  N   UNL A   1      41.879  29.775  30.091  1.00  0.00    -0.354 N 
ATOM     48  C   UNL A   1      41.525  25.770  28.425  1.00  0.00     0.074 A 
ATOM     49  C   UNL A   1      40.175  25.505  27.976  1.00  0.00     0.031 C 
ATOM     50  C   UNL A   1      41.138  31.819  30.625  1.00  0.00     0.029 A 
ATOM     51  C   UNL A   1      42.303  30.942  30.682  1.00  0.00     0.049 A 
ATOM     52  H   UNL A   1      42.457  28.987  29.976  1.00  0.00     0.167 HD
ATOM     53  C   UNL A   1      42.554  24.894  28.345  1.00  0.00     0.031 A 
ATOM     54  C   UNL A   1      43.498  31.271  31.211  1.00  0.00     0.031 A 
ATOM     55  C   UNL A   1      43.885  25.187  28.813  1.00  0.00     0.049 A 
ATOM     56  C   UNL A   1      44.609  30.261  31.148  1.00  0.00     0.074 A 
ATOM     57  C   UNL A   1      45.008  24.379  28.753  1.00  0.00     0.029 A 
ATOM     58  N   UNL A   1      44.276  26.370  29.426  1.00  0.00    -0.354 N 
ATOM     59  N   UNL A   1      44.593  29.060  30.620  1.00  0.00    -0.248 NA
ATOM     60  C   UNL A   1      45.899  30.649  31.729  1.00  0.00     0.031 C 
ATOM     61  C   UNL A   1      46.053  25.040  29.399  1.00  0.00     0.029 A 
ATOM     62  C   UNL A   1      45.614  26.299  29.779  1.00  0.00     0.049 A 
ATOM     63  H   UNL A   1      43.690  27.144  29.586  1.00  0.00     0.167 HD
ATOM     64  C   UNL A   1      45.878  28.557  30.782  1.00  0.00     0.074 A 
ATOM     65  C   UNL A   1      46.650  29.594  31.438  1.00  0.00     0.031 C 
ATOM     66  C   UNL A   1      46.371  27.346  30.424  1.00  0.00     0.031 A 
BRANCH  53  67
ATOM     67  C   UNL A   1      42.312  23.547  27.711  1.00  0.00    -0.014 A 
ATOM     68  C   UNL A   1      42.021  22.431  28.517  1.00  0.00     0.010 A 
ATOM     69  C   UNL A   1      42.531  23.355  26.335  1.00  0.00     0.010 A 
ATOM     70  C   UNL A   1      42.008  21.143  27.972  1.00  0.00     0.020 A 
ATOM     71  C   UNL A   1      42.487  22.073  25.779  1.00  0.00     0.020 A 
ATOM     72  C   UNL A   1      42.257  20.973  26.608  1.00  0.00     0.054 A 
BRANCH  72  73
ATOM     73  S   UNL A   1      42.311  19.289  25.934  1.00  0.00     0.124 S 
ATOM     74  O   UNL A   1      42.774  18.513  27.080  1.00  0.00    -0.237 OA
ATOM     75  O   UNL A   1      40.924  19.062  25.537  1.00  0.00    -0.237 OA
ATOM     76  O   UNL A   1      43.258  19.392  24.826  1.00  0.00    -0.744 OA
ENDBRANCH  72  73
ENDBRANCH  53  67
BRANCH  54  77
ATOM     77  C   UNL A   1      43.694  32.635  31.780  1.00  0.00    -0.014 A 
ATOM     78  C   UNL A   1      43.529  32.867  33.160  1.00  0.00     0.010 A 
ATOM     79  C   UNL A   1      43.954  33.726  30.934  1.00  0.00     0.010 A 
ATOM     80  C   UNL A   1      43.559  34.167  33.671  1.00  0.00     0.020 A 
ATOM     81  C   UNL A   1      44.024  35.025  31.448  1.00  0.00     0.020 A 
ATOM     82  C   UNL A   1      43.795  35.239  32.808  1.00  0.00     0.054 A 
BRANCH  82  83
ATOM     83  S   UNL A   1      43.779  36.920  33.488  1.00  0.00     0.124 S 
ATOM     84  O   UNL A   1      42.466  36.972  34.127  1.00  0.00    -0.237 OA
ATOM     85  O   UNL A   1      44.922  36.907  34.398  1.00  0.00    -0.237 OA
ATOM     86  O   UNL A   1      43.933  37.770  32.310  1.00  0.00    -0.744 OA
ENDBRANCH  82  83
ENDBRANCH  54  77
BRANCH  66  87
ATOM     87  C   UNL A   1      47.821  27.052  30.718  1.00  0.00    -0.014 A 
ATOM     88  C   UNL A   1      48.181  26.530  31.976  1.00  0.00     0.010 A 
ATOM     89  C   UNL A   1      48.832  27.434  29.819  1.00  0.00     0.010 A 
ATOM     90  C   UNL A   1      49.524  26.448  32.350  1.00  0.00     0.020 A 
ATOM     91  C   UNL A   1      50.177  27.316  30.176  1.00  0.00     0.020 A 
ATOM     92  C   UNL A   1      50.514  26.855  31.452  1.00  0.00     0.054 A 
BRANCH  92  93
ATOM     93  S   UNL A   1      52.247  26.799  31.981  1.00  0.00     0.124 S 
ATOM     94  O   UNL A   1      52.122  26.561  33.417  1.00  0.00    -0.237 OA
ATOM     95  O   UNL A   1      52.784  25.688  31.201  1.00  0.00    -0.237 OA
ATOM     96  O   UNL A   1      52.761  28.117  31.611  1.00  0.00    -0.744 OA
ENDBRANCH  92  93
ENDBRANCH  66  87
ENDBRANCH  40  41
ENDBRANCH  33  35
ENDBRANCH  32  33
ENDBRANCH  31  32
ENDBRANCH  30  31
ENDBRANCH   1  30
TORSDOF 21
ENDMDL
MODEL 2
REMARK VINA RESULT:     -10.7      1.741      8.173
REMARK SMILES Nn1c(S[C@@H](C(=O)OCCOCCOC(=O)c2ccc(-c3c4nc(c(-c5ccc(S(=O)(=O)[O-])cc5)c5ccc([nH]5)c(-c5ccc(S(=O)(=O)[O-])cc5)c5nc(c(-c6ccc(S(=O)(=O)[O-])cc6)c6ccc3[nH]6)C=C5)C=C4)cc2)c2ccccc2)nc2ccc(Br)cc2c1=O
REMARK SMILES IDX 11 1 10 2 9 3 8 4 6 5 7 6 5 7 4 8 3 9 2 10 91 11 83 12 90 13
REMARK SMILES IDX 92 14 84 15 89 16 85 17 87 18 86 19 88 20 1 21 77 24 78 25
REMARK SMILES IDX 82 26 79 27 81 28 80 29 12 30 13 31 14 32 15 33 16 34 17 35
REMARK SMILES IDX 18 36 76 37 19 38 75 39 20 40 21 41 22 42 69 43 23 44 74 45
REMARK SMILES IDX 68 46 70 47 24 48 73 49 67 50 66 51 25 53 55 54 36 55 54 56
REMARK SMILES IDX 37 57 40 58 53 59 71 60 38 61 39 62 52 64 72 65 41 66 26 67
REMARK SMILES IDX 27 68 35 69 28 70 34 71 29 72 30 73 31 74 32 75 33 76 56 77
REMARK SMILES IDX 57 78 65 79 58 80 64 81 59 82 60 83 61 84 62 85 63 86 42 87
REMARK SMILES IDX 43 88 51 89 44 90 50 91 45 92 46 93 47 94 48 95 49 96
REMARK H PARENT 1 22 1 23 70 52 40 63
REMARK Flexibility Score: inf
ROOT
ATOM      1  O   UNL A   1      33.082  29.014  25.060  1.00  0.00    -0.374 OA
ENDROOT
BRANCH   1   2
ATOM      2  C   UNL A   1      33.051  27.599  25.234  1.00  0.00     0.202 C 
BRANCH   2   3
ATOM      3  C   UNL A   1      32.147  27.012  26.331  1.00  0.00     0.261 C 
BRANCH   3   4
ATOM      4  O   UNL A   1      31.598  25.706  26.032  1.00  0.00    -0.462 OA
BRANCH   4   5
ATOM      5  C   UNL A   1      30.303  25.716  25.598  1.00  0.00     0.324 C 
ATOM      6  O   UNL A   1      29.351  25.728  26.380  1.00  0.00    -0.251 OA
BRANCH   5   7
ATOM      7  C   UNL A   1      30.085  25.706  24.073  1.00  0.00     0.194 C 
BRANCH   7   8
ATOM      8  S   UNL A   1      31.294  24.809  23.077  1.00  0.00    -0.066 SA
BRANCH   8   9
ATOM      9  C   UNL A   1      32.373  23.671  23.855  1.00  0.00     0.191 A 
ATOM     10  N   UNL A   1      32.023  22.639  24.729  1.00  0.00    -0.202 N 
ATOM     11  C   UNL A   1      32.924  21.630  25.092  1.00  0.00     0.280 A 
ATOM     12  N   UNL A   1      33.611  23.834  23.482  1.00  0.00    -0.222 NA
ATOM     13  C   UNL A   1      34.303  21.791  24.636  1.00  0.00     0.069 A 
ATOM     14  O   UNL A   1      32.595  20.635  25.739  1.00  0.00    -0.267 OA
ATOM     15  C   UNL A   1      34.603  22.939  23.911  1.00  0.00     0.079 A 
ATOM     16  C   UNL A   1      35.271  20.826  24.940  1.00  0.00     0.031 A 
ATOM     17  C   UNL A   1      35.934  23.154  23.545  1.00  0.00     0.030 A 
ATOM     18  C   UNL A   1      36.584  21.049  24.549  1.00  0.00     0.018 A 
ATOM     19  C   UNL A   1      36.926  22.218  23.870  1.00  0.00     0.018 A 
ATOM     20  Br  UNL A   1      37.908  19.761  24.949  1.00  0.00    -0.051 Br
BRANCH  10  21
ATOM     21  N   UNL A   1      30.774  22.518  25.332  1.00  0.00    -0.334 N 
ATOM     22  H   UNL A   1      29.959  22.513  24.781  1.00  0.00     0.178 HD
ATOM     23  H   UNL A   1      30.706  22.436  26.311  1.00  0.00     0.178 HD
ENDBRANCH  10  21
ENDBRANCH   8   9
ENDBRANCH   7   8
BRANCH   7  24
ATOM     24  C   UNL A   1      29.473  26.974  23.477  1.00  0.00    -0.023 A 
ATOM     25  C   UNL A   1      28.106  27.294  23.613  1.00  0.00     0.005 A 
ATOM     26  C   UNL A   1      30.303  27.907  22.825  1.00  0.00     0.005 A 
ATOM     27  C   UNL A   1      27.621  28.550  23.237  1.00  0.00     0.000 A 
ATOM     28  C   UNL A   1      29.814  29.160  22.449  1.00  0.00     0.000 A 
ATOM     29  C   UNL A   1      28.482  29.490  22.680  1.00  0.00     0.000 A 
ENDBRANCH   7  24
ENDBRANCH   5   7
ENDBRANCH   4   5
ENDBRANCH   3   4
ENDBRANCH   2   3
ENDBRANCH   1   2
BRANCH   1  30
ATOM     30  C   UNL A   1      32.181  29.782  25.841  1.00  0.00     0.202 C 
BRANCH  30  31
ATOM     31  C   UNL A   1      32.638  30.297  27.209  1.00  0.00     0.261 C 
BRANCH  31  32
ATOM     32  O   UNL A   1      33.930  29.866  27.613  1.00  0.00    -0.460 OA
BRANCH  32  33
ATOM     33  C   UNL A   1      34.815  30.873  27.783  1.00  0.00     0.338 C 
ATOM     34  O   UNL A   1      34.594  32.074  27.797  1.00  0.00    -0.246 OA
BRANCH  33  35
ATOM     35  C   UNL A   1      36.098  30.271  28.143  1.00  0.00     0.060 A 
ATOM     36  C   UNL A   1      37.176  30.306  27.256  1.00  0.00     0.016 A 
ATOM     37  C   UNL A   1      36.197  29.655  29.393  1.00  0.00     0.016 A 
ATOM     38  C   UNL A   1      38.385  29.736  27.647  1.00  0.00     0.010 A 
ATOM     39  C   UNL A   1      37.402  29.087  29.780  1.00  0.00     0.010 A 
ATOM     40  C   UNL A   1      38.506  29.147  28.919  1.00  0.00    -0.014 A 
BRANCH  40  41
ATOM     41  C   UNL A   1      39.828  28.723  29.424  1.00  0.00     0.031 A 
ATOM     42  C   UNL A   1      40.629  29.608  30.324  1.00  0.00     0.074 A 
ATOM     43  C   UNL A   1      40.308  27.540  28.995  1.00  0.00     0.049 A 
ATOM     44  N   UNL A   1      41.807  29.387  30.843  1.00  0.00    -0.248 NA
ATOM     45  C   UNL A   1      40.044  30.911  30.683  1.00  0.00     0.031 C 
ATOM     46  C   UNL A   1      39.597  26.629  28.092  1.00  0.00     0.029 A 
ATOM     47  N   UNL A   1      41.489  26.897  29.255  1.00  0.00    -0.354 N 
ATOM     48  C   UNL A   1      42.101  30.510  31.603  1.00  0.00     0.074 A 
ATOM     49  C   UNL A   1      41.002  31.437  31.437  1.00  0.00     0.031 C 
ATOM     50  C   UNL A   1      40.342  25.531  27.903  1.00  0.00     0.029 A 
ATOM     51  C   UNL A   1      41.599  25.678  28.629  1.00  0.00     0.049 A 
ATOM     52  H   UNL A   1      42.191  27.272  29.834  1.00  0.00     0.167 HD
ATOM     53  C   UNL A   1      43.186  30.727  32.382  1.00  0.00     0.031 A 
ATOM     54  C   UNL A   1      42.599  24.776  28.639  1.00  0.00     0.031 A 
ATOM     55  C   UNL A   1      44.270  29.786  32.515  1.00  0.00     0.049 A 
ATOM     56  C   UNL A   1      43.812  25.065  29.478  1.00  0.00     0.074 A 
ATOM     57  C   UNL A   1      45.404  29.896  33.302  1.00  0.00     0.029 A 
ATOM     58  N   UNL A   1      44.361  28.570  31.851  1.00  0.00    -0.354 N 
ATOM     59  N   UNL A   1      44.047  26.102  30.247  1.00  0.00    -0.248 NA
ATOM     60  C   UNL A   1      44.885  24.064  29.470  1.00  0.00     0.031 C 
ATOM     61  C   UNL A   1      46.214  28.788  33.052  1.00  0.00     0.029 A 
ATOM     62  C   UNL A   1      45.547  27.938  32.184  1.00  0.00     0.049 A 
ATOM     63  H   UNL A   1      43.683  28.211  31.234  1.00  0.00     0.167 HD
ATOM     64  C   UNL A   1      45.282  25.866  30.837  1.00  0.00     0.074 A 
ATOM     65  C   UNL A   1      45.736  24.578  30.351  1.00  0.00     0.031 C 
ATOM     66  C   UNL A   1      45.979  26.648  31.698  1.00  0.00     0.031 A 
BRANCH  53  67
ATOM     67  C   UNL A   1      43.264  32.006  33.177  1.00  0.00    -0.014 A 
ATOM     68  C   UNL A   1      42.657  32.086  34.445  1.00  0.00     0.010 A 
ATOM     69  C   UNL A   1      43.797  33.174  32.603  1.00  0.00     0.010 A 
ATOM     70  C   UNL A   1      42.532  33.316  35.098  1.00  0.00     0.020 A 
ATOM     71  C   UNL A   1      43.704  34.401  33.267  1.00  0.00     0.020 A 
ATOM     72  C   UNL A   1      43.044  34.468  34.496  1.00  0.00     0.054 A 
BRANCH  72  73
ATOM     73  S   UNL A   1      42.805  36.065  35.323  1.00  0.00     0.124 S 
ATOM     74  O   UNL A   1      41.423  36.386  34.982  1.00  0.00    -0.237 OA
ATOM     75  O   UNL A   1      43.051  35.736  36.725  1.00  0.00    -0.237 OA
ATOM     76  O   UNL A   1      43.815  36.925  34.709  1.00  0.00    -0.744 OA
ENDBRANCH  72  73
ENDBRANCH  53  67
BRANCH  54  77
ATOM     77  C   UNL A   1      42.447  23.507  27.872  1.00  0.00    -0.014 A 
ATOM     78  C   UNL A   1      41.802  22.395  28.447  1.00  0.00     0.010 A 
ATOM     79  C   UNL A   1      43.029  23.372  26.601  1.00  0.00     0.010 A 
ATOM     80  C   UNL A   1      41.795  21.160  27.793  1.00  0.00     0.020 A 
ATOM     81  C   UNL A   1      42.990  22.148  25.926  1.00  0.00     0.020 A 
ATOM     82  C   UNL A   1      42.400  21.042  26.541  1.00  0.00     0.054 A 
BRANCH  82  83
ATOM     83  S   UNL A   1      42.422  19.417  25.736  1.00  0.00     0.124 S 
ATOM     84  O   UNL A   1      42.871  18.551  26.823  1.00  0.00    -0.237 OA
ATOM     85  O   UNL A   1      41.029  19.245  25.329  1.00  0.00    -0.237 OA
ATOM     86  O   UNL A   1      43.372  19.588  24.641  1.00  0.00    -0.744 OA
ENDBRANCH  82  83
ENDBRANCH  54  77
BRANCH  66  87
ATOM     87  C   UNL A   1      47.312  26.148  32.194  1.00  0.00    -0.014 A 
ATOM     88  C   UNL A   1      48.462  26.334  31.401  1.00  0.00     0.010 A 
ATOM     89  C   UNL A   1      47.403  25.364  33.357  1.00  0.00     0.010 A 
ATOM     90  C   UNL A   1      49.661  25.702  31.731  1.00  0.00     0.020 A 
ATOM     91  C   UNL A   1      48.613  24.763  33.713  1.00  0.00     0.020 A 
ATOM     92  C   UNL A   1      49.725  24.908  32.879  1.00  0.00     0.054 A 
BRANCH  92  93
ATOM     93  S   UNL A   1      51.274  24.044  33.256  1.00  0.00     0.124 S 
ATOM     94  O   UNL A   1      51.059  22.741  32.633  1.00  0.00    -0.237 OA
ATOM     95  O   UNL A   1      52.277  24.892  32.617  1.00  0.00    -0.237 OA
ATOM     96  O   UNL A   1      51.316  24.036  34.718  1.00  0.00    -0.744 OA
ENDBRANCH  92  93
ENDBRANCH  66  87
ENDBRANCH  40  41
ENDBRANCH  33  35
ENDBRANCH  32  33
ENDBRANCH  31  32
ENDBRANCH  30  31
ENDBRANCH   1  30
TORSDOF 21
ENDMDL
MODEL 3
REMARK VINA RESULT:     -10.6      4.611     10.010
REMARK SMILES Nn1c(S[C@@H](C(=O)OCCOCCOC(=O)c2ccc(-c3c4nc(c(-c5ccc(S(=O)(=O)[O-])cc5)c5ccc([nH]5)c(-c5ccc(S(=O)(=O)[O-])cc5)c5nc(c(-c6ccc(S(=O)(=O)[O-])cc6)c6ccc3[nH]6)C=C5)C=C4)cc2)c2ccccc2)nc2ccc(Br)cc2c1=O
REMARK SMILES IDX 11 1 10 2 9 3 8 4 6 5 7 6 5 7 4 8 3 9 2 10 91 11 83 12 90 13
REMARK SMILES IDX 92 14 84 15 89 16 85 17 87 18 86 19 88 20 1 21 77 24 78 25
REMARK SMILES IDX 82 26 79 27 81 28 80 29 12 30 13 31 14 32 15 33 16 34 17 35
REMARK SMILES IDX 18 36 76 37 19 38 75 39 20 40 21 41 22 42 69 43 23 44 74 45
REMARK SMILES IDX 68 46 70 47 24 48 73 49 67 50 66 51 25 53 55 54 36 55 54 56
REMARK SMILES IDX 37 57 40 58 53 59 71 60 38 61 39 62 52 64 72 65 41 66 26 67
REMARK SMILES IDX 27 68 35 69 28 70 34 71 29 72 30 73 31 74 32 75 33 76 56 77
REMARK SMILES IDX 57 78 65 79 58 80 64 81 59 82 60 83 61 84 62 85 63 86 42 87
REMARK SMILES IDX 43 88 51 89 44 90 50 91 45 92 46 93 47 94 48 95 49 96
REMARK H PARENT 1 22 1 23 70 52 40 63
REMARK Flexibility Score: inf
ROOT
ATOM      1  O   UNL A   1      38.436  22.415  26.080  1.00  0.00    -0.374 OA
ENDROOT
BRANCH   1   2
ATOM      2  C   UNL A   1      37.880  21.335  25.334  1.00  0.00     0.202 C 
BRANCH   2   3
ATOM      3  C   UNL A   1      36.817  21.646  24.268  1.00  0.00     0.261 C 
BRANCH   3   4
ATOM      4  O   UNL A   1      35.465  21.271  24.628  1.00  0.00    -0.462 OA
BRANCH   4   5
ATOM      5  C   UNL A   1      34.488  22.048  24.074  1.00  0.00     0.324 C 
ATOM      6  O   UNL A   1      34.749  23.061  23.423  1.00  0.00    -0.251 OA
BRANCH   5   7
ATOM      7  C   UNL A   1      33.033  21.601  24.309  1.00  0.00     0.194 C 
BRANCH   7   8
ATOM      8  S   UNL A   1      32.050  22.578  25.466  1.00  0.00    -0.066 SA
BRANCH   8   9
ATOM      9  C   UNL A   1      31.782  24.277  25.145  1.00  0.00     0.191 A 
ATOM     10  N   UNL A   1      30.876  24.831  24.238  1.00  0.00    -0.202 N 
ATOM     11  C   UNL A   1      30.555  26.194  24.240  1.00  0.00     0.280 A 
ATOM     12  N   UNL A   1      32.501  25.043  25.916  1.00  0.00    -0.222 NA
ATOM     13  C   UNL A   1      31.333  27.046  25.138  1.00  0.00     0.069 A 
ATOM     14  O   UNL A   1      29.654  26.675  23.552  1.00  0.00    -0.267 OA
ATOM     15  C   UNL A   1      32.334  26.436  25.884  1.00  0.00     0.079 A 
ATOM     16  C   UNL A   1      31.075  28.420  25.216  1.00  0.00     0.031 A 
ATOM     17  C   UNL A   1      33.148  27.248  26.678  1.00  0.00     0.030 A 
ATOM     18  C   UNL A   1      31.881  29.207  26.028  1.00  0.00     0.018 A 
ATOM     19  C   UNL A   1      32.929  28.632  26.745  1.00  0.00     0.018 A 
ATOM     20  Br  UNL A   1      31.552  31.064  26.150  1.00  0.00    -0.051 Br
BRANCH  10  21
ATOM     21  N   UNL A   1      30.223  24.104  23.246  1.00  0.00    -0.334 N 
ATOM     22  H   UNL A   1      30.250  23.120  23.257  1.00  0.00     0.178 HD
ATOM     23  H   UNL A   1      29.732  24.574  22.534  1.00  0.00     0.178 HD
ENDBRANCH  10  21
ENDBRANCH   8   9
ENDBRANCH   7   8
BRANCH   7  24
ATOM     24  C   UNL A   1      32.780  20.094  24.257  1.00  0.00    -0.023 A 
ATOM     25  C   UNL A   1      32.543  19.405  23.048  1.00  0.00     0.005 A 
ATOM     26  C   UNL A   1      32.852  19.335  25.441  1.00  0.00     0.005 A 
ATOM     27  C   UNL A   1      32.520  18.008  23.011  1.00  0.00     0.000 A 
ATOM     28  C   UNL A   1      32.827  17.939  25.398  1.00  0.00     0.000 A 
ATOM     29  C   UNL A   1      32.687  17.278  24.182  1.00  0.00     0.000 A 
ENDBRANCH   7  24
ENDBRANCH   5   7
ENDBRANCH   4   5
ENDBRANCH   3   4
ENDBRANCH   2   3
ENDBRANCH   1   2
BRANCH   1  30
ATOM     30  C   UNL A   1      39.769  22.266  26.540  1.00  0.00     0.202 C 
BRANCH  30  31
ATOM     31  C   UNL A   1      40.671  23.502  26.610  1.00  0.00     0.261 C 
BRANCH  31  32
ATOM     32  O   UNL A   1      40.001  24.745  26.463  1.00  0.00    -0.460 OA
BRANCH  32  33
ATOM     33  C   UNL A   1      40.827  25.790  26.234  1.00  0.00     0.338 C 
ATOM     34  O   UNL A   1      41.351  26.117  25.181  1.00  0.00    -0.246 OA
BRANCH  33  35
ATOM     35  C   UNL A   1      40.851  26.603  27.450  1.00  0.00     0.060 A 
ATOM     36  C   UNL A   1      41.786  27.629  27.602  1.00  0.00     0.016 A 
ATOM     37  C   UNL A   1      39.918  26.306  28.446  1.00  0.00     0.016 A 
ATOM     38  C   UNL A   1      41.761  28.389  28.768  1.00  0.00     0.010 A 
ATOM     39  C   UNL A   1      39.897  27.064  29.607  1.00  0.00     0.010 A 
ATOM     40  C   UNL A   1      40.801  28.123  29.762  1.00  0.00    -0.014 A 
BRANCH  40  41
ATOM     41  C   UNL A   1      40.633  29.044  30.905  1.00  0.00     0.031 A 
ATOM     42  C   UNL A   1      41.504  28.937  32.116  1.00  0.00     0.074 A 
ATOM     43  C   UNL A   1      39.629  29.939  30.840  1.00  0.00     0.049 A 
ATOM     44  N   UNL A   1      41.478  29.660  33.203  1.00  0.00    -0.248 NA
ATOM     45  C   UNL A   1      42.531  27.881  32.115  1.00  0.00     0.031 C 
ATOM     46  C   UNL A   1      38.716  30.088  29.703  1.00  0.00     0.029 A 
ATOM     47  N   UNL A   1      39.209  30.890  31.733  1.00  0.00    -0.354 N 
ATOM     48  C   UNL A   1      42.490  29.162  34.011  1.00  0.00     0.074 A 
ATOM     49  C   UNL A   1      43.081  28.040  33.313  1.00  0.00     0.031 C 
ATOM     50  C   UNL A   1      37.867  31.094  29.953  1.00  0.00     0.029 A 
ATOM     51  C   UNL A   1      38.141  31.630  31.282  1.00  0.00     0.049 A 
ATOM     52  H   UNL A   1      39.629  31.028  32.611  1.00  0.00     0.167 HD
ATOM     53  C   UNL A   1      42.894  29.624  35.218  1.00  0.00     0.031 A 
ATOM     54  C   UNL A   1      37.459  32.630  31.872  1.00  0.00     0.031 A 
ATOM     55  C   UNL A   1      42.274  30.738  35.891  1.00  0.00     0.049 A 
ATOM     56  C   UNL A   1      37.902  33.092  33.232  1.00  0.00     0.074 A 
ATOM     57  C   UNL A   1      42.625  31.304  37.104  1.00  0.00     0.029 A 
ATOM     58  N   UNL A   1      41.182  31.452  35.417  1.00  0.00    -0.354 N 
ATOM     59  N   UNL A   1      38.907  32.657  33.956  1.00  0.00    -0.248 NA
ATOM     60  C   UNL A   1      37.142  34.184  33.849  1.00  0.00     0.031 C 
ATOM     61  C   UNL A   1      41.699  32.305  37.400  1.00  0.00     0.029 A 
ATOM     62  C   UNL A   1      40.826  32.431  36.331  1.00  0.00     0.049 A 
ATOM     63  H   UNL A   1      40.727  31.287  34.560  1.00  0.00     0.167 HD
ATOM     64  C   UNL A   1      38.915  33.441  35.103  1.00  0.00     0.074 A 
ATOM     65  C   UNL A   1      37.828  34.390  34.966  1.00  0.00     0.031 C 
ATOM     66  C   UNL A   1      39.745  33.376  36.173  1.00  0.00     0.031 A 
BRANCH  53  67
ATOM     67  C   UNL A   1      44.070  28.962  35.891  1.00  0.00    -0.014 A 
ATOM     68  C   UNL A   1      45.382  29.346  35.556  1.00  0.00     0.010 A 
ATOM     69  C   UNL A   1      43.879  27.852  36.734  1.00  0.00     0.010 A 
ATOM     70  C   UNL A   1      46.477  28.602  36.004  1.00  0.00     0.020 A 
ATOM     71  C   UNL A   1      44.973  27.124  37.212  1.00  0.00     0.020 A 
ATOM     72  C   UNL A   1      46.263  27.486  36.817  1.00  0.00     0.054 A 
BRANCH  72  73
ATOM     73  S   UNL A   1      47.691  26.490  37.326  1.00  0.00     0.124 S 
ATOM     74  O   UNL A   1      47.603  26.545  38.782  1.00  0.00    -0.237 OA
ATOM     75  O   UNL A   1      47.403  25.191  36.724  1.00  0.00    -0.237 OA
ATOM     76  O   UNL A   1      48.830  27.198  36.744  1.00  0.00    -0.744 OA
ENDBRANCH  72  73
ENDBRANCH  53  67
BRANCH  54  77
ATOM     77  C   UNL A   1      36.336  33.281  31.139  1.00  0.00    -0.014 A 
ATOM     78  C   UNL A   1      36.517  33.758  29.826  1.00  0.00     0.010 A 
ATOM     79  C   UNL A   1      35.108  33.511  31.782  1.00  0.00     0.010 A 
ATOM     80  C   UNL A   1      35.517  34.504  29.197  1.00  0.00     0.020 A 
ATOM     81  C   UNL A   1      34.090  34.224  31.141  1.00  0.00     0.020 A 
ATOM     82  C   UNL A   1      34.314  34.742  29.863  1.00  0.00     0.054 A 
BRANCH  82  83
ATOM     83  S   UNL A   1      33.053  35.756  29.044  1.00  0.00     0.124 S 
ATOM     84  O   UNL A   1      33.870  36.751  28.355  1.00  0.00    -0.237 OA
ATOM     85  O   UNL A   1      32.377  34.788  28.183  1.00  0.00    -0.237 OA
ATOM     86  O   UNL A   1      32.250  36.267  30.152  1.00  0.00    -0.744 OA
ENDBRANCH  82  83
ENDBRANCH  54  77
BRANCH  66  87
ATOM     87  C   UNL A   1      39.534  34.359  37.297  1.00  0.00    -0.014 A 
ATOM     88  C   UNL A   1      40.042  35.668  37.179  1.00  0.00     0.010 A 
ATOM     89  C   UNL A   1      38.978  33.949  38.521  1.00  0.00     0.010 A 
ATOM     90  C   UNL A   1      40.048  36.528  38.279  1.00  0.00     0.020 A 
ATOM     91  C   UNL A   1      38.945  34.821  39.612  1.00  0.00     0.020 A 
ATOM     92  C   UNL A   1      39.511  36.094  39.493  1.00  0.00     0.054 A 
BRANCH  92  93
ATOM     93  S   UNL A   1      39.585  37.203  40.925  1.00  0.00     0.124 S 
ATOM     94  O   UNL A   1      39.110  38.463  40.362  1.00  0.00    -0.237 OA
ATOM     95  O   UNL A   1      38.685  36.557  41.877  1.00  0.00    -0.237 OA
ATOM     96  O   UNL A   1      40.997  37.182  41.303  1.00  0.00    -0.744 OA
ENDBRANCH  92  93
ENDBRANCH  66  87
ENDBRANCH  40  41
ENDBRANCH  33  35
ENDBRANCH  32  33
ENDBRANCH  31  32
ENDBRANCH  30  31
ENDBRANCH   1  30
TORSDOF 21
ENDMDL
