MODEL 1
REMARK VINA RESULT:     -13.9      0.000      0.000
REMARK SMILES Cc1ccc(S(=O)(=O)n2cc(C(=O)C(=O)N[C@@H](Cc3cnc[nH]3)C(=O)OCCOCCOC(=O)c3ccc(-c4c5nc(c(-c6ccc(S(=O)(=O)[O-])cc6)c6ccc([nH]6)c(-c6ccc(S(=O)(=O)[O-])cc6)c6nc(c(-c7ccc(S(=O)(=O)[O-])cc7)c7ccc4[nH]7)C=C6)C=C5)cc3)c3ccccc32)cc1
REMARK SMILES IDX 28 1 27 2 26 3 24 4 25 5 17 6 16 7 14 8 15 9 12 11 13 12
REMARK SMILES IDX 11 13 9 14 10 15 100 16 95 17 99 18 96 19 98 20 97 21 6 22
REMARK SMILES IDX 7 23 8 24 5 25 1 26 2 27 3 28 102 29 4 30 101 31 18 32 19 33
REMARK SMILES IDX 20 34 23 35 21 36 22 37 29 39 30 40 31 41 32 42 33 43 34 44
REMARK SMILES IDX 35 45 36 46 94 47 37 48 93 49 38 50 39 51 40 52 87 53 41 54
REMARK SMILES IDX 92 55 86 56 88 57 42 58 91 59 85 60 84 61 43 63 73 64 54 65
REMARK SMILES IDX 72 66 55 67 58 68 71 69 89 70 56 71 57 72 70 74 90 75 59 76
REMARK SMILES IDX 44 77 45 78 53 79 46 80 52 81 47 82 48 83 49 84 50 85 51 86
REMARK SMILES IDX 74 87 75 88 83 89 76 90 82 91 77 92 78 93 79 94 80 95 81 96
REMARK SMILES IDX 60 97 61 98 69 99 62 100 68 101 63 102 64 103 65 104 66 105
REMARK SMILES IDX 67 106
REMARK H PARENT 16 10 23 38 88 62 58 73
REMARK Flexibility Score: inf
ROOT
ATOM      1  C   UNL A   1      31.525  28.235  27.526  1.00  0.00     0.202 C 
ENDROOT
BRANCH   1   2
ATOM      2  C   UNL A   1      31.055  27.398  26.365  1.00  0.00     0.261 C 
BRANCH   2   3
ATOM      3  O   UNL A   1      30.779  28.236  25.255  1.00  0.00    -0.462 OA
BRANCH   3   4
ATOM      4  C   UNL A   1      30.447  27.551  24.144  1.00  0.00     0.329 C 
ATOM      5  O   UNL A   1      29.642  26.631  24.119  1.00  0.00    -0.250 OA
BRANCH   4   6
ATOM      6  C   UNL A   1      31.298  27.985  22.955  1.00  0.00     0.198 C 
BRANCH   6   7
ATOM      7  N   UNL A   1      31.938  26.938  22.148  1.00  0.00    -0.335 N 
ATOM      8  C   UNL A   1      33.111  26.277  22.343  1.00  0.00     0.293 C 
ATOM      9  O   UNL A   1      33.611  25.637  21.426  1.00  0.00    -0.265 OA
ATOM     10  H   UNL A   1      31.442  26.674  21.340  1.00  0.00     0.164 HD
BRANCH   8  11
ATOM     11  C   UNL A   1      33.719  26.305  23.738  1.00  0.00     0.252 C 
ATOM     12  O   UNL A   1      33.803  27.393  24.303  1.00  0.00    -0.283 OA
BRANCH  11  13
ATOM     13  C   UNL A   1      34.216  25.099  24.367  1.00  0.00     0.054 A 
ATOM     14  N   UNL A   1      35.401  23.308  24.908  1.00  0.00    -0.240 N 
ATOM     15  C   UNL A   1      35.358  24.386  24.067  1.00  0.00     0.117 A 
ATOM     16  C   UNL A   1      34.320  23.297  25.768  1.00  0.00     0.065 A 
ATOM     17  C   UNL A   1      33.551  24.412  25.423  1.00  0.00     0.012 A 
ATOM     18  C   UNL A   1      33.901  22.416  26.778  1.00  0.00     0.028 A 
ATOM     19  C   UNL A   1      32.342  24.661  26.103  1.00  0.00     0.011 A 
ATOM     20  C   UNL A   1      32.681  22.676  27.418  1.00  0.00     0.002 A 
ATOM     21  C   UNL A   1      31.910  23.784  27.089  1.00  0.00     0.001 A 
BRANCH  14  22
ATOM     22  S   UNL A   1      36.607  22.117  24.821  1.00  0.00     0.268 S 
ATOM     23  O   UNL A   1      36.982  22.060  23.421  1.00  0.00    -0.201 OA
ATOM     24  O   UNL A   1      36.089  20.955  25.519  1.00  0.00    -0.201 OA
BRANCH  22  25
ATOM     25  C   UNL A   1      38.010  22.694  25.732  1.00  0.00     0.088 A 
ATOM     26  C   UNL A   1      41.101  24.228  28.284  1.00  0.00     0.044 C 
ATOM     27  C   UNL A   1      40.039  23.696  27.369  1.00  0.00    -0.051 A 
ATOM     28  C   UNL A   1      38.986  24.526  26.967  1.00  0.00     0.005 A 
ATOM     29  C   UNL A   1      40.089  22.376  26.908  1.00  0.00     0.005 A 
ATOM     30  C   UNL A   1      37.970  24.026  26.155  1.00  0.00     0.022 A 
ATOM     31  C   UNL A   1      39.087  21.876  26.073  1.00  0.00     0.022 A 
ENDBRANCH  22  25
ENDBRANCH  14  22
ENDBRANCH  11  13
ENDBRANCH   8  11
ENDBRANCH   6   7
BRANCH   6  32
ATOM     32  C   UNL A   1      30.466  28.861  22.022  1.00  0.00     0.092 C 
BRANCH  32  33
ATOM     33  C   UNL A   1      29.472  29.724  22.736  1.00  0.00     0.037 A 
ATOM     34  C   UNL A   1      28.102  29.658  22.888  1.00  0.00     0.134 A 
ATOM     35  N   UNL A   1      29.818  30.692  23.632  1.00  0.00    -0.348 N 
ATOM     36  N   UNL A   1      27.629  30.750  23.570  1.00  0.00    -0.245 NA
ATOM     37  C   UNL A   1      28.703  31.415  23.919  1.00  0.00     0.196 A 
ATOM     38  H   UNL A   1      30.716  30.841  24.005  1.00  0.00     0.167 HD
ENDBRANCH  32  33
ENDBRANCH   6  32
ENDBRANCH   4   6
ENDBRANCH   3   4
ENDBRANCH   2   3
ENDBRANCH   1   2
BRANCH   1  39
ATOM     39  O   UNL A   1      32.885  28.682  27.434  1.00  0.00    -0.374 OA
BRANCH  39  40
ATOM     40  C   UNL A   1      33.319  30.063  27.114  1.00  0.00     0.202 C 
BRANCH  40  41
ATOM     41  C   UNL A   1      34.376  31.428  27.774  1.00  0.00     0.261 C 
BRANCH  41  42
ATOM     42  O   UNL A   1      35.941  31.318  28.806  1.00  0.00    -0.460 OA
BRANCH  42  43
ATOM     43  C   UNL A   1      37.538  30.696  28.896  1.00  0.00     0.338 C 
ATOM     44  O   UNL A   1      38.316  31.610  29.234  1.00  0.00    -0.246 OA
BRANCH  43  45
ATOM     45  C   UNL A   1      38.459  29.141  28.348  1.00  0.00     0.060 A 
ATOM     46  C   UNL A   1      38.518  28.010  29.180  1.00  0.00     0.016 A 
ATOM     47  C   UNL A   1      39.601  28.873  27.462  1.00  0.00     0.016 A 
ATOM     48  C   UNL A   1      39.837  27.313  29.508  1.00  0.00     0.010 A 
ATOM     49  C   UNL A   1      40.872  28.255  27.780  1.00  0.00     0.010 A 
ATOM     50  C   UNL A   1      41.098  27.776  29.042  1.00  0.00    -0.014 A 
BRANCH  50  51
ATOM     51  C   UNL A   1      42.544  28.113  29.775  1.00  0.00     0.031 A 
ATOM     52  C   UNL A   1      43.653  27.509  28.982  1.00  0.00     0.074 A 
ATOM     53  C   UNL A   1      42.930  29.042  30.777  1.00  0.00     0.049 A 
ATOM     54  N   UNL A   1      44.231  26.375  29.208  1.00  0.00    -0.248 NA
ATOM     55  C   UNL A   1      44.031  28.062  27.657  1.00  0.00     0.031 C 
ATOM     56  C   UNL A   1      44.079  29.288  31.721  1.00  0.00     0.029 A 
ATOM     57  N   UNL A   1      42.162  30.036  31.370  1.00  0.00    -0.354 N 
ATOM     58  C   UNL A   1      45.313  26.356  28.332  1.00  0.00     0.074 A 
ATOM     59  C   UNL A   1      44.890  27.143  27.207  1.00  0.00     0.031 C 
ATOM     60  C   UNL A   1      43.614  29.686  32.951  1.00  0.00     0.029 A 
ATOM     61  C   UNL A   1      42.203  29.931  32.766  1.00  0.00     0.049 A 
ATOM     62  H   UNL A   1      41.657  30.721  30.875  1.00  0.00     0.167 HD
ATOM     63  C   UNL A   1      46.598  26.374  28.813  1.00  0.00     0.031 A 
ATOM     64  C   UNL A   1      41.080  29.448  33.371  1.00  0.00     0.031 A 
ATOM     65  C   UNL A   1      46.593  26.678  30.249  1.00  0.00     0.049 A 
ATOM     66  C   UNL A   1      41.629  27.947  33.639  1.00  0.00     0.074 A 
ATOM     67  C   UNL A   1      47.071  27.723  31.015  1.00  0.00     0.029 A 
ATOM     68  N   UNL A   1      45.716  25.982  31.069  1.00  0.00    -0.354 N 
ATOM     69  N   UNL A   1      42.445  27.276  32.830  1.00  0.00    -0.248 NA
ATOM     70  C   UNL A   1      41.686  27.395  35.001  1.00  0.00     0.031 C 
ATOM     71  C   UNL A   1      46.471  27.606  32.317  1.00  0.00     0.029 A 
ATOM     72  C   UNL A   1      45.489  26.612  32.274  1.00  0.00     0.049 A 
ATOM     73  H   UNL A   1      45.299  25.127  30.815  1.00  0.00     0.167 HD
ATOM     74  C   UNL A   1      43.322  26.487  33.577  1.00  0.00     0.074 A 
ATOM     75  C   UNL A   1      42.750  26.574  34.922  1.00  0.00     0.031 C 
ATOM     76  C   UNL A   1      44.576  25.979  33.243  1.00  0.00     0.031 A 
BRANCH  63  77
ATOM     77  C   UNL A   1      47.870  26.352  27.964  1.00  0.00    -0.014 A 
ATOM     78  C   UNL A   1      49.028  26.974  28.477  1.00  0.00     0.010 A 
ATOM     79  C   UNL A   1      48.046  25.643  26.752  1.00  0.00     0.010 A 
ATOM     80  C   UNL A   1      50.279  26.891  27.843  1.00  0.00     0.020 A 
ATOM     81  C   UNL A   1      49.297  25.564  26.095  1.00  0.00     0.020 A 
ATOM     82  C   UNL A   1      50.413  26.177  26.658  1.00  0.00     0.054 A 
BRANCH  82  83
ATOM     83  S   UNL A   1      52.068  26.024  25.922  1.00  0.00     0.124 S 
ATOM     84  O   UNL A   1      51.866  26.560  24.578  1.00  0.00    -0.237 OA
ATOM     85  O   UNL A   1      52.885  26.848  26.809  1.00  0.00    -0.237 OA
ATOM     86  O   UNL A   1      52.346  24.590  25.980  1.00  0.00    -0.744 OA
ENDBRANCH  82  83
ENDBRANCH  63  77
BRANCH  64  87
ATOM     87  C   UNL A   1      39.864  30.068  32.472  1.00  0.00    -0.014 A 
ATOM     88  C   UNL A   1      38.617  29.474  32.206  1.00  0.00     0.010 A 
ATOM     89  C   UNL A   1      39.561  31.345  32.804  1.00  0.00     0.010 A 
ATOM     90  C   UNL A   1      37.226  30.132  32.497  1.00  0.00     0.020 A 
ATOM     91  C   UNL A   1      38.176  31.801  33.355  1.00  0.00     0.020 A 
ATOM     92  C   UNL A   1      36.875  31.454  33.168  1.00  0.00     0.054 A 
BRANCH  92  93
ATOM     93  S   UNL A   1      35.153  33.076  32.907  1.00  0.00     0.124 S 
ATOM     94  O   UNL A   1      34.013  32.600  32.105  1.00  0.00    -0.237 OA
ATOM     95  O   UNL A   1      34.647  33.450  34.226  1.00  0.00    -0.237 OA
ATOM     96  O   UNL A   1      35.593  34.243  32.202  1.00  0.00    -0.744 OA
ENDBRANCH  92  93
ENDBRANCH  64  87
BRANCH  76  97
ATOM     97  C   UNL A   1      45.068  24.631  33.791  1.00  0.00    -0.014 A 
ATOM     98  C   UNL A   1      46.276  24.472  34.469  1.00  0.00     0.010 A 
ATOM     99  C   UNL A   1      44.223  23.480  33.760  1.00  0.00     0.010 A 
ATOM    100  C   UNL A   1      46.636  23.264  35.059  1.00  0.00     0.020 A 
ATOM    101  C   UNL A   1      44.536  22.284  34.414  1.00  0.00     0.020 A 
ATOM    102  C   UNL A   1      45.760  22.186  35.049  1.00  0.00     0.054 A 
BRANCH 102 103
ATOM    103  S   UNL A   1      46.280  20.691  35.900  1.00  0.00     0.124 S 
ATOM    104  O   UNL A   1      45.720  20.901  37.233  1.00  0.00    -0.237 OA
ATOM    105  O   UNL A   1      45.634  19.648  35.106  1.00  0.00    -0.237 OA
ATOM    106  O   UNL A   1      47.737  20.725  35.819  1.00  0.00    -0.744 OA
ENDBRANCH 102 103
ENDBRANCH  76  97
ENDBRANCH  50  51
ENDBRANCH  43  45
ENDBRANCH  42  43
ENDBRANCH  41  42
ENDBRANCH  40  41
ENDBRANCH  39  40
ENDBRANCH   1  39
TORSDOF 24
ENDMDL
MODEL 2
REMARK VINA RESULT:     -13.4      4.097      9.408
REMARK SMILES Cc1ccc(S(=O)(=O)n2cc(C(=O)C(=O)N[C@@H](Cc3cnc[nH]3)C(=O)OCCOCCOC(=O)c3ccc(-c4c5nc(c(-c6ccc(S(=O)(=O)[O-])cc6)c6ccc([nH]6)c(-c6ccc(S(=O)(=O)[O-])cc6)c6nc(c(-c7ccc(S(=O)(=O)[O-])cc7)c7ccc4[nH]7)C=C6)C=C5)cc3)c3ccccc32)cc1
REMARK SMILES IDX 28 1 27 2 26 3 24 4 25 5 17 6 16 7 14 8 15 9 12 11 13 12
REMARK SMILES IDX 11 13 9 14 10 15 100 16 95 17 99 18 96 19 98 20 97 21 6 22
REMARK SMILES IDX 7 23 8 24 5 25 1 26 2 27 3 28 102 29 4 30 101 31 18 32 19 33
REMARK SMILES IDX 20 34 23 35 21 36 22 37 29 39 30 40 31 41 32 42 33 43 34 44
REMARK SMILES IDX 35 45 36 46 94 47 37 48 93 49 38 50 39 51 40 52 87 53 41 54
REMARK SMILES IDX 92 55 86 56 88 57 42 58 91 59 85 60 84 61 43 63 73 64 54 65
REMARK SMILES IDX 72 66 55 67 58 68 71 69 89 70 56 71 57 72 70 74 90 75 59 76
REMARK SMILES IDX 44 77 45 78 53 79 46 80 52 81 47 82 48 83 49 84 50 85 51 86
REMARK SMILES IDX 74 87 75 88 83 89 76 90 82 91 77 92 78 93 79 94 80 95 81 96
REMARK SMILES IDX 60 97 61 98 69 99 62 100 68 101 63 102 64 103 65 104 66 105
REMARK SMILES IDX 67 106
REMARK H PARENT 16 10 23 38 88 62 58 73
REMARK Flexibility Score: inf
ROOT
ATOM      1  C   UNL A   1      31.415  27.025  27.288  1.00  0.00     0.202 C 
ENDROOT
BRANCH   1   2
ATOM      2  C   UNL A   1      31.619  26.751  25.821  1.00  0.00     0.261 C 
BRANCH   2   3
ATOM      3  O   UNL A   1      30.361  26.693  25.168  1.00  0.00    -0.462 OA
BRANCH   3   4
ATOM      4  C   UNL A   1      30.428  27.007  23.861  1.00  0.00     0.329 C 
ATOM      5  O   UNL A   1      29.468  27.004  23.103  1.00  0.00    -0.250 OA
BRANCH   4   6
ATOM      6  C   UNL A   1      31.871  27.240  23.424  1.00  0.00     0.198 C 
BRANCH   6   7
ATOM      7  N   UNL A   1      32.327  26.598  22.185  1.00  0.00    -0.335 N 
ATOM      8  C   UNL A   1      32.737  25.320  21.961  1.00  0.00     0.293 C 
ATOM      9  O   UNL A   1      33.337  25.044  20.929  1.00  0.00    -0.265 OA
ATOM     10  H   UNL A   1      32.339  27.183  21.393  1.00  0.00     0.164 HD
BRANCH   8  11
ATOM     11  C   UNL A   1      32.359  24.262  22.988  1.00  0.00     0.252 C 
ATOM     12  O   UNL A   1      31.166  24.007  23.131  1.00  0.00    -0.283 OA
BRANCH  11  13
ATOM     13  C   UNL A   1      33.364  23.605  23.797  1.00  0.00     0.054 A 
ATOM     14  N   UNL A   1      35.198  22.591  24.515  1.00  0.00    -0.240 N 
ATOM     15  C   UNL A   1      34.619  23.173  23.420  1.00  0.00     0.117 A 
ATOM     16  C   UNL A   1      34.361  22.639  25.612  1.00  0.00     0.065 A 
ATOM     17  C   UNL A   1      33.189  23.259  25.168  1.00  0.00     0.012 A 
ATOM     18  C   UNL A   1      34.473  22.172  26.932  1.00  0.00     0.028 A 
ATOM     19  C   UNL A   1      32.109  23.424  26.058  1.00  0.00     0.011 A 
ATOM     20  C   UNL A   1      33.373  22.328  27.785  1.00  0.00     0.002 A 
ATOM     21  C   UNL A   1      32.205  22.947  27.358  1.00  0.00     0.001 A 
BRANCH  14  22
ATOM     22  S   UNL A   1      36.722  21.848  24.466  1.00  0.00     0.268 S 
ATOM     23  O   UNL A   1      37.234  22.122  23.136  1.00  0.00    -0.201 OA
ATOM     24  O   UNL A   1      36.535  20.492  24.946  1.00  0.00    -0.201 OA
BRANCH  22  25
ATOM     25  C   UNL A   1      37.770  22.676  25.627  1.00  0.00     0.088 A 
ATOM     26  C   UNL A   1      40.678  24.579  28.146  1.00  0.00     0.044 C 
ATOM     27  C   UNL A   1      39.644  23.911  27.290  1.00  0.00    -0.051 A 
ATOM     28  C   UNL A   1      39.798  22.565  26.934  1.00  0.00     0.005 A 
ATOM     29  C   UNL A   1      38.522  24.616  26.842  1.00  0.00     0.005 A 
ATOM     30  C   UNL A   1      38.867  21.949  26.100  1.00  0.00     0.022 A 
ATOM     31  C   UNL A   1      37.572  23.998  26.027  1.00  0.00     0.022 A 
ENDBRANCH  22  25
ENDBRANCH  14  22
ENDBRANCH  11  13
ENDBRANCH   8  11
ENDBRANCH   6   7
BRANCH   6  32
ATOM     32  C   UNL A   1      32.135  28.739  23.307  1.00  0.00     0.092 C 
BRANCH  32  33
ATOM     33  C   UNL A   1      30.911  29.541  22.988  1.00  0.00     0.037 A 
ATOM     34  C   UNL A   1      30.040  30.282  23.762  1.00  0.00     0.134 A 
ATOM     35  N   UNL A   1      30.544  29.889  21.722  1.00  0.00    -0.348 N 
ATOM     36  N   UNL A   1      29.003  30.766  23.007  1.00  0.00    -0.245 NA
ATOM     37  C   UNL A   1      29.292  30.415  21.778  1.00  0.00     0.196 A 
ATOM     38  H   UNL A   1      31.089  29.779  20.910  1.00  0.00     0.167 HD
ENDBRANCH  32  33
ENDBRANCH   6  32
ENDBRANCH   4   6
ENDBRANCH   3   4
ENDBRANCH   2   3
ENDBRANCH   1   2
BRANCH   1  39
ATOM     39  O   UNL A   1      31.486  28.409  27.657  1.00  0.00    -0.374 OA
BRANCH  39  40
ATOM     40  C   UNL A   1      32.070  29.492  26.830  1.00  0.00     0.202 C 
BRANCH  40  41
ATOM     41  C   UNL A   1      32.955  31.107  26.991  1.00  0.00     0.261 C 
BRANCH  41  42
ATOM     42  O   UNL A   1      34.402  31.556  28.102  1.00  0.00    -0.460 OA
BRANCH  42  43
ATOM     43  C   UNL A   1      36.059  31.284  28.449  1.00  0.00     0.338 C 
ATOM     44  O   UNL A   1      36.631  32.380  28.611  1.00  0.00    -0.246 OA
BRANCH  43  45
ATOM     45  C   UNL A   1      37.283  29.847  28.355  1.00  0.00     0.060 A 
ATOM     46  C   UNL A   1      37.371  28.910  29.398  1.00  0.00     0.016 A 
ATOM     47  C   UNL A   1      38.585  29.638  27.705  1.00  0.00     0.016 A 
ATOM     48  C   UNL A   1      38.706  28.529  30.036  1.00  0.00     0.010 A 
ATOM     49  C   UNL A   1      39.863  29.324  28.312  1.00  0.00     0.010 A 
ATOM     50  C   UNL A   1      39.943  29.123  29.663  1.00  0.00    -0.014 A 
BRANCH  50  51
ATOM     51  C   UNL A   1      41.178  29.837  30.503  1.00  0.00     0.031 A 
ATOM     52  C   UNL A   1      40.612  30.678  31.596  1.00  0.00     0.074 A 
ATOM     53  C   UNL A   1      42.575  29.592  30.567  1.00  0.00     0.049 A 
ATOM     54  N   UNL A   1      40.403  31.953  31.556  1.00  0.00    -0.248 NA
ATOM     55  C   UNL A   1      39.970  30.055  32.782  1.00  0.00     0.031 C 
ATOM     56  C   UNL A   1      43.833  30.281  31.035  1.00  0.00     0.029 A 
ATOM     57  N   UNL A   1      43.297  28.564  29.975  1.00  0.00    -0.354 N 
ATOM     58  C   UNL A   1      40.061  32.291  32.862  1.00  0.00     0.074 A 
ATOM     59  C   UNL A   1      39.430  31.114  33.394  1.00  0.00     0.031 C 
ATOM     60  C   UNL A   1      44.855  30.073  30.141  1.00  0.00     0.029 A 
ATOM     61  C   UNL A   1      44.363  29.073  29.223  1.00  0.00     0.049 A 
ATOM     62  H   UNL A   1      43.087  27.607  30.070  1.00  0.00     0.167 HD
ATOM     63  C   UNL A   1      40.879  33.099  33.610  1.00  0.00     0.031 A 
ATOM     64  C   UNL A   1      44.221  29.035  27.866  1.00  0.00     0.031 A 
ATOM     65  C   UNL A   1      42.170  33.270  32.933  1.00  0.00     0.049 A 
ATOM     66  C   UNL A   1      43.850  30.599  27.661  1.00  0.00     0.074 A 
ATOM     67  C   UNL A   1      43.471  32.914  33.234  1.00  0.00     0.029 A 
ATOM     68  N   UNL A   1      42.172  33.594  31.585  1.00  0.00    -0.354 N 
ATOM     69  N   UNL A   1      43.139  31.333  28.513  1.00  0.00    -0.248 NA
ATOM     70  C   UNL A   1      44.666  31.462  26.794  1.00  0.00     0.031 C 
ATOM     71  C   UNL A   1      44.243  33.065  32.029  1.00  0.00     0.029 A 
ATOM     72  C   UNL A   1      43.374  33.320  30.965  1.00  0.00     0.049 A 
ATOM     73  H   UNL A   1      41.396  33.979  31.118  1.00  0.00     0.167 HD
ATOM     74  C   UNL A   1      43.619  32.644  28.538  1.00  0.00     0.074 A 
ATOM     75  C   UNL A   1      44.538  32.660  27.398  1.00  0.00     0.031 C 
ATOM     76  C   UNL A   1      43.514  33.619  29.528  1.00  0.00     0.031 A 
BRANCH  63  77
ATOM     77  C   UNL A   1      40.620  33.548  35.048  1.00  0.00    -0.014 A 
ATOM     78  C   UNL A   1      41.728  33.870  35.860  1.00  0.00     0.010 A 
ATOM     79  C   UNL A   1      39.351  33.806  35.620  1.00  0.00     0.010 A 
ATOM     80  C   UNL A   1      41.595  34.423  37.145  1.00  0.00     0.020 A 
ATOM     81  C   UNL A   1      39.201  34.348  36.919  1.00  0.00     0.020 A 
ATOM     82  C   UNL A   1      40.331  34.670  37.668  1.00  0.00     0.054 A 
BRANCH  82  83
ATOM     83  S   UNL A   1      40.209  35.468  39.296  1.00  0.00     0.124 S 
ATOM     84  O   UNL A   1      40.447  36.873  38.977  1.00  0.00    -0.237 OA
ATOM     85  O   UNL A   1      38.846  35.139  39.706  1.00  0.00    -0.237 OA
ATOM     86  O   UNL A   1      41.261  34.826  40.082  1.00  0.00    -0.744 OA
ENDBRANCH  82  83
ENDBRANCH  63  77
BRANCH  64  87
ATOM     87  C   UNL A   1      43.420  27.635  27.604  1.00  0.00    -0.014 A 
ATOM     88  C   UNL A   1      42.551  27.341  26.539  1.00  0.00     0.010 A 
ATOM     89  C   UNL A   1      44.220  26.545  27.693  1.00  0.00     0.010 A 
ATOM     90  C   UNL A   1      42.702  26.125  25.563  1.00  0.00     0.020 A 
ATOM     91  C   UNL A   1      44.490  25.560  26.516  1.00  0.00     0.020 A 
ATOM     92  C   UNL A   1      43.789  25.062  25.463  1.00  0.00     0.054 A 
BRANCH  92  93
ATOM     93  S   UNL A   1      43.849  22.757  24.874  1.00  0.00     0.124 S 
ATOM     94  O   UNL A   1      44.196  22.520  23.462  1.00  0.00    -0.237 OA
ATOM     95  O   UNL A   1      44.847  22.081  25.700  1.00  0.00    -0.237 OA
ATOM     96  O   UNL A   1      42.576  22.115  25.016  1.00  0.00    -0.744 OA
ENDBRANCH  92  93
ENDBRANCH  64  87
BRANCH  76  97
ATOM     97  C   UNL A   1      43.423  35.112  29.179  1.00  0.00    -0.014 A 
ATOM     98  C   UNL A   1      42.455  35.644  28.329  1.00  0.00     0.010 A 
ATOM     99  C   UNL A   1      44.252  36.067  29.842  1.00  0.00     0.010 A 
ATOM    100  C   UNL A   1      42.323  37.016  28.129  1.00  0.00     0.020 A 
ATOM    101  C   UNL A   1      44.081  37.449  29.712  1.00  0.00     0.020 A 
ATOM    102  C   UNL A   1      43.118  37.910  28.835  1.00  0.00     0.054 A 
BRANCH 102 103
ATOM    103  S   UNL A   1      42.825  39.663  28.568  1.00  0.00     0.124 S 
ATOM    104  O   UNL A   1      41.536  39.644  27.881  1.00  0.00    -0.237 OA
ATOM    105  O   UNL A   1      42.799  40.179  29.935  1.00  0.00    -0.237 OA
ATOM    106  O   UNL A   1      43.961  40.093  27.759  1.00  0.00    -0.744 OA
ENDBRANCH 102 103
ENDBRANCH  76  97
ENDBRANCH  50  51
ENDBRANCH  43  45
ENDBRANCH  42  43
ENDBRANCH  41  42
ENDBRANCH  40  41
ENDBRANCH  39  40
ENDBRANCH   1  39
TORSDOF 24
ENDMDL
MODEL 3
REMARK VINA RESULT:     -12.3      4.190      7.480
REMARK SMILES Cc1ccc(S(=O)(=O)n2cc(C(=O)C(=O)N[C@@H](Cc3cnc[nH]3)C(=O)OCCOCCOC(=O)c3ccc(-c4c5nc(c(-c6ccc(S(=O)(=O)[O-])cc6)c6ccc([nH]6)c(-c6ccc(S(=O)(=O)[O-])cc6)c6nc(c(-c7ccc(S(=O)(=O)[O-])cc7)c7ccc4[nH]7)C=C6)C=C5)cc3)c3ccccc32)cc1
REMARK SMILES IDX 28 1 27 2 26 3 24 4 25 5 17 6 16 7 14 8 15 9 12 11 13 12
REMARK SMILES IDX 11 13 9 14 10 15 100 16 95 17 99 18 96 19 98 20 97 21 6 22
REMARK SMILES IDX 7 23 8 24 5 25 1 26 2 27 3 28 102 29 4 30 101 31 18 32 19 33
REMARK SMILES IDX 20 34 23 35 21 36 22 37 29 39 30 40 31 41 32 42 33 43 34 44
REMARK SMILES IDX 35 45 36 46 94 47 37 48 93 49 38 50 39 51 40 52 87 53 41 54
REMARK SMILES IDX 92 55 86 56 88 57 42 58 91 59 85 60 84 61 43 63 73 64 54 65
REMARK SMILES IDX 72 66 55 67 58 68 71 69 89 70 56 71 57 72 70 74 90 75 59 76
REMARK SMILES IDX 44 77 45 78 53 79 46 80 52 81 47 82 48 83 49 84 50 85 51 86
REMARK SMILES IDX 74 87 75 88 83 89 76 90 82 91 77 92 78 93 79 94 80 95 81 96
REMARK SMILES IDX 60 97 61 98 69 99 62 100 68 101 63 102 64 103 65 104 66 105
REMARK SMILES IDX 67 106
REMARK H PARENT 16 10 23 38 88 62 58 73
REMARK Flexibility Score: inf
ROOT
ATOM      1  C   UNL A   1      37.433  22.868  25.273  1.00  0.00     0.202 C 
ENDROOT
BRANCH   1   2
ATOM      2  C   UNL A   1      36.486  24.024  25.454  1.00  0.00     0.261 C 
BRANCH   2   3
ATOM      3  O   UNL A   1      35.213  23.539  25.853  1.00  0.00    -0.462 OA
BRANCH   3   4
ATOM      4  C   UNL A   1      34.642  22.736  24.936  1.00  0.00     0.329 C 
ATOM      5  O   UNL A   1      34.661  22.946  23.731  1.00  0.00    -0.250 OA
BRANCH   4   6
ATOM      6  C   UNL A   1      33.862  21.607  25.603  1.00  0.00     0.198 C 
BRANCH   6   7
ATOM      7  N   UNL A   1      32.833  21.969  26.586  1.00  0.00    -0.335 N 
ATOM      8  C   UNL A   1      32.009  23.051  26.633  1.00  0.00     0.293 C 
ATOM      9  O   UNL A   1      31.412  23.319  27.670  1.00  0.00    -0.265 OA
ATOM     10  H   UNL A   1      32.724  21.331  27.328  1.00  0.00     0.164 HD
BRANCH   8  11
ATOM     11  C   UNL A   1      31.808  23.847  25.352  1.00  0.00     0.252 C 
ATOM     12  O   UNL A   1      31.456  23.233  24.348  1.00  0.00    -0.283 OA
BRANCH  11  13
ATOM     13  C   UNL A   1      32.058  25.272  25.304  1.00  0.00     0.054 A 
ATOM     14  N   UNL A   1      32.175  27.435  25.767  1.00  0.00    -0.240 N 
ATOM     15  C   UNL A   1      31.787  26.222  26.267  1.00  0.00     0.117 A 
ATOM     16  C   UNL A   1      32.709  27.309  24.500  1.00  0.00     0.065 A 
ATOM     17  C   UNL A   1      32.623  25.951  24.185  1.00  0.00     0.012 A 
ATOM     18  C   UNL A   1      33.218  28.233  23.572  1.00  0.00     0.028 A 
ATOM     19  C   UNL A   1      33.059  25.499  22.924  1.00  0.00     0.011 A 
ATOM     20  C   UNL A   1      33.619  27.757  22.316  1.00  0.00     0.002 A 
ATOM     21  C   UNL A   1      33.544  26.408  21.994  1.00  0.00     0.001 A 
BRANCH  14  22
ATOM     22  S   UNL A   1      31.940  28.894  26.601  1.00  0.00     0.268 S 
ATOM     23  O   UNL A   1      31.273  28.522  27.834  1.00  0.00    -0.201 OA
ATOM     24  O   UNL A   1      31.337  29.815  25.656  1.00  0.00    -0.201 OA
BRANCH  22  25
ATOM     25  C   UNL A   1      33.531  29.543  27.023  1.00  0.00     0.088 A 
ATOM     26  C   UNL A   1      37.186  31.280  28.454  1.00  0.00     0.044 C 
ATOM     27  C   UNL A   1      35.920  30.675  27.927  1.00  0.00    -0.051 A 
ATOM     28  C   UNL A   1      34.777  31.469  27.779  1.00  0.00     0.005 A 
ATOM     29  C   UNL A   1      35.866  29.321  27.575  1.00  0.00     0.005 A 
ATOM     30  C   UNL A   1      33.583  30.905  27.334  1.00  0.00     0.022 A 
ATOM     31  C   UNL A   1      34.680  28.755  27.104  1.00  0.00     0.022 A 
ENDBRANCH  22  25
ENDBRANCH  14  22
ENDBRANCH  11  13
ENDBRANCH   8  11
ENDBRANCH   6   7
BRANCH   6  32
ATOM     32  C   UNL A   1      33.210  20.734  24.534  1.00  0.00     0.092 C 
BRANCH  32  33
ATOM     33  C   UNL A   1      33.313  19.266  24.814  1.00  0.00     0.037 A 
ATOM     34  C   UNL A   1      34.109  18.261  24.302  1.00  0.00     0.134 A 
ATOM     35  N   UNL A   1      32.732  18.659  25.887  1.00  0.00    -0.348 N 
ATOM     36  N   UNL A   1      33.761  17.043  24.826  1.00  0.00    -0.245 NA
ATOM     37  C   UNL A   1      32.840  17.314  25.717  1.00  0.00     0.196 A 
ATOM     38  H   UNL A   1      32.309  19.113  26.651  1.00  0.00     0.167 HD
ENDBRANCH  32  33
ENDBRANCH   6  32
ENDBRANCH   4   6
ENDBRANCH   3   4
ENDBRANCH   2   3
ENDBRANCH   1   2
BRANCH   1  39
ATOM     39  O   UNL A   1      38.565  22.874  26.153  1.00  0.00    -0.374 OA
BRANCH  39  40
ATOM     40  C   UNL A   1      39.084  24.056  26.882  1.00  0.00     0.202 C 
BRANCH  40  41
ATOM     41  C   UNL A   1      38.954  24.910  28.516  1.00  0.00     0.261 C 
BRANCH  41  42
ATOM     42  O   UNL A   1      39.236  26.720  28.931  1.00  0.00    -0.460 OA
BRANCH  42  43
ATOM     43  C   UNL A   1      40.001  27.828  29.993  1.00  0.00     0.338 C 
ATOM     44  O   UNL A   1      39.434  27.791  31.103  1.00  0.00    -0.246 OA
BRANCH  43  45
ATOM     45  C   UNL A   1      41.226  29.260  29.864  1.00  0.00     0.060 A 
ATOM     46  C   UNL A   1      41.323  30.018  28.684  1.00  0.00     0.016 A 
ATOM     47  C   UNL A   1      42.523  29.572  30.481  1.00  0.00     0.016 A 
ATOM     48  C   UNL A   1      42.663  30.290  28.004  1.00  0.00     0.010 A 
ATOM     49  C   UNL A   1      43.807  29.783  29.842  1.00  0.00     0.010 A 
ATOM     50  C   UNL A   1      43.897  29.765  28.477  1.00  0.00    -0.014 A 
BRANCH  50  51
ATOM     51  C   UNL A   1      45.137  28.925  27.772  1.00  0.00     0.031 A 
ATOM     52  C   UNL A   1      44.724  27.506  27.572  1.00  0.00     0.074 A 
ATOM     53  C   UNL A   1      46.322  29.328  27.101  1.00  0.00     0.049 A 
ATOM     54  N   UNL A   1      44.992  26.510  28.352  1.00  0.00    -0.248 NA
ATOM     55  C   UNL A   1      43.706  27.145  26.553  1.00  0.00     0.031 C 
ATOM     56  C   UNL A   1      47.639  28.739  26.662  1.00  0.00     0.029 A 
ATOM     57  N   UNL A   1      46.724  30.612  26.761  1.00  0.00    -0.354 N 
ATOM     58  C   UNL A   1      44.569  25.390  27.643  1.00  0.00     0.074 A 
ATOM     59  C   UNL A   1      43.479  25.858  26.831  1.00  0.00     0.031 C 
ATOM     60  C   UNL A   1      48.661  29.631  26.882  1.00  0.00     0.029 A 
ATOM     61  C   UNL A   1      48.015  30.873  27.235  1.00  0.00     0.049 A 
ATOM     62  H   UNL A   1      46.174  31.253  26.254  1.00  0.00     0.167 HD
ATOM     63  C   UNL A   1      45.476  24.459  27.206  1.00  0.00     0.031 A 
ATOM     64  C   UNL A   1      48.109  31.706  28.313  1.00  0.00     0.031 A 
ATOM     65  C   UNL A   1      46.841  24.974  27.364  1.00  0.00     0.049 A 
ATOM     66  C   UNL A   1      48.359  30.558  29.429  1.00  0.00     0.074 A 
ATOM     67  C   UNL A   1      47.857  25.301  26.486  1.00  0.00     0.029 A 
ATOM     68  N   UNL A   1      47.194  25.549  28.576  1.00  0.00    -0.354 N 
ATOM     69  N   UNL A   1      47.817  29.343  29.411  1.00  0.00    -0.248 NA
ATOM     70  C   UNL A   1      49.567  30.570  30.268  1.00  0.00     0.031 C 
ATOM     71  C   UNL A   1      48.830  26.061  27.224  1.00  0.00     0.029 A 
ATOM     72  C   UNL A   1      48.309  26.357  28.487  1.00  0.00     0.049 A 
ATOM     73  H   UNL A   1      46.699  25.396  29.414  1.00  0.00     0.167 HD
ATOM     74  C   UNL A   1      48.719  28.405  29.916  1.00  0.00     0.074 A 
ATOM     75  C   UNL A   1      49.768  29.256  30.481  1.00  0.00     0.031 C 
ATOM     76  C   UNL A   1      48.795  27.030  29.705  1.00  0.00     0.031 A 
BRANCH  63  77
ATOM     77  C   UNL A   1      45.145  23.187  26.424  1.00  0.00    -0.014 A 
ATOM     78  C   UNL A   1      46.145  22.627  25.600  1.00  0.00     0.010 A 
ATOM     79  C   UNL A   1      43.959  22.423  26.546  1.00  0.00     0.010 A 
ATOM     80  C   UNL A   1      45.992  21.391  24.951  1.00  0.00     0.020 A 
ATOM     81  C   UNL A   1      43.785  21.183  25.885  1.00  0.00     0.020 A 
ATOM     82  C   UNL A   1      44.815  20.667  25.103  1.00  0.00     0.054 A 
BRANCH  82  83
ATOM     83  S   UNL A   1      44.697  19.032  24.317  1.00  0.00     0.124 S 
ATOM     84  O   UNL A   1      43.535  18.446  24.982  1.00  0.00    -0.237 OA
ATOM     85  O   UNL A   1      44.507  19.373  22.909  1.00  0.00    -0.237 OA
ATOM     86  O   UNL A   1      45.975  18.397  24.632  1.00  0.00    -0.744 OA
ENDBRANCH  82  83
ENDBRANCH  63  77
BRANCH  64  87
ATOM     87  C   UNL A   1      46.922  32.799  28.055  1.00  0.00    -0.014 A 
ATOM     88  C   UNL A   1      45.731  32.947  28.788  1.00  0.00     0.010 A 
ATOM     89  C   UNL A   1      47.390  34.063  27.921  1.00  0.00     0.010 A 
ATOM     90  C   UNL A   1      45.255  34.272  29.475  1.00  0.00     0.020 A 
ATOM     91  C   UNL A   1      47.025  35.238  28.877  1.00  0.00     0.020 A 
ATOM     92  C   UNL A   1      45.937  35.629  29.593  1.00  0.00     0.054 A 
BRANCH  92  93
ATOM     93  S   UNL A   1      45.201  37.891  29.649  1.00  0.00     0.124 S 
ATOM     94  O   UNL A   1      46.275  38.852  29.957  1.00  0.00    -0.237 OA
ATOM     95  O   UNL A   1      44.645  38.244  28.345  1.00  0.00    -0.237 OA
ATOM     96  O   UNL A   1      44.232  38.134  30.677  1.00  0.00    -0.744 OA
ENDBRANCH  92  93
ENDBRANCH  64  87
BRANCH  76  97
ATOM     97  C   UNL A   1      49.302  26.076  30.797  1.00  0.00    -0.014 A 
ATOM     98  C   UNL A   1      48.615  25.832  31.985  1.00  0.00     0.010 A 
ATOM     99  C   UNL A   1      50.455  25.261  30.575  1.00  0.00     0.010 A 
ATOM    100  C   UNL A   1      49.038  24.871  32.898  1.00  0.00     0.020 A 
ATOM    101  C   UNL A   1      50.848  24.240  31.445  1.00  0.00     0.020 A 
ATOM    102  C   UNL A   1      50.135  24.067  32.617  1.00  0.00     0.054 A 
BRANCH 102 103
ATOM    103  S   UNL A   1      50.563  22.804  33.821  1.00  0.00     0.124 S 
ATOM    104  O   UNL A   1      49.249  22.261  34.157  1.00  0.00    -0.237 OA
ATOM    105  O   UNL A   1      51.425  21.918  33.041  1.00  0.00    -0.237 OA
ATOM    106  O   UNL A   1      51.229  23.543  34.889  1.00  0.00    -0.744 OA
ENDBRANCH 102 103
ENDBRANCH  76  97
ENDBRANCH  50  51
ENDBRANCH  43  45
ENDBRANCH  42  43
ENDBRANCH  41  42
ENDBRANCH  40  41
ENDBRANCH  39  40
ENDBRANCH   1  39
TORSDOF 24
ENDMDL
