MODEL 1
REMARK VINA RESULT:     -10.2      0.000      0.000
REMARK SMILES C[C@@H](c1ccccc1)[C@@H](CC(=O)Nc1ccccc1I)C(=O)OCCOCCOC(=O)c1ccc(-c2c3nc(c(-c4ccc(S(=O)(=O)[O-])cc4)c4ccc([nH]4)c(-c4ccc(S(=O)(=O)[O-])cc4)c4nc(c(-c5ccc(S(=O)(=O)[O-])cc5)c5ccc2[nH]5)C=C4)C=C3)cc1
REMARK SMILES IDX 26 1 25 2 24 3 23 4 21 5 22 6 9 7 2 8 1 9 3 10 4 11 8 12
REMARK SMILES IDX 5 13 7 14 6 15 10 16 11 17 12 18 13 19 14 21 15 22 19 23
REMARK SMILES IDX 16 24 18 25 20 26 17 27 27 28 28 29 29 30 30 31 31 32 32 33
REMARK SMILES IDX 33 34 91 35 34 36 90 37 35 38 36 39 37 40 84 41 38 42 89 43
REMARK SMILES IDX 83 44 85 45 39 46 88 47 82 48 81 49 40 51 70 52 51 53 69 54
REMARK SMILES IDX 52 55 55 56 68 57 86 58 53 59 54 60 67 62 87 63 56 64 41 65
REMARK SMILES IDX 42 66 50 67 43 68 49 69 44 70 45 71 46 72 47 73 48 74 71 75
REMARK SMILES IDX 72 76 80 77 73 78 79 79 74 80 75 81 76 82 77 83 78 84 57 85
REMARK SMILES IDX 58 86 66 87 59 88 65 89 60 90 61 91 62 92 63 93 64 94
REMARK H PARENT 13 20 85 50 55 61
REMARK Flexibility Score: inf
ROOT
ATOM      1  O   UNL A   1      33.626  30.379  27.587  1.00  0.00    -0.374 OA
ENDROOT
BRANCH   1   2
ATOM      2  C   UNL A   1      32.625  30.575  26.588  1.00  0.00     0.202 C 
BRANCH   2   3
ATOM      3  C   UNL A   1      32.435  29.391  25.642  1.00  0.00     0.261 C 
BRANCH   3   4
ATOM      4  O   UNL A   1      32.760  28.135  26.281  1.00  0.00    -0.463 OA
BRANCH   4   5
ATOM      5  C   UNL A   1      31.722  27.442  26.803  1.00  0.00     0.310 C 
ATOM      6  O   UNL A   1      31.071  27.784  27.784  1.00  0.00    -0.252 OA
BRANCH   5   7
ATOM      7  C   UNL A   1      31.463  26.127  26.089  1.00  0.00     0.116 C 
BRANCH   7   8
ATOM      8  C   UNL A   1      32.073  24.848  26.698  1.00  0.00     0.031 C 
ATOM      9  C   UNL A   1      30.984  23.762  26.839  1.00  0.00     0.013 C 
BRANCH   8  10
ATOM     10  C   UNL A   1      33.289  24.132  26.123  1.00  0.00    -0.044 A 
ATOM     11  C   UNL A   1      33.508  22.755  26.233  1.00  0.00     0.004 A 
ATOM     12  C   UNL A   1      34.349  24.930  25.641  1.00  0.00     0.004 A 
ATOM     13  C   UNL A   1      34.763  22.212  25.909  1.00  0.00     0.000 A 
ATOM     14  C   UNL A   1      35.595  24.393  25.328  1.00  0.00     0.000 A 
ATOM     15  C   UNL A   1      35.806  23.030  25.471  1.00  0.00     0.000 A 
ENDBRANCH   8  10
ENDBRANCH   7   8
BRANCH   7  16
ATOM     16  C   UNL A   1      29.957  25.977  25.727  1.00  0.00     0.116 C 
BRANCH  16  17
ATOM     17  C   UNL A   1      29.454  26.130  24.287  1.00  0.00     0.225 C 
ATOM     18  O   UNL A   1      28.311  26.543  24.071  1.00  0.00    -0.275 OA
ATOM     19  N   UNL A   1      30.322  26.028  23.217  1.00  0.00    -0.325 N 
ATOM     20  H   UNL A   1      30.316  26.769  22.569  1.00  0.00     0.169 HD
BRANCH  19  21
ATOM     21  C   UNL A   1      31.219  24.967  22.961  1.00  0.00     0.054 A 
ATOM     22  C   UNL A   1      30.854  23.673  23.338  1.00  0.00     0.027 A 
ATOM     23  C   UNL A   1      32.533  25.180  22.517  1.00  0.00     0.037 A 
ATOM     24  C   UNL A   1      31.715  22.595  23.093  1.00  0.00     0.002 A 
ATOM     25  C   UNL A   1      33.362  24.099  22.193  1.00  0.00     0.017 A 
ATOM     26  I   UNL A   1      33.355  27.094  22.438  1.00  0.00    -0.042 I 
ATOM     27  C   UNL A   1      32.939  22.800  22.459  1.00  0.00     0.001 A 
ENDBRANCH  19  21
ENDBRANCH  16  17
ENDBRANCH   7  16
ENDBRANCH   5   7
ENDBRANCH   4   5
ENDBRANCH   3   4
ENDBRANCH   2   3
ENDBRANCH   1   2
BRANCH   1  28
ATOM     28  C   UNL A   1      34.535  31.470  27.755  1.00  0.00     0.202 C 
BRANCH  28  29
ATOM     29  C   UNL A   1      35.600  31.226  28.827  1.00  0.00     0.261 C 
BRANCH  29  30
ATOM     30  O   UNL A   1      36.691  30.443  28.299  1.00  0.00    -0.460 OA
BRANCH  30  31
ATOM     31  C   UNL A   1      37.248  29.579  29.179  1.00  0.00     0.338 C 
ATOM     32  O   UNL A   1      36.701  29.048  30.136  1.00  0.00    -0.246 OA
BRANCH  31  33
ATOM     33  C   UNL A   1      38.598  29.193  28.730  1.00  0.00     0.060 A 
ATOM     34  C   UNL A   1      39.486  28.709  29.698  1.00  0.00     0.016 A 
ATOM     35  C   UNL A   1      39.015  29.343  27.407  1.00  0.00     0.016 A 
ATOM     36  C   UNL A   1      40.811  28.430  29.362  1.00  0.00     0.010 A 
ATOM     37  C   UNL A   1      40.337  29.027  27.064  1.00  0.00     0.010 A 
ATOM     38  C   UNL A   1      41.260  28.622  28.048  1.00  0.00    -0.014 A 
BRANCH  38  39
ATOM     39  C   UNL A   1      42.722  28.634  27.753  1.00  0.00     0.031 A 
ATOM     40  C   UNL A   1      43.335  27.379  27.176  1.00  0.00     0.074 A 
ATOM     41  C   UNL A   1      43.485  29.730  27.929  1.00  0.00     0.049 A 
ATOM     42  N   UNL A   1      44.586  27.116  26.899  1.00  0.00    -0.248 NA
ATOM     43  C   UNL A   1      42.413  26.267  26.885  1.00  0.00     0.031 C 
ATOM     44  C   UNL A   1      43.017  31.027  28.419  1.00  0.00     0.029 A 
ATOM     45  N   UNL A   1      44.828  29.928  27.704  1.00  0.00    -0.354 N 
ATOM     46  C   UNL A   1      44.598  25.808  26.425  1.00  0.00     0.074 A 
ATOM     47  C   UNL A   1      43.245  25.311  26.506  1.00  0.00     0.031 C 
ATOM     48  C   UNL A   1      44.053  31.888  28.441  1.00  0.00     0.029 A 
ATOM     49  C   UNL A   1      45.266  31.195  28.014  1.00  0.00     0.049 A 
ATOM     50  H   UNL A   1      45.422  29.225  27.352  1.00  0.00     0.167 HD
ATOM     51  C   UNL A   1      45.635  25.086  25.939  1.00  0.00     0.031 A 
ATOM     52  C   UNL A   1      46.506  31.728  27.973  1.00  0.00     0.031 A 
ATOM     53  C   UNL A   1      46.979  25.581  25.833  1.00  0.00     0.049 A 
ATOM     54  C   UNL A   1      47.664  30.875  27.509  1.00  0.00     0.074 A 
ATOM     55  C   UNL A   1      48.099  24.925  25.355  1.00  0.00     0.029 A 
ATOM     56  N   UNL A   1      47.382  26.855  26.199  1.00  0.00    -0.354 N 
ATOM     57  N   UNL A   1      47.657  29.636  27.075  1.00  0.00    -0.248 NA
ATOM     58  C   UNL A   1      48.998  31.495  27.523  1.00  0.00     0.031 C 
ATOM     59  C   UNL A   1      49.192  25.787  25.483  1.00  0.00     0.029 A 
ATOM     60  C   UNL A   1      48.738  27.002  25.971  1.00  0.00     0.049 A 
ATOM     61  H   UNL A   1      46.791  27.552  26.567  1.00  0.00     0.167 HD
ATOM     62  C   UNL A   1      48.973  29.350  26.720  1.00  0.00     0.074 A 
ATOM     63  C   UNL A   1      49.748  30.542  26.987  1.00  0.00     0.031 C 
ATOM     64  C   UNL A   1      49.491  28.205  26.211  1.00  0.00     0.031 A 
BRANCH  51  65
ATOM     65  C   UNL A   1      45.354  23.674  25.496  1.00  0.00    -0.014 A 
ATOM     66  C   UNL A   1      44.959  23.389  24.176  1.00  0.00     0.010 A 
ATOM     67  C   UNL A   1      45.526  22.613  26.403  1.00  0.00     0.010 A 
ATOM     68  C   UNL A   1      44.709  22.072  23.782  1.00  0.00     0.020 A 
ATOM     69  C   UNL A   1      45.310  21.292  26.004  1.00  0.00     0.020 A 
ATOM     70  C   UNL A   1      44.889  21.031  24.698  1.00  0.00     0.054 A 
BRANCH  70  71
ATOM     71  S   UNL A   1      44.594  19.330  24.146  1.00  0.00     0.124 S 
ATOM     72  O   UNL A   1      45.749  18.628  24.702  1.00  0.00    -0.237 OA
ATOM     73  O   UNL A   1      43.309  19.013  24.764  1.00  0.00    -0.237 OA
ATOM     74  O   UNL A   1      44.573  19.435  22.689  1.00  0.00    -0.744 OA
ENDBRANCH  70  71
ENDBRANCH  51  65
BRANCH  52  75
ATOM     75  C   UNL A   1      46.741  33.139  28.400  1.00  0.00    -0.014 A 
ATOM     76  C   UNL A   1      46.681  34.195  27.470  1.00  0.00     0.010 A 
ATOM     77  C   UNL A   1      47.080  33.432  29.734  1.00  0.00     0.010 A 
ATOM     78  C   UNL A   1      46.988  35.505  27.856  1.00  0.00     0.020 A 
ATOM     79  C   UNL A   1      47.354  34.745  30.132  1.00  0.00     0.020 A 
ATOM     80  C   UNL A   1      47.325  35.770  29.186  1.00  0.00     0.054 A 
BRANCH  80  81
ATOM     81  S   UNL A   1      47.708  37.478  29.668  1.00  0.00     0.124 S 
ATOM     82  O   UNL A   1      46.613  38.220  29.054  1.00  0.00    -0.237 OA
ATOM     83  O   UNL A   1      47.687  37.405  31.126  1.00  0.00    -0.237 OA
ATOM     84  O   UNL A   1      49.027  37.711  29.082  1.00  0.00    -0.744 OA
ENDBRANCH  80  81
ENDBRANCH  52  75
BRANCH  64  85
ATOM     85  C   UNL A   1      50.950  28.192  25.829  1.00  0.00    -0.014 A 
ATOM     86  C   UNL A   1      51.951  27.833  26.746  1.00  0.00     0.010 A 
ATOM     87  C   UNL A   1      51.307  28.455  24.492  1.00  0.00     0.010 A 
ATOM     88  C   UNL A   1      53.287  27.756  26.337  1.00  0.00     0.020 A 
ATOM     89  C   UNL A   1      52.634  28.349  24.073  1.00  0.00     0.020 A 
ATOM     90  C   UNL A   1      53.619  28.008  25.001  1.00  0.00     0.054 A 
BRANCH  90  91
ATOM     91  S   UNL A   1      55.347  27.831  24.483  1.00  0.00     0.124 S 
ATOM     92  O   UNL A   1      56.000  27.438  25.729  1.00  0.00    -0.237 OA
ATOM     93  O   UNL A   1      55.269  26.792  23.460  1.00  0.00    -0.237 OA
ATOM     94  O   UNL A   1      55.701  29.160  23.987  1.00  0.00    -0.744 OA
ENDBRANCH  90  91
ENDBRANCH  64  85
ENDBRANCH  38  39
ENDBRANCH  31  33
ENDBRANCH  30  31
ENDBRANCH  29  30
ENDBRANCH  28  29
ENDBRANCH   1  28
TORSDOF 22
ENDMDL
MODEL 2
REMARK VINA RESULT:     -10.1      7.094     11.832
REMARK SMILES C[C@@H](c1ccccc1)[C@@H](CC(=O)Nc1ccccc1I)C(=O)OCCOCCOC(=O)c1ccc(-c2c3nc(c(-c4ccc(S(=O)(=O)[O-])cc4)c4ccc([nH]4)c(-c4ccc(S(=O)(=O)[O-])cc4)c4nc(c(-c5ccc(S(=O)(=O)[O-])cc5)c5ccc2[nH]5)C=C4)C=C3)cc1
REMARK SMILES IDX 26 1 25 2 24 3 23 4 21 5 22 6 9 7 2 8 1 9 3 10 4 11 8 12
REMARK SMILES IDX 5 13 7 14 6 15 10 16 11 17 12 18 13 19 14 21 15 22 19 23
REMARK SMILES IDX 16 24 18 25 20 26 17 27 27 28 28 29 29 30 30 31 31 32 32 33
REMARK SMILES IDX 33 34 91 35 34 36 90 37 35 38 36 39 37 40 84 41 38 42 89 43
REMARK SMILES IDX 83 44 85 45 39 46 88 47 82 48 81 49 40 51 70 52 51 53 69 54
REMARK SMILES IDX 52 55 55 56 68 57 86 58 53 59 54 60 67 62 87 63 56 64 41 65
REMARK SMILES IDX 42 66 50 67 43 68 49 69 44 70 45 71 46 72 47 73 48 74 71 75
REMARK SMILES IDX 72 76 80 77 73 78 79 79 74 80 75 81 76 82 77 83 78 84 57 85
REMARK SMILES IDX 58 86 66 87 59 88 65 89 60 90 61 91 62 92 63 93 64 94
REMARK H PARENT 13 20 85 50 55 61
REMARK Flexibility Score: inf
ROOT
ATOM      1  O   UNL A   1      38.579  22.376  26.135  1.00  0.00    -0.374 OA
ENDROOT
BRANCH   1   2
ATOM      2  C   UNL A   1      38.150  21.325  25.268  1.00  0.00     0.202 C 
BRANCH   2   3
ATOM      3  C   UNL A   1      36.641  21.276  25.032  1.00  0.00     0.261 C 
BRANCH   3   4
ATOM      4  O   UNL A   1      35.912  21.964  26.073  1.00  0.00    -0.463 OA
BRANCH   4   5
ATOM      5  C   UNL A   1      34.585  21.709  26.143  1.00  0.00     0.310 C 
ATOM      6  O   UNL A   1      34.002  21.279  27.132  1.00  0.00    -0.252 OA
BRANCH   5   7
ATOM      7  C   UNL A   1      33.862  21.944  24.828  1.00  0.00     0.116 C 
BRANCH   7   8
ATOM      8  C   UNL A   1      32.842  20.880  24.370  1.00  0.00     0.031 C 
ATOM      9  C   UNL A   1      32.133  21.352  23.082  1.00  0.00     0.013 C 
BRANCH   8  10
ATOM     10  C   UNL A   1      33.195  19.418  24.127  1.00  0.00    -0.044 A 
ATOM     11  C   UNL A   1      34.329  18.791  24.651  1.00  0.00     0.004 A 
ATOM     12  C   UNL A   1      32.450  18.721  23.151  1.00  0.00     0.004 A 
ATOM     13  C   UNL A   1      34.720  17.528  24.176  1.00  0.00     0.000 A 
ATOM     14  C   UNL A   1      32.842  17.473  22.674  1.00  0.00     0.000 A 
ATOM     15  C   UNL A   1      33.987  16.878  23.182  1.00  0.00     0.000 A 
ENDBRANCH   8  10
ENDBRANCH   7   8
BRANCH   7  16
ATOM     16  C   UNL A   1      33.312  23.397  24.746  1.00  0.00     0.116 C 
BRANCH  16  17
ATOM     17  C   UNL A   1      33.936  24.445  23.817  1.00  0.00     0.225 C 
ATOM     18  O   UNL A   1      34.829  24.122  23.030  1.00  0.00    -0.275 OA
ATOM     19  N   UNL A   1      33.372  25.699  23.681  1.00  0.00    -0.325 N 
ATOM     20  H   UNL A   1      33.180  26.002  22.764  1.00  0.00     0.169 HD
BRANCH  19  21
ATOM     21  C   UNL A   1      33.040  26.590  24.727  1.00  0.00     0.054 A 
ATOM     22  C   UNL A   1      34.030  26.946  25.644  1.00  0.00     0.027 A 
ATOM     23  C   UNL A   1      31.720  26.982  24.993  1.00  0.00     0.037 A 
ATOM     24  C   UNL A   1      33.740  27.833  26.690  1.00  0.00     0.002 A 
ATOM     25  C   UNL A   1      31.443  27.933  25.984  1.00  0.00     0.017 A 
ATOM     26  I   UNL A   1      30.104  26.087  24.026  1.00  0.00    -0.042 I 
ATOM     27  C   UNL A   1      32.464  28.378  26.818  1.00  0.00     0.001 A 
ENDBRANCH  19  21
ENDBRANCH  16  17
ENDBRANCH   7  16
ENDBRANCH   5   7
ENDBRANCH   4   5
ENDBRANCH   3   4
ENDBRANCH   2   3
ENDBRANCH   1   2
BRANCH   1  28
ATOM     28  C   UNL A   1      39.801  22.124  26.832  1.00  0.00     0.202 C 
BRANCH  28  29
ATOM     29  C   UNL A   1      40.894  23.160  26.554  1.00  0.00     0.261 C 
BRANCH  29  30
ATOM     30  O   UNL A   1      40.813  24.256  27.489  1.00  0.00    -0.460 OA
BRANCH  30  31
ATOM     31  C   UNL A   1      40.540  25.458  26.931  1.00  0.00     0.338 C 
ATOM     32  O   UNL A   1      40.435  25.710  25.739  1.00  0.00    -0.246 OA
BRANCH  31  33
ATOM     33  C   UNL A   1      40.191  26.438  27.977  1.00  0.00     0.060 A 
ATOM     34  C   UNL A   1      40.797  27.698  27.909  1.00  0.00     0.016 A 
ATOM     35  C   UNL A   1      39.332  26.127  29.032  1.00  0.00     0.016 A 
ATOM     36  C   UNL A   1      40.595  28.632  28.926  1.00  0.00     0.010 A 
ATOM     37  C   UNL A   1      39.102  27.081  30.033  1.00  0.00     0.010 A 
ATOM     38  C   UNL A   1      39.774  28.319  30.018  1.00  0.00    -0.014 A 
BRANCH  38  39
ATOM     39  C   UNL A   1      39.806  29.168  31.243  1.00  0.00     0.031 A 
ATOM     40  C   UNL A   1      40.956  28.976  32.205  1.00  0.00     0.074 A 
ATOM     41  C   UNL A   1      38.888  30.125  31.483  1.00  0.00     0.049 A 
ATOM     42  N   UNL A   1      41.173  29.539  33.365  1.00  0.00    -0.248 NA
ATOM     43  C   UNL A   1      41.993  28.006  31.809  1.00  0.00     0.031 C 
ATOM     44  C   UNL A   1      37.761  30.464  30.614  1.00  0.00     0.029 A 
ATOM     45  N   UNL A   1      38.766  31.000  32.538  1.00  0.00    -0.354 N 
ATOM     46  C   UNL A   1      42.353  28.975  33.840  1.00  0.00     0.074 A 
ATOM     47  C   UNL A   1      42.775  27.989  32.875  1.00  0.00     0.031 C 
ATOM     48  C   UNL A   1      37.074  31.484  31.164  1.00  0.00     0.029 A 
ATOM     49  C   UNL A   1      37.680  31.839  32.445  1.00  0.00     0.049 A 
ATOM     50  H   UNL A   1      39.400  31.022  33.292  1.00  0.00     0.167 HD
ATOM     51  C   UNL A   1      43.045  29.268  34.966  1.00  0.00     0.031 A 
ATOM     52  C   UNL A   1      37.219  32.775  33.302  1.00  0.00     0.031 A 
ATOM     53  C   UNL A   1      42.646  30.265  35.919  1.00  0.00     0.049 A 
ATOM     54  C   UNL A   1      37.961  33.024  34.595  1.00  0.00     0.074 A 
ATOM     55  C   UNL A   1      43.279  30.634  37.092  1.00  0.00     0.029 A 
ATOM     56  N   UNL A   1      41.516  31.060  35.803  1.00  0.00    -0.354 N 
ATOM     57  N   UNL A   1      39.069  32.473  35.032  1.00  0.00    -0.248 NA
ATOM     58  C   UNL A   1      37.391  34.026  35.510  1.00  0.00     0.031 C 
ATOM     59  C   UNL A   1      42.503  31.616  37.713  1.00  0.00     0.029 A 
ATOM     60  C   UNL A   1      41.426  31.909  36.891  1.00  0.00     0.049 A 
ATOM     61  H   UNL A   1      40.874  31.025  35.058  1.00  0.00     0.167 HD
ATOM     62  C   UNL A   1      39.353  33.098  36.244  1.00  0.00     0.074 A 
ATOM     63  C   UNL A   1      38.304  34.067  36.472  1.00  0.00     0.031 C 
ATOM     64  C   UNL A   1      40.393  32.892  37.089  1.00  0.00     0.031 A 
BRANCH  51  65
ATOM     65  C   UNL A   1      44.304  28.485  35.234  1.00  0.00    -0.014 A 
ATOM     66  C   UNL A   1      45.567  28.987  34.865  1.00  0.00     0.010 A 
ATOM     67  C   UNL A   1      44.227  27.249  35.898  1.00  0.00     0.010 A 
ATOM     68  C   UNL A   1      46.724  28.250  35.126  1.00  0.00     0.020 A 
ATOM     69  C   UNL A   1      45.385  26.524  36.192  1.00  0.00     0.020 A 
ATOM     70  C   UNL A   1      46.626  27.024  35.791  1.00  0.00     0.054 A 
BRANCH  70  71
ATOM     71  S   UNL A   1      48.148  26.108  36.151  1.00  0.00     0.124 S 
ATOM     72  O   UNL A   1      49.149  26.890  35.428  1.00  0.00    -0.237 OA
ATOM     73  O   UNL A   1      48.227  26.181  37.608  1.00  0.00    -0.237 OA
ATOM     74  O   UNL A   1      47.890  24.776  35.609  1.00  0.00    -0.744 OA
ENDBRANCH  70  71
ENDBRANCH  51  65
BRANCH  52  75
ATOM     75  C   UNL A   1      35.979  33.546  32.992  1.00  0.00    -0.014 A 
ATOM     76  C   UNL A   1      36.045  34.781  32.319  1.00  0.00     0.010 A 
ATOM     77  C   UNL A   1      34.723  33.074  33.416  1.00  0.00     0.010 A 
ATOM     78  C   UNL A   1      34.890  35.542  32.108  1.00  0.00     0.020 A 
ATOM     79  C   UNL A   1      33.561  33.816  33.176  1.00  0.00     0.020 A 
ATOM     80  C   UNL A   1      33.654  35.054  32.540  1.00  0.00     0.054 A 
BRANCH  80  81
ATOM     81  S   UNL A   1      32.167  36.051  32.246  1.00  0.00     0.124 S 
ATOM     82  O   UNL A   1      31.101  35.122  32.607  1.00  0.00    -0.237 OA
ATOM     83  O   UNL A   1      32.360  37.180  33.153  1.00  0.00    -0.237 OA
ATOM     84  O   UNL A   1      32.252  36.382  30.824  1.00  0.00    -0.744 OA
ENDBRANCH  80  81
ENDBRANCH  52  75
BRANCH  64  85
ATOM     85  C   UNL A   1      40.509  33.777  38.305  1.00  0.00    -0.014 A 
ATOM     86  C   UNL A   1      41.105  35.047  38.240  1.00  0.00     0.010 A 
ATOM     87  C   UNL A   1      39.917  33.357  39.512  1.00  0.00     0.010 A 
ATOM     88  C   UNL A   1      41.125  35.874  39.368  1.00  0.00     0.020 A 
ATOM     89  C   UNL A   1      39.908  34.192  40.631  1.00  0.00     0.020 A 
ATOM     90  C   UNL A   1      40.520  35.444  40.554  1.00  0.00     0.054 A 
BRANCH  90  91
ATOM     91  S   UNL A   1      40.498  36.566  41.979  1.00  0.00     0.124 S 
ATOM     92  O   UNL A   1      39.873  35.740  43.008  1.00  0.00    -0.237 OA
ATOM     93  O   UNL A   1      41.916  36.854  42.180  1.00  0.00    -0.237 OA
ATOM     94  O   UNL A   1      39.698  37.699  41.519  1.00  0.00    -0.744 OA
ENDBRANCH  90  91
ENDBRANCH  64  85
ENDBRANCH  38  39
ENDBRANCH  31  33
ENDBRANCH  30  31
ENDBRANCH  29  30
ENDBRANCH  28  29
ENDBRANCH   1  28
TORSDOF 22
ENDMDL
MODEL 3
REMARK VINA RESULT:      -9.9      1.343      1.962
REMARK SMILES C[C@@H](c1ccccc1)[C@@H](CC(=O)Nc1ccccc1I)C(=O)OCCOCCOC(=O)c1ccc(-c2c3nc(c(-c4ccc(S(=O)(=O)[O-])cc4)c4ccc([nH]4)c(-c4ccc(S(=O)(=O)[O-])cc4)c4nc(c(-c5ccc(S(=O)(=O)[O-])cc5)c5ccc2[nH]5)C=C4)C=C3)cc1
REMARK SMILES IDX 26 1 25 2 24 3 23 4 21 5 22 6 9 7 2 8 1 9 3 10 4 11 8 12
REMARK SMILES IDX 5 13 7 14 6 15 10 16 11 17 12 18 13 19 14 21 15 22 19 23
REMARK SMILES IDX 16 24 18 25 20 26 17 27 27 28 28 29 29 30 30 31 31 32 32 33
REMARK SMILES IDX 33 34 91 35 34 36 90 37 35 38 36 39 37 40 84 41 38 42 89 43
REMARK SMILES IDX 83 44 85 45 39 46 88 47 82 48 81 49 40 51 70 52 51 53 69 54
REMARK SMILES IDX 52 55 55 56 68 57 86 58 53 59 54 60 67 62 87 63 56 64 41 65
REMARK SMILES IDX 42 66 50 67 43 68 49 69 44 70 45 71 46 72 47 73 48 74 71 75
REMARK SMILES IDX 72 76 80 77 73 78 79 79 74 80 75 81 76 82 77 83 78 84 57 85
REMARK SMILES IDX 58 86 66 87 59 88 65 89 60 90 61 91 62 92 63 93 64 94
REMARK H PARENT 13 20 85 50 55 61
REMARK Flexibility Score: inf
ROOT
ATOM      1  O   UNL A   1      33.296  30.391  27.633  1.00  0.00    -0.374 OA
ENDROOT
BRANCH   1   2
ATOM      2  C   UNL A   1      32.318  30.659  26.628  1.00  0.00     0.202 C 
BRANCH   2   3
ATOM      3  C   UNL A   1      32.040  29.488  25.687  1.00  0.00     0.261 C 
BRANCH   3   4
ATOM      4  O   UNL A   1      32.553  28.243  26.213  1.00  0.00    -0.463 OA
BRANCH   4   5
ATOM      5  C   UNL A   1      31.655  27.437  26.825  1.00  0.00     0.310 C 
ATOM      6  O   UNL A   1      31.081  27.695  27.877  1.00  0.00    -0.252 OA
BRANCH   5   7
ATOM      7  C   UNL A   1      31.461  26.109  26.112  1.00  0.00     0.116 C 
BRANCH   7   8
ATOM      8  C   UNL A   1      32.114  24.858  26.736  1.00  0.00     0.031 C 
ATOM      9  C   UNL A   1      31.103  23.691  26.751  1.00  0.00     0.013 C 
BRANCH   8  10
ATOM     10  C   UNL A   1      33.425  24.254  26.248  1.00  0.00    -0.044 A 
ATOM     11  C   UNL A   1      34.450  24.994  25.649  1.00  0.00     0.004 A 
ATOM     12  C   UNL A   1      33.519  22.846  26.207  1.00  0.00     0.004 A 
ATOM     13  C   UNL A   1      35.506  24.336  24.996  1.00  0.00     0.000 A 
ATOM     14  C   UNL A   1      34.561  22.194  25.552  1.00  0.00     0.000 A 
ATOM     15  C   UNL A   1      35.554  22.941  24.937  1.00  0.00     0.000 A 
ENDBRANCH   8  10
ENDBRANCH   7   8
BRANCH   7  16
ATOM     16  C   UNL A   1      29.968  25.896  25.728  1.00  0.00     0.116 C 
BRANCH  16  17
ATOM     17  C   UNL A   1      29.467  26.098  24.294  1.00  0.00     0.225 C 
ATOM     18  O   UNL A   1      28.333  26.538  24.090  1.00  0.00    -0.275 OA
ATOM     19  N   UNL A   1      30.333  26.009  23.221  1.00  0.00    -0.325 N 
ATOM     20  H   UNL A   1      30.340  26.766  22.593  1.00  0.00     0.169 HD
BRANCH  19  21
ATOM     21  C   UNL A   1      31.210  24.938  22.934  1.00  0.00     0.054 A 
ATOM     22  C   UNL A   1      30.820  23.642  23.275  1.00  0.00     0.027 A 
ATOM     23  C   UNL A   1      32.527  25.138  22.497  1.00  0.00     0.037 A 
ATOM     24  C   UNL A   1      31.660  22.554  23.000  1.00  0.00     0.002 A 
ATOM     25  C   UNL A   1      33.336  24.051  22.143  1.00  0.00     0.017 A 
ATOM     26  I   UNL A   1      33.386  27.038  22.472  1.00  0.00    -0.042 I 
ATOM     27  C   UNL A   1      32.888  22.754  22.373  1.00  0.00     0.001 A 
ENDBRANCH  19  21
ENDBRANCH  16  17
ENDBRANCH   7  16
ENDBRANCH   5   7
ENDBRANCH   4   5
ENDBRANCH   3   4
ENDBRANCH   2   3
ENDBRANCH   1   2
BRANCH   1  28
ATOM     28  C   UNL A   1      34.493  31.165  27.535  1.00  0.00     0.202 C 
BRANCH  28  29
ATOM     29  C   UNL A   1      34.866  31.892  28.829  1.00  0.00     0.261 C 
BRANCH  29  30
ATOM     30  O   UNL A   1      36.298  31.952  28.992  1.00  0.00    -0.460 OA
BRANCH  30  31
ATOM     31  C   UNL A   1      36.779  31.245  30.040  1.00  0.00     0.338 C 
ATOM     32  O   UNL A   1      36.227  31.052  31.115  1.00  0.00    -0.246 OA
BRANCH  31  33
ATOM     33  C   UNL A   1      38.024  30.551  29.659  1.00  0.00     0.060 A 
ATOM     34  C   UNL A   1      38.999  30.384  30.650  1.00  0.00     0.016 A 
ATOM     35  C   UNL A   1      38.265  30.115  28.356  1.00  0.00     0.016 A 
ATOM     36  C   UNL A   1      40.241  29.836  30.329  1.00  0.00     0.010 A 
ATOM     37  C   UNL A   1      39.500  29.530  28.045  1.00  0.00     0.010 A 
ATOM     38  C   UNL A   1      40.518  29.437  29.015  1.00  0.00    -0.014 A 
BRANCH  38  39
ATOM     39  C   UNL A   1      41.922  29.153  28.601  1.00  0.00     0.031 A 
ATOM     40  C   UNL A   1      42.264  27.741  28.185  1.00  0.00     0.074 A 
ATOM     41  C   UNL A   1      42.864  30.115  28.532  1.00  0.00     0.049 A 
ATOM     42  N   UNL A   1      43.419  27.229  27.851  1.00  0.00    -0.248 NA
ATOM     43  C   UNL A   1      41.151  26.774  28.156  1.00  0.00     0.031 C 
ATOM     44  C   UNL A   1      42.662  31.531  28.843  1.00  0.00     0.029 A 
ATOM     45  N   UNL A   1      44.188  30.043  28.167  1.00  0.00    -0.354 N 
ATOM     46  C   UNL A   1      43.173  25.883  27.596  1.00  0.00     0.074 A 
ATOM     47  C   UNL A   1      41.776  25.645  27.868  1.00  0.00     0.031 C 
ATOM     48  C   UNL A   1      43.816  32.193  28.639  1.00  0.00     0.029 A 
ATOM     49  C   UNL A   1      44.851  31.247  28.230  1.00  0.00     0.049 A 
ATOM     50  H   UNL A   1      44.622  29.204  27.885  1.00  0.00     0.167 HD
ATOM     51  C   UNL A   1      44.024  24.930  27.148  1.00  0.00     0.031 A 
ATOM     52  C   UNL A   1      46.148  31.547  28.000  1.00  0.00     0.031 A 
ATOM     53  C   UNL A   1      45.409  25.164  26.852  1.00  0.00     0.049 A 
ATOM     54  C   UNL A   1      47.099  30.448  27.584  1.00  0.00     0.074 A 
ATOM     55  C   UNL A   1      46.353  24.263  26.394  1.00  0.00     0.029 A 
ATOM     56  N   UNL A   1      46.046  26.389  26.971  1.00  0.00    -0.354 N 
ATOM     57  N   UNL A   1      46.850  29.179  27.359  1.00  0.00    -0.248 NA
ATOM     58  C   UNL A   1      48.508  30.824  27.387  1.00  0.00     0.031 C 
ATOM     59  C   UNL A   1      47.575  24.932  26.288  1.00  0.00     0.029 A 
ATOM     60  C   UNL A   1      47.375  26.265  26.610  1.00  0.00     0.049 A 
ATOM     61  H   UNL A   1      45.616  27.224  27.269  1.00  0.00     0.167 HD
ATOM     62  C   UNL A   1      48.057  28.621  26.946  1.00  0.00     0.074 A 
ATOM     63  C   UNL A   1      49.035  29.687  26.951  1.00  0.00     0.031 C 
ATOM     64  C   UNL A   1      48.330  27.342  26.588  1.00  0.00     0.031 A 
BRANCH  51  65
ATOM     65  C   UNL A   1      43.477  23.538  26.965  1.00  0.00    -0.014 A 
ATOM     66  C   UNL A   1      43.306  22.672  28.061  1.00  0.00     0.010 A 
ATOM     67  C   UNL A   1      43.095  23.104  25.683  1.00  0.00     0.010 A 
ATOM     68  C   UNL A   1      42.793  21.387  27.872  1.00  0.00     0.020 A 
ATOM     69  C   UNL A   1      42.550  21.831  25.495  1.00  0.00     0.020 A 
ATOM     70  C   UNL A   1      42.415  20.975  26.590  1.00  0.00     0.054 A 
BRANCH  70  71
ATOM     71  S   UNL A   1      41.717  19.316  26.383  1.00  0.00     0.124 S 
ATOM     72  O   UNL A   1      40.421  19.607  25.772  1.00  0.00    -0.237 OA
ATOM     73  O   UNL A   1      42.691  18.667  25.509  1.00  0.00    -0.237 OA
ATOM     74  O   UNL A   1      41.657  18.790  27.745  1.00  0.00    -0.744 OA
ENDBRANCH  70  71
ENDBRANCH  51  65
BRANCH  52  75
ATOM     75  C   UNL A   1      46.648  32.943  28.171  1.00  0.00    -0.014 A 
ATOM     76  C   UNL A   1      46.669  33.841  27.087  1.00  0.00     0.010 A 
ATOM     77  C   UNL A   1      47.156  33.369  29.412  1.00  0.00     0.010 A 
ATOM     78  C   UNL A   1      47.219  35.120  27.230  1.00  0.00     0.020 A 
ATOM     79  C   UNL A   1      47.676  34.659  29.568  1.00  0.00     0.020 A 
ATOM     80  C   UNL A   1      47.722  35.519  28.471  1.00  0.00     0.054 A 
BRANCH  80  81
ATOM     81  S   UNL A   1      48.420  37.186  28.638  1.00  0.00     0.124 S 
ATOM     82  O   UNL A   1      49.084  37.109  29.935  1.00  0.00    -0.237 OA
ATOM     83  O   UNL A   1      49.302  37.276  27.477  1.00  0.00    -0.237 OA
ATOM     84  O   UNL A   1      47.246  38.055  28.589  1.00  0.00    -0.744 OA
ENDBRANCH  80  81
ENDBRANCH  52  75
BRANCH  64  85
ATOM     85  C   UNL A   1      49.718  27.022  26.093  1.00  0.00    -0.014 A 
ATOM     86  C   UNL A   1      50.080  27.197  24.747  1.00  0.00     0.010 A 
ATOM     87  C   UNL A   1      50.701  26.630  27.022  1.00  0.00     0.010 A 
ATOM     88  C   UNL A   1      51.397  26.966  24.336  1.00  0.00     0.020 A 
ATOM     89  C   UNL A   1      52.023  26.428  26.621  1.00  0.00     0.020 A 
ATOM     90  C   UNL A   1      52.361  26.590  25.277  1.00  0.00     0.054 A 
BRANCH  90  91
ATOM     91  S   UNL A   1      54.075  26.366  24.729  1.00  0.00     0.124 S 
ATOM     92  O   UNL A   1      54.203  24.912  24.711  1.00  0.00    -0.237 OA
ATOM     93  O   UNL A   1      54.079  27.015  23.421  1.00  0.00    -0.237 OA
ATOM     94  O   UNL A   1      54.861  27.047  25.757  1.00  0.00    -0.744 OA
ENDBRANCH  90  91
ENDBRANCH  64  85
ENDBRANCH  38  39
ENDBRANCH  31  33
ENDBRANCH  30  31
ENDBRANCH  29  30
ENDBRANCH  28  29
ENDBRANCH   1  28
TORSDOF 22
ENDMDL
