MODEL 1
REMARK VINA RESULT:     -10.1      0.000      0.000
REMARK SMILES C[C@H]1[C@H](C(=O)OCCOCCOC(=O)c2ccc(-c3c4nc(c(-c5ccc(S(=O)(=O)[O-])cc5)c5ccc([nH]5)c(-c5ccc(S(=O)(=O)[O-])cc5)c5nc(c(-c6ccc(S(=O)(=O)[O-])cc6)c6ccc3[nH]6)C=C5)C=C4)cc2)CC[N@@H+]1CC(=O)N1CCCC1
REMARK SMILES IDX 10 1 9 2 8 3 7 4 6 5 4 6 5 7 3 8 1 9 2 10 77 11 75 12 76 13
REMARK SMILES IDX 78 15 79 16 80 17 81 18 82 19 85 20 83 21 84 22 11 23 12 24
REMARK SMILES IDX 13 25 14 26 15 27 16 28 74 29 17 30 73 31 18 32 19 33 20 34
REMARK SMILES IDX 67 35 21 36 72 37 66 38 68 39 22 40 71 41 65 42 64 43 23 45
REMARK SMILES IDX 53 46 34 47 52 48 35 49 38 50 51 51 69 52 36 53 37 54 50 56
REMARK SMILES IDX 70 57 39 58 24 59 25 60 33 61 26 62 32 63 27 64 28 65 29 66
REMARK SMILES IDX 30 67 31 68 54 69 55 70 63 71 56 72 62 73 57 74 58 75 59 76
REMARK SMILES IDX 60 77 61 78 40 79 41 80 49 81 42 82 48 83 43 84 44 85 45 86
REMARK SMILES IDX 46 87 47 88
REMARK H PARENT 77 14 68 44 38 55
REMARK Flexibility Score: inf
ROOT
ATOM      1  C   UNL A   1      40.884  22.729  27.034  1.00  0.00     0.202 C 
ENDROOT
BRANCH   1   2
ATOM      2  O   UNL A   1      39.460  22.715  26.935  1.00  0.00    -0.374 OA
BRANCH   2   3
ATOM      3  C   UNL A   1      38.929  21.712  26.068  1.00  0.00     0.202 C 
BRANCH   3   4
ATOM      4  C   UNL A   1      37.708  22.141  25.228  1.00  0.00     0.261 C 
BRANCH   4   5
ATOM      5  O   UNL A   1      36.546  21.289  25.373  1.00  0.00    -0.463 OA
BRANCH   5   6
ATOM      6  C   UNL A   1      35.341  21.903  25.512  1.00  0.00     0.315 C 
ATOM      7  O   UNL A   1      34.922  22.368  26.566  1.00  0.00    -0.252 OA
BRANCH   6   8
ATOM      8  C   UNL A   1      34.551  22.003  24.218  1.00  0.00     0.162 C 
ATOM      9  C   UNL A   1      32.762  20.211  24.026  1.00  0.00     0.076 C 
ATOM     10  C   UNL A   1      33.056  21.676  24.347  1.00  0.00     0.195 C 
ATOM     11  N   UNL A   1      32.373  22.543  23.372  1.00  0.00    -0.324 N 
ATOM     12  C   UNL A   1      34.575  23.360  23.529  1.00  0.00     0.083 C 
ATOM     13  C   UNL A   1      33.377  23.268  22.599  1.00  0.00     0.264 C 
ATOM     14  H   UNL A   1      31.857  21.932  22.738  1.00  0.00     0.348 HD
BRANCH  11  15
ATOM     15  C   UNL A   1      31.223  23.337  23.857  1.00  0.00     0.364 C 
BRANCH  15  16
ATOM     16  C   UNL A   1      31.500  24.481  24.861  1.00  0.00     0.277 C 
ATOM     17  O   UNL A   1      31.880  24.227  26.007  1.00  0.00    -0.268 OA
ATOM     18  N   UNL A   1      31.382  25.782  24.426  1.00  0.00    -0.338 N 
ATOM     19  C   UNL A   1      30.753  26.217  23.217  1.00  0.00     0.119 C 
ATOM     20  C   UNL A   1      31.907  26.916  25.161  1.00  0.00     0.119 C 
ATOM     21  C   UNL A   1      30.366  27.658  23.449  1.00  0.00     0.023 C 
ATOM     22  C   UNL A   1      31.105  28.114  24.686  1.00  0.00     0.023 C 
ENDBRANCH  15  16
ENDBRANCH  11  15
ENDBRANCH   6   8
ENDBRANCH   5   6
ENDBRANCH   4   5
ENDBRANCH   3   4
ENDBRANCH   2   3
ENDBRANCH   1   2
BRANCH   1  23
ATOM     23  C   UNL A   1      41.519  24.006  26.478  1.00  0.00     0.261 C 
BRANCH  23  24
ATOM     24  O   UNL A   1      40.506  25.028  26.310  1.00  0.00    -0.460 OA
BRANCH  24  25
ATOM     25  C   UNL A   1      40.943  26.308  26.254  1.00  0.00     0.338 C 
ATOM     26  O   UNL A   1      41.513  26.840  25.315  1.00  0.00    -0.246 OA
BRANCH  25  27
ATOM     27  C   UNL A   1      40.518  27.055  27.468  1.00  0.00     0.060 A 
ATOM     28  C   UNL A   1      41.046  28.339  27.647  1.00  0.00     0.016 A 
ATOM     29  C   UNL A   1      39.621  26.540  28.414  1.00  0.00     0.016 A 
ATOM     30  C   UNL A   1      40.709  29.094  28.774  1.00  0.00     0.010 A 
ATOM     31  C   UNL A   1      39.281  27.301  29.547  1.00  0.00     0.010 A 
ATOM     32  C   UNL A   1      39.855  28.569  29.755  1.00  0.00    -0.014 A 
BRANCH  32  33
ATOM     33  C   UNL A   1      39.792  29.254  31.078  1.00  0.00     0.031 A 
ATOM     34  C   UNL A   1      40.896  28.972  32.066  1.00  0.00     0.074 A 
ATOM     35  C   UNL A   1      38.862  30.181  31.381  1.00  0.00     0.049 A 
ATOM     36  N   UNL A   1      41.162  29.563  33.203  1.00  0.00    -0.248 NA
ATOM     37  C   UNL A   1      41.828  27.888  31.717  1.00  0.00     0.031 C 
ATOM     38  C   UNL A   1      37.751  30.581  30.527  1.00  0.00     0.029 A 
ATOM     39  N   UNL A   1      38.717  30.973  32.498  1.00  0.00    -0.354 N 
ATOM     40  C   UNL A   1      42.305  28.942  33.689  1.00  0.00     0.074 A 
ATOM     41  C   UNL A   1      42.650  27.894  32.754  1.00  0.00     0.031 C 
ATOM     42  C   UNL A   1      37.042  31.546  31.137  1.00  0.00     0.029 A 
ATOM     43  C   UNL A   1      37.645  31.835  32.435  1.00  0.00     0.049 A 
ATOM     44  H   UNL A   1      39.325  30.926  33.271  1.00  0.00     0.167 HD
ATOM     45  C   UNL A   1      43.022  29.223  34.802  1.00  0.00     0.031 A 
ATOM     46  C   UNL A   1      37.205  32.759  33.314  1.00  0.00     0.031 A 
ATOM     47  C   UNL A   1      42.670  30.231  35.764  1.00  0.00     0.049 A 
ATOM     48  C   UNL A   1      37.973  33.000  34.589  1.00  0.00     0.074 A 
ATOM     49  C   UNL A   1      43.335  30.580  36.926  1.00  0.00     0.029 A 
ATOM     50  N   UNL A   1      41.547  31.040  35.687  1.00  0.00    -0.354 N 
ATOM     51  N   UNL A   1      39.088  32.444  35.000  1.00  0.00    -0.248 NA
ATOM     52  C   UNL A   1      37.435  34.015  35.509  1.00  0.00     0.031 C 
ATOM     53  C   UNL A   1      42.584  31.562  37.581  1.00  0.00     0.029 A 
ATOM     54  C   UNL A   1      41.486  31.869  36.793  1.00  0.00     0.049 A 
ATOM     55  H   UNL A   1      40.890  31.026  34.953  1.00  0.00     0.167 HD
ATOM     56  C   UNL A   1      39.401  33.066  36.206  1.00  0.00     0.074 A 
ATOM     57  C   UNL A   1      38.366  34.048  36.451  1.00  0.00     0.031 C 
ATOM     58  C   UNL A   1      40.454  32.846  37.033  1.00  0.00     0.031 A 
BRANCH  45  59
ATOM     59  C   UNL A   1      44.253  28.393  35.046  1.00  0.00    -0.014 A 
ATOM     60  C   UNL A   1      45.517  28.828  34.609  1.00  0.00     0.010 A 
ATOM     61  C   UNL A   1      44.142  27.164  35.721  1.00  0.00     0.010 A 
ATOM     62  C   UNL A   1      46.644  28.027  34.802  1.00  0.00     0.020 A 
ATOM     63  C   UNL A   1      45.272  26.373  35.940  1.00  0.00     0.020 A 
ATOM     64  C   UNL A   1      46.513  26.801  35.461  1.00  0.00     0.054 A 
BRANCH  64  65
ATOM     65  S   UNL A   1      47.992  25.780  35.698  1.00  0.00     0.124 S 
ATOM     66  O   UNL A   1      47.642  25.016  36.891  1.00  0.00    -0.237 OA
ATOM     67  O   UNL A   1      48.055  25.014  34.456  1.00  0.00    -0.237 OA
ATOM     68  O   UNL A   1      49.064  26.758  35.877  1.00  0.00    -0.744 OA
ENDBRANCH  64  65
ENDBRANCH  45  59
BRANCH  46  69
ATOM     69  C   UNL A   1      35.970  33.547  33.026  1.00  0.00    -0.014 A 
ATOM     70  C   UNL A   1      36.050  34.834  32.463  1.00  0.00     0.010 A 
ATOM     71  C   UNL A   1      34.706  33.024  33.353  1.00  0.00     0.010 A 
ATOM     72  C   UNL A   1      34.891  35.593  32.259  1.00  0.00     0.020 A 
ATOM     73  C   UNL A   1      33.543  33.769  33.126  1.00  0.00     0.020 A 
ATOM     74  C   UNL A   1      33.646  35.055  32.592  1.00  0.00     0.054 A 
BRANCH  74  75
ATOM     75  S   UNL A   1      32.153  36.043  32.287  1.00  0.00     0.124 S 
ATOM     76  O   UNL A   1      32.318  37.144  33.230  1.00  0.00    -0.237 OA
ATOM     77  O   UNL A   1      32.291  36.392  30.875  1.00  0.00    -0.237 OA
ATOM     78  O   UNL A   1      31.063  35.117  32.588  1.00  0.00    -0.744 OA
ENDBRANCH  74  75
ENDBRANCH  46  69
BRANCH  58  79
ATOM     79  C   UNL A   1      40.573  33.710  38.263  1.00  0.00    -0.014 A 
ATOM     80  C   UNL A   1      41.186  34.975  38.216  1.00  0.00     0.010 A 
ATOM     81  C   UNL A   1      40.019  33.265  39.477  1.00  0.00     0.010 A 
ATOM     82  C   UNL A   1      41.278  35.760  39.370  1.00  0.00     0.020 A 
ATOM     83  C   UNL A   1      40.083  34.059  40.625  1.00  0.00     0.020 A 
ATOM     84  C   UNL A   1      40.729  35.294  40.569  1.00  0.00     0.054 A 
BRANCH  84  85
ATOM     85  S   UNL A   1      40.837  36.341  42.047  1.00  0.00     0.124 S 
ATOM     86  O   UNL A   1      39.445  36.739  42.239  1.00  0.00    -0.237 OA
ATOM     87  O   UNL A   1      41.373  35.425  43.052  1.00  0.00    -0.237 OA
ATOM     88  O   UNL A   1      41.743  37.414  41.645  1.00  0.00    -0.744 OA
ENDBRANCH  84  85
ENDBRANCH  58  79
ENDBRANCH  32  33
ENDBRANCH  25  27
ENDBRANCH  24  25
ENDBRANCH  23  24
ENDBRANCH   1  23
TORSDOF 19
ENDMDL
MODEL 2
REMARK VINA RESULT:      -9.9      3.160      9.861
REMARK SMILES C[C@H]1[C@H](C(=O)OCCOCCOC(=O)c2ccc(-c3c4nc(c(-c5ccc(S(=O)(=O)[O-])cc5)c5ccc([nH]5)c(-c5ccc(S(=O)(=O)[O-])cc5)c5nc(c(-c6ccc(S(=O)(=O)[O-])cc6)c6ccc3[nH]6)C=C5)C=C4)cc2)CC[N@@H+]1CC(=O)N1CCCC1
REMARK SMILES IDX 10 1 9 2 8 3 7 4 6 5 4 6 5 7 3 8 1 9 2 10 77 11 75 12 76 13
REMARK SMILES IDX 78 15 79 16 80 17 81 18 82 19 85 20 83 21 84 22 11 23 12 24
REMARK SMILES IDX 13 25 14 26 15 27 16 28 74 29 17 30 73 31 18 32 19 33 20 34
REMARK SMILES IDX 67 35 21 36 72 37 66 38 68 39 22 40 71 41 65 42 64 43 23 45
REMARK SMILES IDX 53 46 34 47 52 48 35 49 38 50 51 51 69 52 36 53 37 54 50 56
REMARK SMILES IDX 70 57 39 58 24 59 25 60 33 61 26 62 32 63 27 64 28 65 29 66
REMARK SMILES IDX 30 67 31 68 54 69 55 70 63 71 56 72 62 73 57 74 58 75 59 76
REMARK SMILES IDX 60 77 61 78 40 79 41 80 49 81 42 82 48 83 43 84 44 85 45 86
REMARK SMILES IDX 46 87 47 88
REMARK H PARENT 77 14 68 44 38 55
REMARK Flexibility Score: inf
ROOT
ATOM      1  C   UNL A   1      32.377  28.844  26.279  1.00  0.00     0.202 C 
ENDROOT
BRANCH   1   2
ATOM      2  O   UNL A   1      32.124  27.871  27.292  1.00  0.00    -0.374 OA
BRANCH   2   3
ATOM      3  C   UNL A   1      31.613  26.626  26.815  1.00  0.00     0.202 C 
BRANCH   3   4
ATOM      4  C   UNL A   1      30.762  26.707  25.531  1.00  0.00     0.261 C 
BRANCH   4   5
ATOM      5  O   UNL A   1      31.076  25.706  24.533  1.00  0.00    -0.463 OA
BRANCH   5   6
ATOM      6  C   UNL A   1      31.923  26.071  23.533  1.00  0.00     0.315 C 
ATOM      7  O   UNL A   1      31.792  27.083  22.854  1.00  0.00    -0.252 OA
BRANCH   6   8
ATOM      8  C   UNL A   1      33.095  25.123  23.347  1.00  0.00     0.162 C 
ATOM      9  C   UNL A   1      34.628  25.057  25.370  1.00  0.00     0.076 C 
ATOM     10  C   UNL A   1      33.507  24.350  24.608  1.00  0.00     0.195 C 
ATOM     11  N   UNL A   1      33.981  23.038  24.136  1.00  0.00    -0.324 N 
ATOM     12  C   UNL A   1      32.911  24.039  22.294  1.00  0.00     0.083 C 
ATOM     13  C   UNL A   1      33.985  23.035  22.676  1.00  0.00     0.264 C 
ATOM     14  H   UNL A   1      34.942  22.932  24.462  1.00  0.00     0.348 HD
BRANCH  11  15
ATOM     15  C   UNL A   1      33.419  21.837  24.791  1.00  0.00     0.364 C 
BRANCH  15  16
ATOM     16  C   UNL A   1      34.239  20.526  24.734  1.00  0.00     0.277 C 
ATOM     17  O   UNL A   1      35.385  20.488  25.189  1.00  0.00    -0.268 OA
ATOM     18  N   UNL A   1      33.637  19.393  24.234  1.00  0.00    -0.338 N 
ATOM     19  C   UNL A   1      32.417  19.341  23.489  1.00  0.00     0.119 C 
ATOM     20  C   UNL A   1      34.178  18.060  24.415  1.00  0.00     0.119 C 
ATOM     21  C   UNL A   1      32.471  18.055  22.700  1.00  0.00     0.023 C 
ATOM     22  C   UNL A   1      33.589  17.228  23.291  1.00  0.00     0.023 C 
ENDBRANCH  15  16
ENDBRANCH  11  15
ENDBRANCH   6   8
ENDBRANCH   5   6
ENDBRANCH   4   5
ENDBRANCH   3   4
ENDBRANCH   2   3
ENDBRANCH   1   2
BRANCH   1  23
ATOM     23  C   UNL A   1      32.445  30.276  26.814  1.00  0.00     0.261 C 
BRANCH  23  24
ATOM     24  O   UNL A   1      33.796  30.786  26.684  1.00  0.00    -0.460 OA
BRANCH  24  25
ATOM     25  C   UNL A   1      34.256  31.543  27.708  1.00  0.00     0.338 C 
ATOM     26  O   UNL A   1      33.640  32.415  28.299  1.00  0.00    -0.246 OA
BRANCH  25  27
ATOM     27  C   UNL A   1      35.606  31.082  28.129  1.00  0.00     0.060 A 
ATOM     28  C   UNL A   1      35.768  29.713  28.373  1.00  0.00     0.016 A 
ATOM     29  C   UNL A   1      36.702  31.943  28.277  1.00  0.00     0.016 A 
ATOM     30  C   UNL A   1      37.002  29.208  28.792  1.00  0.00     0.010 A 
ATOM     31  C   UNL A   1      37.944  31.434  28.697  1.00  0.00     0.010 A 
ATOM     32  C   UNL A   1      38.092  30.067  28.995  1.00  0.00    -0.014 A 
BRANCH  32  33
ATOM     33  C   UNL A   1      39.267  29.549  29.753  1.00  0.00     0.031 A 
ATOM     34  C   UNL A   1      39.407  29.961  31.196  1.00  0.00     0.074 A 
ATOM     35  C   UNL A   1      40.138  28.658  29.238  1.00  0.00     0.049 A 
ATOM     36  N   UNL A   1      40.234  29.517  32.109  1.00  0.00    -0.248 NA
ATOM     37  C   UNL A   1      38.484  31.004  31.675  1.00  0.00     0.031 C 
ATOM     38  C   UNL A   1      40.121  28.145  27.874  1.00  0.00     0.029 A 
ATOM     39  N   UNL A   1      41.203  28.008  29.820  1.00  0.00    -0.354 N 
ATOM     40  C   UNL A   1      39.911  30.205  33.272  1.00  0.00     0.074 A 
ATOM     41  C   UNL A   1      38.854  31.133  32.938  1.00  0.00     0.031 C 
ATOM     42  C   UNL A   1      41.117  27.255  27.719  1.00  0.00     0.029 A 
ATOM     43  C   UNL A   1      41.851  27.134  28.975  1.00  0.00     0.049 A 
ATOM     44  H   UNL A   1      41.476  28.155  30.754  1.00  0.00     0.167 HD
ATOM     45  C   UNL A   1      40.429  30.070  34.516  1.00  0.00     0.031 A 
ATOM     46  C   UNL A   1      42.906  26.321  29.189  1.00  0.00     0.031 A 
ATOM     47  C   UNL A   1      41.509  29.184  34.856  1.00  0.00     0.049 A 
ATOM     48  C   UNL A   1      43.522  26.246  30.564  1.00  0.00     0.074 A 
ATOM     49  C   UNL A   1      42.103  28.988  36.090  1.00  0.00     0.029 A 
ATOM     50  N   UNL A   1      42.170  28.361  33.957  1.00  0.00    -0.354 N 
ATOM     51  N   UNL A   1      43.160  26.859  31.666  1.00  0.00    -0.248 NA
ATOM     52  C   UNL A   1      44.675  25.347  30.728  1.00  0.00     0.031 C 
ATOM     53  C   UNL A   1      43.160  28.086  35.927  1.00  0.00     0.029 A 
ATOM     54  C   UNL A   1      43.182  27.674  34.604  1.00  0.00     0.049 A 
ATOM     55  H   UNL A   1      41.950  28.278  33.001  1.00  0.00     0.167 HD
ATOM     56  C   UNL A   1      44.020  26.393  32.659  1.00  0.00     0.074 A 
ATOM     57  C   UNL A   1      44.907  25.439  32.030  1.00  0.00     0.031 C 
ATOM     58  C   UNL A   1      44.064  26.724  33.974  1.00  0.00     0.031 A 
BRANCH  45  59
ATOM     59  C   UNL A   1      39.840  30.935  35.595  1.00  0.00    -0.014 A 
ATOM     60  C   UNL A   1      40.478  32.122  36.000  1.00  0.00     0.010 A 
ATOM     61  C   UNL A   1      38.633  30.558  36.210  1.00  0.00     0.010 A 
ATOM     62  C   UNL A   1      39.944  32.893  37.035  1.00  0.00     0.020 A 
ATOM     63  C   UNL A   1      38.081  31.341  37.227  1.00  0.00     0.020 A 
ATOM     64  C   UNL A   1      38.751  32.494  37.645  1.00  0.00     0.054 A 
BRANCH  64  65
ATOM     65  S   UNL A   1      38.079  33.512  38.986  1.00  0.00     0.124 S 
ATOM     66  O   UNL A   1      36.677  33.636  38.596  1.00  0.00    -0.237 OA
ATOM     67  O   UNL A   1      38.332  32.693  40.168  1.00  0.00    -0.237 OA
ATOM     68  O   UNL A   1      38.858  34.746  38.908  1.00  0.00    -0.744 OA
ENDBRANCH  64  65
ENDBRANCH  45  59
BRANCH  46  69
ATOM     69  C   UNL A   1      43.457  25.491  28.078  1.00  0.00    -0.014 A 
ATOM     70  C   UNL A   1      42.994  24.182  27.854  1.00  0.00     0.010 A 
ATOM     71  C   UNL A   1      44.484  25.998  27.260  1.00  0.00     0.010 A 
ATOM     72  C   UNL A   1      43.564  23.387  26.853  1.00  0.00     0.020 A 
ATOM     73  C   UNL A   1      45.038  25.217  26.240  1.00  0.00     0.020 A 
ATOM     74  C   UNL A   1      44.583  23.910  26.053  1.00  0.00     0.054 A 
BRANCH  74  75
ATOM     75  S   UNL A   1      45.284  22.874  24.737  1.00  0.00     0.124 S 
ATOM     76  O   UNL A   1      46.202  22.018  25.480  1.00  0.00    -0.237 OA
ATOM     77  O   UNL A   1      44.100  22.212  24.194  1.00  0.00    -0.237 OA
ATOM     78  O   UNL A   1      45.914  23.841  23.840  1.00  0.00    -0.744 OA
ENDBRANCH  74  75
ENDBRANCH  46  69
BRANCH  58  79
ATOM     79  C   UNL A   1      45.076  26.019  34.841  1.00  0.00    -0.014 A 
ATOM     80  C   UNL A   1      46.388  26.505  34.983  1.00  0.00     0.010 A 
ATOM     81  C   UNL A   1      44.689  24.875  35.564  1.00  0.00     0.010 A 
ATOM     82  C   UNL A   1      47.305  25.836  35.799  1.00  0.00     0.020 A 
ATOM     83  C   UNL A   1      45.595  24.221  36.403  1.00  0.00     0.020 A 
ATOM     84  C   UNL A   1      46.904  24.695  36.501  1.00  0.00     0.054 A 
BRANCH  84  85
ATOM     85  S   UNL A   1      48.104  23.859  37.575  1.00  0.00     0.124 S 
ATOM     86  O   UNL A   1      48.909  24.977  38.060  1.00  0.00    -0.237 OA
ATOM     87  O   UNL A   1      47.252  23.218  38.573  1.00  0.00    -0.237 OA
ATOM     88  O   UNL A   1      48.794  22.940  36.671  1.00  0.00    -0.744 OA
ENDBRANCH  84  85
ENDBRANCH  58  79
ENDBRANCH  32  33
ENDBRANCH  25  27
ENDBRANCH  24  25
ENDBRANCH  23  24
ENDBRANCH   1  23
TORSDOF 19
ENDMDL
MODEL 3
REMARK VINA RESULT:      -9.7      6.353      8.650
REMARK SMILES C[C@H]1[C@H](C(=O)OCCOCCOC(=O)c2ccc(-c3c4nc(c(-c5ccc(S(=O)(=O)[O-])cc5)c5ccc([nH]5)c(-c5ccc(S(=O)(=O)[O-])cc5)c5nc(c(-c6ccc(S(=O)(=O)[O-])cc6)c6ccc3[nH]6)C=C5)C=C4)cc2)CC[N@@H+]1CC(=O)N1CCCC1
REMARK SMILES IDX 10 1 9 2 8 3 7 4 6 5 4 6 5 7 3 8 1 9 2 10 77 11 75 12 76 13
REMARK SMILES IDX 78 15 79 16 80 17 81 18 82 19 85 20 83 21 84 22 11 23 12 24
REMARK SMILES IDX 13 25 14 26 15 27 16 28 74 29 17 30 73 31 18 32 19 33 20 34
REMARK SMILES IDX 67 35 21 36 72 37 66 38 68 39 22 40 71 41 65 42 64 43 23 45
REMARK SMILES IDX 53 46 34 47 52 48 35 49 38 50 51 51 69 52 36 53 37 54 50 56
REMARK SMILES IDX 70 57 39 58 24 59 25 60 33 61 26 62 32 63 27 64 28 65 29 66
REMARK SMILES IDX 30 67 31 68 54 69 55 70 63 71 56 72 62 73 57 74 58 75 59 76
REMARK SMILES IDX 60 77 61 78 40 79 41 80 49 81 42 82 48 83 43 84 44 85 45 86
REMARK SMILES IDX 46 87 47 88
REMARK H PARENT 77 14 68 44 38 55
REMARK Flexibility Score: inf
ROOT
ATOM      1  C   UNL A   1      38.917  21.806  26.126  1.00  0.00     0.202 C 
ENDROOT
BRANCH   1   2
ATOM      2  O   UNL A   1      37.600  22.165  25.711  1.00  0.00    -0.374 OA
BRANCH   2   3
ATOM      3  C   UNL A   1      37.037  21.322  24.706  1.00  0.00     0.202 C 
BRANCH   3   4
ATOM      4  C   UNL A   1      35.621  20.786  25.007  1.00  0.00     0.261 C 
BRANCH   4   5
ATOM      5  O   UNL A   1      34.547  21.551  24.409  1.00  0.00    -0.463 OA
BRANCH   5   6
ATOM      6  C   UNL A   1      33.278  21.108  24.621  1.00  0.00     0.315 C 
ATOM      7  O   UNL A   1      32.846  20.035  24.217  1.00  0.00    -0.252 OA
BRANCH   6   8
ATOM      8  C   UNL A   1      32.430  22.057  25.451  1.00  0.00     0.162 C 
ATOM      9  C   UNL A   1      33.565  22.737  27.619  1.00  0.00     0.076 C 
ATOM     10  C   UNL A   1      33.217  23.149  26.188  1.00  0.00     0.195 C 
ATOM     11  N   UNL A   1      32.335  24.328  26.214  1.00  0.00    -0.324 N 
ATOM     12  C   UNL A   1      31.355  22.823  24.693  1.00  0.00     0.083 C 
ATOM     13  C   UNL A   1      31.041  23.962  25.647  1.00  0.00     0.264 C 
ATOM     14  H   UNL A   1      32.199  24.579  27.194  1.00  0.00     0.348 HD
BRANCH  11  15
ATOM     15  C   UNL A   1      32.907  25.614  25.762  1.00  0.00     0.364 C 
BRANCH  15  16
ATOM     16  C   UNL A   1      32.773  25.985  24.265  1.00  0.00     0.277 C 
ATOM     17  O   UNL A   1      33.476  25.425  23.419  1.00  0.00    -0.268 OA
ATOM     18  N   UNL A   1      31.808  26.894  23.894  1.00  0.00    -0.338 N 
ATOM     19  C   UNL A   1      31.085  27.765  24.769  1.00  0.00     0.119 C 
ATOM     20  C   UNL A   1      31.380  27.084  22.522  1.00  0.00     0.119 C 
ATOM     21  C   UNL A   1      30.611  28.911  23.909  1.00  0.00     0.023 C 
ATOM     22  C   UNL A   1      30.789  28.481  22.471  1.00  0.00     0.023 C 
ENDBRANCH  15  16
ENDBRANCH  11  15
ENDBRANCH   6   8
ENDBRANCH   5   6
ENDBRANCH   4   5
ENDBRANCH   3   4
ENDBRANCH   2   3
ENDBRANCH   1   2
BRANCH   1  23
ATOM     23  C   UNL A   1      39.330  20.398  25.691  1.00  0.00     0.261 C 
BRANCH  23  24
ATOM     24  O   UNL A   1      40.294  19.856  26.628  1.00  0.00    -0.460 OA
BRANCH  24  25
ATOM     25  C   UNL A   1      41.569  19.747  26.187  1.00  0.00     0.338 C 
ATOM     26  O   UNL A   1      42.046  18.807  25.572  1.00  0.00    -0.246 OA
BRANCH  25  27
ATOM     27  C   UNL A   1      42.315  21.009  26.437  1.00  0.00     0.060 A 
ATOM     28  C   UNL A   1      42.497  21.392  27.771  1.00  0.00     0.016 A 
ATOM     29  C   UNL A   1      42.840  21.808  25.412  1.00  0.00     0.016 A 
ATOM     30  C   UNL A   1      43.170  22.577  28.084  1.00  0.00     0.010 A 
ATOM     31  C   UNL A   1      43.518  23.000  25.728  1.00  0.00     0.010 A 
ATOM     32  C   UNL A   1      43.653  23.412  27.066  1.00  0.00    -0.014 A 
BRANCH  32  33
ATOM     33  C   UNL A   1      44.054  24.803  27.425  1.00  0.00     0.031 A 
ATOM     34  C   UNL A   1      45.500  25.185  27.238  1.00  0.00     0.074 A 
ATOM     35  C   UNL A   1      43.170  25.747  27.804  1.00  0.00     0.049 A 
ATOM     36  N   UNL A   1      46.063  26.365  27.313  1.00  0.00    -0.248 NA
ATOM     37  C   UNL A   1      46.432  24.093  26.912  1.00  0.00     0.031 C 
ATOM     38  C   UNL A   1      41.741  25.541  28.004  1.00  0.00     0.029 A 
ATOM     39  N   UNL A   1      43.349  27.085  28.071  1.00  0.00    -0.354 N 
ATOM     40  C   UNL A   1      47.404  26.160  27.017  1.00  0.00     0.074 A 
ATOM     41  C   UNL A   1      47.583  24.739  26.815  1.00  0.00     0.031 C 
ATOM     42  C   UNL A   1      41.166  26.705  28.353  1.00  0.00     0.029 A 
ATOM     43  C   UNL A   1      42.188  27.747  28.406  1.00  0.00     0.049 A 
ATOM     44  H   UNL A   1      44.226  27.529  28.027  1.00  0.00     0.167 HD
ATOM     45  C   UNL A   1      48.402  27.068  26.901  1.00  0.00     0.031 A 
ATOM     46  C   UNL A   1      41.969  29.043  28.709  1.00  0.00     0.031 A 
ATOM     47  C   UNL A   1      48.251  28.477  27.140  1.00  0.00     0.049 A 
ATOM     48  C   UNL A   1      43.112  30.025  28.654  1.00  0.00     0.074 A 
ATOM     49  C   UNL A   1      49.211  29.470  27.053  1.00  0.00     0.029 A 
ATOM     50  N   UNL A   1      47.072  29.092  27.530  1.00  0.00    -0.354 N 
ATOM     51  N   UNL A   1      44.361  29.820  28.310  1.00  0.00    -0.248 NA
ATOM     52  C   UNL A   1      42.808  31.421  29.005  1.00  0.00     0.031 C 
ATOM     53  C   UNL A   1      48.625  30.679  27.446  1.00  0.00     0.029 A 
ATOM     54  C   UNL A   1      47.285  30.447  27.714  1.00  0.00     0.049 A 
ATOM     55  H   UNL A   1      46.211  28.631  27.658  1.00  0.00     0.167 HD
ATOM     56  C   UNL A   1      44.980  31.067  28.370  1.00  0.00     0.074 A 
ATOM     57  C   UNL A   1      43.967  32.019  28.769  1.00  0.00     0.031 C 
ATOM     58  C   UNL A   1      46.272  31.392  28.111  1.00  0.00     0.031 A 
BRANCH  45  59
ATOM     59  C   UNL A   1      49.759  26.541  26.524  1.00  0.00    -0.014 A 
ATOM     60  C   UNL A   1      50.170  26.497  25.179  1.00  0.00     0.010 A 
ATOM     61  C   UNL A   1      50.634  26.087  27.526  1.00  0.00     0.010 A 
ATOM     62  C   UNL A   1      51.415  25.964  24.838  1.00  0.00     0.020 A 
ATOM     63  C   UNL A   1      51.892  25.578  27.191  1.00  0.00     0.020 A 
ATOM     64  C   UNL A   1      52.265  25.503  25.847  1.00  0.00     0.054 A 
BRANCH  64  65
ATOM     65  S   UNL A   1      53.876  24.815  25.378  1.00  0.00     0.124 S 
ATOM     66  O   UNL A   1      53.522  23.449  25.002  1.00  0.00    -0.237 OA
ATOM     67  O   UNL A   1      54.286  25.683  24.278  1.00  0.00    -0.237 OA
ATOM     68  O   UNL A   1      54.674  24.939  26.596  1.00  0.00    -0.744 OA
ENDBRANCH  64  65
ENDBRANCH  45  59
BRANCH  46  69
ATOM     69  C   UNL A   1      40.602  29.509  29.088  1.00  0.00    -0.014 A 
ATOM     70  C   UNL A   1      40.246  29.681  30.438  1.00  0.00     0.010 A 
ATOM     71  C   UNL A   1      39.634  29.744  28.094  1.00  0.00     0.010 A 
ATOM     72  C   UNL A   1      38.942  30.053  30.788  1.00  0.00     0.020 A 
ATOM     73  C   UNL A   1      38.338  30.141  28.438  1.00  0.00     0.020 A 
ATOM     74  C   UNL A   1      37.997  30.280  29.784  1.00  0.00     0.054 A 
BRANCH  74  75
ATOM     75  S   UNL A   1      36.321  30.795  30.259  1.00  0.00     0.124 S 
ATOM     76  O   UNL A   1      35.531  30.350  29.116  1.00  0.00    -0.237 OA
ATOM     77  O   UNL A   1      36.107  30.059  31.503  1.00  0.00    -0.237 OA
ATOM     78  O   UNL A   1      36.441  32.243  30.414  1.00  0.00    -0.744 OA
ENDBRANCH  74  75
ENDBRANCH  46  69
BRANCH  58  79
ATOM     79  C   UNL A   1      46.663  32.845  28.207  1.00  0.00    -0.014 A 
ATOM     80  C   UNL A   1      47.103  33.410  29.417  1.00  0.00     0.010 A 
ATOM     81  C   UNL A   1      46.634  33.646  27.050  1.00  0.00     0.010 A 
ATOM     82  C   UNL A   1      47.465  34.759  29.477  1.00  0.00     0.020 A 
ATOM     83  C   UNL A   1      47.024  34.987  27.100  1.00  0.00     0.020 A 
ATOM     84  C   UNL A   1      47.420  35.540  28.318  1.00  0.00     0.054 A 
BRANCH  84  85
ATOM     85  S   UNL A   1      47.920  37.282  28.414  1.00  0.00     0.124 S 
ATOM     86  O   UNL A   1      47.363  37.827  27.179  1.00  0.00    -0.237 OA
ATOM     87  O   UNL A   1      47.279  37.734  29.647  1.00  0.00    -0.237 OA
ATOM     88  O   UNL A   1      49.380  37.220  28.466  1.00  0.00    -0.744 OA
ENDBRANCH  84  85
ENDBRANCH  58  79
ENDBRANCH  32  33
ENDBRANCH  25  27
ENDBRANCH  24  25
ENDBRANCH  23  24
ENDBRANCH   1  23
TORSDOF 19
ENDMDL
