MODEL 1
REMARK VINA RESULT:     -10.8      0.000      0.000
REMARK SMILES CC(C)c1cc2c(cc1Cl)C=C(C(=O)OCCOCCOC(=O)c1ccc(-c3c4nc(c(-c5ccc(S(=O)(=O)[O-])cc5)c5ccc([nH]5)c(-c5ccc(S(=O)(=O)[O-])cc5)c5nc(c(-c6ccc(S(=O)(=O)[O-])cc6)c6ccc3[nH]6)C=C5)C=C4)cc1)[C@@H](C(F)(F)F)O2
REMARK SMILES IDX 19 1 18 2 17 3 16 4 15 5 13 6 14 7 12 8 4 9 5 10 9 11 6 12
REMARK SMILES IDX 8 13 10 14 7 15 89 16 11 17 84 18 2 19 1 20 3 21 85 22 86 23
REMARK SMILES IDX 87 24 88 25 20 26 21 27 22 28 23 29 24 30 25 31 83 32 26 33
REMARK SMILES IDX 82 34 27 35 28 36 29 37 76 38 30 39 81 40 75 41 77 42 31 43
REMARK SMILES IDX 80 44 74 45 73 46 32 48 62 49 43 50 61 51 44 52 47 53 60 54
REMARK SMILES IDX 78 55 45 56 46 57 59 59 79 60 48 61 33 62 34 63 42 64 35 65
REMARK SMILES IDX 41 66 36 67 37 68 38 69 39 70 40 71 63 72 64 73 72 74 65 75
REMARK SMILES IDX 71 76 66 77 67 78 68 79 69 80 70 81 49 82 50 83 58 84 51 85
REMARK SMILES IDX 57 86 52 87 53 88 54 89 55 90 56 91
REMARK H PARENT 77 47 47 58
REMARK Flexibility Score: inf
ROOT
ATOM      1  C   UNL A   1      31.825  29.120  25.781  1.00  0.00     0.202 C 
ENDROOT
BRANCH   1   2
ATOM      2  O   UNL A   1      31.261  28.195  24.853  1.00  0.00    -0.374 OA
BRANCH   2   3
ATOM      3  C   UNL A   1      31.886  28.043  23.581  1.00  0.00     0.202 C 
BRANCH   3   4
ATOM      4  C   UNL A   1      32.634  26.735  23.299  1.00  0.00     0.261 C 
BRANCH   4   5
ATOM      5  O   UNL A   1      31.800  25.760  22.655  1.00  0.00    -0.460 OA
BRANCH   5   6
ATOM      6  C   UNL A   1      31.065  25.010  23.508  1.00  0.00     0.338 C 
ATOM      7  O   UNL A   1      29.903  25.193  23.833  1.00  0.00    -0.246 OA
BRANCH   6   8
ATOM      8  C   UNL A   1      31.825  23.808  23.899  1.00  0.00     0.087 C 
ATOM      9  C   UNL A   1      33.136  18.974  24.458  1.00  0.00    -0.023 A 
ATOM     10  C   UNL A   1      33.395  20.179  25.155  1.00  0.00     0.052 A 
ATOM     11  C   UNL A   1      32.576  19.114  23.172  1.00  0.00     0.045 A 
ATOM     12  C   UNL A   1      32.979  21.426  24.678  1.00  0.00     0.128 A 
ATOM     13  C   UNL A   1      32.136  20.362  22.704  1.00  0.00     0.032 A 
ATOM     14  Cl  UNL A   1      32.414  17.822  22.034  1.00  0.00    -0.084 Cl
ATOM     15  C   UNL A   1      32.295  21.509  23.477  1.00  0.00     0.019 A 
ATOM     16  O   UNL A   1      33.280  22.508  25.455  1.00  0.00    -0.475 OA
ATOM     17  C   UNL A   1      31.701  22.764  23.069  1.00  0.00     0.027 C 
ATOM     18  C   UNL A   1      32.642  23.787  25.162  1.00  0.00     0.316 C 
BRANCH   9  19
ATOM     19  C   UNL A   1      33.504  17.630  25.112  1.00  0.00     0.014 C 
ATOM     20  C   UNL A   1      32.284  16.722  25.387  1.00  0.00     0.012 C 
ATOM     21  C   UNL A   1      34.491  16.759  24.310  1.00  0.00     0.012 C 
ENDBRANCH   9  19
BRANCH  18  22
ATOM     22  C   UNL A   1      31.839  24.211  26.400  1.00  0.00     0.430 C 
ATOM     23  F   UNL A   1      31.787  25.560  26.507  1.00  0.00    -0.167 F 
ATOM     24  F   UNL A   1      30.562  23.772  26.346  1.00  0.00    -0.167 F 
ATOM     25  F   UNL A   1      32.389  23.732  27.539  1.00  0.00    -0.167 F 
ENDBRANCH  18  22
ENDBRANCH   6   8
ENDBRANCH   5   6
ENDBRANCH   4   5
ENDBRANCH   3   4
ENDBRANCH   2   3
ENDBRANCH   1   2
BRANCH   1  26
ATOM     26  C   UNL A   1      33.316  29.465  25.671  1.00  0.00     0.261 C 
BRANCH  26  27
ATOM     27  O   UNL A   1      34.065  29.124  26.849  1.00  0.00    -0.460 OA
BRANCH  27  28
ATOM     28  C   UNL A   1      34.479  30.185  27.587  1.00  0.00     0.338 C 
ATOM     29  O   UNL A   1      33.803  31.131  27.962  1.00  0.00    -0.246 OA
BRANCH  28  30
ATOM     30  C   UNL A   1      35.852  29.938  28.067  1.00  0.00     0.060 A 
ATOM     31  C   UNL A   1      36.102  29.599  29.397  1.00  0.00     0.016 A 
ATOM     32  C   UNL A   1      36.900  30.020  27.142  1.00  0.00     0.016 A 
ATOM     33  C   UNL A   1      37.413  29.325  29.796  1.00  0.00     0.010 A 
ATOM     34  C   UNL A   1      38.208  29.750  27.544  1.00  0.00     0.010 A 
ATOM     35  C   UNL A   1      38.473  29.386  28.872  1.00  0.00    -0.014 A 
BRANCH  35  36
ATOM     36  C   UNL A   1      39.842  28.970  29.266  1.00  0.00     0.031 A 
ATOM     37  C   UNL A   1      40.736  29.883  30.052  1.00  0.00     0.074 A 
ATOM     38  C   UNL A   1      40.284  27.755  28.883  1.00  0.00     0.049 A 
ATOM     39  N   UNL A   1      41.939  29.653  30.509  1.00  0.00    -0.248 NA
ATOM     40  C   UNL A   1      40.220  31.226  30.364  1.00  0.00     0.031 C 
ATOM     41  C   UNL A   1      39.508  26.795  28.098  1.00  0.00     0.029 A 
ATOM     42  N   UNL A   1      41.479  27.116  29.107  1.00  0.00    -0.354 N 
ATOM     43  C   UNL A   1      42.320  30.810  31.179  1.00  0.00     0.074 A 
ATOM     44  C   UNL A   1      41.241  31.760  31.025  1.00  0.00     0.031 C 
ATOM     45  C   UNL A   1      40.231  25.676  27.935  1.00  0.00     0.029 A 
ATOM     46  C   UNL A   1      41.538  25.853  28.564  1.00  0.00     0.049 A 
ATOM     47  H   UNL A   1      42.223  27.523  29.607  1.00  0.00     0.167 HD
ATOM     48  C   UNL A   1      43.457  31.041  31.877  1.00  0.00     0.031 A 
ATOM     49  C   UNL A   1      42.527  24.935  28.571  1.00  0.00     0.031 A 
ATOM     50  C   UNL A   1      44.529  30.085  32.013  1.00  0.00     0.049 A 
ATOM     51  C   UNL A   1      43.803  25.238  29.308  1.00  0.00     0.074 A 
ATOM     52  C   UNL A   1      45.703  30.219  32.735  1.00  0.00     0.029 A 
ATOM     53  N   UNL A   1      44.566  28.831  31.420  1.00  0.00    -0.354 N 
ATOM     54  N   UNL A   1      44.113  26.306  30.005  1.00  0.00    -0.248 NA
ATOM     55  C   UNL A   1      44.858  24.215  29.279  1.00  0.00     0.031 C 
ATOM     56  C   UNL A   1      46.486  29.088  32.509  1.00  0.00     0.029 A 
ATOM     57  C   UNL A   1      45.762  28.201  31.727  1.00  0.00     0.049 A 
ATOM     58  H   UNL A   1      43.851  28.447  30.865  1.00  0.00     0.167 HD
ATOM     59  C   UNL A   1      45.384  26.072  30.516  1.00  0.00     0.074 A 
ATOM     60  C   UNL A   1      45.781  24.755  30.065  1.00  0.00     0.031 C 
ATOM     61  C   UNL A   1      46.150  26.882  31.287  1.00  0.00     0.031 A 
BRANCH  48  62
ATOM     62  C   UNL A   1      43.619  32.365  32.582  1.00  0.00    -0.014 A 
ATOM     63  C   UNL A   1      44.248  33.439  31.925  1.00  0.00     0.010 A 
ATOM     64  C   UNL A   1      43.304  32.491  33.947  1.00  0.00     0.010 A 
ATOM     65  C   UNL A   1      44.604  34.592  32.629  1.00  0.00     0.020 A 
ATOM     66  C   UNL A   1      43.629  33.657  34.648  1.00  0.00     0.020 A 
ATOM     67  C   UNL A   1      44.305  34.688  33.991  1.00  0.00     0.054 A 
BRANCH  67  68
ATOM     68  S   UNL A   1      44.837  36.163  34.901  1.00  0.00     0.124 S 
ATOM     69  O   UNL A   1      46.212  35.829  35.256  1.00  0.00    -0.237 OA
ATOM     70  O   UNL A   1      44.678  37.223  33.908  1.00  0.00    -0.237 OA
ATOM     71  O   UNL A   1      43.902  36.229  36.023  1.00  0.00    -0.744 OA
ENDBRANCH  67  68
ENDBRANCH  48  62
BRANCH  49  72
ATOM     72  C   UNL A   1      42.310  23.627  27.889  1.00  0.00    -0.014 A 
ATOM     73  C   UNL A   1      41.674  22.566  28.563  1.00  0.00     0.010 A 
ATOM     74  C   UNL A   1      42.809  23.405  26.593  1.00  0.00     0.010 A 
ATOM     75  C   UNL A   1      41.600  21.297  27.985  1.00  0.00     0.020 A 
ATOM     76  C   UNL A   1      42.703  22.145  25.995  1.00  0.00     0.020 A 
ATOM     77  C   UNL A   1      42.128  21.091  26.708  1.00  0.00     0.054 A 
BRANCH  77  78
ATOM     78  S   UNL A   1      42.074  19.420  26.005  1.00  0.00     0.124 S 
ATOM     79  O   UNL A   1      42.947  19.558  24.841  1.00  0.00    -0.237 OA
ATOM     80  O   UNL A   1      42.600  18.601  27.093  1.00  0.00    -0.237 OA
ATOM     81  O   UNL A   1      40.659  19.220  25.704  1.00  0.00    -0.744 OA
ENDBRANCH  77  78
ENDBRANCH  49  72
BRANCH  61  82
ATOM     82  C   UNL A   1      47.512  26.394  31.722  1.00  0.00    -0.014 A 
ATOM     83  C   UNL A   1      48.592  26.456  30.821  1.00  0.00     0.010 A 
ATOM     84  C   UNL A   1      47.680  25.717  32.943  1.00  0.00     0.010 A 
ATOM     85  C   UNL A   1      49.792  25.796  31.102  1.00  0.00     0.020 A 
ATOM     86  C   UNL A   1      48.891  25.087  33.244  1.00  0.00     0.020 A 
ATOM     87  C   UNL A   1      49.927  25.102  32.306  1.00  0.00     0.054 A 
BRANCH  87  88
ATOM     88  S   UNL A   1      51.460  24.182  32.613  1.00  0.00     0.124 S 
ATOM     89  O   UNL A   1      51.089  22.825  32.221  1.00  0.00    -0.237 OA
ATOM     90  O   UNL A   1      52.417  24.852  31.735  1.00  0.00    -0.237 OA
ATOM     91  O   UNL A   1      51.697  24.375  34.043  1.00  0.00    -0.744 OA
ENDBRANCH  87  88
ENDBRANCH  61  82
ENDBRANCH  35  36
ENDBRANCH  28  30
ENDBRANCH  27  28
ENDBRANCH  26  27
ENDBRANCH   1  26
TORSDOF 19
ENDMDL
MODEL 2
REMARK VINA RESULT:     -10.8      3.311      9.676
REMARK SMILES CC(C)c1cc2c(cc1Cl)C=C(C(=O)OCCOCCOC(=O)c1ccc(-c3c4nc(c(-c5ccc(S(=O)(=O)[O-])cc5)c5ccc([nH]5)c(-c5ccc(S(=O)(=O)[O-])cc5)c5nc(c(-c6ccc(S(=O)(=O)[O-])cc6)c6ccc3[nH]6)C=C5)C=C4)cc1)[C@@H](C(F)(F)F)O2
REMARK SMILES IDX 19 1 18 2 17 3 16 4 15 5 13 6 14 7 12 8 4 9 5 10 9 11 6 12
REMARK SMILES IDX 8 13 10 14 7 15 89 16 11 17 84 18 2 19 1 20 3 21 85 22 86 23
REMARK SMILES IDX 87 24 88 25 20 26 21 27 22 28 23 29 24 30 25 31 83 32 26 33
REMARK SMILES IDX 82 34 27 35 28 36 29 37 76 38 30 39 81 40 75 41 77 42 31 43
REMARK SMILES IDX 80 44 74 45 73 46 32 48 62 49 43 50 61 51 44 52 47 53 60 54
REMARK SMILES IDX 78 55 45 56 46 57 59 59 79 60 48 61 33 62 34 63 42 64 35 65
REMARK SMILES IDX 41 66 36 67 37 68 38 69 39 70 40 71 63 72 64 73 72 74 65 75
REMARK SMILES IDX 71 76 66 77 67 78 68 79 69 80 70 81 49 82 50 83 58 84 51 85
REMARK SMILES IDX 57 86 52 87 53 88 54 89 55 90 56 91
REMARK H PARENT 77 47 47 58
REMARK Flexibility Score: inf
ROOT
ATOM      1  C   UNL A   1      35.914  21.745  25.212  1.00  0.00     0.202 C 
ENDROOT
BRANCH   1   2
ATOM      2  O   UNL A   1      35.127  21.073  26.194  1.00  0.00    -0.374 OA
BRANCH   2   3
ATOM      3  C   UNL A   1      33.718  20.994  25.998  1.00  0.00     0.202 C 
BRANCH   3   4
ATOM      4  C   UNL A   1      33.143  21.521  24.678  1.00  0.00     0.261 C 
BRANCH   4   5
ATOM      5  O   UNL A   1      32.547  22.818  24.824  1.00  0.00    -0.460 OA
BRANCH   5   6
ATOM      6  C   UNL A   1      31.729  23.170  23.805  1.00  0.00     0.338 C 
ATOM      7  O   UNL A   1      31.157  22.421  23.030  1.00  0.00    -0.246 OA
BRANCH   6   8
ATOM      8  C   UNL A   1      31.484  24.624  23.839  1.00  0.00     0.087 C 
ATOM      9  C   UNL A   1      29.310  29.108  23.087  1.00  0.00    -0.023 A 
ATOM     10  C   UNL A   1      30.629  28.650  23.322  1.00  0.00     0.052 A 
ATOM     11  C   UNL A   1      28.281  28.175  23.333  1.00  0.00     0.045 A 
ATOM     12  C   UNL A   1      30.919  27.316  23.622  1.00  0.00     0.128 A 
ATOM     13  C   UNL A   1      28.573  26.829  23.609  1.00  0.00     0.032 A 
ATOM     14  Cl  UNL A   1      26.598  28.568  23.372  1.00  0.00    -0.084 Cl
ATOM     15  C   UNL A   1      29.891  26.392  23.707  1.00  0.00     0.019 A 
ATOM     16  O   UNL A   1      32.234  27.004  23.810  1.00  0.00    -0.475 OA
ATOM     17  C   UNL A   1      30.194  24.983  23.831  1.00  0.00     0.027 C 
ATOM     18  C   UNL A   1      32.629  25.600  23.849  1.00  0.00     0.316 C 
BRANCH   9  19
ATOM     19  C   UNL A   1      29.084  30.559  22.628  1.00  0.00     0.014 C 
ATOM     20  C   UNL A   1      28.316  30.673  21.293  1.00  0.00     0.012 C 
ATOM     21  C   UNL A   1      28.313  31.449  23.623  1.00  0.00     0.012 C 
ENDBRANCH   9  19
BRANCH  18  22
ATOM     22  C   UNL A   1      33.631  25.358  22.711  1.00  0.00     0.430 C 
ATOM     23  F   UNL A   1      34.790  24.840  23.186  1.00  0.00    -0.167 F 
ATOM     24  F   UNL A   1      33.155  24.482  21.800  1.00  0.00    -0.167 F 
ATOM     25  F   UNL A   1      33.934  26.504  22.060  1.00  0.00    -0.167 F 
ENDBRANCH  18  22
ENDBRANCH   6   8
ENDBRANCH   5   6
ENDBRANCH   4   5
ENDBRANCH   3   4
ENDBRANCH   2   3
ENDBRANCH   1   2
BRANCH   1  26
ATOM     26  C   UNL A   1      37.443  21.646  25.293  1.00  0.00     0.261 C 
BRANCH  26  27
ATOM     27  O   UNL A   1      38.082  22.912  25.524  1.00  0.00    -0.460 OA
BRANCH  27  28
ATOM     28  C   UNL A   1      39.264  22.841  26.187  1.00  0.00     0.338 C 
ATOM     29  O   UNL A   1      40.071  21.924  26.160  1.00  0.00    -0.246 OA
BRANCH  28  30
ATOM     30  C   UNL A   1      39.554  24.147  26.807  1.00  0.00     0.060 A 
ATOM     31  C   UNL A   1      39.108  24.451  28.094  1.00  0.00     0.016 A 
ATOM     32  C   UNL A   1      40.320  25.068  26.081  1.00  0.00     0.016 A 
ATOM     33  C   UNL A   1      39.448  25.683  28.661  1.00  0.00     0.010 A 
ATOM     34  C   UNL A   1      40.655  26.297  26.649  1.00  0.00     0.010 A 
ATOM     35  C   UNL A   1      40.234  26.609  27.949  1.00  0.00    -0.014 A 
BRANCH  35  36
ATOM     36  C   UNL A   1      40.702  27.858  28.600  1.00  0.00     0.031 A 
ATOM     37  C   UNL A   1      42.115  28.000  29.083  1.00  0.00     0.074 A 
ATOM     38  C   UNL A   1      39.823  28.865  28.774  1.00  0.00     0.049 A 
ATOM     39  N   UNL A   1      42.689  29.039  29.632  1.00  0.00    -0.248 NA
ATOM     40  C   UNL A   1      42.998  26.832  28.936  1.00  0.00     0.031 C 
ATOM     41  C   UNL A   1      38.418  28.826  28.363  1.00  0.00     0.029 A 
ATOM     42  N   UNL A   1      39.975  30.113  29.326  1.00  0.00    -0.354 N 
ATOM     43  C   UNL A   1      44.004  28.661  29.879  1.00  0.00     0.074 A 
ATOM     44  C   UNL A   1      44.130  27.280  29.468  1.00  0.00     0.031 C 
ATOM     45  C   UNL A   1      37.847  30.007  28.644  1.00  0.00     0.029 A 
ATOM     46  C   UNL A   1      38.828  30.872  29.296  1.00  0.00     0.049 A 
ATOM     47  H   UNL A   1      40.823  30.433  29.708  1.00  0.00     0.167 HD
ATOM     48  C   UNL A   1      45.013  29.412  30.381  1.00  0.00     0.031 A 
ATOM     49  C   UNL A   1      38.587  32.124  29.737  1.00  0.00     0.031 A 
ATOM     50  C   UNL A   1      44.869  30.785  30.795  1.00  0.00     0.049 A 
ATOM     51  C   UNL A   1      39.713  32.918  30.341  1.00  0.00     0.074 A 
ATOM     52  C   UNL A   1      45.848  31.636  31.279  1.00  0.00     0.029 A 
ATOM     53  N   UNL A   1      43.685  31.508  30.781  1.00  0.00    -0.354 N 
ATOM     54  N   UNL A   1      40.970  32.572  30.492  1.00  0.00    -0.248 NA
ATOM     55  C   UNL A   1      39.402  34.273  30.819  1.00  0.00     0.031 C 
ATOM     56  C   UNL A   1      45.242  32.840  31.638  1.00  0.00     0.029 A 
ATOM     57  C   UNL A   1      43.902  32.779  31.288  1.00  0.00     0.049 A 
ATOM     58  H   UNL A   1      42.819  31.169  30.460  1.00  0.00     0.167 HD
ATOM     59  C   UNL A   1      41.603  33.673  31.058  1.00  0.00     0.074 A 
ATOM     60  C   UNL A   1      40.597  34.704  31.206  1.00  0.00     0.031 C 
ATOM     61  C   UNL A   1      42.901  33.810  31.422  1.00  0.00     0.031 A 
BRANCH  48  62
ATOM     62  C   UNL A   1      46.386  28.795  30.497  1.00  0.00    -0.014 A 
ATOM     63  C   UNL A   1      46.801  28.231  31.718  1.00  0.00     0.010 A 
ATOM     64  C   UNL A   1      47.320  28.929  29.455  1.00  0.00     0.010 A 
ATOM     65  C   UNL A   1      48.134  27.859  31.912  1.00  0.00     0.020 A 
ATOM     66  C   UNL A   1      48.648  28.527  29.633  1.00  0.00     0.020 A 
ATOM     67  C   UNL A   1      49.053  28.023  30.872  1.00  0.00     0.054 A 
BRANCH  67  68
ATOM     68  S   UNL A   1      50.791  27.599  31.166  1.00  0.00     0.124 S 
ATOM     69  O   UNL A   1      50.750  26.141  31.214  1.00  0.00    -0.237 OA
ATOM     70  O   UNL A   1      51.460  28.175  30.002  1.00  0.00    -0.237 OA
ATOM     71  O   UNL A   1      51.095  28.257  32.436  1.00  0.00    -0.744 OA
ENDBRANCH  67  68
ENDBRANCH  48  62
BRANCH  49  72
ATOM     72  C   UNL A   1      37.223  32.704  29.570  1.00  0.00    -0.014 A 
ATOM     73  C   UNL A   1      36.872  33.375  28.383  1.00  0.00     0.010 A 
ATOM     74  C   UNL A   1      36.295  32.663  30.626  1.00  0.00     0.010 A 
ATOM     75  C   UNL A   1      35.652  34.046  28.277  1.00  0.00     0.020 A 
ATOM     76  C   UNL A   1      35.056  33.303  30.511  1.00  0.00     0.020 A 
ATOM     77  C   UNL A   1      34.756  34.017  29.349  1.00  0.00     0.054 A 
BRANCH  77  78
ATOM     78  S   UNL A   1      33.206  34.948  29.211  1.00  0.00     0.124 S 
ATOM     79  O   UNL A   1      32.705  34.900  30.583  1.00  0.00    -0.237 OA
ATOM     80  O   UNL A   1      33.661  36.257  28.753  1.00  0.00    -0.237 OA
ATOM     81  O   UNL A   1      32.432  34.183  28.237  1.00  0.00    -0.744 OA
ENDBRANCH  77  78
ENDBRANCH  49  72
BRANCH  61  82
ATOM     82  C   UNL A   1      43.352  35.121  32.021  1.00  0.00    -0.014 A 
ATOM     83  C   UNL A   1      43.240  35.326  33.410  1.00  0.00     0.010 A 
ATOM     84  C   UNL A   1      43.712  36.204  31.200  1.00  0.00     0.010 A 
ATOM     85  C   UNL A   1      43.417  36.600  33.959  1.00  0.00     0.020 A 
ATOM     86  C   UNL A   1      43.926  37.472  31.749  1.00  0.00     0.020 A 
ATOM     87  C   UNL A   1      43.742  37.668  33.120  1.00  0.00     0.054 A 
BRANCH  87  88
ATOM     88  S   UNL A   1      43.882  39.327  33.840  1.00  0.00     0.124 S 
ATOM     89  O   UNL A   1      43.848  39.046  35.273  1.00  0.00    -0.237 OA
ATOM     90  O   UNL A   1      45.164  39.795  33.319  1.00  0.00    -0.237 OA
ATOM     91  O   UNL A   1      42.712  40.029  33.316  1.00  0.00    -0.744 OA
ENDBRANCH  87  88
ENDBRANCH  61  82
ENDBRANCH  35  36
ENDBRANCH  28  30
ENDBRANCH  27  28
ENDBRANCH  26  27
ENDBRANCH   1  26
TORSDOF 19
ENDMDL
MODEL 3
REMARK VINA RESULT:     -10.7      4.795      9.948
REMARK SMILES CC(C)c1cc2c(cc1Cl)C=C(C(=O)OCCOCCOC(=O)c1ccc(-c3c4nc(c(-c5ccc(S(=O)(=O)[O-])cc5)c5ccc([nH]5)c(-c5ccc(S(=O)(=O)[O-])cc5)c5nc(c(-c6ccc(S(=O)(=O)[O-])cc6)c6ccc3[nH]6)C=C5)C=C4)cc1)[C@@H](C(F)(F)F)O2
REMARK SMILES IDX 19 1 18 2 17 3 16 4 15 5 13 6 14 7 12 8 4 9 5 10 9 11 6 12
REMARK SMILES IDX 8 13 10 14 7 15 89 16 11 17 84 18 2 19 1 20 3 21 85 22 86 23
REMARK SMILES IDX 87 24 88 25 20 26 21 27 22 28 23 29 24 30 25 31 83 32 26 33
REMARK SMILES IDX 82 34 27 35 28 36 29 37 76 38 30 39 81 40 75 41 77 42 31 43
REMARK SMILES IDX 80 44 74 45 73 46 32 48 62 49 43 50 61 51 44 52 47 53 60 54
REMARK SMILES IDX 78 55 45 56 46 57 59 59 79 60 48 61 33 62 34 63 42 64 35 65
REMARK SMILES IDX 41 66 36 67 37 68 38 69 39 70 40 71 63 72 64 73 72 74 65 75
REMARK SMILES IDX 71 76 66 77 67 78 68 79 69 80 70 81 49 82 50 83 58 84 51 85
REMARK SMILES IDX 57 86 52 87 53 88 54 89 55 90 56 91
REMARK H PARENT 77 47 47 58
REMARK Flexibility Score: inf
ROOT
ATOM      1  C   UNL A   1      38.921  22.408  26.200  1.00  0.00     0.202 C 
ENDROOT
BRANCH   1   2
ATOM      2  O   UNL A   1      38.062  22.855  25.152  1.00  0.00    -0.374 OA
BRANCH   2   3
ATOM      3  C   UNL A   1      37.140  21.928  24.587  1.00  0.00     0.202 C 
BRANCH   3   4
ATOM      4  C   UNL A   1      36.283  21.091  25.543  1.00  0.00     0.261 C 
BRANCH   4   5
ATOM      5  O   UNL A   1      35.514  21.907  26.439  1.00  0.00    -0.460 OA
BRANCH   5   6
ATOM      6  C   UNL A   1      34.174  21.793  26.281  1.00  0.00     0.338 C 
ATOM      7  O   UNL A   1      33.423  21.053  26.895  1.00  0.00    -0.246 OA
BRANCH   6   8
ATOM      8  C   UNL A   1      33.692  22.822  25.342  1.00  0.00     0.087 C 
ATOM      9  C   UNL A   1      31.276  26.853  23.521  1.00  0.00    -0.023 A 
ATOM     10  C   UNL A   1      31.768  25.639  22.981  1.00  0.00     0.052 A 
ATOM     11  C   UNL A   1      31.731  27.182  24.814  1.00  0.00     0.045 A 
ATOM     12  C   UNL A   1      32.526  24.737  23.733  1.00  0.00     0.128 A 
ATOM     13  C   UNL A   1      32.472  26.265  25.578  1.00  0.00     0.032 A 
ATOM     14  Cl  UNL A   1      31.486  28.716  25.573  1.00  0.00    -0.084 Cl
ATOM     15  C   UNL A   1      32.828  25.025  25.053  1.00  0.00     0.019 A 
ATOM     16  O   UNL A   1      32.925  23.597  23.097  1.00  0.00    -0.475 OA
ATOM     17  C   UNL A   1      33.449  24.020  25.889  1.00  0.00     0.027 C 
ATOM     18  C   UNL A   1      33.472  22.500  23.889  1.00  0.00     0.316 C 
BRANCH   9  19
ATOM     19  C   UNL A   1      30.335  27.729  22.675  1.00  0.00     0.014 C 
ATOM     20  C   UNL A   1      28.939  27.925  23.307  1.00  0.00     0.012 C 
ATOM     21  C   UNL A   1      30.853  29.149  22.375  1.00  0.00     0.012 C 
ENDBRANCH   9  19
BRANCH  18  22
ATOM     22  C   UNL A   1      32.577  21.271  23.678  1.00  0.00     0.430 C 
ATOM     23  F   UNL A   1      31.548  21.263  24.559  1.00  0.00    -0.167 F 
ATOM     24  F   UNL A   1      32.034  21.251  22.441  1.00  0.00    -0.167 F 
ATOM     25  F   UNL A   1      33.264  20.118  23.843  1.00  0.00    -0.167 F 
ENDBRANCH  18  22
ENDBRANCH   6   8
ENDBRANCH   5   6
ENDBRANCH   4   5
ENDBRANCH   3   4
ENDBRANCH   2   3
ENDBRANCH   1   2
BRANCH   1  26
ATOM     26  C   UNL A   1      39.883  23.412  26.848  1.00  0.00     0.261 C 
BRANCH  26  27
ATOM     27  O   UNL A   1      39.268  24.677  27.145  1.00  0.00    -0.460 OA
BRANCH  27  28
ATOM     28  C   UNL A   1      40.060  25.759  26.933  1.00  0.00     0.338 C 
ATOM     29  O   UNL A   1      40.634  26.060  25.897  1.00  0.00    -0.246 OA
BRANCH  28  30
ATOM     30  C   UNL A   1      39.971  26.662  28.094  1.00  0.00     0.060 A 
ATOM     31  C   UNL A   1      39.221  26.320  29.220  1.00  0.00     0.016 A 
ATOM     32  C   UNL A   1      40.689  27.865  28.054  1.00  0.00     0.016 A 
ATOM     33  C   UNL A   1      39.205  27.186  30.318  1.00  0.00     0.010 A 
ATOM     34  C   UNL A   1      40.668  28.727  29.150  1.00  0.00     0.010 A 
ATOM     35  C   UNL A   1      39.937  28.387  30.296  1.00  0.00    -0.014 A 
BRANCH  35  36
ATOM     36  C   UNL A   1      40.023  29.239  31.509  1.00  0.00     0.031 A 
ATOM     37  C   UNL A   1      39.010  30.313  31.777  1.00  0.00     0.074 A 
ATOM     38  C   UNL A   1      41.050  29.049  32.361  1.00  0.00     0.049 A 
ATOM     39  N   UNL A   1      38.921  31.112  32.809  1.00  0.00    -0.248 NA
ATOM     40  C   UNL A   1      37.965  30.521  30.763  1.00  0.00     0.031 C 
ATOM     41  C   UNL A   1      42.104  28.049  32.187  1.00  0.00     0.029 A 
ATOM     42  N   UNL A   1      41.372  29.672  33.542  1.00  0.00    -0.354 N 
ATOM     43  C   UNL A   1      37.803  31.905  32.581  1.00  0.00     0.074 A 
ATOM     44  C   UNL A   1      37.274  31.527  31.289  1.00  0.00     0.031 C 
ATOM     45  C   UNL A   1      42.936  28.102  33.239  1.00  0.00     0.029 A 
ATOM     46  C   UNL A   1      42.502  29.167  34.141  1.00  0.00     0.049 A 
ATOM     47  H   UNL A   1      40.844  30.410  33.924  1.00  0.00     0.167 HD
ATOM     48  C   UNL A   1      37.259  32.843  33.393  1.00  0.00     0.031 A 
ATOM     49  C   UNL A   1      43.124  29.513  35.287  1.00  0.00     0.031 A 
ATOM     50  C   UNL A   1      37.805  33.215  34.675  1.00  0.00     0.049 A 
ATOM     51  C   UNL A   1      42.530  30.597  36.144  1.00  0.00     0.074 A 
ATOM     52  C   UNL A   1      37.298  34.129  35.583  1.00  0.00     0.029 A 
ATOM     53  N   UNL A   1      38.970  32.706  35.231  1.00  0.00    -0.354 N 
ATOM     54  N   UNL A   1      41.425  31.280  35.953  1.00  0.00    -0.248 NA
ATOM     55  C   UNL A   1      43.247  30.951  37.378  1.00  0.00     0.031 C 
ATOM     56  C   UNL A   1      38.197  34.236  36.643  1.00  0.00     0.029 A 
ATOM     57  C   UNL A   1      39.218  33.318  36.448  1.00  0.00     0.049 A 
ATOM     58  H   UNL A   1      39.536  32.013  34.821  1.00  0.00     0.167 HD
ATOM     59  C   UNL A   1      41.303  32.124  37.051  1.00  0.00     0.074 A 
ATOM     60  C   UNL A   1      42.434  31.854  37.913  1.00  0.00     0.031 C 
ATOM     61  C   UNL A   1      40.339  33.039  37.314  1.00  0.00     0.031 A 
BRANCH  48  62
ATOM     62  C   UNL A   1      35.992  33.534  32.954  1.00  0.00    -0.014 A 
ATOM     63  C   UNL A   1      36.056  34.806  32.353  1.00  0.00     0.010 A 
ATOM     64  C   UNL A   1      34.734  33.002  33.292  1.00  0.00     0.010 A 
ATOM     65  C   UNL A   1      34.893  35.552  32.145  1.00  0.00     0.020 A 
ATOM     66  C   UNL A   1      33.565  33.732  33.054  1.00  0.00     0.020 A 
ATOM     67  C   UNL A   1      33.655  35.016  32.511  1.00  0.00     0.054 A 
BRANCH  67  68
ATOM     68  S   UNL A   1      32.166  36.028  32.296  1.00  0.00     0.124 S 
ATOM     69  O   UNL A   1      32.401  37.127  33.227  1.00  0.00    -0.237 OA
ATOM     70  O   UNL A   1      32.222  36.377  30.878  1.00  0.00    -0.237 OA
ATOM     71  O   UNL A   1      31.080  35.121  32.661  1.00  0.00    -0.744 OA
ENDBRANCH  67  68
ENDBRANCH  48  62
BRANCH  49  72
ATOM     72  C   UNL A   1      44.357  28.780  35.697  1.00  0.00    -0.014 A 
ATOM     73  C   UNL A   1      44.269  27.643  36.524  1.00  0.00     0.010 A 
ATOM     74  C   UNL A   1      45.627  29.259  35.334  1.00  0.00     0.010 A 
ATOM     75  C   UNL A   1      45.423  27.041  37.031  1.00  0.00     0.020 A 
ATOM     76  C   UNL A   1      46.786  28.636  35.809  1.00  0.00     0.020 A 
ATOM     77  C   UNL A   1      46.676  27.551  36.681  1.00  0.00     0.054 A 
BRANCH  77  78
ATOM     78  S   UNL A   1      48.156  26.789  37.401  1.00  0.00     0.124 S 
ATOM     79  O   UNL A   1      47.728  25.401  37.562  1.00  0.00    -0.237 OA
ATOM     80  O   UNL A   1      49.165  27.021  36.373  1.00  0.00    -0.237 OA
ATOM     81  O   UNL A   1      48.352  27.530  38.644  1.00  0.00    -0.744 OA
ENDBRANCH  77  78
ENDBRANCH  49  72
BRANCH  61  82
ATOM     82  C   UNL A   1      40.428  33.840  38.590  1.00  0.00    -0.014 A 
ATOM     83  C   UNL A   1      39.662  33.455  39.708  1.00  0.00     0.010 A 
ATOM     84  C   UNL A   1      41.121  35.063  38.628  1.00  0.00     0.010 A 
ATOM     85  C   UNL A   1      39.536  34.305  40.811  1.00  0.00     0.020 A 
ATOM     86  C   UNL A   1      41.027  35.899  39.744  1.00  0.00     0.020 A 
ATOM     87  C   UNL A   1      40.206  35.530  40.814  1.00  0.00     0.054 A 
BRANCH  87  88
ATOM     88  S   UNL A   1      39.959  36.654  42.216  1.00  0.00     0.124 S 
ATOM     89  O   UNL A   1      39.416  37.843  41.566  1.00  0.00    -0.237 OA
ATOM     90  O   UNL A   1      39.024  35.913  43.059  1.00  0.00    -0.237 OA
ATOM     91  O   UNL A   1      41.302  36.808  42.774  1.00  0.00    -0.744 OA
ENDBRANCH  87  88
ENDBRANCH  61  82
ENDBRANCH  35  36
ENDBRANCH  28  30
ENDBRANCH  27  28
ENDBRANCH  26  27
ENDBRANCH   1  26
TORSDOF 19
ENDMDL
