MODEL 1
REMARK VINA RESULT:     -11.5      0.000      0.000
REMARK SMILES O=C(OCCOCCOC(=O)c1ccc(-c2c3nc(c(-c4ccc(S(=O)(=O)[O-])cc4)c4ccc([nH]4)c(-c4ccc(S(=O)(=O)[O-])cc4)c4nc(c(-c5ccc(S(=O)(=O)[O-])cc5)c5ccc2[nH]5)C=C4)C=C3)cc1)C1=Cc2ccc(Cl)c(Cl)c2O[C@@H]1C(F)(F)F
REMARK SMILES IDX 7 1 6 2 5 3 4 4 3 5 2 6 1 7 72 8 73 9 83 10 74 11 82 12
REMARK SMILES IDX 75 13 81 14 76 15 79 16 77 17 80 18 78 19 84 20 85 21 86 22
REMARK SMILES IDX 87 23 8 24 9 25 10 26 11 27 12 28 13 29 71 30 14 31 70 32
REMARK SMILES IDX 15 33 16 34 17 35 64 36 18 37 69 38 63 39 65 40 19 41 68 42
REMARK SMILES IDX 62 43 61 44 20 46 50 47 31 48 49 49 32 50 35 51 48 52 66 53
REMARK SMILES IDX 33 54 34 55 47 57 67 58 36 59 21 60 22 61 30 62 23 63 29 64
REMARK SMILES IDX 24 65 25 66 26 67 27 68 28 69 51 70 52 71 60 72 53 73 59 74
REMARK SMILES IDX 54 75 55 76 56 77 57 78 58 79 37 80 38 81 46 82 39 83 45 84
REMARK SMILES IDX 40 85 41 86 42 87 43 88 44 89
REMARK H PARENT 65 45 35 56
REMARK Flexibility Score: inf
ROOT
ATOM      1  C   UNL A   1      31.747  30.042  25.698  1.00  0.00     0.202 C 
ENDROOT
BRANCH   1   2
ATOM      2  O   UNL A   1      31.177  29.128  24.745  1.00  0.00    -0.374 OA
BRANCH   2   3
ATOM      3  C   UNL A   1      31.379  28.879  23.171  1.00  0.00     0.202 C 
BRANCH   3   4
ATOM      4  C   UNL A   1      31.883  27.110  22.015  1.00  0.00     0.261 C 
BRANCH   4   5
ATOM      5  O   UNL A   1      31.532  25.653  22.354  1.00  0.00    -0.460 OA
BRANCH   5   6
ATOM      6  C   UNL A   1      32.612  24.876  22.462  1.00  0.00     0.338 C 
ATOM      7  O   UNL A   1      33.288  24.379  21.600  1.00  0.00    -0.246 OA
BRANCH   6   8
ATOM      8  C   UNL A   1      32.422  24.552  23.860  1.00  0.00     0.087 C 
ATOM      9  C   UNL A   1      31.835  23.205  24.036  1.00  0.00     0.027 C 
ATOM     10  C   UNL A   1      34.197  25.066  24.428  1.00  0.00     0.316 C 
ATOM     11  C   UNL A   1      32.778  21.770  24.611  1.00  0.00     0.019 A 
ATOM     12  O   UNL A   1      35.245  23.537  24.973  1.00  0.00    -0.474 OA
ATOM     13  C   UNL A   1      32.193  20.538  24.520  1.00  0.00     0.013 A 
ATOM     14  C   UNL A   1      34.479  21.874  24.962  1.00  0.00     0.148 A 
ATOM     15  C   UNL A   1      33.079  19.461  24.641  1.00  0.00     0.023 A 
ATOM     16  C   UNL A   1      35.281  20.766  24.888  1.00  0.00     0.102 A 
ATOM     17  C   UNL A   1      34.532  19.561  24.753  1.00  0.00     0.063 A 
ATOM     18  Cl  UNL A   1      36.953  20.919  24.593  1.00  0.00    -0.079 Cl
ATOM     19  Cl  UNL A   1      35.290  18.012  24.593  1.00  0.00    -0.083 Cl
BRANCH  10  20
ATOM     20  C   UNL A   1      33.777  26.394  25.196  1.00  0.00     0.430 C 
ATOM     21  F   UNL A   1      33.965  27.547  24.533  1.00  0.00    -0.167 F 
ATOM     22  F   UNL A   1      32.422  26.327  25.388  1.00  0.00    -0.167 F 
ATOM     23  F   UNL A   1      34.282  26.516  26.446  1.00  0.00    -0.167 F 
ENDBRANCH  10  20
ENDBRANCH   6   8
ENDBRANCH   5   6
ENDBRANCH   4   5
ENDBRANCH   3   4
ENDBRANCH   2   3
ENDBRANCH   1   2
BRANCH   1  24
ATOM     24  C   UNL A   1      32.301  29.504  27.009  1.00  0.00     0.261 C 
BRANCH  24  25
ATOM     25  O   UNL A   1      33.715  29.497  27.054  1.00  0.00    -0.460 OA
BRANCH  25  26
ATOM     26  C   UNL A   1      34.246  30.508  27.775  1.00  0.00     0.338 C 
ATOM     27  O   UNL A   1      33.701  31.538  28.128  1.00  0.00    -0.246 OA
BRANCH  26  28
ATOM     28  C   UNL A   1      35.631  30.139  28.110  1.00  0.00     0.060 A 
ATOM     29  C   UNL A   1      35.891  29.680  29.402  1.00  0.00     0.016 A 
ATOM     30  C   UNL A   1      36.646  30.182  27.142  1.00  0.00     0.016 A 
ATOM     31  C   UNL A   1      37.160  29.201  29.710  1.00  0.00     0.010 A 
ATOM     32  C   UNL A   1      37.911  29.697  27.451  1.00  0.00     0.010 A 
ATOM     33  C   UNL A   1      38.166  29.188  28.731  1.00  0.00    -0.014 A 
BRANCH  33  34
ATOM     34  C   UNL A   1      39.542  28.795  29.092  1.00  0.00     0.031 A 
ATOM     35  C   UNL A   1      40.371  29.803  29.816  1.00  0.00     0.074 A 
ATOM     36  C   UNL A   1      40.040  27.587  28.772  1.00  0.00     0.049 A 
ATOM     37  N   UNL A   1      41.602  29.701  30.231  1.00  0.00    -0.248 NA
ATOM     38  C   UNL A   1      39.736  31.105  30.093  1.00  0.00     0.031 C 
ATOM     39  C   UNL A   1      39.318  26.548  28.052  1.00  0.00     0.029 A 
ATOM     40  N   UNL A   1      41.266  27.022  29.013  1.00  0.00    -0.354 N 
ATOM     41  C   UNL A   1      41.894  30.923  30.813  1.00  0.00     0.074 A 
ATOM     42  C   UNL A   1      40.724  31.761  30.681  1.00  0.00     0.031 C 
ATOM     43  C   UNL A   1      40.082  25.448  27.959  1.00  0.00     0.029 A 
ATOM     44  C   UNL A   1      41.391  25.740  28.526  1.00  0.00     0.049 A 
ATOM     45  H   UNL A   1      41.990  27.489  29.491  1.00  0.00     0.167 HD
ATOM     46  C   UNL A   1      43.047  31.306  31.401  1.00  0.00     0.031 A 
ATOM     47  C   UNL A   1      42.452  24.910  28.502  1.00  0.00     0.031 A 
ATOM     48  C   UNL A   1      44.213  30.473  31.485  1.00  0.00     0.049 A 
ATOM     49  C   UNL A   1      43.744  25.401  29.099  1.00  0.00     0.074 A 
ATOM     50  C   UNL A   1      45.429  30.765  32.075  1.00  0.00     0.029 A 
ATOM     51  N   UNL A   1      44.321  29.200  30.947  1.00  0.00    -0.354 N 
ATOM     52  N   UNL A   1      43.988  26.536  29.712  1.00  0.00    -0.248 NA
ATOM     53  C   UNL A   1      44.905  24.508  29.001  1.00  0.00     0.031 C 
ATOM     54  C   UNL A   1      46.297  29.701  31.824  1.00  0.00     0.029 A 
ATOM     55  C   UNL A   1      45.598  28.709  31.153  1.00  0.00     0.049 A 
ATOM     56  H   UNL A   1      43.597  28.718  30.486  1.00  0.00     0.167 HD
ATOM     57  C   UNL A   1      45.322  26.480  30.092  1.00  0.00     0.074 A 
ATOM     58  C   UNL A   1      45.823  25.188  29.670  1.00  0.00     0.031 C 
ATOM     59  C   UNL A   1      46.071  27.417  30.726  1.00  0.00     0.031 A 
BRANCH  46  60
ATOM     60  C   UNL A   1      43.112  32.700  31.954  1.00  0.00    -0.014 A 
ATOM     61  C   UNL A   1      42.901  32.953  33.320  1.00  0.00     0.010 A 
ATOM     62  C   UNL A   1      43.447  33.764  31.098  1.00  0.00     0.010 A 
ATOM     63  C   UNL A   1      43.020  34.250  33.821  1.00  0.00     0.020 A 
ATOM     64  C   UNL A   1      43.597  35.057  31.600  1.00  0.00     0.020 A 
ATOM     65  C   UNL A   1      43.380  35.291  32.959  1.00  0.00     0.054 A 
BRANCH  65  66
ATOM     66  S   UNL A   1      43.610  36.948  33.655  1.00  0.00     0.124 S 
ATOM     67  O   UNL A   1      42.284  37.236  34.196  1.00  0.00    -0.237 OA
ATOM     68  O   UNL A   1      44.660  36.729  34.647  1.00  0.00    -0.237 OA
ATOM     69  O   UNL A   1      44.002  37.758  32.504  1.00  0.00    -0.744 OA
ENDBRANCH  65  66
ENDBRANCH  46  60
BRANCH  47  70
ATOM     70  C   UNL A   1      42.371  23.571  27.848  1.00  0.00    -0.014 A 
ATOM     71  C   UNL A   1      41.940  22.439  28.563  1.00  0.00     0.010 A 
ATOM     72  C   UNL A   1      42.780  23.407  26.509  1.00  0.00     0.010 A 
ATOM     73  C   UNL A   1      41.962  21.170  27.972  1.00  0.00     0.020 A 
ATOM     74  C   UNL A   1      42.764  22.149  25.901  1.00  0.00     0.020 A 
ATOM     75  C   UNL A   1      42.376  21.034  26.644  1.00  0.00     0.054 A 
BRANCH  75  76
ATOM     76  S   UNL A   1      42.393  19.380  25.898  1.00  0.00     0.124 S 
ATOM     77  O   UNL A   1      43.250  19.580  24.734  1.00  0.00    -0.237 OA
ATOM     78  O   UNL A   1      42.957  18.560  26.968  1.00  0.00    -0.237 OA
ATOM     79  O   UNL A   1      40.985  19.123  25.601  1.00  0.00    -0.744 OA
ENDBRANCH  75  76
ENDBRANCH  47  70
BRANCH  59  80
ATOM     80  C   UNL A   1      47.502  27.063  31.034  1.00  0.00    -0.014 A 
ATOM     81  C   UNL A   1      47.835  26.257  32.136  1.00  0.00     0.010 A 
ATOM     82  C   UNL A   1      48.521  27.497  30.166  1.00  0.00     0.010 A 
ATOM     83  C   UNL A   1      49.168  25.919  32.383  1.00  0.00     0.020 A 
ATOM     84  C   UNL A   1      49.848  27.127  30.387  1.00  0.00     0.020 A 
ATOM     85  C   UNL A   1      50.164  26.351  31.503  1.00  0.00     0.054 A 
BRANCH  85  86
ATOM     86  S   UNL A   1      51.878  25.850  31.818  1.00  0.00     0.124 S 
ATOM     87  O   UNL A   1      51.705  24.515  32.383  1.00  0.00    -0.237 OA
ATOM     88  O   UNL A   1      52.472  25.897  30.484  1.00  0.00    -0.237 OA
ATOM     89  O   UNL A   1      52.371  26.862  32.751  1.00  0.00    -0.744 OA
ENDBRANCH  85  86
ENDBRANCH  59  80
ENDBRANCH  33  34
ENDBRANCH  26  28
ENDBRANCH  25  26
ENDBRANCH  24  25
ENDBRANCH   1  24
TORSDOF 18
ENDMDL
MODEL 2
REMARK VINA RESULT:     -11.4      2.144      3.292
REMARK SMILES O=C(OCCOCCOC(=O)c1ccc(-c2c3nc(c(-c4ccc(S(=O)(=O)[O-])cc4)c4ccc([nH]4)c(-c4ccc(S(=O)(=O)[O-])cc4)c4nc(c(-c5ccc(S(=O)(=O)[O-])cc5)c5ccc2[nH]5)C=C4)C=C3)cc1)C1=Cc2ccc(Cl)c(Cl)c2O[C@@H]1C(F)(F)F
REMARK SMILES IDX 7 1 6 2 5 3 4 4 3 5 2 6 1 7 72 8 73 9 83 10 74 11 82 12
REMARK SMILES IDX 75 13 81 14 76 15 79 16 77 17 80 18 78 19 84 20 85 21 86 22
REMARK SMILES IDX 87 23 8 24 9 25 10 26 11 27 12 28 13 29 71 30 14 31 70 32
REMARK SMILES IDX 15 33 16 34 17 35 64 36 18 37 69 38 63 39 65 40 19 41 68 42
REMARK SMILES IDX 62 43 61 44 20 46 50 47 31 48 49 49 32 50 35 51 48 52 66 53
REMARK SMILES IDX 33 54 34 55 47 57 67 58 36 59 21 60 22 61 30 62 23 63 29 64
REMARK SMILES IDX 24 65 25 66 26 67 27 68 28 69 51 70 52 71 60 72 53 73 59 74
REMARK SMILES IDX 54 75 55 76 56 77 57 78 58 79 37 80 38 81 46 82 39 83 45 84
REMARK SMILES IDX 40 85 41 86 42 87 43 88 44 89
REMARK H PARENT 65 45 35 56
REMARK Flexibility Score: inf
ROOT
ATOM      1  C   UNL A   1      33.652  28.629  25.210  1.00  0.00     0.202 C 
ENDROOT
BRANCH   1   2
ATOM      2  O   UNL A   1      33.516  27.223  25.478  1.00  0.00    -0.374 OA
BRANCH   2   3
ATOM      3  C   UNL A   1      34.198  25.896  24.883  1.00  0.00     0.202 C 
BRANCH   3   4
ATOM      4  C   UNL A   1      34.723  23.986  25.774  1.00  0.00     0.261 C 
BRANCH   4   5
ATOM      5  O   UNL A   1      33.784  23.024  26.518  1.00  0.00    -0.460 OA
BRANCH   5   6
ATOM      6  C   UNL A   1      33.942  21.754  26.136  1.00  0.00     0.338 C 
ATOM      7  O   UNL A   1      34.951  21.148  25.888  1.00  0.00    -0.246 OA
BRANCH   6   8
ATOM      8  C   UNL A   1      32.559  21.537  25.767  1.00  0.00     0.087 C 
ATOM      9  C   UNL A   1      31.673  22.584  26.324  1.00  0.00     0.027 C 
ATOM     10  C   UNL A   1      32.895  21.262  23.883  1.00  0.00     0.316 C 
ATOM     11  C   UNL A   1      30.942  23.909  25.329  1.00  0.00     0.019 A 
ATOM     12  O   UNL A   1      32.189  22.706  22.812  1.00  0.00    -0.474 OA
ATOM     13  C   UNL A   1      30.328  24.940  25.984  1.00  0.00     0.013 A 
ATOM     14  C   UNL A   1      31.274  24.066  23.628  1.00  0.00     0.148 A 
ATOM     15  C   UNL A   1      30.106  26.079  25.200  1.00  0.00     0.023 A 
ATOM     16  C   UNL A   1      31.176  25.281  23.003  1.00  0.00     0.102 A 
ATOM     17  C   UNL A   1      30.554  26.266  23.823  1.00  0.00     0.063 A 
ATOM     18  Cl  UNL A   1      32.066  25.604  21.585  1.00  0.00    -0.079 Cl
ATOM     19  Cl  UNL A   1      30.339  27.904  23.302  1.00  0.00    -0.083 Cl
BRANCH  10  20
ATOM     20  C   UNL A   1      32.622  19.695  23.866  1.00  0.00     0.430 C 
ATOM     21  F   UNL A   1      32.069  19.202  22.746  1.00  0.00    -0.167 F 
ATOM     22  F   UNL A   1      33.845  19.080  23.942  1.00  0.00    -0.167 F 
ATOM     23  F   UNL A   1      31.947  19.221  24.939  1.00  0.00    -0.167 F 
ENDBRANCH  10  20
ENDBRANCH   6   8
ENDBRANCH   5   6
ENDBRANCH   4   5
ENDBRANCH   3   4
ENDBRANCH   2   3
ENDBRANCH   1   2
BRANCH   1  24
ATOM     24  C   UNL A   1      33.190  29.636  26.253  1.00  0.00     0.261 C 
BRANCH  24  25
ATOM     25  O   UNL A   1      33.862  29.505  27.491  1.00  0.00    -0.460 OA
BRANCH  25  26
ATOM     26  C   UNL A   1      34.554  30.605  27.859  1.00  0.00     0.338 C 
ATOM     27  O   UNL A   1      34.146  31.749  27.943  1.00  0.00    -0.246 OA
BRANCH  26  28
ATOM     28  C   UNL A   1      35.924  30.180  28.191  1.00  0.00     0.060 A 
ATOM     29  C   UNL A   1      36.159  29.669  29.468  1.00  0.00     0.016 A 
ATOM     30  C   UNL A   1      36.948  30.224  27.231  1.00  0.00     0.016 A 
ATOM     31  C   UNL A   1      37.410  29.140  29.767  1.00  0.00     0.010 A 
ATOM     32  C   UNL A   1      38.194  29.688  27.532  1.00  0.00     0.010 A 
ATOM     33  C   UNL A   1      38.423  29.128  28.796  1.00  0.00    -0.014 A 
BRANCH  33  34
ATOM     34  C   UNL A   1      39.782  28.680  29.152  1.00  0.00     0.031 A 
ATOM     35  C   UNL A   1      40.649  29.648  29.886  1.00  0.00     0.074 A 
ATOM     36  C   UNL A   1      40.235  27.457  28.820  1.00  0.00     0.049 A 
ATOM     37  N   UNL A   1      41.875  29.494  30.300  1.00  0.00    -0.248 NA
ATOM     38  C   UNL A   1      40.065  30.970  30.177  1.00  0.00     0.031 C 
ATOM     39  C   UNL A   1      39.474  26.453  28.090  1.00  0.00     0.029 A 
ATOM     40  N   UNL A   1      41.438  26.843  29.055  1.00  0.00    -0.354 N 
ATOM     41  C   UNL A   1      42.214  30.698  30.895  1.00  0.00     0.074 A 
ATOM     42  C   UNL A   1      41.077  31.582  30.771  1.00  0.00     0.031 C 
ATOM     43  C   UNL A   1      40.195  25.326  27.985  1.00  0.00     0.029 A 
ATOM     44  C   UNL A   1      41.514  25.562  28.554  1.00  0.00     0.049 A 
ATOM     45  H   UNL A   1      42.179  27.277  29.538  1.00  0.00     0.167 HD
ATOM     46  C   UNL A   1      43.380  31.032  31.487  1.00  0.00     0.031 A 
ATOM     47  C   UNL A   1      42.543  24.693  28.522  1.00  0.00     0.031 A 
ATOM     48  C   UNL A   1      44.514  30.154  31.562  1.00  0.00     0.049 A 
ATOM     49  C   UNL A   1      43.853  25.128  29.124  1.00  0.00     0.074 A 
ATOM     50  C   UNL A   1      45.740  30.393  32.155  1.00  0.00     0.029 A 
ATOM     51  N   UNL A   1      44.573  28.883  31.010  1.00  0.00    -0.354 N 
ATOM     52  N   UNL A   1      44.139  26.246  29.749  1.00  0.00    -0.248 NA
ATOM     53  C   UNL A   1      44.978  24.192  29.017  1.00  0.00     0.031 C 
ATOM     54  C   UNL A   1      46.566  29.299  31.892  1.00  0.00     0.029 A 
ATOM     55  C   UNL A   1      45.830  28.341  31.211  1.00  0.00     0.049 A 
ATOM     56  H   UNL A   1      43.832  28.433  30.545  1.00  0.00     0.167 HD
ATOM     57  C   UNL A   1      45.470  26.136  30.128  1.00  0.00     0.074 A 
ATOM     58  C   UNL A   1      45.922  24.830  29.693  1.00  0.00     0.031 C 
ATOM     59  C   UNL A   1      46.254  27.037  30.772  1.00  0.00     0.031 A 
BRANCH  46  60
ATOM     60  C   UNL A   1      43.498  32.416  32.053  1.00  0.00    -0.014 A 
ATOM     61  C   UNL A   1      43.950  33.489  31.266  1.00  0.00     0.010 A 
ATOM     62  C   UNL A   1      43.093  32.653  33.378  1.00  0.00     0.010 A 
ATOM     63  C   UNL A   1      44.000  34.779  31.798  1.00  0.00     0.020 A 
ATOM     64  C   UNL A   1      43.111  33.946  33.904  1.00  0.00     0.020 A 
ATOM     65  C   UNL A   1      43.567  34.999  33.110  1.00  0.00     0.054 A 
BRANCH  65  66
ATOM     66  S   UNL A   1      43.563  36.697  33.743  1.00  0.00     0.124 S 
ATOM     67  O   UNL A   1      43.654  37.480  32.513  1.00  0.00    -0.237 OA
ATOM     68  O   UNL A   1      42.282  36.770  34.441  1.00  0.00    -0.237 OA
ATOM     69  O   UNL A   1      44.743  36.750  34.603  1.00  0.00    -0.744 OA
ENDBRANCH  65  66
ENDBRANCH  46  60
BRANCH  47  70
ATOM     70  C   UNL A   1      42.411  23.364  27.854  1.00  0.00    -0.014 A 
ATOM     71  C   UNL A   1      41.958  22.237  28.564  1.00  0.00     0.010 A 
ATOM     72  C   UNL A   1      42.792  23.204  26.507  1.00  0.00     0.010 A 
ATOM     73  C   UNL A   1      41.932  20.976  27.959  1.00  0.00     0.020 A 
ATOM     74  C   UNL A   1      42.729  21.954  25.886  1.00  0.00     0.020 A 
ATOM     75  C   UNL A   1      42.321  20.843  26.622  1.00  0.00     0.054 A 
BRANCH  75  76
ATOM     76  S   UNL A   1      42.275  19.198  25.857  1.00  0.00     0.124 S 
ATOM     77  O   UNL A   1      40.846  19.000  25.644  1.00  0.00    -0.237 OA
ATOM     78  O   UNL A   1      43.075  19.393  24.650  1.00  0.00    -0.237 OA
ATOM     79  O   UNL A   1      42.884  18.333  26.866  1.00  0.00    -0.744 OA
ENDBRANCH  75  76
ENDBRANCH  47  70
BRANCH  59  80
ATOM     80  C   UNL A   1      47.670  26.626  31.075  1.00  0.00    -0.014 A 
ATOM     81  C   UNL A   1      48.726  26.942  30.202  1.00  0.00     0.010 A 
ATOM     82  C   UNL A   1      47.953  25.968  32.286  1.00  0.00     0.010 A 
ATOM     83  C   UNL A   1      50.036  26.575  30.520  1.00  0.00     0.020 A 
ATOM     84  C   UNL A   1      49.265  25.637  32.626  1.00  0.00     0.020 A 
ATOM     85  C   UNL A   1      50.297  25.932  31.733  1.00  0.00     0.054 A 
BRANCH  85  86
ATOM     86  S   UNL A   1      52.014  25.518  32.145  1.00  0.00     0.124 S 
ATOM     87  O   UNL A   1      52.747  26.127  31.039  1.00  0.00    -0.237 OA
ATOM     88  O   UNL A   1      52.191  26.160  33.445  1.00  0.00    -0.237 OA
ATOM     89  O   UNL A   1      52.024  24.058  32.169  1.00  0.00    -0.744 OA
ENDBRANCH  85  86
ENDBRANCH  59  80
ENDBRANCH  33  34
ENDBRANCH  26  28
ENDBRANCH  25  26
ENDBRANCH  24  25
ENDBRANCH   1  24
TORSDOF 18
ENDMDL
MODEL 3
REMARK VINA RESULT:     -11.1      2.229      2.704
REMARK SMILES O=C(OCCOCCOC(=O)c1ccc(-c2c3nc(c(-c4ccc(S(=O)(=O)[O-])cc4)c4ccc([nH]4)c(-c4ccc(S(=O)(=O)[O-])cc4)c4nc(c(-c5ccc(S(=O)(=O)[O-])cc5)c5ccc2[nH]5)C=C4)C=C3)cc1)C1=Cc2ccc(Cl)c(Cl)c2O[C@@H]1C(F)(F)F
REMARK SMILES IDX 7 1 6 2 5 3 4 4 3 5 2 6 1 7 72 8 73 9 83 10 74 11 82 12
REMARK SMILES IDX 75 13 81 14 76 15 79 16 77 17 80 18 78 19 84 20 85 21 86 22
REMARK SMILES IDX 87 23 8 24 9 25 10 26 11 27 12 28 13 29 71 30 14 31 70 32
REMARK SMILES IDX 15 33 16 34 17 35 64 36 18 37 69 38 63 39 65 40 19 41 68 42
REMARK SMILES IDX 62 43 61 44 20 46 50 47 31 48 49 49 32 50 35 51 48 52 66 53
REMARK SMILES IDX 33 54 34 55 47 57 67 58 36 59 21 60 22 61 30 62 23 63 29 64
REMARK SMILES IDX 24 65 25 66 26 67 27 68 28 69 51 70 52 71 60 72 53 73 59 74
REMARK SMILES IDX 54 75 55 76 56 77 57 78 58 79 37 80 38 81 46 82 39 83 45 84
REMARK SMILES IDX 40 85 41 86 42 87 43 88 44 89
REMARK H PARENT 65 45 35 56
REMARK Flexibility Score: inf
ROOT
ATOM      1  C   UNL A   1      31.714  30.311  25.576  1.00  0.00     0.202 C 
ENDROOT
BRANCH   1   2
ATOM      2  O   UNL A   1      31.145  29.311  24.715  1.00  0.00    -0.374 OA
BRANCH   2   3
ATOM      3  C   UNL A   1      31.225  29.012  23.139  1.00  0.00     0.202 C 
BRANCH   3   4
ATOM      4  C   UNL A   1      31.425  27.173  21.998  1.00  0.00     0.261 C 
BRANCH   4   5
ATOM      5  O   UNL A   1      31.314  25.738  22.533  1.00  0.00    -0.460 OA
BRANCH   5   6
ATOM      6  C   UNL A   1      32.502  25.137  22.645  1.00  0.00     0.338 C 
ATOM      7  O   UNL A   1      33.251  24.754  21.784  1.00  0.00    -0.246 OA
BRANCH   6   8
ATOM      8  C   UNL A   1      32.359  24.783  24.041  1.00  0.00     0.087 C 
ATOM      9  C   UNL A   1      31.808  23.420  24.207  1.00  0.00     0.027 C 
ATOM     10  C   UNL A   1      34.137  25.328  24.569  1.00  0.00     0.316 C 
ATOM     11  C   UNL A   1      32.800  21.996  24.728  1.00  0.00     0.019 A 
ATOM     12  O   UNL A   1      35.234  23.814  25.055  1.00  0.00    -0.474 OA
ATOM     13  C   UNL A   1      32.241  20.753  24.630  1.00  0.00     0.013 A 
ATOM     14  C   UNL A   1      34.507  22.134  25.034  1.00  0.00     0.148 A 
ATOM     15  C   UNL A   1      33.154  19.696  24.706  1.00  0.00     0.023 A 
ATOM     16  C   UNL A   1      35.331  21.046  24.917  1.00  0.00     0.102 A 
ATOM     17  C   UNL A   1      34.606  19.828  24.779  1.00  0.00     0.063 A 
ATOM     18  Cl  UNL A   1      36.991  21.244  24.579  1.00  0.00    -0.079 Cl
ATOM     19  Cl  UNL A   1      35.395  18.299  24.569  1.00  0.00    -0.083 Cl
BRANCH  10  20
ATOM     20  C   UNL A   1      33.708  26.631  25.374  1.00  0.00     0.430 C 
ATOM     21  F   UNL A   1      34.473  26.956  26.429  1.00  0.00    -0.167 F 
ATOM     22  F   UNL A   1      33.846  27.690  24.514  1.00  0.00    -0.167 F 
ATOM     23  F   UNL A   1      32.406  26.672  25.742  1.00  0.00    -0.167 F 
ENDBRANCH  10  20
ENDBRANCH   6   8
ENDBRANCH   5   6
ENDBRANCH   4   5
ENDBRANCH   3   4
ENDBRANCH   2   3
ENDBRANCH   1   2
BRANCH   1  24
ATOM     24  C   UNL A   1      32.471  29.880  26.823  1.00  0.00     0.261 C 
BRANCH  24  25
ATOM     25  O   UNL A   1      33.856  30.158  26.759  1.00  0.00    -0.460 OA
BRANCH  25  26
ATOM     26  C   UNL A   1      34.248  31.183  27.547  1.00  0.00     0.338 C 
ATOM     27  O   UNL A   1      33.679  32.244  27.728  1.00  0.00    -0.246 OA
BRANCH  26  28
ATOM     28  C   UNL A   1      35.500  30.784  28.209  1.00  0.00     0.060 A 
ATOM     29  C   UNL A   1      35.495  29.611  28.967  1.00  0.00     0.016 A 
ATOM     30  C   UNL A   1      36.681  31.521  28.029  1.00  0.00     0.016 A 
ATOM     31  C   UNL A   1      36.692  29.140  29.496  1.00  0.00     0.010 A 
ATOM     32  C   UNL A   1      37.875  31.043  28.554  1.00  0.00     0.010 A 
ATOM     33  C   UNL A   1      37.887  29.842  29.273  1.00  0.00    -0.014 A 
BRANCH  33  34
ATOM     34  C   UNL A   1      39.132  29.407  29.936  1.00  0.00     0.031 A 
ATOM     35  C   UNL A   1      39.527  30.125  31.183  1.00  0.00     0.074 A 
ATOM     36  C   UNL A   1      39.893  28.417  29.434  1.00  0.00     0.049 A 
ATOM     37  N   UNL A   1      40.572  29.935  31.938  1.00  0.00    -0.248 NA
ATOM     38  C   UNL A   1      38.636  31.211  31.631  1.00  0.00     0.031 C 
ATOM     39  C   UNL A   1      39.603  27.674  28.217  1.00  0.00     0.029 A 
ATOM     40  N   UNL A   1      41.062  27.859  29.884  1.00  0.00    -0.354 N 
ATOM     41  C   UNL A   1      40.471  30.879  32.946  1.00  0.00     0.074 A 
ATOM     42  C   UNL A   1      39.278  31.656  32.699  1.00  0.00     0.031 C 
ATOM     43  C   UNL A   1      40.526  26.716  28.040  1.00  0.00     0.029 A 
ATOM     44  C   UNL A   1      41.535  26.843  29.082  1.00  0.00     0.049 A 
ATOM     45  H   UNL A   1      41.520  28.155  30.704  1.00  0.00     0.167 HD
ATOM     46  C   UNL A   1      41.312  31.078  33.983  1.00  0.00     0.031 A 
ATOM     47  C   UNL A   1      42.673  26.125  29.157  1.00  0.00     0.031 A 
ATOM     48  C   UNL A   1      42.516  30.323  34.187  1.00  0.00     0.049 A 
ATOM     49  C   UNL A   1      43.624  26.427  30.284  1.00  0.00     0.074 A 
ATOM     50  C   UNL A   1      43.430  30.437  35.218  1.00  0.00     0.029 A 
ATOM     51  N   UNL A   1      42.987  29.333  33.338  1.00  0.00    -0.354 N 
ATOM     52  N   UNL A   1      43.482  27.276  31.275  1.00  0.00    -0.248 NA
ATOM     53  C   UNL A   1      44.887  25.680  30.306  1.00  0.00     0.031 C 
ATOM     54  C   UNL A   1      44.493  29.574  34.950  1.00  0.00     0.029 A 
ATOM     55  C   UNL A   1      44.202  28.858  33.798  1.00  0.00     0.049 A 
ATOM     56  H   UNL A   1      42.526  29.016  32.528  1.00  0.00     0.167 HD
ATOM     57  C   UNL A   1      44.628  27.147  32.049  1.00  0.00     0.074 A 
ATOM     58  C   UNL A   1      45.436  26.116  31.431  1.00  0.00     0.031 C 
ATOM     59  C   UNL A   1      44.986  27.827  33.167  1.00  0.00     0.031 A 
BRANCH  46  60
ATOM     60  C   UNL A   1      40.979  32.182  34.943  1.00  0.00    -0.014 A 
ATOM     61  C   UNL A   1      40.153  31.955  36.057  1.00  0.00     0.010 A 
ATOM     62  C   UNL A   1      41.551  33.452  34.754  1.00  0.00     0.010 A 
ATOM     63  C   UNL A   1      39.901  32.984  36.966  1.00  0.00     0.020 A 
ATOM     64  C   UNL A   1      41.327  34.474  35.677  1.00  0.00     0.020 A 
ATOM     65  C   UNL A   1      40.501  34.233  36.775  1.00  0.00     0.054 A 
BRANCH  65  66
ATOM     66  S   UNL A   1      40.222  35.522  38.018  1.00  0.00     0.124 S 
ATOM     67  O   UNL A   1      39.087  34.985  38.764  1.00  0.00    -0.237 OA
ATOM     68  O   UNL A   1      41.493  35.544  38.739  1.00  0.00    -0.237 OA
ATOM     69  O   UNL A   1      39.938  36.715  37.225  1.00  0.00    -0.744 OA
ENDBRANCH  65  66
ENDBRANCH  46  60
BRANCH  47  70
ATOM     70  C   UNL A   1      43.013  25.107  28.120  1.00  0.00    -0.014 A 
ATOM     71  C   UNL A   1      42.547  23.783  28.222  1.00  0.00     0.010 A 
ATOM     72  C   UNL A   1      43.856  25.443  27.042  1.00  0.00     0.010 A 
ATOM     73  C   UNL A   1      42.952  22.811  27.300  1.00  0.00     0.020 A 
ATOM     74  C   UNL A   1      44.230  24.486  26.095  1.00  0.00     0.020 A 
ATOM     75  C   UNL A   1      43.793  23.170  26.243  1.00  0.00     0.054 A 
BRANCH  75  76
ATOM     76  S   UNL A   1      44.302  21.894  25.058  1.00  0.00     0.124 S 
ATOM     77  O   UNL A   1      45.648  21.570  25.518  1.00  0.00    -0.237 OA
ATOM     78  O   UNL A   1      43.294  20.855  25.264  1.00  0.00    -0.237 OA
ATOM     79  O   UNL A   1      44.229  22.574  23.767  1.00  0.00    -0.744 OA
ENDBRANCH  75  76
ENDBRANCH  47  70
BRANCH  59  80
ATOM     80  C   UNL A   1      46.292  27.451  33.813  1.00  0.00    -0.014 A 
ATOM     81  C   UNL A   1      46.366  26.422  34.769  1.00  0.00     0.010 A 
ATOM     82  C   UNL A   1      47.473  28.099  33.409  1.00  0.00     0.010 A 
ATOM     83  C   UNL A   1      47.595  26.073  35.334  1.00  0.00     0.020 A 
ATOM     84  C   UNL A   1      48.708  27.724  33.941  1.00  0.00     0.020 A 
ATOM     85  C   UNL A   1      48.758  26.721  34.910  1.00  0.00     0.054 A 
BRANCH  85  86
ATOM     86  S   UNL A   1      50.346  26.208  35.619  1.00  0.00     0.124 S 
ATOM     87  O   UNL A   1      50.456  27.083  36.783  1.00  0.00    -0.237 OA
ATOM     88  O   UNL A   1      50.119  24.795  35.915  1.00  0.00    -0.237 OA
ATOM     89  O   UNL A   1      51.306  26.470  34.550  1.00  0.00    -0.744 OA
ENDBRANCH  85  86
ENDBRANCH  59  80
ENDBRANCH  33  34
ENDBRANCH  26  28
ENDBRANCH  25  26
ENDBRANCH  24  25
ENDBRANCH   1  24
TORSDOF 18
ENDMDL
