MODEL 1
REMARK VINA RESULT:     -10.3      0.000      0.000
REMARK SMILES O=C(OCCOCCOC(=O)[C@@H]1[C@H](C(=O)NCc2ccncc2)[C@H]2C=C[C@@H]1O2)c1ccc(-c2c3nc(c(-c4ccc(S(=O)(=O)[O-])cc4)c4ccc([nH]4)c(-c4ccc(S(=O)(=O)[O-])cc4)c4nc(c(-c5ccc(S(=O)(=O)[O-])cc5)c5ccc2[nH]5)C=C4)C=C3)cc1
REMARK SMILES IDX 6 1 5 2 4 3 3 4 2 5 1 6 29 7 30 8 88 9 31 10 87 11 32 12
REMARK SMILES IDX 33 13 34 14 81 15 35 16 86 17 80 18 82 19 36 20 85 21 79 22
REMARK SMILES IDX 78 23 37 25 67 26 48 27 66 28 49 29 52 30 65 31 83 32 50 33
REMARK SMILES IDX 51 34 64 36 84 37 53 38 38 39 39 40 47 41 40 42 46 43 41 44
REMARK SMILES IDX 42 45 43 46 44 47 45 48 68 49 69 50 77 51 70 52 76 53 71 54
REMARK SMILES IDX 72 55 73 56 74 57 75 58 54 59 55 60 63 61 56 62 62 63 57 64
REMARK SMILES IDX 58 65 59 66 60 67 61 68 7 69 8 70 9 71 10 72 11 73 12 74
REMARK SMILES IDX 13 75 27 76 24 77 26 78 28 79 25 80 14 81 15 82 16 83 17 85
REMARK SMILES IDX 18 86 19 87 23 88 20 89 22 90 21 91
REMARK H PARENT 82 24 52 35 16 84
REMARK Flexibility Score: inf
ROOT
ATOM      1  O   UNL A   1      32.662  27.042  24.734  1.00  0.00    -0.374 OA
ENDROOT
BRANCH   1   2
ATOM      2  C   UNL A   1      33.443  27.222  25.911  1.00  0.00     0.202 C 
BRANCH   2   3
ATOM      3  C   UNL A   1      33.024  28.358  26.860  1.00  0.00     0.261 C 
BRANCH   3   4
ATOM      4  O   UNL A   1      33.810  29.551  26.682  1.00  0.00    -0.460 OA
BRANCH   4   5
ATOM      5  C   UNL A   1      34.490  30.213  27.656  1.00  0.00     0.338 C 
ATOM      6  O   UNL A   1      33.998  31.237  28.127  1.00  0.00    -0.246 OA
BRANCH   5   7
ATOM      7  C   UNL A   1      35.913  29.874  27.990  1.00  0.00     0.060 A 
ATOM      8  C   UNL A   1      36.975  29.935  27.091  1.00  0.00     0.016 A 
ATOM      9  C   UNL A   1      36.213  29.550  29.327  1.00  0.00     0.016 A 
ATOM     10  C   UNL A   1      38.288  29.854  27.508  1.00  0.00     0.010 A 
ATOM     11  C   UNL A   1      37.537  29.350  29.742  1.00  0.00     0.010 A 
ATOM     12  C   UNL A   1      38.574  29.524  28.825  1.00  0.00    -0.014 A 
BRANCH  12  13
ATOM     13  C   UNL A   1      39.968  29.129  29.065  1.00  0.00     0.031 A 
ATOM     14  C   UNL A   1      40.790  30.070  29.894  1.00  0.00     0.074 A 
ATOM     15  C   UNL A   1      40.365  27.874  28.792  1.00  0.00     0.049 A 
ATOM     16  N   UNL A   1      41.965  29.892  30.426  1.00  0.00    -0.248 NA
ATOM     17  C   UNL A   1      40.165  31.367  30.225  1.00  0.00     0.031 C 
ATOM     18  C   UNL A   1      39.540  26.842  28.159  1.00  0.00     0.029 A 
ATOM     19  N   UNL A   1      41.547  27.241  29.062  1.00  0.00    -0.354 N 
ATOM     20  C   UNL A   1      42.210  31.040  31.168  1.00  0.00     0.074 A 
ATOM     21  C   UNL A   1      41.067  31.908  31.027  1.00  0.00     0.031 C 
ATOM     22  C   UNL A   1      40.246  25.701  28.090  1.00  0.00     0.029 A 
ATOM     23  C   UNL A   1      41.580  25.934  28.639  1.00  0.00     0.049 A 
ATOM     24  H   UNL A   1      42.302  27.679  29.517  1.00  0.00     0.167 HD
ATOM     25  C   UNL A   1      43.311  31.348  31.889  1.00  0.00     0.031 A 
ATOM     26  C   UNL A   1      42.593  25.046  28.676  1.00  0.00     0.031 A 
ATOM     27  C   UNL A   1      44.469  30.502  31.930  1.00  0.00     0.049 A 
ATOM     28  C   UNL A   1      43.885  25.492  29.311  1.00  0.00     0.074 A 
ATOM     29  C   UNL A   1      45.702  30.750  32.499  1.00  0.00     0.029 A 
ATOM     30  N   UNL A   1      44.532  29.242  31.346  1.00  0.00    -0.354 N 
ATOM     31  N   UNL A   1      44.145  26.611  29.951  1.00  0.00    -0.248 NA
ATOM     32  C   UNL A   1      45.022  24.569  29.227  1.00  0.00     0.031 C 
ATOM     33  C   UNL A   1      46.533  29.665  32.200  1.00  0.00     0.029 A 
ATOM     34  C   UNL A   1      45.796  28.711  31.512  1.00  0.00     0.049 A 
ATOM     35  H   UNL A   1      43.788  28.795  30.884  1.00  0.00     0.167 HD
ATOM     36  C   UNL A   1      45.470  26.519  30.360  1.00  0.00     0.074 A 
ATOM     37  C   UNL A   1      45.950  25.225  29.911  1.00  0.00     0.031 C 
ATOM     38  C   UNL A   1      46.226  27.416  31.042  1.00  0.00     0.031 A 
BRANCH  25  39
ATOM     39  C   UNL A   1      43.331  32.692  32.560  1.00  0.00    -0.014 A 
ATOM     40  C   UNL A   1      43.080  32.832  33.937  1.00  0.00     0.010 A 
ATOM     41  C   UNL A   1      43.552  33.844  31.783  1.00  0.00     0.010 A 
ATOM     42  C   UNL A   1      43.012  34.103  34.517  1.00  0.00     0.020 A 
ATOM     43  C   UNL A   1      43.507  35.114  32.362  1.00  0.00     0.020 A 
ATOM     44  C   UNL A   1      43.220  35.236  33.723  1.00  0.00     0.054 A 
BRANCH  44  45
ATOM     45  S   UNL A   1      43.118  36.874  34.497  1.00  0.00     0.124 S 
ATOM     46  O   UNL A   1      44.194  36.808  35.483  1.00  0.00    -0.237 OA
ATOM     47  O   UNL A   1      43.352  37.774  33.371  1.00  0.00    -0.237 OA
ATOM     48  O   UNL A   1      41.768  36.911  35.053  1.00  0.00    -0.744 OA
ENDBRANCH  44  45
ENDBRANCH  25  39
BRANCH  26  49
ATOM     49  C   UNL A   1      42.454  23.706  28.035  1.00  0.00    -0.014 A 
ATOM     50  C   UNL A   1      42.873  23.472  26.715  1.00  0.00     0.010 A 
ATOM     51  C   UNL A   1      41.868  22.646  28.755  1.00  0.00     0.010 A 
ATOM     52  C   UNL A   1      42.694  22.214  26.124  1.00  0.00     0.020 A 
ATOM     53  C   UNL A   1      41.714  21.381  28.181  1.00  0.00     0.020 A 
ATOM     54  C   UNL A   1      42.116  21.176  26.862  1.00  0.00     0.054 A 
BRANCH  54  55
ATOM     55  S   UNL A   1      41.919  19.546  26.088  1.00  0.00     0.124 S 
ATOM     56  O   UNL A   1      42.730  19.679  24.882  1.00  0.00    -0.237 OA
ATOM     57  O   UNL A   1      42.446  18.646  27.110  1.00  0.00    -0.237 OA
ATOM     58  O   UNL A   1      40.478  19.445  25.865  1.00  0.00    -0.744 OA
ENDBRANCH  54  55
ENDBRANCH  26  49
BRANCH  38  59
ATOM     59  C   UNL A   1      47.638  27.016  31.366  1.00  0.00    -0.014 A 
ATOM     60  C   UNL A   1      47.950  26.354  32.563  1.00  0.00     0.010 A 
ATOM     61  C   UNL A   1      48.646  27.228  30.407  1.00  0.00     0.010 A 
ATOM     62  C   UNL A   1      49.255  25.928  32.809  1.00  0.00     0.020 A 
ATOM     63  C   UNL A   1      49.945  26.776  30.636  1.00  0.00     0.020 A 
ATOM     64  C   UNL A   1      50.243  26.137  31.841  1.00  0.00     0.054 A 
BRANCH  64  65
ATOM     65  S   UNL A   1      51.917  25.514  32.155  1.00  0.00     0.124 S 
ATOM     66  O   UNL A   1      52.657  26.047  31.015  1.00  0.00    -0.237 OA
ATOM     67  O   UNL A   1      52.241  26.107  33.449  1.00  0.00    -0.237 OA
ATOM     68  O   UNL A   1      51.749  24.063  32.166  1.00  0.00    -0.744 OA
ENDBRANCH  64  65
ENDBRANCH  38  59
ENDBRANCH  12  13
ENDBRANCH   5   7
ENDBRANCH   4   5
ENDBRANCH   3   4
ENDBRANCH   2   3
ENDBRANCH   1   2
BRANCH   1  69
ATOM     69  C   UNL A   1      31.310  26.609  24.925  1.00  0.00     0.202 C 
BRANCH  69  70
ATOM     70  C   UNL A   1      31.222  25.550  26.010  1.00  0.00     0.261 C 
BRANCH  70  71
ATOM     71  O   UNL A   1      31.603  24.299  25.415  1.00  0.00    -0.463 OA
BRANCH  71  72
ATOM     72  C   UNL A   1      32.509  23.577  26.098  1.00  0.00     0.312 C 
ATOM     73  O   UNL A   1      32.288  22.943  27.120  1.00  0.00    -0.252 OA
BRANCH  72  74
ATOM     74  C   UNL A   1      33.844  23.539  25.421  1.00  0.00     0.147 C 
ATOM     75  C   UNL A   1      33.996  22.737  24.115  1.00  0.00     0.128 C 
ATOM     76  C   UNL A   1      35.015  22.998  26.262  1.00  0.00     0.157 C 
ATOM     77  C   UNL A   1      35.367  22.096  24.315  1.00  0.00     0.155 C 
ATOM     78  C   UNL A   1      36.263  23.647  25.749  1.00  0.00     0.004 C 
ATOM     79  O   UNL A   1      35.246  21.688  25.697  1.00  0.00    -0.365 OA
ATOM     80  C   UNL A   1      36.453  23.134  24.522  1.00  0.00     0.004 C 
BRANCH  75  81
ATOM     81  C   UNL A   1      32.833  21.829  23.711  1.00  0.00     0.227 C 
ATOM     82  O   UNL A   1      32.179  22.169  22.714  1.00  0.00    -0.275 OA
ATOM     83  N   UNL A   1      32.377  20.716  24.329  1.00  0.00    -0.352 N 
ATOM     84  H   UNL A   1      31.529  20.401  23.939  1.00  0.00     0.163 HD
BRANCH  83  85
ATOM     85  C   UNL A   1      32.822  19.864  25.425  1.00  0.00     0.151 C 
BRANCH  85  86
ATOM     86  C   UNL A   1      33.122  18.427  25.050  1.00  0.00    -0.026 A 
ATOM     87  C   UNL A   1      33.856  18.159  23.883  1.00  0.00     0.025 A 
ATOM     88  C   UNL A   1      32.646  17.331  25.777  1.00  0.00     0.025 A 
ATOM     89  C   UNL A   1      34.112  16.843  23.523  1.00  0.00     0.111 A 
ATOM     90  C   UNL A   1      32.960  16.048  25.343  1.00  0.00     0.111 A 
ATOM     91  N   UNL A   1      33.686  15.783  24.236  1.00  0.00    -0.265 NA
ENDBRANCH  85  86
ENDBRANCH  83  85
ENDBRANCH  75  81
ENDBRANCH  72  74
ENDBRANCH  71  72
ENDBRANCH  70  71
ENDBRANCH  69  70
ENDBRANCH   1  69
TORSDOF 20
ENDMDL
MODEL 2
REMARK VINA RESULT:      -9.9      2.326      3.006
REMARK SMILES O=C(OCCOCCOC(=O)[C@@H]1[C@H](C(=O)NCc2ccncc2)[C@H]2C=C[C@@H]1O2)c1ccc(-c2c3nc(c(-c4ccc(S(=O)(=O)[O-])cc4)c4ccc([nH]4)c(-c4ccc(S(=O)(=O)[O-])cc4)c4nc(c(-c5ccc(S(=O)(=O)[O-])cc5)c5ccc2[nH]5)C=C4)C=C3)cc1
REMARK SMILES IDX 6 1 5 2 4 3 3 4 2 5 1 6 29 7 30 8 88 9 31 10 87 11 32 12
REMARK SMILES IDX 33 13 34 14 81 15 35 16 86 17 80 18 82 19 36 20 85 21 79 22
REMARK SMILES IDX 78 23 37 25 67 26 48 27 66 28 49 29 52 30 65 31 83 32 50 33
REMARK SMILES IDX 51 34 64 36 84 37 53 38 38 39 39 40 47 41 40 42 46 43 41 44
REMARK SMILES IDX 42 45 43 46 44 47 45 48 68 49 69 50 77 51 70 52 76 53 71 54
REMARK SMILES IDX 72 55 73 56 74 57 75 58 54 59 55 60 63 61 56 62 62 63 57 64
REMARK SMILES IDX 58 65 59 66 60 67 61 68 7 69 8 70 9 71 10 72 11 73 12 74
REMARK SMILES IDX 13 75 27 76 24 77 26 78 28 79 25 80 14 81 15 82 16 83 17 85
REMARK SMILES IDX 18 86 19 87 23 88 20 89 22 90 21 91
REMARK H PARENT 82 24 52 35 16 84
REMARK Flexibility Score: inf
ROOT
ATOM      1  O   UNL A   1      32.577  28.705  25.324  1.00  0.00    -0.374 OA
ENDROOT
BRANCH   1   2
ATOM      2  C   UNL A   1      32.151  29.937  25.898  1.00  0.00     0.202 C 
BRANCH   2   3
ATOM      3  C   UNL A   1      32.744  30.313  27.267  1.00  0.00     0.261 C 
BRANCH   3   4
ATOM      4  O   UNL A   1      33.712  31.375  27.181  1.00  0.00    -0.460 OA
BRANCH   4   5
ATOM      5  C   UNL A   1      34.303  32.005  28.231  1.00  0.00     0.338 C 
ATOM      6  O   UNL A   1      33.833  33.073  28.619  1.00  0.00    -0.246 OA
BRANCH   5   7
ATOM      7  C   UNL A   1      35.636  31.567  28.761  1.00  0.00     0.060 A 
ATOM      8  C   UNL A   1      35.879  30.347  29.387  1.00  0.00     0.016 A 
ATOM      9  C   UNL A   1      36.740  32.413  28.538  1.00  0.00     0.016 A 
ATOM     10  C   UNL A   1      37.161  29.894  29.628  1.00  0.00     0.010 A 
ATOM     11  C   UNL A   1      38.038  32.013  28.886  1.00  0.00     0.010 A 
ATOM     12  C   UNL A   1      38.241  30.739  29.415  1.00  0.00    -0.014 A 
BRANCH  12  13
ATOM     13  C   UNL A   1      39.498  30.286  30.027  1.00  0.00     0.031 A 
ATOM     14  C   UNL A   1      39.858  30.914  31.340  1.00  0.00     0.074 A 
ATOM     15  C   UNL A   1      40.110  29.182  29.563  1.00  0.00     0.049 A 
ATOM     16  N   UNL A   1      40.783  30.575  32.192  1.00  0.00    -0.248 NA
ATOM     17  C   UNL A   1      39.010  32.039  31.783  1.00  0.00     0.031 C 
ATOM     18  C   UNL A   1      39.687  28.406  28.395  1.00  0.00     0.029 A 
ATOM     19  N   UNL A   1      41.186  28.495  30.053  1.00  0.00    -0.354 N 
ATOM     20  C   UNL A   1      40.615  31.427  33.276  1.00  0.00     0.074 A 
ATOM     21  C   UNL A   1      39.501  32.296  32.984  1.00  0.00     0.031 C 
ATOM     22  C   UNL A   1      40.501  27.345  28.259  1.00  0.00     0.029 A 
ATOM     23  C   UNL A   1      41.518  27.390  29.306  1.00  0.00     0.049 A 
ATOM     24  H   UNL A   1      41.675  28.765  30.863  1.00  0.00     0.167 HD
ATOM     25  C   UNL A   1      41.347  31.488  34.410  1.00  0.00     0.031 A 
ATOM     26  C   UNL A   1      42.550  26.535  29.453  1.00  0.00     0.031 A 
ATOM     27  C   UNL A   1      42.506  30.672  34.626  1.00  0.00     0.049 A 
ATOM     28  C   UNL A   1      43.474  26.754  30.624  1.00  0.00     0.074 A 
ATOM     29  C   UNL A   1      43.422  30.725  35.658  1.00  0.00     0.029 A 
ATOM     30  N   UNL A   1      42.918  29.663  33.764  1.00  0.00    -0.354 N 
ATOM     31  N   UNL A   1      43.359  27.612  31.614  1.00  0.00    -0.248 NA
ATOM     32  C   UNL A   1      44.667  25.905  30.699  1.00  0.00     0.031 C 
ATOM     33  C   UNL A   1      44.426  29.790  35.383  1.00  0.00     0.029 A 
ATOM     34  C   UNL A   1      44.096  29.106  34.222  1.00  0.00     0.049 A 
ATOM     35  H   UNL A   1      42.443  29.387  32.948  1.00  0.00     0.167 HD
ATOM     36  C   UNL A   1      44.455  27.394  32.439  1.00  0.00     0.074 A 
ATOM     37  C   UNL A   1      45.210  26.309  31.839  1.00  0.00     0.031 C 
ATOM     38  C   UNL A   1      44.812  28.026  33.585  1.00  0.00     0.031 A 
BRANCH  25  39
ATOM     39  C   UNL A   1      40.972  32.550  35.406  1.00  0.00    -0.014 A 
ATOM     40  C   UNL A   1      41.529  33.840  35.351  1.00  0.00     0.010 A 
ATOM     41  C   UNL A   1      40.085  32.229  36.449  1.00  0.00     0.010 A 
ATOM     42  C   UNL A   1      41.235  34.779  36.346  1.00  0.00     0.020 A 
ATOM     43  C   UNL A   1      39.771  33.170  37.431  1.00  0.00     0.020 A 
ATOM     44  C   UNL A   1      40.361  34.434  37.383  1.00  0.00     0.054 A 
BRANCH  44  45
ATOM     45  S   UNL A   1      40.002  35.666  38.665  1.00  0.00     0.124 S 
ATOM     46  O   UNL A   1      41.293  35.789  39.337  1.00  0.00    -0.237 OA
ATOM     47  O   UNL A   1      39.587  36.829  37.884  1.00  0.00    -0.237 OA
ATOM     48  O   UNL A   1      38.945  35.043  39.459  1.00  0.00    -0.744 OA
ENDBRANCH  44  45
ENDBRANCH  25  39
BRANCH  26  49
ATOM     49  C   UNL A   1      42.803  25.469  28.441  1.00  0.00    -0.014 A 
ATOM     50  C   UNL A   1      43.577  25.708  27.293  1.00  0.00     0.010 A 
ATOM     51  C   UNL A   1      42.239  24.190  28.620  1.00  0.00     0.010 A 
ATOM     52  C   UNL A   1      43.766  24.700  26.339  1.00  0.00     0.020 A 
ATOM     53  C   UNL A   1      42.449  23.171  27.685  1.00  0.00     0.020 A 
ATOM     54  C   UNL A   1      43.201  23.437  26.543  1.00  0.00     0.054 A 
BRANCH  54  55
ATOM     55  S   UNL A   1      43.481  22.136  25.309  1.00  0.00     0.124 S 
ATOM     56  O   UNL A   1      42.376  21.221  25.572  1.00  0.00    -0.237 OA
ATOM     57  O   UNL A   1      43.407  22.873  24.050  1.00  0.00    -0.237 OA
ATOM     58  O   UNL A   1      44.809  21.625  25.644  1.00  0.00    -0.744 OA
ENDBRANCH  54  55
ENDBRANCH  26  49
BRANCH  38  59
ATOM     59  C   UNL A   1      46.056  27.543  34.276  1.00  0.00    -0.014 A 
ATOM     60  C   UNL A   1      46.009  26.492  35.206  1.00  0.00     0.010 A 
ATOM     61  C   UNL A   1      47.298  28.093  33.912  1.00  0.00     0.010 A 
ATOM     62  C   UNL A   1      47.187  26.011  35.780  1.00  0.00     0.020 A 
ATOM     63  C   UNL A   1      48.480  27.594  34.461  1.00  0.00     0.020 A 
ATOM     64  C   UNL A   1      48.414  26.563  35.400  1.00  0.00     0.054 A 
BRANCH  64  65
ATOM     65  S   UNL A   1      49.935  25.875  36.109  1.00  0.00     0.124 S 
ATOM     66  O   UNL A   1      49.786  26.207  37.523  1.00  0.00    -0.237 OA
ATOM     67  O   UNL A   1      49.827  24.456  35.780  1.00  0.00    -0.237 OA
ATOM     68  O   UNL A   1      50.998  26.592  35.409  1.00  0.00    -0.744 OA
ENDBRANCH  64  65
ENDBRANCH  38  59
ENDBRANCH  12  13
ENDBRANCH   5   7
ENDBRANCH   4   5
ENDBRANCH   3   4
ENDBRANCH   2   3
ENDBRANCH   1   2
BRANCH   1  69
ATOM     69  C   UNL A   1      33.562  27.967  26.057  1.00  0.00     0.202 C 
BRANCH  69  70
ATOM     70  C   UNL A   1      33.920  26.674  25.345  1.00  0.00     0.261 C 
BRANCH  70  71
ATOM     71  O   UNL A   1      32.896  25.717  25.662  1.00  0.00    -0.463 OA
BRANCH  71  72
ATOM     72  C   UNL A   1      33.325  24.484  25.984  1.00  0.00     0.312 C 
ATOM     73  O   UNL A   1      32.771  23.718  26.759  1.00  0.00    -0.252 OA
BRANCH  72  74
ATOM     74  C   UNL A   1      34.541  24.077  25.210  1.00  0.00     0.147 C 
ATOM     75  C   UNL A   1      34.361  23.337  23.872  1.00  0.00     0.128 C 
ATOM     76  C   UNL A   1      35.539  23.163  25.946  1.00  0.00     0.157 C 
ATOM     77  C   UNL A   1      35.480  22.300  23.951  1.00  0.00     0.155 C 
ATOM     78  C   UNL A   1      36.892  23.429  25.363  1.00  0.00     0.004 C 
ATOM     79  O   UNL A   1      35.322  21.876  25.325  1.00  0.00    -0.365 OA
ATOM     80  C   UNL A   1      36.842  22.947  24.110  1.00  0.00     0.004 C 
BRANCH  75  81
ATOM     81  C   UNL A   1      32.954  22.847  23.527  1.00  0.00     0.227 C 
ATOM     82  O   UNL A   1      32.310  23.526  22.712  1.00  0.00    -0.275 OA
ATOM     83  N   UNL A   1      32.281  21.787  24.030  1.00  0.00    -0.352 N 
ATOM     84  H   UNL A   1      31.340  21.778  23.739  1.00  0.00     0.163 HD
BRANCH  83  85
ATOM     85  C   UNL A   1      32.594  20.657  24.896  1.00  0.00     0.151 C 
BRANCH  85  86
ATOM     86  C   UNL A   1      32.952  19.371  24.179  1.00  0.00    -0.026 A 
ATOM     87  C   UNL A   1      34.072  18.636  24.602  1.00  0.00     0.025 A 
ATOM     88  C   UNL A   1      32.258  18.900  23.060  1.00  0.00     0.025 A 
ATOM     89  C   UNL A   1      34.417  17.470  23.931  1.00  0.00     0.111 A 
ATOM     90  C   UNL A   1      32.673  17.717  22.459  1.00  0.00     0.111 A 
ATOM     91  N   UNL A   1      33.733  16.992  22.874  1.00  0.00    -0.265 NA
ENDBRANCH  85  86
ENDBRANCH  83  85
ENDBRANCH  75  81
ENDBRANCH  72  74
ENDBRANCH  71  72
ENDBRANCH  70  71
ENDBRANCH  69  70
ENDBRANCH   1  69
TORSDOF 20
ENDMDL
MODEL 3
REMARK VINA RESULT:      -9.8      3.829      9.343
REMARK SMILES O=C(OCCOCCOC(=O)[C@@H]1[C@H](C(=O)NCc2ccncc2)[C@H]2C=C[C@@H]1O2)c1ccc(-c2c3nc(c(-c4ccc(S(=O)(=O)[O-])cc4)c4ccc([nH]4)c(-c4ccc(S(=O)(=O)[O-])cc4)c4nc(c(-c5ccc(S(=O)(=O)[O-])cc5)c5ccc2[nH]5)C=C4)C=C3)cc1
REMARK SMILES IDX 6 1 5 2 4 3 3 4 2 5 1 6 29 7 30 8 88 9 31 10 87 11 32 12
REMARK SMILES IDX 33 13 34 14 81 15 35 16 86 17 80 18 82 19 36 20 85 21 79 22
REMARK SMILES IDX 78 23 37 25 67 26 48 27 66 28 49 29 52 30 65 31 83 32 50 33
REMARK SMILES IDX 51 34 64 36 84 37 53 38 38 39 39 40 47 41 40 42 46 43 41 44
REMARK SMILES IDX 42 45 43 46 44 47 45 48 68 49 69 50 77 51 70 52 76 53 71 54
REMARK SMILES IDX 72 55 73 56 74 57 75 58 54 59 55 60 63 61 56 62 62 63 57 64
REMARK SMILES IDX 58 65 59 66 60 67 61 68 7 69 8 70 9 71 10 72 11 73 12 74
REMARK SMILES IDX 13 75 27 76 24 77 26 78 28 79 25 80 14 81 15 82 16 83 17 85
REMARK SMILES IDX 18 86 19 87 23 88 20 89 22 90 21 91
REMARK H PARENT 82 24 52 35 16 84
REMARK Flexibility Score: inf
ROOT
ATOM      1  O   UNL A   1      34.702  31.597  27.641  1.00  0.00    -0.374 OA
ENDROOT
BRANCH   1   2
ATOM      2  C   UNL A   1      35.917  31.965  28.287  1.00  0.00     0.202 C 
BRANCH   2   3
ATOM      3  C   UNL A   1      35.832  32.344  29.775  1.00  0.00     0.261 C 
BRANCH   3   4
ATOM      4  O   UNL A   1      36.696  31.545  30.603  1.00  0.00    -0.460 OA
BRANCH   4   5
ATOM      5  C   UNL A   1      37.116  30.280  30.334  1.00  0.00     0.338 C 
ATOM      6  O   UNL A   1      36.359  29.342  30.575  1.00  0.00    -0.246 OA
BRANCH   5   7
ATOM      7  C   UNL A   1      38.546  29.984  29.989  1.00  0.00     0.060 A 
ATOM      8  C   UNL A   1      39.020  29.753  28.700  1.00  0.00     0.016 A 
ATOM      9  C   UNL A   1      39.493  30.023  31.031  1.00  0.00     0.016 A 
ATOM     10  C   UNL A   1      40.371  29.733  28.413  1.00  0.00     0.010 A 
ATOM     11  C   UNL A   1      40.863  29.888  30.767  1.00  0.00     0.010 A 
ATOM     12  C   UNL A   1      41.295  29.761  29.447  1.00  0.00    -0.014 A 
BRANCH  12  13
ATOM     13  C   UNL A   1      42.660  29.387  29.053  1.00  0.00     0.031 A 
ATOM     14  C   UNL A   1      42.846  27.980  28.568  1.00  0.00     0.074 A 
ATOM     15  C   UNL A   1      43.593  30.338  28.879  1.00  0.00     0.049 A 
ATOM     16  N   UNL A   1      43.872  27.437  27.978  1.00  0.00    -0.248 NA
ATOM     17  C   UNL A   1      41.682  27.079  28.707  1.00  0.00     0.031 C 
ATOM     18  C   UNL A   1      43.408  31.766  29.148  1.00  0.00     0.029 A 
ATOM     19  N   UNL A   1      44.864  30.251  28.382  1.00  0.00    -0.354 N 
ATOM     20  C   UNL A   1      43.473  26.146  27.658  1.00  0.00     0.074 A 
ATOM     21  C   UNL A   1      42.113  25.980  28.111  1.00  0.00     0.031 C 
ATOM     22  C   UNL A   1      44.532  32.422  28.813  1.00  0.00     0.029 A 
ATOM     23  C   UNL A   1      45.522  31.457  28.340  1.00  0.00     0.049 A 
ATOM     24  H   UNL A   1      45.269  29.406  28.082  1.00  0.00     0.167 HD
ATOM     25  C   UNL A   1      44.194  25.176  27.055  1.00  0.00     0.031 A 
ATOM     26  C   UNL A   1      46.792  31.729  27.982  1.00  0.00     0.031 A 
ATOM     27  C   UNL A   1      45.574  25.344  26.703  1.00  0.00     0.049 A 
ATOM     28  C   UNL A   1      47.640  30.579  27.501  1.00  0.00     0.074 A 
ATOM     29  C   UNL A   1      46.465  24.408  26.219  1.00  0.00     0.029 A 
ATOM     30  N   UNL A   1      46.267  26.543  26.828  1.00  0.00    -0.354 N 
ATOM     31  N   UNL A   1      47.284  29.334  27.268  1.00  0.00    -0.248 NA
ATOM     32  C   UNL A   1      49.056  30.858  27.241  1.00  0.00     0.031 C 
ATOM     33  C   UNL A   1      47.716  25.025  26.115  1.00  0.00     0.029 A 
ATOM     34  C   UNL A   1      47.587  26.362  26.462  1.00  0.00     0.049 A 
ATOM     35  H   UNL A   1      45.877  27.393  27.132  1.00  0.00     0.167 HD
ATOM     36  C   UNL A   1      48.428  28.687  26.818  1.00  0.00     0.074 A 
ATOM     37  C   UNL A   1      49.482  29.684  26.794  1.00  0.00     0.031 C 
ATOM     38  C   UNL A   1      48.600  27.390  26.458  1.00  0.00     0.031 A 
BRANCH  25  39
ATOM     39  C   UNL A   1      43.524  23.842  26.874  1.00  0.00    -0.014 A 
ATOM     40  C   UNL A   1      43.087  23.403  25.611  1.00  0.00     0.010 A 
ATOM     41  C   UNL A   1      43.280  23.039  28.002  1.00  0.00     0.010 A 
ATOM     42  C   UNL A   1      42.382  22.201  25.487  1.00  0.00     0.020 A 
ATOM     43  C   UNL A   1      42.597  21.827  27.879  1.00  0.00     0.020 A 
ATOM     44  C   UNL A   1      42.137  21.424  26.624  1.00  0.00     0.054 A 
BRANCH  44  45
ATOM     45  S   UNL A   1      41.214  19.873  26.438  1.00  0.00     0.124 S 
ATOM     46  O   UNL A   1      41.344  19.283  27.768  1.00  0.00    -0.237 OA
ATOM     47  O   UNL A   1      39.875  20.339  26.085  1.00  0.00    -0.237 OA
ATOM     48  O   UNL A   1      41.927  19.171  25.373  1.00  0.00    -0.744 OA
ENDBRANCH  44  45
ENDBRANCH  25  39
BRANCH  26  49
ATOM     49  C   UNL A   1      47.349  33.103  28.138  1.00  0.00    -0.014 A 
ATOM     50  C   UNL A   1      47.879  33.551  29.360  1.00  0.00     0.010 A 
ATOM     51  C   UNL A   1      47.329  33.993  27.046  1.00  0.00     0.010 A 
ATOM     52  C   UNL A   1      48.359  34.861  29.491  1.00  0.00     0.020 A 
ATOM     53  C   UNL A   1      47.833  35.292  27.162  1.00  0.00     0.020 A 
ATOM     54  C   UNL A   1      48.334  35.722  28.390  1.00  0.00     0.054 A 
BRANCH  54  55
ATOM     55  S   UNL A   1      48.987  37.406  28.571  1.00  0.00     0.124 S 
ATOM     56  O   UNL A   1      50.415  37.164  28.743  1.00  0.00    -0.237 OA
ATOM     57  O   UNL A   1      48.597  38.033  27.311  1.00  0.00    -0.237 OA
ATOM     58  O   UNL A   1      48.293  37.917  29.752  1.00  0.00    -0.744 OA
ENDBRANCH  54  55
ENDBRANCH  26  49
BRANCH  38  59
ATOM     59  C   UNL A   1      49.967  26.986  25.983  1.00  0.00    -0.014 A 
ATOM     60  C   UNL A   1      50.401  27.279  24.680  1.00  0.00     0.010 A 
ATOM     61  C   UNL A   1      50.859  26.389  26.893  1.00  0.00     0.010 A 
ATOM     62  C   UNL A   1      51.700  26.959  24.286  1.00  0.00     0.020 A 
ATOM     63  C   UNL A   1      52.168  26.096  26.512  1.00  0.00     0.020 A 
ATOM     64  C   UNL A   1      52.577  26.374  25.206  1.00  0.00     0.054 A 
BRANCH  64  65
ATOM     65  S   UNL A   1      54.280  26.031  24.689  1.00  0.00     0.124 S 
ATOM     66  O   UNL A   1      54.450  24.642  25.109  1.00  0.00    -0.237 OA
ATOM     67  O   UNL A   1      54.227  26.250  23.246  1.00  0.00    -0.237 OA
ATOM     68  O   UNL A   1      55.071  27.007  25.433  1.00  0.00    -0.744 OA
ENDBRANCH  64  65
ENDBRANCH  38  59
ENDBRANCH  12  13
ENDBRANCH   5   7
ENDBRANCH   4   5
ENDBRANCH   3   4
ENDBRANCH   2   3
ENDBRANCH   1   2
BRANCH   1  69
ATOM     69  C   UNL A   1      34.518  30.201  27.377  1.00  0.00     0.202 C 
BRANCH  69  70
ATOM     70  C   UNL A   1      33.056  29.881  27.116  1.00  0.00     0.261 C 
BRANCH  70  71
ATOM     71  O   UNL A   1      32.989  28.507  26.701  1.00  0.00    -0.463 OA
BRANCH  71  72
ATOM     72  C   UNL A   1      31.848  27.861  26.997  1.00  0.00     0.312 C 
ATOM     73  O   UNL A   1      31.385  27.711  28.118  1.00  0.00    -0.252 OA
BRANCH  72  74
ATOM     74  C   UNL A   1      31.114  27.401  25.774  1.00  0.00     0.147 C 
ATOM     75  C   UNL A   1      31.013  25.891  25.489  1.00  0.00     0.128 C 
ATOM     76  C   UNL A   1      31.633  27.942  24.429  1.00  0.00     0.157 C 
ATOM     77  C   UNL A   1      31.210  25.858  23.975  1.00  0.00     0.155 C 
ATOM     78  C   UNL A   1      30.468  27.974  23.489  1.00  0.00     0.004 C 
ATOM     79  O   UNL A   1      32.302  26.798  23.852  1.00  0.00    -0.365 OA
ATOM     80  C   UNL A   1      30.168  26.686  23.250  1.00  0.00     0.004 C 
BRANCH  75  81
ATOM     81  C   UNL A   1      31.871  24.957  26.343  1.00  0.00     0.227 C 
ATOM     82  O   UNL A   1      31.314  24.411  27.307  1.00  0.00    -0.275 OA
ATOM     83  N   UNL A   1      33.190  24.677  26.226  1.00  0.00    -0.352 N 
ATOM     84  H   UNL A   1      33.524  24.153  26.989  1.00  0.00     0.163 HD
BRANCH  83  85
ATOM     85  C   UNL A   1      34.241  24.956  25.255  1.00  0.00     0.151 C 
BRANCH  85  86
ATOM     86  C   UNL A   1      35.196  23.811  24.987  1.00  0.00    -0.026 A 
ATOM     87  C   UNL A   1      35.565  22.961  26.041  1.00  0.00     0.025 A 
ATOM     88  C   UNL A   1      35.793  23.589  23.741  1.00  0.00     0.025 A 
ATOM     89  C   UNL A   1      36.459  21.925  25.804  1.00  0.00     0.111 A 
ATOM     90  C   UNL A   1      36.672  22.521  23.597  1.00  0.00     0.111 A 
ATOM     91  N   UNL A   1      37.012  21.683  24.600  1.00  0.00    -0.265 NA
ENDBRANCH  85  86
ENDBRANCH  83  85
ENDBRANCH  75  81
ENDBRANCH  72  74
ENDBRANCH  71  72
ENDBRANCH  70  71
ENDBRANCH  69  70
ENDBRANCH   1  69
TORSDOF 20
ENDMDL
