MODEL 1
REMARK VINA RESULT:      -9.8      0.000      0.000
REMARK SMILES O=C(OCCOCCOC(=O)C1(O)CCC(F)(F)CC1)c1ccc(-c2c3nc(c(-c4ccc(S(=O)(=O)[O-])cc4)c4ccc([nH]4)c(-c4ccc(S(=O)(=O)[O-])cc4)c4nc(c(-c5ccc(S(=O)(=O)[O-])cc5)c5ccc2[nH]5)C=C4)C=C3)cc1
REMARK SMILES IDX 5 1 4 2 3 3 2 4 1 5 21 6 22 7 80 8 23 9 79 10 24 11 25 12
REMARK SMILES IDX 26 13 73 14 27 15 78 16 72 17 74 18 28 19 77 20 71 21 70 22
REMARK SMILES IDX 29 24 59 25 40 26 58 27 41 28 44 29 57 30 75 31 42 32 43 33
REMARK SMILES IDX 56 35 76 36 45 37 30 38 31 39 39 40 32 41 38 42 33 43 34 44
REMARK SMILES IDX 35 45 36 46 37 47 60 48 61 49 69 50 62 51 68 52 63 53 64 54
REMARK SMILES IDX 65 55 66 56 67 57 46 58 47 59 55 60 48 61 54 62 49 63 50 64
REMARK SMILES IDX 51 65 52 66 53 67 6 68 7 69 8 70 9 71 10 72 11 73 12 74
REMARK SMILES IDX 14 75 20 76 15 77 19 78 16 79 17 80 18 81 13 82
REMARK H PARENT 74 23 44 34 13 83
REMARK Flexibility Score: inf
ROOT
ATOM      1  C   UNL A   1      33.656  33.713  28.324  1.00  0.00     0.202 C 
ENDROOT
BRANCH   1   2
ATOM      2  C   UNL A   1      34.644  32.569  28.087  1.00  0.00     0.261 C 
BRANCH   2   3
ATOM      3  O   UNL A   1      33.998  31.402  27.530  1.00  0.00    -0.460 OA
BRANCH   3   4
ATOM      4  C   UNL A   1      34.432  30.124  27.733  1.00  0.00     0.338 C 
ATOM      5  O   UNL A   1      33.692  29.160  27.587  1.00  0.00    -0.246 OA
BRANCH   4   6
ATOM      6  C   UNL A   1      35.846  29.938  28.115  1.00  0.00     0.060 A 
ATOM      7  C   UNL A   1      36.837  30.194  27.177  1.00  0.00     0.016 A 
ATOM      8  C   UNL A   1      36.198  29.446  29.369  1.00  0.00     0.016 A 
ATOM      9  C   UNL A   1      38.117  29.716  27.367  1.00  0.00     0.010 A 
ATOM     10  C   UNL A   1      37.544  29.165  29.640  1.00  0.00     0.010 A 
ATOM     11  C   UNL A   1      38.514  29.267  28.626  1.00  0.00    -0.014 A 
BRANCH  11  12
ATOM     12  C   UNL A   1      39.950  28.965  28.855  1.00  0.00     0.031 A 
ATOM     13  C   UNL A   1      40.853  30.003  29.459  1.00  0.00     0.074 A 
ATOM     14  C   UNL A   1      40.428  27.738  28.548  1.00  0.00     0.049 A 
ATOM     15  N   UNL A   1      42.158  30.022  29.509  1.00  0.00    -0.248 NA
ATOM     16  C   UNL A   1      40.213  31.184  30.063  1.00  0.00     0.031 C 
ATOM     17  C   UNL A   1      39.637  26.620  28.013  1.00  0.00     0.029 A 
ATOM     18  N   UNL A   1      41.686  27.204  28.664  1.00  0.00    -0.354 N 
ATOM     19  C   UNL A   1      42.498  31.251  30.063  1.00  0.00     0.074 A 
ATOM     20  C   UNL A   1      41.262  31.939  30.365  1.00  0.00     0.031 C 
ATOM     21  C   UNL A   1      40.397  25.522  27.945  1.00  0.00     0.029 A 
ATOM     22  C   UNL A   1      41.765  25.889  28.265  1.00  0.00     0.049 A 
ATOM     23  H   UNL A   1      42.459  27.712  29.003  1.00  0.00     0.167 HD
ATOM     24  C   UNL A   1      43.736  31.759  30.267  1.00  0.00     0.031 A 
ATOM     25  C   UNL A   1      42.829  25.082  28.093  1.00  0.00     0.031 A 
ATOM     26  C   UNL A   1      44.944  31.023  29.996  1.00  0.00     0.049 A 
ATOM     27  C   UNL A   1      44.188  25.674  28.312  1.00  0.00     0.074 A 
ATOM     28  C   UNL A   1      46.257  31.438  30.124  1.00  0.00     0.029 A 
ATOM     29  N   UNL A   1      44.979  29.704  29.565  1.00  0.00    -0.354 N 
ATOM     30  N   UNL A   1      44.500  26.881  28.723  1.00  0.00    -0.248 NA
ATOM     31  C   UNL A   1      45.338  24.817  28.006  1.00  0.00     0.031 C 
ATOM     32  C   UNL A   1      47.085  30.377  29.740  1.00  0.00     0.029 A 
ATOM     33  C   UNL A   1      46.289  29.289  29.417  1.00  0.00     0.049 A 
ATOM     34  H   UNL A   1      44.186  29.146  29.389  1.00  0.00     0.167 HD
ATOM     35  C   UNL A   1      45.885  26.933  28.714  1.00  0.00     0.074 A 
ATOM     36  C   UNL A   1      46.349  25.624  28.295  1.00  0.00     0.031 C 
ATOM     37  C   UNL A   1      46.703  27.973  29.005  1.00  0.00     0.031 A 
BRANCH  24  38
ATOM     38  C   UNL A   1      43.843  33.188  30.729  1.00  0.00    -0.014 A 
ATOM     39  C   UNL A   1      43.833  33.532  32.091  1.00  0.00     0.010 A 
ATOM     40  C   UNL A   1      43.987  34.207  29.767  1.00  0.00     0.010 A 
ATOM     41  C   UNL A   1      43.930  34.873  32.481  1.00  0.00     0.020 A 
ATOM     42  C   UNL A   1      44.106  35.545  30.153  1.00  0.00     0.020 A 
ATOM     43  C   UNL A   1      44.060  35.871  31.509  1.00  0.00     0.054 A 
BRANCH  43  44
ATOM     44  S   UNL A   1      44.201  37.601  32.041  1.00  0.00     0.124 S 
ATOM     45  O   UNL A   1      43.317  37.630  33.205  1.00  0.00    -0.237 OA
ATOM     46  O   UNL A   1      45.626  37.733  32.332  1.00  0.00    -0.237 OA
ATOM     47  O   UNL A   1      43.732  38.360  30.884  1.00  0.00    -0.744 OA
ENDBRANCH  43  44
ENDBRANCH  24  38
BRANCH  25  48
ATOM     48  C   UNL A   1      42.651  23.695  27.579  1.00  0.00    -0.014 A 
ATOM     49  C   UNL A   1      42.757  23.414  26.206  1.00  0.00     0.010 A 
ATOM     50  C   UNL A   1      42.386  22.635  28.470  1.00  0.00     0.010 A 
ATOM     51  C   UNL A   1      42.583  22.108  25.734  1.00  0.00     0.020 A 
ATOM     52  C   UNL A   1      42.250  21.325  28.007  1.00  0.00     0.020 A 
ATOM     53  C   UNL A   1      42.329  21.072  26.638  1.00  0.00     0.054 A 
BRANCH  53  54
ATOM     54  S   UNL A   1      42.142  19.377  26.015  1.00  0.00     0.124 S 
ATOM     55  O   UNL A   1      42.959  19.408  24.809  1.00  0.00    -0.237 OA
ATOM     56  O   UNL A   1      42.665  18.571  27.116  1.00  0.00    -0.237 OA
ATOM     57  O   UNL A   1      40.702  19.255  25.796  1.00  0.00    -0.744 OA
ENDBRANCH  53  54
ENDBRANCH  25  48
BRANCH  37  58
ATOM     58  C   UNL A   1      48.177  27.710  28.906  1.00  0.00    -0.014 A 
ATOM     59  C   UNL A   1      48.897  27.227  30.011  1.00  0.00     0.010 A 
ATOM     60  C   UNL A   1      48.833  27.914  27.680  1.00  0.00     0.010 A 
ATOM     61  C   UNL A   1      50.265  26.975  29.897  1.00  0.00     0.020 A 
ATOM     62  C   UNL A   1      50.196  27.641  27.558  1.00  0.00     0.020 A 
ATOM     63  C   UNL A   1      50.905  27.185  28.672  1.00  0.00     0.054 A 
BRANCH  63  64
ATOM     64  S   UNL A   1      52.671  26.806  28.533  1.00  0.00     0.124 S 
ATOM     65  O   UNL A   1      52.685  25.822  27.453  1.00  0.00    -0.237 OA
ATOM     66  O   UNL A   1      53.256  28.104  28.207  1.00  0.00    -0.237 OA
ATOM     67  O   UNL A   1      53.017  26.287  29.854  1.00  0.00    -0.744 OA
ENDBRANCH  63  64
ENDBRANCH  37  58
ENDBRANCH  11  12
ENDBRANCH   4   6
ENDBRANCH   3   4
ENDBRANCH   2   3
ENDBRANCH   1   2
BRANCH   1  68
ATOM     68  O   UNL A   1      34.113  34.788  29.132  1.00  0.00    -0.374 OA
BRANCH  68  69
ATOM     69  C   UNL A   1      33.089  35.695  29.554  1.00  0.00     0.202 C 
BRANCH  69  70
ATOM     70  C   UNL A   1      33.183  35.915  31.063  1.00  0.00     0.261 C 
BRANCH  70  71
ATOM     71  O   UNL A   1      34.253  35.114  31.608  1.00  0.00    -0.461 OA
BRANCH  71  72
ATOM     72  C   UNL A   1      34.642  35.452  32.872  1.00  0.00     0.338 C 
ATOM     73  O   UNL A   1      34.512  36.562  33.370  1.00  0.00    -0.249 OA
BRANCH  72  74
ATOM     74  C   UNL A   1      35.342  34.259  33.574  1.00  0.00     0.162 C 
ATOM     75  C   UNL A   1      34.768  32.937  33.045  1.00  0.00     0.053 C 
ATOM     76  C   UNL A   1      36.882  34.246  33.489  1.00  0.00     0.053 C 
ATOM     77  C   UNL A   1      35.232  32.657  31.620  1.00  0.00     0.080 C 
ATOM     78  C   UNL A   1      37.515  33.639  32.235  1.00  0.00     0.080 C 
ATOM     79  C   UNL A   1      36.739  32.520  31.564  1.00  0.00     0.248 C 
ATOM     80  F   UNL A   1      37.137  32.437  30.268  1.00  0.00    -0.207 F 
ATOM     81  F   UNL A   1      37.091  31.345  32.149  1.00  0.00    -0.207 F 
BRANCH  74  82
ATOM     82  O   UNL A   1      35.008  34.350  34.970  1.00  0.00    -0.378 OA
ATOM     83  H   UNL A   1      34.723  33.481  35.292  1.00  0.00     0.212 HD
ENDBRANCH  74  82
ENDBRANCH  72  74
ENDBRANCH  71  72
ENDBRANCH  70  71
ENDBRANCH  69  70
ENDBRANCH  68  69
ENDBRANCH   1  68
TORSDOF 18
ENDMDL
MODEL 2
REMARK VINA RESULT:      -9.5      3.777     12.178
REMARK SMILES O=C(OCCOCCOC(=O)C1(O)CCC(F)(F)CC1)c1ccc(-c2c3nc(c(-c4ccc(S(=O)(=O)[O-])cc4)c4ccc([nH]4)c(-c4ccc(S(=O)(=O)[O-])cc4)c4nc(c(-c5ccc(S(=O)(=O)[O-])cc5)c5ccc2[nH]5)C=C4)C=C3)cc1
REMARK SMILES IDX 5 1 4 2 3 3 2 4 1 5 21 6 22 7 80 8 23 9 79 10 24 11 25 12
REMARK SMILES IDX 26 13 73 14 27 15 78 16 72 17 74 18 28 19 77 20 71 21 70 22
REMARK SMILES IDX 29 24 59 25 40 26 58 27 41 28 44 29 57 30 75 31 42 32 43 33
REMARK SMILES IDX 56 35 76 36 45 37 30 38 31 39 39 40 32 41 38 42 33 43 34 44
REMARK SMILES IDX 35 45 36 46 37 47 60 48 61 49 69 50 62 51 68 52 63 53 64 54
REMARK SMILES IDX 65 55 66 56 67 57 46 58 47 59 55 60 48 61 54 62 49 63 50 64
REMARK SMILES IDX 51 65 52 66 53 67 6 68 7 69 8 70 9 71 10 72 11 73 12 74
REMARK SMILES IDX 14 75 20 76 15 77 19 78 16 79 17 80 18 81 13 82
REMARK H PARENT 74 23 44 34 13 83
REMARK Flexibility Score: inf
ROOT
ATOM      1  C   UNL A   1      40.709  20.252  26.302  1.00  0.00     0.202 C 
ENDROOT
BRANCH   1   2
ATOM      2  C   UNL A   1      39.537  21.034  25.703  1.00  0.00     0.261 C 
BRANCH   2   3
ATOM      3  O   UNL A   1      39.080  22.084  26.586  1.00  0.00    -0.460 OA
BRANCH   3   4
ATOM      4  C   UNL A   1      38.796  23.353  26.173  1.00  0.00     0.338 C 
ATOM      5  O   UNL A   1      38.075  23.572  25.208  1.00  0.00    -0.246 OA
BRANCH   4   6
ATOM      6  C   UNL A   1      39.371  24.467  26.952  1.00  0.00     0.060 A 
ATOM      7  C   UNL A   1      39.170  24.506  28.325  1.00  0.00     0.016 A 
ATOM      8  C   UNL A   1      40.049  25.512  26.328  1.00  0.00     0.016 A 
ATOM      9  C   UNL A   1      39.382  25.672  29.028  1.00  0.00     0.010 A 
ATOM     10  C   UNL A   1      40.465  26.610  27.093  1.00  0.00     0.010 A 
ATOM     11  C   UNL A   1      40.105  26.714  28.449  1.00  0.00    -0.014 A 
BRANCH  11  12
ATOM     12  C   UNL A   1      40.505  27.865  29.300  1.00  0.00     0.031 A 
ATOM     13  C   UNL A   1      41.838  27.862  29.994  1.00  0.00     0.074 A 
ATOM     14  C   UNL A   1      39.675  28.926  29.416  1.00  0.00     0.049 A 
ATOM     15  N   UNL A   1      42.261  28.639  30.956  1.00  0.00    -0.248 NA
ATOM     16  C   UNL A   1      42.816  26.845  29.572  1.00  0.00     0.031 C 
ATOM     17  C   UNL A   1      38.378  29.076  28.740  1.00  0.00     0.029 A 
ATOM     18  N   UNL A   1      39.801  30.098  30.117  1.00  0.00    -0.354 N 
ATOM     19  C   UNL A   1      43.510  28.148  31.317  1.00  0.00     0.074 A 
ATOM     20  C   UNL A   1      43.795  27.027  30.449  1.00  0.00     0.031 C 
ATOM     21  C   UNL A   1      37.884  30.296  28.979  1.00  0.00     0.029 A 
ATOM     22  C   UNL A   1      38.735  30.954  29.954  1.00  0.00     0.049 A 
ATOM     23  H   UNL A   1      40.580  30.308  30.681  1.00  0.00     0.167 HD
ATOM     24  C   UNL A   1      44.321  28.586  32.309  1.00  0.00     0.031 A 
ATOM     25  C   UNL A   1      38.426  32.105  30.578  1.00  0.00     0.031 A 
ATOM     26  C   UNL A   1      44.022  29.736  33.121  1.00  0.00     0.049 A 
ATOM     27  C   UNL A   1      39.334  32.560  31.681  1.00  0.00     0.074 A 
ATOM     28  C   UNL A   1      44.742  30.259  34.179  1.00  0.00     0.029 A 
ATOM     29  N   UNL A   1      42.918  30.558  32.942  1.00  0.00    -0.354 N 
ATOM     30  N   UNL A   1      40.455  32.017  32.095  1.00  0.00    -0.248 NA
ATOM     31  C   UNL A   1      38.920  33.751  32.428  1.00  0.00     0.031 C 
ATOM     32  C   UNL A   1      44.055  31.381  34.659  1.00  0.00     0.029 A 
ATOM     33  C   UNL A   1      42.933  31.581  33.871  1.00  0.00     0.049 A 
ATOM     34  H   UNL A   1      42.225  30.430  32.253  1.00  0.00     0.167 HD
ATOM     35  C   UNL A   1      40.876  32.797  33.161  1.00  0.00     0.074 A 
ATOM     36  C   UNL A   1      39.910  33.869  33.302  1.00  0.00     0.031 C 
ATOM     37  C   UNL A   1      41.952  32.632  33.968  1.00  0.00     0.031 A 
BRANCH  24  38
ATOM     38  C   UNL A   1      45.555  27.780  32.615  1.00  0.00    -0.014 A 
ATOM     39  C   UNL A   1      45.593  26.848  33.665  1.00  0.00     0.010 A 
ATOM     40  C   UNL A   1      46.696  27.945  31.805  1.00  0.00     0.010 A 
ATOM     41  C   UNL A   1      46.762  26.120  33.922  1.00  0.00     0.020 A 
ATOM     42  C   UNL A   1      47.857  27.205  32.045  1.00  0.00     0.020 A 
ATOM     43  C   UNL A   1      47.887  26.307  33.113  1.00  0.00     0.054 A 
BRANCH  43  44
ATOM     44  S   UNL A   1      49.384  25.339  33.456  1.00  0.00     0.124 S 
ATOM     45  O   UNL A   1      48.853  23.980  33.532  1.00  0.00    -0.237 OA
ATOM     46  O   UNL A   1      50.223  25.621  32.294  1.00  0.00    -0.237 OA
ATOM     47  O   UNL A   1      49.871  25.888  34.720  1.00  0.00    -0.744 OA
ENDBRANCH  43  44
ENDBRANCH  24  38
BRANCH  25  48
ATOM     48  C   UNL A   1      37.158  32.821  30.262  1.00  0.00    -0.014 A 
ATOM     49  C   UNL A   1      35.977  32.544  30.972  1.00  0.00     0.010 A 
ATOM     50  C   UNL A   1      37.128  33.801  29.250  1.00  0.00     0.010 A 
ATOM     51  C   UNL A   1      34.790  33.219  30.662  1.00  0.00     0.020 A 
ATOM     52  C   UNL A   1      35.956  34.503  28.964  1.00  0.00     0.020 A 
ATOM     53  C   UNL A   1      34.787  34.194  29.660  1.00  0.00     0.054 A 
BRANCH  53  54
ATOM     54  S   UNL A   1      33.249  35.086  29.294  1.00  0.00     0.124 S 
ATOM     55  O   UNL A   1      32.540  34.130  28.452  1.00  0.00    -0.237 OA
ATOM     56  O   UNL A   1      32.681  35.305  30.622  1.00  0.00    -0.237 OA
ATOM     57  O   UNL A   1      33.713  36.296  28.617  1.00  0.00    -0.744 OA
ENDBRANCH  53  54
ENDBRANCH  25  48
BRANCH  37  58
ATOM     58  C   UNL A   1      42.143  33.658  35.045  1.00  0.00    -0.014 A 
ATOM     59  C   UNL A   1      41.675  33.427  36.350  1.00  0.00     0.010 A 
ATOM     60  C   UNL A   1      42.831  34.847  34.751  1.00  0.00     0.010 A 
ATOM     61  C   UNL A   1      41.873  34.388  37.342  1.00  0.00     0.020 A 
ATOM     62  C   UNL A   1      43.051  35.798  35.747  1.00  0.00     0.020 A 
ATOM     63  C   UNL A   1      42.559  35.567  37.034  1.00  0.00     0.054 A 
BRANCH  63  64
ATOM     64  S   UNL A   1      42.847  36.779  38.350  1.00  0.00     0.124 S 
ATOM     65  O   UNL A   1      43.238  35.924  39.468  1.00  0.00    -0.237 OA
ATOM     66  O   UNL A   1      43.910  37.612  37.794  1.00  0.00    -0.237 OA
ATOM     67  O   UNL A   1      41.555  37.443  38.496  1.00  0.00    -0.744 OA
ENDBRANCH  63  64
ENDBRANCH  37  58
ENDBRANCH  11  12
ENDBRANCH   4   6
ENDBRANCH   3   4
ENDBRANCH   2   3
ENDBRANCH   1   2
BRANCH   1  68
ATOM     68  O   UNL A   1      41.667  19.746  25.384  1.00  0.00    -0.374 OA
BRANCH  68  69
ATOM     69  C   UNL A   1      42.668  18.907  25.969  1.00  0.00     0.202 C 
BRANCH  69  70
ATOM     70  C   UNL A   1      44.003  19.121  25.256  1.00  0.00     0.261 C 
BRANCH  70  71
ATOM     71  O   UNL A   1      44.065  20.464  24.730  1.00  0.00    -0.461 OA
BRANCH  71  72
ATOM     72  C   UNL A   1      45.251  21.110  24.934  1.00  0.00     0.338 C 
ATOM     73  O   UNL A   1      46.287  20.570  25.300  1.00  0.00    -0.249 OA
BRANCH  72  74
ATOM     74  C   UNL A   1      45.094  22.638  24.715  1.00  0.00     0.162 C 
ATOM     75  C   UNL A   1      43.614  23.029  24.831  1.00  0.00     0.053 C 
ATOM     76  C   UNL A   1      45.958  23.533  25.627  1.00  0.00     0.053 C 
ATOM     77  C   UNL A   1      43.130  22.963  26.276  1.00  0.00     0.080 C 
ATOM     78  C   UNL A   1      45.409  23.865  27.017  1.00  0.00     0.080 C 
ATOM     79  C   UNL A   1      43.898  23.938  27.143  1.00  0.00     0.248 C 
ATOM     80  F   UNL A   1      43.564  23.742  28.445  1.00  0.00    -0.207 F 
ATOM     81  F   UNL A   1      43.503  25.201  26.832  1.00  0.00    -0.207 F 
BRANCH  74  82
ATOM     82  O   UNL A   1      45.511  22.903  23.365  1.00  0.00    -0.378 OA
ATOM     83  H   UNL A   1      44.805  23.373  22.895  1.00  0.00     0.212 HD
ENDBRANCH  74  82
ENDBRANCH  72  74
ENDBRANCH  71  72
ENDBRANCH  70  71
ENDBRANCH  69  70
ENDBRANCH  68  69
ENDBRANCH   1  68
TORSDOF 18
ENDMDL
MODEL 3
REMARK VINA RESULT:      -9.3      3.168     10.737
REMARK SMILES O=C(OCCOCCOC(=O)C1(O)CCC(F)(F)CC1)c1ccc(-c2c3nc(c(-c4ccc(S(=O)(=O)[O-])cc4)c4ccc([nH]4)c(-c4ccc(S(=O)(=O)[O-])cc4)c4nc(c(-c5ccc(S(=O)(=O)[O-])cc5)c5ccc2[nH]5)C=C4)C=C3)cc1
REMARK SMILES IDX 5 1 4 2 3 3 2 4 1 5 21 6 22 7 80 8 23 9 79 10 24 11 25 12
REMARK SMILES IDX 26 13 73 14 27 15 78 16 72 17 74 18 28 19 77 20 71 21 70 22
REMARK SMILES IDX 29 24 59 25 40 26 58 27 41 28 44 29 57 30 75 31 42 32 43 33
REMARK SMILES IDX 56 35 76 36 45 37 30 38 31 39 39 40 32 41 38 42 33 43 34 44
REMARK SMILES IDX 35 45 36 46 37 47 60 48 61 49 69 50 62 51 68 52 63 53 64 54
REMARK SMILES IDX 65 55 66 56 67 57 46 58 47 59 55 60 48 61 54 62 49 63 50 64
REMARK SMILES IDX 51 65 52 66 53 67 6 68 7 69 8 70 9 71 10 72 11 73 12 74
REMARK SMILES IDX 14 75 20 76 15 77 19 78 16 79 17 80 18 81 13 82
REMARK H PARENT 74 23 44 34 13 83
REMARK Flexibility Score: inf
ROOT
ATOM      1  C   UNL A   1      40.932  20.588  27.056  1.00  0.00     0.202 C 
ENDROOT
BRANCH   1   2
ATOM      2  C   UNL A   1      40.411  21.526  25.966  1.00  0.00     0.261 C 
BRANCH   2   3
ATOM      3  O   UNL A   1      39.031  21.898  26.186  1.00  0.00    -0.460 OA
BRANCH   3   4
ATOM      4  C   UNL A   1      38.558  23.171  26.053  1.00  0.00     0.338 C 
ATOM      5  O   UNL A   1      37.568  23.424  25.379  1.00  0.00    -0.246 OA
BRANCH   4   6
ATOM      6  C   UNL A   1      39.271  24.242  26.778  1.00  0.00     0.060 A 
ATOM      7  C   UNL A   1      39.149  24.318  28.158  1.00  0.00     0.016 A 
ATOM      8  C   UNL A   1      40.002  25.212  26.097  1.00  0.00     0.016 A 
ATOM      9  C   UNL A   1      39.501  25.472  28.826  1.00  0.00     0.010 A 
ATOM     10  C   UNL A   1      40.554  26.280  26.817  1.00  0.00     0.010 A 
ATOM     11  C   UNL A   1      40.280  26.437  28.188  1.00  0.00    -0.014 A 
BRANCH  11  12
ATOM     12  C   UNL A   1      40.825  27.560  28.993  1.00  0.00     0.031 A 
ATOM     13  C   UNL A   1      39.963  28.750  29.309  1.00  0.00     0.074 A 
ATOM     14  C   UNL A   1      42.089  27.487  29.467  1.00  0.00     0.049 A 
ATOM     15  N   UNL A   1      40.319  29.917  29.775  1.00  0.00    -0.248 NA
ATOM     16  C   UNL A   1      38.519  28.624  29.047  1.00  0.00     0.031 C 
ATOM     17  C   UNL A   1      43.008  26.354  29.282  1.00  0.00     0.029 A 
ATOM     18  N   UNL A   1      42.821  28.363  30.227  1.00  0.00    -0.354 N 
ATOM     19  C   UNL A   1      39.165  30.693  29.775  1.00  0.00     0.074 A 
ATOM     20  C   UNL A   1      38.088  29.855  29.295  1.00  0.00     0.031 C 
ATOM     21  C   UNL A   1      44.126  26.561  29.986  1.00  0.00     0.029 A 
ATOM     22  C   UNL A   1      44.083  27.905  30.534  1.00  0.00     0.049 A 
ATOM     23  H   UNL A   1      42.476  29.235  30.527  1.00  0.00     0.167 HD
ATOM     24  C   UNL A   1      39.038  31.996  30.119  1.00  0.00     0.031 A 
ATOM     25  C   UNL A   1      45.126  28.522  31.118  1.00  0.00     0.031 A 
ATOM     26  C   UNL A   1      40.126  32.784  30.637  1.00  0.00     0.049 A 
ATOM     27  C   UNL A   1      44.963  29.968  31.477  1.00  0.00     0.074 A 
ATOM     28  C   UNL A   1      40.137  34.121  30.986  1.00  0.00     0.029 A 
ATOM     29  N   UNL A   1      41.396  32.289  30.905  1.00  0.00    -0.354 N 
ATOM     30  N   UNL A   1      43.898  30.726  31.359  1.00  0.00    -0.248 NA
ATOM     31  C   UNL A   1      46.146  30.655  32.003  1.00  0.00     0.031 C 
ATOM     32  C   UNL A   1      41.423  34.442  31.437  1.00  0.00     0.029 A 
ATOM     33  C   UNL A   1      42.199  33.293  31.410  1.00  0.00     0.049 A 
ATOM     34  H   UNL A   1      41.682  31.358  30.755  1.00  0.00     0.167 HD
ATOM     35  C   UNL A   1      44.286  31.986  31.788  1.00  0.00     0.074 A 
ATOM     36  C   UNL A   1      45.671  31.876  32.203  1.00  0.00     0.031 C 
ATOM     37  C   UNL A   1      43.571  33.136  31.818  1.00  0.00     0.031 A 
BRANCH  24  38
ATOM     38  C   UNL A   1      37.711  32.662  29.873  1.00  0.00    -0.014 A 
ATOM     39  C   UNL A   1      36.768  32.843  30.899  1.00  0.00     0.010 A 
ATOM     40  C   UNL A   1      37.418  33.144  28.583  1.00  0.00     0.010 A 
ATOM     41  C   UNL A   1      35.542  33.462  30.630  1.00  0.00     0.020 A 
ATOM     42  C   UNL A   1      36.204  33.783  28.315  1.00  0.00     0.020 A 
ATOM     43  C   UNL A   1      35.266  33.924  29.338  1.00  0.00     0.054 A 
BRANCH  43  44
ATOM     44  S   UNL A   1      33.676  34.740  29.019  1.00  0.00     0.124 S 
ATOM     45  O   UNL A   1      33.064  33.836  28.048  1.00  0.00    -0.237 OA
ATOM     46  O   UNL A   1      33.053  34.758  30.339  1.00  0.00    -0.237 OA
ATOM     47  O   UNL A   1      34.057  36.050  28.495  1.00  0.00    -0.744 OA
ENDBRANCH  43  44
ENDBRANCH  24  38
BRANCH  25  48
ATOM     48  C   UNL A   1      46.429  27.816  31.279  1.00  0.00    -0.014 A 
ATOM     49  C   UNL A   1      46.807  27.271  32.518  1.00  0.00     0.010 A 
ATOM     50  C   UNL A   1      47.301  27.674  30.180  1.00  0.00     0.010 A 
ATOM     51  C   UNL A   1      48.035  26.615  32.658  1.00  0.00     0.020 A 
ATOM     52  C   UNL A   1      48.509  26.988  30.307  1.00  0.00     0.020 A 
ATOM     53  C   UNL A   1      48.879  26.478  31.552  1.00  0.00     0.054 A 
BRANCH  53  54
ATOM     54  S   UNL A   1      50.453  25.595  31.740  1.00  0.00     0.124 S 
ATOM     55  O   UNL A   1      50.396  25.171  33.134  1.00  0.00    -0.237 OA
ATOM     56  O   UNL A   1      50.343  24.527  30.748  1.00  0.00    -0.237 OA
ATOM     57  O   UNL A   1      51.454  26.615  31.434  1.00  0.00    -0.744 OA
ENDBRANCH  53  54
ENDBRANCH  25  48
BRANCH  37  58
ATOM     58  C   UNL A   1      44.279  34.348  32.347  1.00  0.00    -0.014 A 
ATOM     59  C   UNL A   1      44.842  35.292  31.472  1.00  0.00     0.010 A 
ATOM     60  C   UNL A   1      44.344  34.558  33.735  1.00  0.00     0.010 A 
ATOM     61  C   UNL A   1      45.485  36.421  31.982  1.00  0.00     0.020 A 
ATOM     62  C   UNL A   1      44.965  35.697  34.247  1.00  0.00     0.020 A 
ATOM     63  C   UNL A   1      45.543  36.614  33.366  1.00  0.00     0.054 A 
BRANCH  63  64
ATOM     64  S   UNL A   1      46.340  38.111  34.005  1.00  0.00     0.124 S 
ATOM     65  O   UNL A   1      46.930  38.680  32.796  1.00  0.00    -0.237 OA
ATOM     66  O   UNL A   1      45.218  38.858  34.569  1.00  0.00    -0.237 OA
ATOM     67  O   UNL A   1      47.295  37.601  34.985  1.00  0.00    -0.744 OA
ENDBRANCH  63  64
ENDBRANCH  37  58
ENDBRANCH  11  12
ENDBRANCH   4   6
ENDBRANCH   3   4
ENDBRANCH   2   3
ENDBRANCH   1   2
BRANCH   1  68
ATOM     68  O   UNL A   1      42.252  20.092  26.888  1.00  0.00    -0.374 OA
BRANCH  68  69
ATOM     69  C   UNL A   1      42.407  19.158  25.815  1.00  0.00     0.202 C 
BRANCH  69  70
ATOM     70  C   UNL A   1      43.882  19.045  25.435  1.00  0.00     0.261 C 
BRANCH  70  71
ATOM     71  O   UNL A   1      44.198  20.014  24.412  1.00  0.00    -0.461 OA
BRANCH  71  72
ATOM     72  C   UNL A   1      45.227  20.859  24.713  1.00  0.00     0.338 C 
ATOM     73  O   UNL A   1      46.241  20.537  25.320  1.00  0.00    -0.249 OA
BRANCH  72  74
ATOM     74  C   UNL A   1      44.910  22.305  24.251  1.00  0.00     0.162 C 
ATOM     75  C   UNL A   1      43.662  22.821  24.981  1.00  0.00     0.053 C 
ATOM     76  C   UNL A   1      46.067  23.317  24.388  1.00  0.00     0.053 C 
ATOM     77  C   UNL A   1      43.955  23.117  26.448  1.00  0.00     0.080 C 
ATOM     78  C   UNL A   1      46.258  23.992  25.748  1.00  0.00     0.080 C 
ATOM     79  C   UNL A   1      45.002  24.203  26.576  1.00  0.00     0.248 C 
ATOM     80  F   UNL A   1      45.362  24.331  27.880  1.00  0.00    -0.207 F 
ATOM     81  F   UNL A   1      44.446  25.390  26.214  1.00  0.00    -0.207 F 
BRANCH  74  82
ATOM     82  O   UNL A   1      44.595  22.229  22.850  1.00  0.00    -0.378 OA
ATOM     83  H   UNL A   1      43.808  22.764  22.666  1.00  0.00     0.212 HD
ENDBRANCH  74  82
ENDBRANCH  72  74
ENDBRANCH  71  72
ENDBRANCH  70  71
ENDBRANCH  69  70
ENDBRANCH  68  69
ENDBRANCH   1  68
TORSDOF 18
ENDMDL
