MODEL 1
REMARK VINA RESULT:     -10.4      0.000      0.000
REMARK SMILES O=C(OCCOCCOC(=O)c1cn(C2CC2)c2cc(N3CC[NH2+]CC3)ccc2c1=O)c1ccc(-c2c3nc(c(-c4ccc(S(=O)(=O)[O-])cc4)c4ccc([nH]4)c(-c4ccc(S(=O)(=O)[O-])cc4)c4nc(c(-c5ccc(S(=O)(=O)[O-])cc5)c5ccc2[nH]5)C=C4)C=C3)cc1
REMARK SMILES IDX 5 1 4 2 3 3 2 4 1 5 32 6 33 7 91 8 34 9 90 10 35 11 36 12
REMARK SMILES IDX 37 13 84 14 38 15 89 16 83 17 85 18 39 19 88 20 82 21 81 22
REMARK SMILES IDX 40 24 70 25 51 26 69 27 52 28 55 29 68 30 86 31 53 32 54 33
REMARK SMILES IDX 67 35 87 36 56 37 41 38 42 39 50 40 43 41 49 42 44 43 45 44
REMARK SMILES IDX 46 45 47 46 48 47 71 48 72 49 80 50 73 51 79 52 74 53 75 54
REMARK SMILES IDX 76 55 77 56 78 57 57 58 58 59 66 60 59 61 65 62 60 63 61 64
REMARK SMILES IDX 62 65 63 66 64 67 6 68 7 69 8 70 9 71 10 72 11 73 12 74
REMARK SMILES IDX 13 75 30 76 14 77 29 78 31 79 18 80 28 81 19 82 27 83 20 84
REMARK SMILES IDX 15 85 16 86 17 87 21 88 22 89 26 90 23 91 25 92 24 93
REMARK H PARENT 85 23 55 34 24 94 24 95
REMARK Flexibility Score: inf
ROOT
ATOM      1  C   UNL A   1      35.617  24.245  25.698  1.00  0.00     0.202 C 
ENDROOT
BRANCH   1   2
ATOM      2  C   UNL A   1      36.733  23.614  24.866  1.00  0.00     0.261 C 
BRANCH   2   3
ATOM      3  O   UNL A   1      37.519  22.707  25.649  1.00  0.00    -0.460 OA
BRANCH   3   4
ATOM      4  C   UNL A   1      38.752  22.885  26.173  1.00  0.00     0.338 C 
ATOM      5  O   UNL A   1      39.483  21.893  26.221  1.00  0.00    -0.246 OA
BRANCH   4   6
ATOM      6  C   UNL A   1      39.299  24.175  26.729  1.00  0.00     0.060 A 
ATOM      7  C   UNL A   1      38.919  24.486  28.052  1.00  0.00     0.016 A 
ATOM      8  C   UNL A   1      40.080  25.118  26.055  1.00  0.00     0.016 A 
ATOM      9  C   UNL A   1      39.277  25.697  28.652  1.00  0.00     0.010 A 
ATOM     10  C   UNL A   1      40.426  26.335  26.636  1.00  0.00     0.010 A 
ATOM     11  C   UNL A   1      40.026  26.630  27.936  1.00  0.00    -0.014 A 
BRANCH  11  12
ATOM     12  C   UNL A   1      40.545  27.862  28.550  1.00  0.00     0.031 A 
ATOM     13  C   UNL A   1      41.926  27.915  29.121  1.00  0.00     0.074 A 
ATOM     14  C   UNL A   1      39.672  28.872  28.709  1.00  0.00     0.049 A 
ATOM     15  N   UNL A   1      42.530  28.919  29.697  1.00  0.00    -0.248 NA
ATOM     16  C   UNL A   1      42.732  26.684  29.054  1.00  0.00     0.031 C 
ATOM     17  C   UNL A   1      38.277  28.843  28.257  1.00  0.00     0.029 A 
ATOM     18  N   UNL A   1      39.804  30.091  29.312  1.00  0.00    -0.354 N 
ATOM     19  C   UNL A   1      43.793  28.456  30.040  1.00  0.00     0.074 A 
ATOM     20  C   UNL A   1      43.855  27.063  29.653  1.00  0.00     0.031 C 
ATOM     21  C   UNL A   1      37.680  29.990  28.608  1.00  0.00     0.029 A 
ATOM     22  C   UNL A   1      38.646  30.828  29.310  1.00  0.00     0.049 A 
ATOM     23  H   UNL A   1      40.647  30.409  29.709  1.00  0.00     0.167 HD
ATOM     24  C   UNL A   1      44.804  29.152  30.611  1.00  0.00     0.031 A 
ATOM     25  C   UNL A   1      38.394  32.053  29.807  1.00  0.00     0.031 A 
ATOM     26  C   UNL A   1      44.678  30.531  31.012  1.00  0.00     0.049 A 
ATOM     27  C   UNL A   1      39.529  32.811  30.423  1.00  0.00     0.074 A 
ATOM     28  C   UNL A   1      45.653  31.369  31.522  1.00  0.00     0.029 A 
ATOM     29  N   UNL A   1      43.500  31.266  30.964  1.00  0.00    -0.354 N 
ATOM     30  N   UNL A   1      40.764  32.412  30.617  1.00  0.00    -0.248 NA
ATOM     31  C   UNL A   1      39.259  34.185  30.859  1.00  0.00     0.031 C 
ATOM     32  C   UNL A   1      45.048  32.587  31.845  1.00  0.00     0.029 A 
ATOM     33  C   UNL A   1      43.715  32.537  31.468  1.00  0.00     0.049 A 
ATOM     34  H   UNL A   1      42.640  30.933  30.621  1.00  0.00     0.167 HD
ATOM     35  C   UNL A   1      41.429  33.490  31.182  1.00  0.00     0.074 A 
ATOM     36  C   UNL A   1      40.459  34.565  31.286  1.00  0.00     0.031 C 
ATOM     37  C   UNL A   1      42.723  33.581  31.575  1.00  0.00     0.031 A 
BRANCH  24  38
ATOM     38  C   UNL A   1      46.139  28.474  30.806  1.00  0.00    -0.014 A 
ATOM     39  C   UNL A   1      46.441  27.836  32.024  1.00  0.00     0.010 A 
ATOM     40  C   UNL A   1      47.152  28.595  29.836  1.00  0.00     0.010 A 
ATOM     41  C   UNL A   1      47.734  27.370  32.285  1.00  0.00     0.020 A 
ATOM     42  C   UNL A   1      48.439  28.108  30.083  1.00  0.00     0.020 A 
ATOM     43  C   UNL A   1      48.730  27.523  31.317  1.00  0.00     0.054 A 
BRANCH  43  44
ATOM     44  S   UNL A   1      50.416  26.961  31.690  1.00  0.00     0.124 S 
ATOM     45  O   UNL A   1      51.231  27.899  30.924  1.00  0.00    -0.237 OA
ATOM     46  O   UNL A   1      50.487  27.101  33.142  1.00  0.00    -0.237 OA
ATOM     47  O   UNL A   1      50.431  25.581  31.206  1.00  0.00    -0.744 OA
ENDBRANCH  43  44
ENDBRANCH  24  38
BRANCH  25  48
ATOM     48  C   UNL A   1      37.033  32.623  29.621  1.00  0.00    -0.014 A 
ATOM     49  C   UNL A   1      36.710  33.329  28.445  1.00  0.00     0.010 A 
ATOM     50  C   UNL A   1      36.126  32.627  30.694  1.00  0.00     0.010 A 
ATOM     51  C   UNL A   1      35.535  34.084  28.375  1.00  0.00     0.020 A 
ATOM     52  C   UNL A   1      34.939  33.363  30.617  1.00  0.00     0.020 A 
ATOM     53  C   UNL A   1      34.670  34.116  29.471  1.00  0.00     0.054 A 
BRANCH  53  54
ATOM     54  S   UNL A   1      33.211  35.192  29.403  1.00  0.00     0.124 S 
ATOM     55  O   UNL A   1      32.689  35.075  30.762  1.00  0.00    -0.237 OA
ATOM     56  O   UNL A   1      33.785  36.489  29.059  1.00  0.00    -0.237 OA
ATOM     57  O   UNL A   1      32.385  34.583  28.362  1.00  0.00    -0.744 OA
ENDBRANCH  53  54
ENDBRANCH  25  48
BRANCH  37  58
ATOM     58  C   UNL A   1      43.177  34.880  32.184  1.00  0.00    -0.014 A 
ATOM     59  C   UNL A   1      42.908  35.146  33.539  1.00  0.00     0.010 A 
ATOM     60  C   UNL A   1      43.724  35.890  31.376  1.00  0.00     0.010 A 
ATOM     61  C   UNL A   1      43.134  36.417  34.066  1.00  0.00     0.020 A 
ATOM     62  C   UNL A   1      43.978  37.156  31.908  1.00  0.00     0.020 A 
ATOM     63  C   UNL A   1      43.654  37.419  33.241  1.00  0.00     0.054 A 
BRANCH  63  64
ATOM     64  S   UNL A   1      43.884  39.082  33.927  1.00  0.00     0.124 S 
ATOM     65  O   UNL A   1      45.077  39.542  33.223  1.00  0.00    -0.237 OA
ATOM     66  O   UNL A   1      42.639  39.754  33.566  1.00  0.00    -0.237 OA
ATOM     67  O   UNL A   1      44.059  38.840  35.358  1.00  0.00    -0.744 OA
ENDBRANCH  63  64
ENDBRANCH  37  58
ENDBRANCH  11  12
ENDBRANCH   4   6
ENDBRANCH   3   4
ENDBRANCH   2   3
ENDBRANCH   1   2
BRANCH   1  68
ATOM     68  O   UNL A   1      34.555  24.777  24.911  1.00  0.00    -0.374 OA
BRANCH  68  69
ATOM     69  C   UNL A   1      34.401  26.196  24.935  1.00  0.00     0.202 C 
BRANCH  69  70
ATOM     70  C   UNL A   1      32.999  26.558  24.445  1.00  0.00     0.261 C 
BRANCH  70  71
ATOM     71  O   UNL A   1      32.061  26.220  25.479  1.00  0.00    -0.459 OA
BRANCH  71  72
ATOM     72  C   UNL A   1      30.947  25.543  25.079  1.00  0.00     0.343 C 
ATOM     73  O   UNL A   1      29.880  26.029  24.748  1.00  0.00    -0.246 OA
BRANCH  72  74
ATOM     74  C   UNL A   1      31.298  24.114  25.002  1.00  0.00     0.124 A 
ATOM     75  C   UNL A   1      31.819  23.514  26.080  1.00  0.00     0.106 A 
ATOM     76  C   UNL A   1      31.188  23.321  23.761  1.00  0.00     0.203 A 
ATOM     77  N   UNL A   1      32.288  22.217  26.155  1.00  0.00    -0.343 N 
ATOM     78  C   UNL A   1      31.757  21.953  23.775  1.00  0.00     0.047 A 
ATOM     79  O   UNL A   1      30.680  23.753  22.734  1.00  0.00    -0.288 OA
ATOM     80  C   UNL A   1      32.222  21.405  24.983  1.00  0.00     0.054 A 
ATOM     81  C   UNL A   1      31.796  21.224  22.577  1.00  0.00     0.016 A 
ATOM     82  C   UNL A   1      32.596  20.056  24.962  1.00  0.00     0.053 A 
ATOM     83  C   UNL A   1      32.235  19.901  22.583  1.00  0.00     0.027 A 
ATOM     84  C   UNL A   1      32.594  19.289  23.783  1.00  0.00     0.039 A 
BRANCH  77  85
ATOM     85  C   UNL A   1      32.898  21.730  27.419  1.00  0.00     0.087 C 
ATOM     86  C   UNL A   1      34.375  21.579  27.691  1.00  0.00     0.027 C 
ATOM     87  C   UNL A   1      33.603  22.691  28.343  1.00  0.00     0.027 C 
ENDBRANCH  77  85
BRANCH  84  88
ATOM     88  N   UNL A   1      32.866  17.938  23.867  1.00  0.00    -0.360 N 
ATOM     89  C   UNL A   1      34.210  17.510  23.459  1.00  0.00     0.178 C 
ATOM     90  C   UNL A   1      32.090  17.040  24.723  1.00  0.00     0.178 C 
ATOM     91  C   UNL A   1      34.983  16.919  24.658  1.00  0.00     0.282 C 
ATOM     92  C   UNL A   1      32.958  16.409  25.834  1.00  0.00     0.282 C 
ATOM     93  N   UNL A   1      34.239  15.845  25.351  1.00  0.00    -0.343 N 
ATOM     94  H   UNL A   1      34.785  15.501  26.141  1.00  0.00     0.346 HD
ATOM     95  H   UNL A   1      34.064  15.069  24.713  1.00  0.00     0.346 HD
ENDBRANCH  84  88
ENDBRANCH  72  74
ENDBRANCH  71  72
ENDBRANCH  70  71
ENDBRANCH  69  70
ENDBRANCH  68  69
ENDBRANCH   1  68
TORSDOF 19
ENDMDL
MODEL 2
REMARK VINA RESULT:     -10.3      2.736      8.832
REMARK SMILES O=C(OCCOCCOC(=O)c1cn(C2CC2)c2cc(N3CC[NH2+]CC3)ccc2c1=O)c1ccc(-c2c3nc(c(-c4ccc(S(=O)(=O)[O-])cc4)c4ccc([nH]4)c(-c4ccc(S(=O)(=O)[O-])cc4)c4nc(c(-c5ccc(S(=O)(=O)[O-])cc5)c5ccc2[nH]5)C=C4)C=C3)cc1
REMARK SMILES IDX 5 1 4 2 3 3 2 4 1 5 32 6 33 7 91 8 34 9 90 10 35 11 36 12
REMARK SMILES IDX 37 13 84 14 38 15 89 16 83 17 85 18 39 19 88 20 82 21 81 22
REMARK SMILES IDX 40 24 70 25 51 26 69 27 52 28 55 29 68 30 86 31 53 32 54 33
REMARK SMILES IDX 67 35 87 36 56 37 41 38 42 39 50 40 43 41 49 42 44 43 45 44
REMARK SMILES IDX 46 45 47 46 48 47 71 48 72 49 80 50 73 51 79 52 74 53 75 54
REMARK SMILES IDX 76 55 77 56 78 57 57 58 58 59 66 60 59 61 65 62 60 63 61 64
REMARK SMILES IDX 62 65 63 66 64 67 6 68 7 69 8 70 9 71 10 72 11 73 12 74
REMARK SMILES IDX 13 75 30 76 14 77 29 78 31 79 18 80 28 81 19 82 27 83 20 84
REMARK SMILES IDX 15 85 16 86 17 87 21 88 22 89 26 90 23 91 25 92 24 93
REMARK H PARENT 85 23 55 34 24 94 24 95
REMARK Flexibility Score: inf
ROOT
ATOM      1  C   UNL A   1      31.726  30.429  25.700  1.00  0.00     0.202 C 
ENDROOT
BRANCH   1   2
ATOM      2  C   UNL A   1      32.105  30.299  27.174  1.00  0.00     0.261 C 
BRANCH   2   3
ATOM      3  O   UNL A   1      33.481  29.931  27.328  1.00  0.00    -0.460 OA
BRANCH   3   4
ATOM      4  C   UNL A   1      34.534  30.702  27.682  1.00  0.00     0.338 C 
ATOM      5  O   UNL A   1      34.426  31.914  27.484  1.00  0.00    -0.246 OA
BRANCH   4   6
ATOM      6  C   UNL A   1      35.834  30.210  28.266  1.00  0.00     0.060 A 
ATOM      7  C   UNL A   1      36.937  30.195  27.387  1.00  0.00     0.016 A 
ATOM      8  C   UNL A   1      36.042  29.710  29.554  1.00  0.00     0.016 A 
ATOM      9  C   UNL A   1      38.175  29.671  27.773  1.00  0.00     0.010 A 
ATOM     10  C   UNL A   1      37.264  29.169  29.943  1.00  0.00     0.010 A 
ATOM     11  C   UNL A   1      38.336  29.147  29.055  1.00  0.00    -0.014 A 
BRANCH  11  12
ATOM     12  C   UNL A   1      39.642  28.702  29.566  1.00  0.00     0.031 A 
ATOM     13  C   UNL A   1      40.494  29.611  30.393  1.00  0.00     0.074 A 
ATOM     14  C   UNL A   1      40.089  27.513  29.127  1.00  0.00     0.049 A 
ATOM     15  N   UNL A   1      41.666  29.373  30.915  1.00  0.00    -0.248 NA
ATOM     16  C   UNL A   1      39.978  30.964  30.659  1.00  0.00     0.031 C 
ATOM     17  C   UNL A   1      39.339  26.621  28.236  1.00  0.00     0.029 A 
ATOM     18  N   UNL A   1      41.274  26.865  29.332  1.00  0.00    -0.354 N 
ATOM     19  C   UNL A   1      42.022  30.532  31.592  1.00  0.00     0.074 A 
ATOM     20  C   UNL A   1      40.963  31.493  31.375  1.00  0.00     0.031 C 
ATOM     21  C   UNL A   1      40.089  25.544  27.965  1.00  0.00     0.029 A 
ATOM     22  C   UNL A   1      41.367  25.673  28.657  1.00  0.00     0.049 A 
ATOM     23  H   UNL A   1      41.991  27.218  29.907  1.00  0.00     0.167 HD
ATOM     24  C   UNL A   1      43.130  30.748  32.339  1.00  0.00     0.031 A 
ATOM     25  C   UNL A   1      42.368  24.775  28.611  1.00  0.00     0.031 A 
ATOM     26  C   UNL A   1      44.175  29.767  32.494  1.00  0.00     0.049 A 
ATOM     27  C   UNL A   1      43.580  25.027  29.454  1.00  0.00     0.074 A 
ATOM     28  C   UNL A   1      45.304  29.834  33.290  1.00  0.00     0.029 A 
ATOM     29  N   UNL A   1      44.225  28.549  31.826  1.00  0.00    -0.354 N 
ATOM     30  N   UNL A   1      43.846  26.070  30.207  1.00  0.00    -0.248 NA
ATOM     31  C   UNL A   1      44.611  23.984  29.476  1.00  0.00     0.031 C 
ATOM     32  C   UNL A   1      46.069  28.689  33.051  1.00  0.00     0.029 A 
ATOM     33  C   UNL A   1      45.384  27.872  32.164  1.00  0.00     0.049 A 
ATOM     34  H   UNL A   1      43.539  28.218  31.204  1.00  0.00     0.167 HD
ATOM     35  C   UNL A   1      45.067  25.804  30.808  1.00  0.00     0.074 A 
ATOM     36  C   UNL A   1      45.481  24.494  30.341  1.00  0.00     0.031 C 
ATOM     37  C   UNL A   1      45.778  26.574  31.668  1.00  0.00     0.031 A 
BRANCH  24  38
ATOM     38  C   UNL A   1      43.270  32.058  33.077  1.00  0.00    -0.014 A 
ATOM     39  C   UNL A   1      42.676  32.227  34.342  1.00  0.00     0.010 A 
ATOM     40  C   UNL A   1      43.863  33.171  32.453  1.00  0.00     0.010 A 
ATOM     41  C   UNL A   1      42.638  33.486  34.950  1.00  0.00     0.020 A 
ATOM     42  C   UNL A   1      43.849  34.427  33.069  1.00  0.00     0.020 A 
ATOM     43  C   UNL A   1      43.213  34.583  34.302  1.00  0.00     0.054 A 
BRANCH  43  44
ATOM     44  S   UNL A   1      43.109  36.220  35.079  1.00  0.00     0.124 S 
ATOM     45  O   UNL A   1      43.479  35.931  36.462  1.00  0.00    -0.237 OA
ATOM     46  O   UNL A   1      44.078  37.001  34.315  1.00  0.00    -0.237 OA
ATOM     47  O   UNL A   1      41.713  36.608  34.875  1.00  0.00    -0.744 OA
ENDBRANCH  43  44
ENDBRANCH  24  38
BRANCH  25  48
ATOM     48  C   UNL A   1      42.169  23.537  27.813  1.00  0.00    -0.014 A 
ATOM     49  C   UNL A   1      41.223  22.573  28.215  1.00  0.00     0.010 A 
ATOM     50  C   UNL A   1      43.055  23.232  26.765  1.00  0.00     0.010 A 
ATOM     51  C   UNL A   1      41.214  21.304  27.628  1.00  0.00     0.020 A 
ATOM     52  C   UNL A   1      43.032  21.971  26.161  1.00  0.00     0.020 A 
ATOM     53  C   UNL A   1      42.137  21.004  26.622  1.00  0.00     0.054 A 
BRANCH  53  54
ATOM     54  S   UNL A   1      42.185  19.317  25.955  1.00  0.00     0.124 S 
ATOM     55  O   UNL A   1      40.765  19.017  25.796  1.00  0.00    -0.237 OA
ATOM     56  O   UNL A   1      42.935  19.485  24.714  1.00  0.00    -0.237 OA
ATOM     57  O   UNL A   1      42.872  18.556  26.996  1.00  0.00    -0.744 OA
ENDBRANCH  53  54
ENDBRANCH  25  48
BRANCH  37  58
ATOM     58  C   UNL A   1      47.099  26.042  32.152  1.00  0.00    -0.014 A 
ATOM     59  C   UNL A   1      48.224  26.101  31.311  1.00  0.00     0.010 A 
ATOM     60  C   UNL A   1      47.181  25.346  33.371  1.00  0.00     0.010 A 
ATOM     61  C   UNL A   1      49.399  25.432  31.658  1.00  0.00     0.020 A 
ATOM     62  C   UNL A   1      48.364  24.699  33.733  1.00  0.00     0.020 A 
ATOM     63  C   UNL A   1      49.455  24.722  32.860  1.00  0.00     0.054 A 
BRANCH  63  64
ATOM     64  S   UNL A   1      50.968  23.809  33.265  1.00  0.00     0.124 S 
ATOM     65  O   UNL A   1      50.534  22.976  34.382  1.00  0.00    -0.237 OA
ATOM     66  O   UNL A   1      51.256  23.097  32.022  1.00  0.00    -0.237 OA
ATOM     67  O   UNL A   1      51.923  24.862  33.605  1.00  0.00    -0.744 OA
ENDBRANCH  63  64
ENDBRANCH  37  58
ENDBRANCH  11  12
ENDBRANCH   4   6
ENDBRANCH   3   4
ENDBRANCH   2   3
ENDBRANCH   1   2
BRANCH   1  68
ATOM     68  O   UNL A   1      32.364  29.467  24.864  1.00  0.00    -0.374 OA
BRANCH  68  69
ATOM     69  C   UNL A   1      31.566  28.906  23.822  1.00  0.00     0.202 C 
BRANCH  69  70
ATOM     70  C   UNL A   1      31.218  27.460  24.178  1.00  0.00     0.261 C 
BRANCH  70  71
ATOM     71  O   UNL A   1      32.049  26.592  23.392  1.00  0.00    -0.459 OA
BRANCH  71  72
ATOM     72  C   UNL A   1      33.175  26.127  24.003  1.00  0.00     0.343 C 
ATOM     73  O   UNL A   1      34.077  26.797  24.475  1.00  0.00    -0.246 OA
BRANCH  72  74
ATOM     74  C   UNL A   1      33.055  24.662  24.103  1.00  0.00     0.124 A 
ATOM     75  C   UNL A   1      33.607  24.034  25.150  1.00  0.00     0.106 A 
ATOM     76  C   UNL A   1      32.431  23.829  23.055  1.00  0.00     0.203 A 
ATOM     77  N   UNL A   1      33.672  22.670  25.352  1.00  0.00    -0.343 N 
ATOM     78  C   UNL A   1      32.552  22.358  23.192  1.00  0.00     0.047 A 
ATOM     79  O   UNL A   1      31.852  24.299  22.083  1.00  0.00    -0.288 OA
ATOM     80  C   UNL A   1      33.097  21.811  24.367  1.00  0.00     0.054 A 
ATOM     81  C   UNL A   1      32.094  21.541  22.148  1.00  0.00     0.016 A 
ATOM     82  C   UNL A   1      33.036  20.419  24.503  1.00  0.00     0.053 A 
ATOM     83  C   UNL A   1      32.108  20.155  22.293  1.00  0.00     0.027 A 
ATOM     84  C   UNL A   1      32.534  19.582  23.491  1.00  0.00     0.039 A 
BRANCH  77  85
ATOM     85  C   UNL A   1      34.383  22.138  26.544  1.00  0.00     0.087 C 
ATOM     86  C   UNL A   1      34.755  22.923  27.778  1.00  0.00     0.027 C 
ATOM     87  C   UNL A   1      33.640  21.919  27.837  1.00  0.00     0.027 C 
ENDBRANCH  77  85
BRANCH  84  88
ATOM     88  N   UNL A   1      32.401  18.232  23.748  1.00  0.00    -0.360 N 
ATOM     89  C   UNL A   1      32.999  17.314  22.770  1.00  0.00     0.178 C 
ATOM     90  C   UNL A   1      32.122  17.719  25.090  1.00  0.00     0.178 C 
ATOM     91  C   UNL A   1      34.145  16.502  23.412  1.00  0.00     0.282 C 
ATOM     92  C   UNL A   1      33.270  16.832  25.619  1.00  0.00     0.282 C 
ATOM     93  N   UNL A   1      33.737  15.810  24.654  1.00  0.00    -0.343 N 
ATOM     94  H   UNL A   1      34.531  15.304  25.045  1.00  0.00     0.346 HD
ATOM     95  H   UNL A   1      32.990  15.144  24.458  1.00  0.00     0.346 HD
ENDBRANCH  84  88
ENDBRANCH  72  74
ENDBRANCH  71  72
ENDBRANCH  70  71
ENDBRANCH  69  70
ENDBRANCH  68  69
ENDBRANCH   1  68
TORSDOF 19
ENDMDL
MODEL 3
REMARK VINA RESULT:     -10.3      3.159      7.295
REMARK SMILES O=C(OCCOCCOC(=O)c1cn(C2CC2)c2cc(N3CC[NH2+]CC3)ccc2c1=O)c1ccc(-c2c3nc(c(-c4ccc(S(=O)(=O)[O-])cc4)c4ccc([nH]4)c(-c4ccc(S(=O)(=O)[O-])cc4)c4nc(c(-c5ccc(S(=O)(=O)[O-])cc5)c5ccc2[nH]5)C=C4)C=C3)cc1
REMARK SMILES IDX 5 1 4 2 3 3 2 4 1 5 32 6 33 7 91 8 34 9 90 10 35 11 36 12
REMARK SMILES IDX 37 13 84 14 38 15 89 16 83 17 85 18 39 19 88 20 82 21 81 22
REMARK SMILES IDX 40 24 70 25 51 26 69 27 52 28 55 29 68 30 86 31 53 32 54 33
REMARK SMILES IDX 67 35 87 36 56 37 41 38 42 39 50 40 43 41 49 42 44 43 45 44
REMARK SMILES IDX 46 45 47 46 48 47 71 48 72 49 80 50 73 51 79 52 74 53 75 54
REMARK SMILES IDX 76 55 77 56 78 57 57 58 58 59 66 60 59 61 65 62 60 63 61 64
REMARK SMILES IDX 62 65 63 66 64 67 6 68 7 69 8 70 9 71 10 72 11 73 12 74
REMARK SMILES IDX 13 75 30 76 14 77 29 78 31 79 18 80 28 81 19 82 27 83 20 84
REMARK SMILES IDX 15 85 16 86 17 87 21 88 22 89 26 90 23 91 25 92 24 93
REMARK H PARENT 85 23 55 34 24 94 24 95
REMARK Flexibility Score: inf
ROOT
ATOM      1  C   UNL A   1      31.601  30.517  25.753  1.00  0.00     0.202 C 
ENDROOT
BRANCH   1   2
ATOM      2  C   UNL A   1      32.282  30.458  27.119  1.00  0.00     0.261 C 
BRANCH   2   3
ATOM      3  O   UNL A   1      33.676  30.771  27.021  1.00  0.00    -0.460 OA
BRANCH   3   4
ATOM      4  C   UNL A   1      34.457  31.458  27.885  1.00  0.00     0.338 C 
ATOM      5  O   UNL A   1      34.114  32.612  28.147  1.00  0.00    -0.246 OA
BRANCH   4   6
ATOM      6  C   UNL A   1      35.721  30.949  28.531  1.00  0.00     0.060 A 
ATOM      7  C   UNL A   1      36.872  31.743  28.340  1.00  0.00     0.016 A 
ATOM      8  C   UNL A   1      35.885  29.752  29.233  1.00  0.00     0.016 A 
ATOM      9  C   UNL A   1      38.128  31.336  28.803  1.00  0.00     0.010 A 
ATOM     10  C   UNL A   1      37.133  29.329  29.681  1.00  0.00     0.010 A 
ATOM     11  C   UNL A   1      38.259  30.118  29.468  1.00  0.00    -0.014 A 
BRANCH  11  12
ATOM     12  C   UNL A   1      39.522  29.694  30.092  1.00  0.00     0.031 A 
ATOM     13  C   UNL A   1      40.282  28.517  29.569  1.00  0.00     0.074 A 
ATOM     14  C   UNL A   1      39.871  30.314  31.233  1.00  0.00     0.049 A 
ATOM     15  N   UNL A   1      41.405  28.015  30.006  1.00  0.00    -0.248 NA
ATOM     16  C   UNL A   1      39.706  27.799  28.420  1.00  0.00     0.031 C 
ATOM     17  C   UNL A   1      39.114  31.410  31.847  1.00  0.00     0.029 A 
ATOM     18  N   UNL A   1      40.911  30.101  32.093  1.00  0.00    -0.354 N 
ATOM     19  C   UNL A   1      41.688  26.939  29.176  1.00  0.00     0.074 A 
ATOM     20  C   UNL A   1      40.593  26.827  28.236  1.00  0.00     0.031 C 
ATOM     21  C   UNL A   1      39.713  31.767  32.991  1.00  0.00     0.029 A 
ATOM     22  C   UNL A   1      40.887  30.925  33.191  1.00  0.00     0.049 A 
ATOM     23  H   UNL A   1      41.608  29.423  31.940  1.00  0.00     0.167 HD
ATOM     24  C   UNL A   1      42.779  26.138  29.200  1.00  0.00     0.031 A 
ATOM     25  C   UNL A   1      41.729  31.003  34.238  1.00  0.00     0.031 A 
ATOM     26  C   UNL A   1      43.826  26.269  30.182  1.00  0.00     0.049 A 
ATOM     27  C   UNL A   1      42.937  30.117  34.239  1.00  0.00     0.074 A 
ATOM     28  C   UNL A   1      45.020  25.576  30.261  1.00  0.00     0.029 A 
ATOM     29  N   UNL A   1      43.794  27.140  31.264  1.00  0.00    -0.354 N 
ATOM     30  N   UNL A   1      43.269  29.193  33.367  1.00  0.00    -0.248 NA
ATOM     31  C   UNL A   1      43.899  30.295  35.332  1.00  0.00     0.031 C 
ATOM     32  C   UNL A   1      45.676  25.979  31.427  1.00  0.00     0.029 A 
ATOM     33  C   UNL A   1      44.930  26.976  32.037  1.00  0.00     0.049 A 
ATOM     34  H   UNL A   1      43.070  27.779  31.453  1.00  0.00     0.167 HD
ATOM     35  C   UNL A   1      44.489  28.688  33.794  1.00  0.00     0.074 A 
ATOM     36  C   UNL A   1      44.841  29.421  34.996  1.00  0.00     0.031 C 
ATOM     37  C   UNL A   1      45.246  27.710  33.240  1.00  0.00     0.031 A 
BRANCH  24  38
ATOM     38  C   UNL A   1      42.934  25.083  28.131  1.00  0.00    -0.014 A 
ATOM     39  C   UNL A   1      42.565  23.749  28.391  1.00  0.00     0.010 A 
ATOM     40  C   UNL A   1      43.584  25.381  26.919  1.00  0.00     0.010 A 
ATOM     41  C   UNL A   1      42.875  22.732  27.482  1.00  0.00     0.020 A 
ATOM     42  C   UNL A   1      43.874  24.371  25.996  1.00  0.00     0.020 A 
ATOM     43  C   UNL A   1      43.542  23.048  26.295  1.00  0.00     0.054 A 
BRANCH  43  44
ATOM     44  S   UNL A   1      43.985  21.711  25.150  1.00  0.00     0.124 S 
ATOM     45  O   UNL A   1      42.954  20.714  25.424  1.00  0.00    -0.237 OA
ATOM     46  O   UNL A   1      43.904  22.364  23.847  1.00  0.00    -0.237 OA
ATOM     47  O   UNL A   1      45.338  21.339  25.565  1.00  0.00    -0.744 OA
ENDBRANCH  43  44
ENDBRANCH  24  38
BRANCH  25  48
ATOM     48  C   UNL A   1      41.470  32.035  35.276  1.00  0.00    -0.014 A 
ATOM     49  C   UNL A   1      40.622  31.754  36.366  1.00  0.00     0.010 A 
ATOM     50  C   UNL A   1      41.913  33.353  35.075  1.00  0.00     0.010 A 
ATOM     51  C   UNL A   1      40.168  32.786  37.193  1.00  0.00     0.020 A 
ATOM     52  C   UNL A   1      41.479  34.384  35.916  1.00  0.00     0.020 A 
ATOM     53  C   UNL A   1      40.580  34.098  36.946  1.00  0.00     0.054 A 
BRANCH  53  54
ATOM     54  S   UNL A   1      39.890  35.437  37.959  1.00  0.00     0.124 S 
ATOM     55  O   UNL A   1      40.929  35.613  38.970  1.00  0.00    -0.237 OA
ATOM     56  O   UNL A   1      39.756  36.528  36.998  1.00  0.00    -0.237 OA
ATOM     57  O   UNL A   1      38.631  34.881  38.448  1.00  0.00    -0.744 OA
ENDBRANCH  53  54
ENDBRANCH  25  48
BRANCH  37  58
ATOM     58  C   UNL A   1      46.528  27.344  33.934  1.00  0.00    -0.014 A 
ATOM     59  C   UNL A   1      47.743  27.896  33.491  1.00  0.00     0.010 A 
ATOM     60  C   UNL A   1      46.543  26.336  34.914  1.00  0.00     0.010 A 
ATOM     61  C   UNL A   1      48.958  27.415  33.983  1.00  0.00     0.020 A 
ATOM     62  C   UNL A   1      47.755  25.872  35.428  1.00  0.00     0.020 A 
ATOM     63  C   UNL A   1      48.955  26.394  34.937  1.00  0.00     0.054 A 
BRANCH  63  64
ATOM     64  S   UNL A   1      50.543  25.739  35.518  1.00  0.00     0.124 S 
ATOM     65  O   UNL A   1      51.002  24.976  34.362  1.00  0.00    -0.237 OA
ATOM     66  O   UNL A   1      51.302  26.952  35.815  1.00  0.00    -0.237 OA
ATOM     67  O   UNL A   1      50.177  24.942  36.688  1.00  0.00    -0.744 OA
ENDBRANCH  63  64
ENDBRANCH  37  58
ENDBRANCH  11  12
ENDBRANCH   4   6
ENDBRANCH   3   4
ENDBRANCH   2   3
ENDBRANCH   1   2
BRANCH   1  68
ATOM     68  O   UNL A   1      31.752  29.321  24.992  1.00  0.00    -0.374 OA
BRANCH  68  69
ATOM     69  C   UNL A   1      31.452  28.100  25.667  1.00  0.00     0.202 C 
BRANCH  69  70
ATOM     70  C   UNL A   1      32.524  27.062  25.331  1.00  0.00     0.261 C 
BRANCH  70  71
ATOM     71  O   UNL A   1      32.234  26.523  24.032  1.00  0.00    -0.459 OA
BRANCH  71  72
ATOM     72  C   UNL A   1      33.295  26.016  23.343  1.00  0.00     0.343 C 
ATOM     73  O   UNL A   1      34.030  26.625  22.586  1.00  0.00    -0.246 OA
BRANCH  72  74
ATOM     74  C   UNL A   1      33.476  24.617  23.771  1.00  0.00     0.124 A 
ATOM     75  C   UNL A   1      34.542  24.298  24.517  1.00  0.00     0.106 A 
ATOM     76  C   UNL A   1      32.586  23.519  23.342  1.00  0.00     0.203 A 
ATOM     77  N   UNL A   1      34.915  23.033  24.924  1.00  0.00    -0.343 N 
ATOM     78  C   UNL A   1      32.996  22.137  23.685  1.00  0.00     0.047 A 
ATOM     79  O   UNL A   1      31.557  23.702  22.703  1.00  0.00    -0.288 OA
ATOM     80  C   UNL A   1      34.101  21.928  24.528  1.00  0.00     0.054 A 
ATOM     81  C   UNL A   1      32.250  21.063  23.176  1.00  0.00     0.016 A 
ATOM     82  C   UNL A   1      34.338  20.612  24.944  1.00  0.00     0.053 A 
ATOM     83  C   UNL A   1      32.556  19.760  23.562  1.00  0.00     0.027 A 
ATOM     84  C   UNL A   1      33.572  19.525  24.487  1.00  0.00     0.039 A 
BRANCH  77  85
ATOM     85  C   UNL A   1      36.170  22.851  25.698  1.00  0.00     0.087 C 
ATOM     86  C   UNL A   1      37.522  22.500  25.127  1.00  0.00     0.027 C 
ATOM     87  C   UNL A   1      37.260  23.890  25.633  1.00  0.00     0.027 C 
ENDBRANCH  77  85
BRANCH  84  88
ATOM     88  N   UNL A   1      33.796  18.277  25.033  1.00  0.00    -0.360 N 
ATOM     89  C   UNL A   1      32.734  17.734  25.891  1.00  0.00     0.178 C 
ATOM     90  C   UNL A   1      34.764  17.340  24.463  1.00  0.00     0.178 C 
ATOM     91  C   UNL A   1      32.123  16.462  25.264  1.00  0.00     0.282 C 
ATOM     92  C   UNL A   1      34.086  16.049  23.954  1.00  0.00     0.282 C 
ATOM     93  N   UNL A   1      33.139  15.444  24.917  1.00  0.00    -0.343 N 
ATOM     94  H   UNL A   1      32.686  14.635  24.494  1.00  0.00     0.346 HD
ATOM     95  H   UNL A   1      33.634  15.140  25.755  1.00  0.00     0.346 HD
ENDBRANCH  84  88
ENDBRANCH  72  74
ENDBRANCH  71  72
ENDBRANCH  70  71
ENDBRANCH  69  70
ENDBRANCH  68  69
ENDBRANCH   1  68
TORSDOF 19
ENDMDL
