MODEL 1
REMARK VINA RESULT:     -10.0      0.000      0.000
REMARK SMILES CC(C)(C)C(=O)NCC(=O)Nc1cc(Cl)ccc1C(=O)OCCOCCOC(=O)c1ccc(-c2c3nc(c(-c4ccc(S(=O)(=O)[O-])cc4)c4ccc([nH]4)c(-c4ccc(S(=O)(=O)[O-])cc4)c4nc(c(-c5ccc(S(=O)(=O)[O-])cc5)c5ccc2[nH]5)C=C4)C=C3)cc1
REMARK SMILES IDX 23 1 22 2 21 3 19 4 20 5 18 6 12 7 13 8 14 9 17 10 15 11
REMARK SMILES IDX 16 12 11 13 9 14 10 15 8 17 7 18 5 19 6 20 2 22 1 23 3 24
REMARK SMILES IDX 4 25 24 26 25 27 26 28 27 29 28 30 29 31 30 32 31 33 89 34
REMARK SMILES IDX 32 35 88 36 33 37 34 38 35 39 82 40 36 41 87 42 81 43 83 44
REMARK SMILES IDX 37 45 86 46 80 47 79 48 38 50 68 51 49 52 67 53 50 54 53 55
REMARK SMILES IDX 66 56 84 57 51 58 52 59 65 61 85 62 54 63 39 64 40 65 48 66
REMARK SMILES IDX 41 67 47 68 42 69 43 70 44 71 45 72 46 73 69 74 70 75 78 76
REMARK SMILES IDX 71 77 77 78 72 79 73 80 74 81 75 82 76 83 55 84 56 85 64 86
REMARK SMILES IDX 57 87 63 88 58 89 59 90 60 91 61 92 62 93
REMARK H PARENT 11 16 7 21 83 49 53 60
REMARK Flexibility Score: inf
ROOT
ATOM      1  C   UNL A   1      38.449  21.981  25.428  1.00  0.00     0.202 C 
ENDROOT
BRANCH   1   2
ATOM      2  C   UNL A   1      37.239  22.904  25.595  1.00  0.00     0.261 C 
BRANCH   2   3
ATOM      3  O   UNL A   1      36.183  22.560  24.678  1.00  0.00    -0.460 OA
BRANCH   3   4
ATOM      4  C   UNL A   1      35.312  21.642  25.157  1.00  0.00     0.340 C 
ATOM      5  O   UNL A   1      35.558  20.462  25.364  1.00  0.00    -0.246 OA
BRANCH   4   6
ATOM      6  C   UNL A   1      33.986  22.228  25.499  1.00  0.00     0.083 A 
ATOM      7  C   UNL A   1      33.015  22.704  24.589  1.00  0.00     0.057 A 
ATOM      8  C   UNL A   1      31.731  22.941  25.085  1.00  0.00     0.047 A 
ATOM      9  C   UNL A   1      31.467  22.925  26.458  1.00  0.00     0.043 A 
ATOM     10  C   UNL A   1      33.723  22.270  26.884  1.00  0.00     0.019 A 
ATOM     11  Cl  UNL A   1      29.879  23.227  27.042  1.00  0.00    -0.084 Cl
ATOM     12  C   UNL A   1      32.478  22.652  27.366  1.00  0.00     0.021 A 
BRANCH   7  13
ATOM     13  N   UNL A   1      33.314  22.854  23.223  1.00  0.00    -0.324 N 
ATOM     14  C   UNL A   1      33.005  23.769  22.257  1.00  0.00     0.243 C 
ATOM     15  O   UNL A   1      33.422  23.489  21.122  1.00  0.00    -0.273 OA
ATOM     16  H   UNL A   1      33.882  22.126  22.881  1.00  0.00     0.170 HD
BRANCH  14  17
ATOM     17  C   UNL A   1      32.494  25.212  22.491  1.00  0.00     0.216 C 
BRANCH  17  18
ATOM     18  N   UNL A   1      33.232  26.179  23.273  1.00  0.00    -0.347 N 
ATOM     19  C   UNL A   1      32.886  27.243  24.037  1.00  0.00     0.225 C 
ATOM     20  O   UNL A   1      33.834  27.799  24.605  1.00  0.00    -0.275 OA
ATOM     21  H   UNL A   1      34.205  26.032  23.242  1.00  0.00     0.164 HD
BRANCH  19  22
ATOM     22  C   UNL A   1      31.437  27.710  24.283  1.00  0.00     0.041 C 
ATOM     23  C   UNL A   1      31.497  28.990  25.154  1.00  0.00     0.021 C 
ATOM     24  C   UNL A   1      30.716  26.619  25.083  1.00  0.00     0.021 C 
ATOM     25  C   UNL A   1      30.635  28.084  23.032  1.00  0.00     0.021 C 
ENDBRANCH  19  22
ENDBRANCH  17  18
ENDBRANCH  14  17
ENDBRANCH   7  13
ENDBRANCH   4   6
ENDBRANCH   3   4
ENDBRANCH   2   3
ENDBRANCH   1   2
BRANCH   1  26
ATOM     26  O   UNL A   1      39.344  21.921  26.539  1.00  0.00    -0.374 OA
BRANCH  26  27
ATOM     27  C   UNL A   1      40.697  22.314  26.297  1.00  0.00     0.202 C 
BRANCH  27  28
ATOM     28  C   UNL A   1      41.129  23.650  26.913  1.00  0.00     0.261 C 
BRANCH  28  29
ATOM     29  O   UNL A   1      40.061  24.614  26.878  1.00  0.00    -0.460 OA
BRANCH  29  30
ATOM     30  C   UNL A   1      40.444  25.877  26.580  1.00  0.00     0.338 C 
ATOM     31  O   UNL A   1      40.803  26.297  25.485  1.00  0.00    -0.246 OA
BRANCH  30  32
ATOM     32  C   UNL A   1      40.186  26.772  27.725  1.00  0.00     0.060 A 
ATOM     33  C   UNL A   1      40.780  28.042  27.698  1.00  0.00     0.016 A 
ATOM     34  C   UNL A   1      39.429  26.368  28.826  1.00  0.00     0.016 A 
ATOM     35  C   UNL A   1      40.669  28.888  28.799  1.00  0.00     0.010 A 
ATOM     36  C   UNL A   1      39.324  27.218  29.933  1.00  0.00     0.010 A 
ATOM     37  C   UNL A   1      39.977  28.464  29.940  1.00  0.00    -0.014 A 
BRANCH  37  38
ATOM     38  C   UNL A   1      40.070  29.259  31.189  1.00  0.00     0.031 A 
ATOM     39  C   UNL A   1      41.218  29.006  32.129  1.00  0.00     0.074 A 
ATOM     40  C   UNL A   1      39.166  30.217  31.467  1.00  0.00     0.049 A 
ATOM     41  N   UNL A   1      41.487  29.568  33.280  1.00  0.00    -0.248 NA
ATOM     42  C   UNL A   1      42.193  27.981  31.719  1.00  0.00     0.031 C 
ATOM     43  C   UNL A   1      38.037  30.586  30.616  1.00  0.00     0.029 A 
ATOM     44  N   UNL A   1      39.060  31.053  32.550  1.00  0.00    -0.354 N 
ATOM     45  C   UNL A   1      42.651  28.958  33.736  1.00  0.00     0.074 A 
ATOM     46  C   UNL A   1      43.022  27.965  32.752  1.00  0.00     0.031 C 
ATOM     47  C   UNL A   1      37.349  31.577  31.211  1.00  0.00     0.029 A 
ATOM     48  C   UNL A   1      37.969  31.886  32.497  1.00  0.00     0.049 A 
ATOM     49  H   UNL A   1      39.706  31.056  33.293  1.00  0.00     0.167 HD
ATOM     50  C   UNL A   1      43.349  29.206  34.870  1.00  0.00     0.031 A 
ATOM     51  C   UNL A   1      37.511  32.784  33.393  1.00  0.00     0.031 A 
ATOM     52  C   UNL A   1      42.971  30.188  35.850  1.00  0.00     0.049 A 
ATOM     53  C   UNL A   1      38.268  32.994  34.680  1.00  0.00     0.074 A 
ATOM     54  C   UNL A   1      43.623  30.526  37.025  1.00  0.00     0.029 A 
ATOM     55  N   UNL A   1      41.841  30.988  35.777  1.00  0.00    -0.354 N 
ATOM     56  N   UNL A   1      39.379  32.425  35.087  1.00  0.00    -0.248 NA
ATOM     57  C   UNL A   1      37.715  33.976  35.623  1.00  0.00     0.031 C 
ATOM     58  C   UNL A   1      42.856  31.489  37.688  1.00  0.00     0.029 A 
ATOM     59  C   UNL A   1      41.762  31.800  36.895  1.00  0.00     0.049 A 
ATOM     60  H   UNL A   1      41.191  30.980  35.038  1.00  0.00     0.167 HD
ATOM     61  C   UNL A   1      39.675  33.006  36.315  1.00  0.00     0.074 A 
ATOM     62  C   UNL A   1      38.632  33.976  36.581  1.00  0.00     0.031 C 
ATOM     63  C   UNL A   1      40.720  32.765  37.145  1.00  0.00     0.031 A 
BRANCH  50  64
ATOM     64  C   UNL A   1      44.576  28.372  35.128  1.00  0.00    -0.014 A 
ATOM     65  C   UNL A   1      45.846  28.780  34.683  1.00  0.00     0.010 A 
ATOM     66  C   UNL A   1      44.460  27.178  35.864  1.00  0.00     0.010 A 
ATOM     67  C   UNL A   1      46.971  27.990  34.935  1.00  0.00     0.020 A 
ATOM     68  C   UNL A   1      45.587  26.400  36.143  1.00  0.00     0.020 A 
ATOM     69  C   UNL A   1      46.834  26.803  35.662  1.00  0.00     0.054 A 
BRANCH  69  70
ATOM     70  S   UNL A   1      48.313  25.807  35.992  1.00  0.00     0.124 S 
ATOM     71  O   UNL A   1      47.881  24.993  37.125  1.00  0.00    -0.237 OA
ATOM     72  O   UNL A   1      48.499  25.085  34.736  1.00  0.00    -0.237 OA
ATOM     73  O   UNL A   1      49.341  26.799  36.294  1.00  0.00    -0.744 OA
ENDBRANCH  69  70
ENDBRANCH  50  64
BRANCH  51  74
ATOM     74  C   UNL A   1      36.264  33.546  33.113  1.00  0.00    -0.014 A 
ATOM     75  C   UNL A   1      36.323  34.858  32.610  1.00  0.00     0.010 A 
ATOM     76  C   UNL A   1      35.007  32.962  33.351  1.00  0.00     0.010 A 
ATOM     77  C   UNL A   1      35.148  35.578  32.369  1.00  0.00     0.020 A 
ATOM     78  C   UNL A   1      33.830  33.667  33.084  1.00  0.00     0.020 A 
ATOM     79  C   UNL A   1      33.909  34.976  32.606  1.00  0.00     0.054 A 
BRANCH  79  80
ATOM     80  S   UNL A   1      32.397  35.911  32.238  1.00  0.00     0.124 S 
ATOM     81  O   UNL A   1      32.608  37.139  32.998  1.00  0.00    -0.237 OA
ATOM     82  O   UNL A   1      32.457  36.047  30.785  1.00  0.00    -0.237 OA
ATOM     83  O   UNL A   1      31.330  35.043  32.731  1.00  0.00    -0.744 OA
ENDBRANCH  79  80
ENDBRANCH  51  74
BRANCH  63  84
ATOM     84  C   UNL A   1      40.823  33.596  38.398  1.00  0.00    -0.014 A 
ATOM     85  C   UNL A   1      41.424  34.867  38.390  1.00  0.00     0.010 A 
ATOM     86  C   UNL A   1      40.254  33.115  39.592  1.00  0.00     0.010 A 
ATOM     87  C   UNL A   1      41.483  35.626  39.563  1.00  0.00     0.020 A 
ATOM     88  C   UNL A   1      40.286  33.883  40.759  1.00  0.00     0.020 A 
ATOM     89  C   UNL A   1      40.914  35.129  40.739  1.00  0.00     0.054 A 
BRANCH  89  90
ATOM     90  S   UNL A   1      40.968  36.152  42.238  1.00  0.00     0.124 S 
ATOM     91  O   UNL A   1      39.936  35.533  43.065  1.00  0.00    -0.237 OA
ATOM     92  O   UNL A   1      42.341  35.968  42.702  1.00  0.00    -0.237 OA
ATOM     93  O   UNL A   1      40.655  37.494  41.752  1.00  0.00    -0.744 OA
ENDBRANCH  89  90
ENDBRANCH  63  84
ENDBRANCH  37  38
ENDBRANCH  30  32
ENDBRANCH  29  30
ENDBRANCH  28  29
ENDBRANCH  27  28
ENDBRANCH  26  27
ENDBRANCH   1  26
TORSDOF 21
ENDMDL
MODEL 2
REMARK VINA RESULT:     -10.0      2.209      3.880
REMARK SMILES CC(C)(C)C(=O)NCC(=O)Nc1cc(Cl)ccc1C(=O)OCCOCCOC(=O)c1ccc(-c2c3nc(c(-c4ccc(S(=O)(=O)[O-])cc4)c4ccc([nH]4)c(-c4ccc(S(=O)(=O)[O-])cc4)c4nc(c(-c5ccc(S(=O)(=O)[O-])cc5)c5ccc2[nH]5)C=C4)C=C3)cc1
REMARK SMILES IDX 23 1 22 2 21 3 19 4 20 5 18 6 12 7 13 8 14 9 17 10 15 11
REMARK SMILES IDX 16 12 11 13 9 14 10 15 8 17 7 18 5 19 6 20 2 22 1 23 3 24
REMARK SMILES IDX 4 25 24 26 25 27 26 28 27 29 28 30 29 31 30 32 31 33 89 34
REMARK SMILES IDX 32 35 88 36 33 37 34 38 35 39 82 40 36 41 87 42 81 43 83 44
REMARK SMILES IDX 37 45 86 46 80 47 79 48 38 50 68 51 49 52 67 53 50 54 53 55
REMARK SMILES IDX 66 56 84 57 51 58 52 59 65 61 85 62 54 63 39 64 40 65 48 66
REMARK SMILES IDX 41 67 47 68 42 69 43 70 44 71 45 72 46 73 69 74 70 75 78 76
REMARK SMILES IDX 71 77 77 78 72 79 73 80 74 81 75 82 76 83 55 84 56 85 64 86
REMARK SMILES IDX 57 87 63 88 58 89 59 90 60 91 61 92 62 93
REMARK H PARENT 11 16 7 21 83 49 53 60
REMARK Flexibility Score: inf
ROOT
ATOM      1  C   UNL A   1      38.818  22.534  25.910  1.00  0.00     0.202 C 
ENDROOT
BRANCH   1   2
ATOM      2  C   UNL A   1      37.411  22.227  25.390  1.00  0.00     0.261 C 
BRANCH   2   3
ATOM      3  O   UNL A   1      36.619  23.424  25.273  1.00  0.00    -0.460 OA
BRANCH   3   4
ATOM      4  C   UNL A   1      35.886  23.494  24.139  1.00  0.00     0.340 C 
ATOM      5  O   UNL A   1      36.202  23.027  23.053  1.00  0.00    -0.246 OA
BRANCH   4   6
ATOM      6  C   UNL A   1      34.565  24.153  24.345  1.00  0.00     0.083 A 
ATOM      7  C   UNL A   1      33.758  24.078  25.501  1.00  0.00     0.057 A 
ATOM      8  C   UNL A   1      32.708  24.992  25.612  1.00  0.00     0.047 A 
ATOM      9  C   UNL A   1      32.329  25.800  24.534  1.00  0.00     0.043 A 
ATOM     10  C   UNL A   1      34.141  24.928  23.246  1.00  0.00     0.019 A 
ATOM     11  Cl  UNL A   1      31.029  26.912  24.696  1.00  0.00    -0.084 Cl
ATOM     12  C   UNL A   1      33.005  25.723  23.327  1.00  0.00     0.021 A 
BRANCH   7  13
ATOM     13  N   UNL A   1      34.053  23.170  26.534  1.00  0.00    -0.324 N 
ATOM     14  C   UNL A   1      33.906  21.825  26.714  1.00  0.00     0.243 C 
ATOM     15  O   UNL A   1      34.238  21.409  27.836  1.00  0.00    -0.273 OA
ATOM     16  H   UNL A   1      34.463  23.610  27.314  1.00  0.00     0.170 HD
BRANCH  14  17
ATOM     17  C   UNL A   1      33.686  20.769  25.603  1.00  0.00     0.216 C 
BRANCH  17  18
ATOM     18  N   UNL A   1      34.729  19.862  25.177  1.00  0.00    -0.347 N 
ATOM     19  C   UNL A   1      34.749  18.584  24.728  1.00  0.00     0.225 C 
ATOM     20  O   UNL A   1      35.869  18.171  24.402  1.00  0.00    -0.275 OA
ATOM     21  H   UNL A   1      35.627  20.265  25.224  1.00  0.00     0.164 HD
BRANCH  19  22
ATOM     22  C   UNL A   1      33.498  17.704  24.536  1.00  0.00     0.041 C 
ATOM     23  C   UNL A   1      33.978  16.252  24.288  1.00  0.00     0.021 C 
ATOM     24  C   UNL A   1      32.765  18.187  23.279  1.00  0.00     0.021 C 
ATOM     25  C   UNL A   1      32.540  17.636  25.730  1.00  0.00     0.021 C 
ENDBRANCH  19  22
ENDBRANCH  17  18
ENDBRANCH  14  17
ENDBRANCH   7  13
ENDBRANCH   4   6
ENDBRANCH   3   4
ENDBRANCH   2   3
ENDBRANCH   1   2
BRANCH   1  26
ATOM     26  O   UNL A   1      39.377  21.569  26.801  1.00  0.00    -0.374 OA
BRANCH  26  27
ATOM     27  C   UNL A   1      40.714  21.805  27.249  1.00  0.00     0.202 C 
BRANCH  27  28
ATOM     28  C   UNL A   1      41.705  22.287  26.182  1.00  0.00     0.261 C 
BRANCH  28  29
ATOM     29  O   UNL A   1      41.843  23.719  26.204  1.00  0.00    -0.460 OA
BRANCH  29  30
ATOM     30  C   UNL A   1      42.818  24.184  27.021  1.00  0.00     0.338 C 
ATOM     31  O   UNL A   1      44.001  23.860  27.011  1.00  0.00    -0.246 OA
BRANCH  30  32
ATOM     32  C   UNL A   1      42.313  25.312  27.827  1.00  0.00     0.060 A 
ATOM     33  C   UNL A   1      43.158  26.418  27.989  1.00  0.00     0.016 A 
ATOM     34  C   UNL A   1      41.068  25.275  28.457  1.00  0.00     0.016 A 
ATOM     35  C   UNL A   1      42.787  27.464  28.832  1.00  0.00     0.010 A 
ATOM     36  C   UNL A   1      40.700  26.323  29.307  1.00  0.00     0.010 A 
ATOM     37  C   UNL A   1      41.575  27.402  29.530  1.00  0.00    -0.014 A 
BRANCH  37  38
ATOM     38  C   UNL A   1      41.299  28.388  30.603  1.00  0.00     0.031 A 
ATOM     39  C   UNL A   1      42.158  28.377  31.840  1.00  0.00     0.074 A 
ATOM     40  C   UNL A   1      40.321  29.302  30.467  1.00  0.00     0.049 A 
ATOM     41  N   UNL A   1      42.085  29.131  32.906  1.00  0.00    -0.248 NA
ATOM     42  C   UNL A   1      43.242  27.381  31.881  1.00  0.00     0.031 C 
ATOM     43  C   UNL A   1      39.452  29.443  29.300  1.00  0.00     0.029 A 
ATOM     44  N   UNL A   1      39.897  30.287  31.324  1.00  0.00    -0.354 N 
ATOM     45  C   UNL A   1      43.102  28.695  33.749  1.00  0.00     0.074 A 
ATOM     46  C   UNL A   1      43.761  27.593  33.082  1.00  0.00     0.031 C 
ATOM     47  C   UNL A   1      38.595  30.457  29.515  1.00  0.00     0.029 A 
ATOM     48  C   UNL A   1      38.833  31.012  30.845  1.00  0.00     0.049 A 
ATOM     49  H   UNL A   1      40.317  30.457  32.198  1.00  0.00     0.167 HD
ATOM     50  C   UNL A   1      43.459  29.173  34.965  1.00  0.00     0.031 A 
ATOM     51  C   UNL A   1      38.119  32.000  31.422  1.00  0.00     0.031 A 
ATOM     52  C   UNL A   1      42.796  30.263  35.629  1.00  0.00     0.049 A 
ATOM     53  C   UNL A   1      38.492  32.468  32.806  1.00  0.00     0.074 A 
ATOM     54  C   UNL A   1      43.093  30.831  36.856  1.00  0.00     0.029 A 
ATOM     55  N   UNL A   1      41.701  30.949  35.126  1.00  0.00    -0.354 N 
ATOM     56  N   UNL A   1      39.470  32.060  33.580  1.00  0.00    -0.248 NA
ATOM     57  C   UNL A   1      37.670  33.539  33.388  1.00  0.00     0.031 C 
ATOM     58  C   UNL A   1      42.143  31.822  37.120  1.00  0.00     0.029 A 
ATOM     59  C   UNL A   1      41.294  31.917  36.028  1.00  0.00     0.049 A 
ATOM     60  H   UNL A   1      41.276  30.773  34.255  1.00  0.00     0.167 HD
ATOM     61  C   UNL A   1      39.402  32.848  34.724  1.00  0.00     0.074 A 
ATOM     62  C   UNL A   1      38.293  33.762  34.538  1.00  0.00     0.031 C 
ATOM     63  C   UNL A   1      40.191  32.824  35.827  1.00  0.00     0.031 A 
BRANCH  50  64
ATOM     64  C   UNL A   1      44.598  28.489  35.674  1.00  0.00    -0.014 A 
ATOM     65  C   UNL A   1      45.919  28.958  35.560  1.00  0.00     0.010 A 
ATOM     66  C   UNL A   1      44.335  27.381  36.502  1.00  0.00     0.010 A 
ATOM     67  C   UNL A   1      46.960  28.308  36.228  1.00  0.00     0.020 A 
ATOM     68  C   UNL A   1      45.370  26.746  37.194  1.00  0.00     0.020 A 
ATOM     69  C   UNL A   1      46.679  27.205  37.039  1.00  0.00     0.054 A 
BRANCH  69  70
ATOM     70  S   UNL A   1      48.046  26.392  37.911  1.00  0.00     0.124 S 
ATOM     71  O   UNL A   1      47.864  26.878  39.276  1.00  0.00    -0.237 OA
ATOM     72  O   UNL A   1      47.759  24.975  37.706  1.00  0.00    -0.237 OA
ATOM     73  O   UNL A   1      49.238  26.888  37.228  1.00  0.00    -0.744 OA
ENDBRANCH  69  70
ENDBRANCH  50  64
BRANCH  51  74
ATOM     74  C   UNL A   1      36.969  32.607  30.699  1.00  0.00    -0.014 A 
ATOM     75  C   UNL A   1      35.673  32.080  30.841  1.00  0.00     0.010 A 
ATOM     76  C   UNL A   1      37.165  33.718  29.858  1.00  0.00     0.010 A 
ATOM     77  C   UNL A   1      34.599  32.640  30.142  1.00  0.00     0.020 A 
ATOM     78  C   UNL A   1      36.090  34.299  29.181  1.00  0.00     0.020 A 
ATOM     79  C   UNL A   1      34.815  33.749  29.318  1.00  0.00     0.054 A 
BRANCH  79  80
ATOM     80  S   UNL A   1      33.399  34.491  28.460  1.00  0.00     0.124 S 
ATOM     81  O   UNL A   1      32.538  34.878  29.573  1.00  0.00    -0.237 OA
ATOM     82  O   UNL A   1      34.017  35.592  27.725  1.00  0.00    -0.237 OA
ATOM     83  O   UNL A   1      32.894  33.402  27.627  1.00  0.00    -0.744 OA
ENDBRANCH  79  80
ENDBRANCH  51  74
BRANCH  63  84
ATOM     84  C   UNL A   1      39.922  33.846  36.901  1.00  0.00    -0.014 A 
ATOM     85  C   UNL A   1      39.114  33.550  38.012  1.00  0.00     0.010 A 
ATOM     86  C   UNL A   1      40.541  35.108  36.821  1.00  0.00     0.010 A 
ATOM     87  C   UNL A   1      38.902  34.511  39.006  1.00  0.00     0.020 A 
ATOM     88  C   UNL A   1      40.355  36.060  37.826  1.00  0.00     0.020 A 
ATOM     89  C   UNL A   1      39.523  35.760  38.906  1.00  0.00     0.054 A 
BRANCH  89  90
ATOM     90  S   UNL A   1      39.264  36.974  40.229  1.00  0.00     0.124 S 
ATOM     91  O   UNL A   1      40.628  37.215  40.691  1.00  0.00    -0.237 OA
ATOM     92  O   UNL A   1      38.633  38.087  39.524  1.00  0.00    -0.237 OA
ATOM     93  O   UNL A   1      38.400  36.274  41.177  1.00  0.00    -0.744 OA
ENDBRANCH  89  90
ENDBRANCH  63  84
ENDBRANCH  37  38
ENDBRANCH  30  32
ENDBRANCH  29  30
ENDBRANCH  28  29
ENDBRANCH  27  28
ENDBRANCH  26  27
ENDBRANCH   1  26
TORSDOF 21
ENDMDL
MODEL 3
REMARK VINA RESULT:      -9.9      1.519      3.108
REMARK SMILES CC(C)(C)C(=O)NCC(=O)Nc1cc(Cl)ccc1C(=O)OCCOCCOC(=O)c1ccc(-c2c3nc(c(-c4ccc(S(=O)(=O)[O-])cc4)c4ccc([nH]4)c(-c4ccc(S(=O)(=O)[O-])cc4)c4nc(c(-c5ccc(S(=O)(=O)[O-])cc5)c5ccc2[nH]5)C=C4)C=C3)cc1
REMARK SMILES IDX 23 1 22 2 21 3 19 4 20 5 18 6 12 7 13 8 14 9 17 10 15 11
REMARK SMILES IDX 16 12 11 13 9 14 10 15 8 17 7 18 5 19 6 20 2 22 1 23 3 24
REMARK SMILES IDX 4 25 24 26 25 27 26 28 27 29 28 30 29 31 30 32 31 33 89 34
REMARK SMILES IDX 32 35 88 36 33 37 34 38 35 39 82 40 36 41 87 42 81 43 83 44
REMARK SMILES IDX 37 45 86 46 80 47 79 48 38 50 68 51 49 52 67 53 50 54 53 55
REMARK SMILES IDX 66 56 84 57 51 58 52 59 65 61 85 62 54 63 39 64 40 65 48 66
REMARK SMILES IDX 41 67 47 68 42 69 43 70 44 71 45 72 46 73 69 74 70 75 78 76
REMARK SMILES IDX 71 77 77 78 72 79 73 80 74 81 75 82 76 83 55 84 56 85 64 86
REMARK SMILES IDX 57 87 63 88 58 89 59 90 60 91 61 92 62 93
REMARK H PARENT 11 16 7 21 83 49 53 60
REMARK Flexibility Score: inf
ROOT
ATOM      1  C   UNL A   1      37.543  22.167  24.580  1.00  0.00     0.202 C 
ENDROOT
BRANCH   1   2
ATOM      2  C   UNL A   1      36.820  23.286  23.826  1.00  0.00     0.261 C 
BRANCH   2   3
ATOM      3  O   UNL A   1      35.391  23.187  23.980  1.00  0.00    -0.460 OA
BRANCH   3   4
ATOM      4  C   UNL A   1      34.854  24.132  24.786  1.00  0.00     0.340 C 
ATOM      5  O   UNL A   1      35.311  24.500  25.859  1.00  0.00    -0.246 OA
BRANCH   4   6
ATOM      6  C   UNL A   1      33.644  24.771  24.198  1.00  0.00     0.083 A 
ATOM      7  C   UNL A   1      32.366  24.862  24.792  1.00  0.00     0.057 A 
ATOM      8  C   UNL A   1      31.451  25.747  24.218  1.00  0.00     0.047 A 
ATOM      9  C   UNL A   1      31.701  26.352  22.982  1.00  0.00     0.043 A 
ATOM     10  C   UNL A   1      33.863  25.340  22.926  1.00  0.00     0.019 A 
ATOM     11  Cl  UNL A   1      30.554  27.431  22.294  1.00  0.00    -0.084 Cl
ATOM     12  C   UNL A   1      32.882  26.100  22.302  1.00  0.00     0.021 A 
BRANCH   7  13
ATOM     13  N   UNL A   1      32.059  24.147  25.965  1.00  0.00    -0.324 N 
ATOM     14  C   UNL A   1      31.803  22.840  26.265  1.00  0.00     0.243 C 
ATOM     15  O   UNL A   1      31.496  22.628  27.449  1.00  0.00    -0.273 OA
ATOM     16  H   UNL A   1      32.020  24.729  26.758  1.00  0.00     0.170 HD
BRANCH  14  17
ATOM     17  C   UNL A   1      32.160  21.612  25.392  1.00  0.00     0.216 C 
BRANCH  17  18
ATOM     18  N   UNL A   1      33.512  21.117  25.265  1.00  0.00    -0.347 N 
ATOM     19  C   UNL A   1      34.059  19.940  24.875  1.00  0.00     0.225 C 
ATOM     20  O   UNL A   1      35.296  19.931  24.848  1.00  0.00    -0.275 OA
ATOM     21  H   UNL A   1      34.189  21.786  25.520  1.00  0.00     0.164 HD
BRANCH  19  22
ATOM     22  C   UNL A   1      33.252  18.712  24.408  1.00  0.00     0.041 C 
ATOM     23  C   UNL A   1      32.225  19.197  23.354  1.00  0.00     0.021 C 
ATOM     24  C   UNL A   1      32.478  18.166  25.615  1.00  0.00     0.021 C 
ATOM     25  C   UNL A   1      34.060  17.598  23.734  1.00  0.00     0.021 C 
ENDBRANCH  19  22
ENDBRANCH  17  18
ENDBRANCH  14  17
ENDBRANCH   7  13
ENDBRANCH   4   6
ENDBRANCH   3   4
ENDBRANCH   2   3
ENDBRANCH   1   2
BRANCH   1  26
ATOM     26  O   UNL A   1      37.997  22.494  25.893  1.00  0.00    -0.374 OA
BRANCH  26  27
ATOM     27  C   UNL A   1      39.349  22.153  26.211  1.00  0.00     0.202 C 
BRANCH  27  28
ATOM     28  C   UNL A   1      40.180  23.255  26.878  1.00  0.00     0.261 C 
BRANCH  28  29
ATOM     29  O   UNL A   1      39.485  24.515  26.869  1.00  0.00    -0.460 OA
BRANCH  29  30
ATOM     30  C   UNL A   1      40.281  25.603  26.740  1.00  0.00     0.338 C 
ATOM     31  O   UNL A   1      40.995  25.880  25.782  1.00  0.00    -0.246 OA
BRANCH  30  32
ATOM     32  C   UNL A   1      40.032  26.552  27.842  1.00  0.00     0.060 A 
ATOM     33  C   UNL A   1      40.690  27.788  27.791  1.00  0.00     0.016 A 
ATOM     34  C   UNL A   1      39.221  26.227  28.931  1.00  0.00     0.016 A 
ATOM     35  C   UNL A   1      40.588  28.679  28.856  1.00  0.00     0.010 A 
ATOM     36  C   UNL A   1      39.125  27.121  30.003  1.00  0.00     0.010 A 
ATOM     37  C   UNL A   1      39.839  28.332  29.987  1.00  0.00    -0.014 A 
BRANCH  37  38
ATOM     38  C   UNL A   1      39.933  29.168  31.210  1.00  0.00     0.031 A 
ATOM     39  C   UNL A   1      41.074  28.936  32.164  1.00  0.00     0.074 A 
ATOM     40  C   UNL A   1      39.037  30.143  31.451  1.00  0.00     0.049 A 
ATOM     41  N   UNL A   1      41.342  29.533  33.297  1.00  0.00    -0.248 NA
ATOM     42  C   UNL A   1      42.041  27.890  31.794  1.00  0.00     0.031 C 
ATOM     43  C   UNL A   1      37.915  30.493  30.582  1.00  0.00     0.029 A 
ATOM     44  N   UNL A   1      38.933  31.015  32.505  1.00  0.00    -0.354 N 
ATOM     45  C   UNL A   1      42.498  28.929  33.780  1.00  0.00     0.074 A 
ATOM     46  C   UNL A   1      42.865  27.901  32.831  1.00  0.00     0.031 C 
ATOM     47  C   UNL A   1      37.233  31.510  31.140  1.00  0.00     0.029 A 
ATOM     48  C   UNL A   1      37.849  31.856  32.419  1.00  0.00     0.049 A 
ATOM     49  H   UNL A   1      39.575  31.037  33.251  1.00  0.00     0.167 HD
ATOM     50  C   UNL A   1      43.193  29.209  34.908  1.00  0.00     0.031 A 
ATOM     51  C   UNL A   1      37.395  32.787  33.282  1.00  0.00     0.031 A 
ATOM     52  C   UNL A   1      42.819  30.226  35.854  1.00  0.00     0.049 A 
ATOM     53  C   UNL A   1      38.148  33.032  34.565  1.00  0.00     0.074 A 
ATOM     54  C   UNL A   1      43.467  30.597  37.020  1.00  0.00     0.029 A 
ATOM     55  N   UNL A   1      41.696  31.033  35.748  1.00  0.00    -0.354 N 
ATOM     56  N   UNL A   1      39.251  32.467  34.997  1.00  0.00    -0.248 NA
ATOM     57  C   UNL A   1      37.598  34.051  35.472  1.00  0.00     0.031 C 
ATOM     58  C   UNL A   1      42.706  31.588  37.646  1.00  0.00     0.029 A 
ATOM     59  C   UNL A   1      41.618  31.882  36.838  1.00  0.00     0.049 A 
ATOM     60  H   UNL A   1      41.050  31.006  35.005  1.00  0.00     0.167 HD
ATOM     61  C   UNL A   1      39.546  33.087  36.207  1.00  0.00     0.074 A 
ATOM     62  C   UNL A   1      38.511  34.074  36.435  1.00  0.00     0.031 C 
ATOM     63  C   UNL A   1      40.585  32.864  37.050  1.00  0.00     0.031 A 
BRANCH  50  64
ATOM     64  C   UNL A   1      44.410  28.373  35.201  1.00  0.00    -0.014 A 
ATOM     65  C   UNL A   1      45.690  28.764  34.766  1.00  0.00     0.010 A 
ATOM     66  C   UNL A   1      44.277  27.195  35.959  1.00  0.00     0.010 A 
ATOM     67  C   UNL A   1      46.806  27.973  35.049  1.00  0.00     0.020 A 
ATOM     68  C   UNL A   1      45.395  26.415  36.269  1.00  0.00     0.020 A 
ATOM     69  C   UNL A   1      46.651  26.801  35.798  1.00  0.00     0.054 A 
BRANCH  69  70
ATOM     70  S   UNL A   1      48.119  25.803  36.169  1.00  0.00     0.124 S 
ATOM     71  O   UNL A   1      47.918  25.485  37.580  1.00  0.00    -0.237 OA
ATOM     72  O   UNL A   1      47.983  24.679  35.247  1.00  0.00    -0.237 OA
ATOM     73  O   UNL A   1      49.233  26.705  35.887  1.00  0.00    -0.744 OA
ENDBRANCH  69  70
ENDBRANCH  50  64
BRANCH  51  74
ATOM     74  C   UNL A   1      36.156  33.550  32.970  1.00  0.00    -0.014 A 
ATOM     75  C   UNL A   1      36.189  34.950  32.844  1.00  0.00     0.010 A 
ATOM     76  C   UNL A   1      34.932  32.878  32.800  1.00  0.00     0.010 A 
ATOM     77  C   UNL A   1      35.018  35.665  32.572  1.00  0.00     0.020 A 
ATOM     78  C   UNL A   1      33.766  33.586  32.499  1.00  0.00     0.020 A 
ATOM     79  C   UNL A   1      33.813  34.977  32.399  1.00  0.00     0.054 A 
BRANCH  79  80
ATOM     80  S   UNL A   1      32.316  35.920  31.997  1.00  0.00     0.124 S 
ATOM     81  O   UNL A   1      32.230  35.750  30.550  1.00  0.00    -0.237 OA
ATOM     82  O   UNL A   1      31.291  35.232  32.778  1.00  0.00    -0.237 OA
ATOM     83  O   UNL A   1      32.631  37.272  32.452  1.00  0.00    -0.744 OA
ENDBRANCH  79  80
ENDBRANCH  51  74
BRANCH  63  84
ATOM     84  C   UNL A   1      40.689  33.735  38.275  1.00  0.00    -0.014 A 
ATOM     85  C   UNL A   1      41.369  34.965  38.247  1.00  0.00     0.010 A 
ATOM     86  C   UNL A   1      40.041  33.338  39.460  1.00  0.00     0.010 A 
ATOM     87  C   UNL A   1      41.428  35.764  39.393  1.00  0.00     0.020 A 
ATOM     88  C   UNL A   1      40.073  34.148  40.598  1.00  0.00     0.020 A 
ATOM     89  C   UNL A   1      40.781  35.350  40.561  1.00  0.00     0.054 A 
BRANCH  89  90
ATOM     90  S   UNL A   1      40.838  36.425  42.022  1.00  0.00     0.124 S 
ATOM     91  O   UNL A   1      41.502  37.615  41.497  1.00  0.00    -0.237 OA
ATOM     92  O   UNL A   1      39.426  36.588  42.356  1.00  0.00    -0.237 OA
ATOM     93  O   UNL A   1      41.617  35.653  42.989  1.00  0.00    -0.744 OA
ENDBRANCH  89  90
ENDBRANCH  63  84
ENDBRANCH  37  38
ENDBRANCH  30  32
ENDBRANCH  29  30
ENDBRANCH  28  29
ENDBRANCH  27  28
ENDBRANCH  26  27
ENDBRANCH   1  26
TORSDOF 21
ENDMDL
