MODEL 1
REMARK VINA RESULT:     -10.7      0.000      0.000
REMARK SMILES C[C@H](NC(=O)N1CCN(/C=C/c2ccccc2)CC1)C(=O)OCCOCCOC(=O)c1ccc(-c2c3nc(c(-c4ccc(S(=O)(=O)[O-])cc4)c4ccc([nH]4)c(-c4ccc(S(=O)(=O)[O-])cc4)c4nc(c(-c5ccc(S(=O)(=O)[O-])cc5)c5ccc2[nH]5)C=C4)C=C3)cc1
REMARK SMILES IDX 25 1 24 2 23 3 22 4 20 5 21 6 2 7 1 8 3 9 4 10 5 12 6 13
REMARK SMILES IDX 7 14 19 15 8 16 18 17 9 18 10 19 11 20 12 21 13 22 17 23
REMARK SMILES IDX 14 24 16 25 15 26 26 27 27 28 28 29 29 30 30 31 31 32 32 33
REMARK SMILES IDX 90 34 33 35 89 36 34 37 35 38 36 39 83 40 37 41 88 42 82 43
REMARK SMILES IDX 84 44 38 45 87 46 81 47 80 48 39 50 69 51 50 52 68 53 51 54
REMARK SMILES IDX 54 55 67 56 85 57 52 58 53 59 66 61 86 62 55 63 40 64 41 65
REMARK SMILES IDX 49 66 42 67 48 68 43 69 44 70 45 71 46 72 47 73 70 74 71 75
REMARK SMILES IDX 79 76 72 77 78 78 73 79 74 80 75 81 76 82 77 83 56 84 57 85
REMARK SMILES IDX 65 86 58 87 64 88 59 89 60 90 61 91 62 92 63 93
REMARK H PARENT 3 11 84 49 54 60
REMARK Flexibility Score: inf
ROOT
ATOM      1  O   UNL A   1      39.439  22.399  26.703  1.00  0.00    -0.374 OA
ENDROOT
BRANCH   1   2
ATOM      2  C   UNL A   1      39.012  21.462  25.718  1.00  0.00     0.202 C 
BRANCH   2   3
ATOM      3  C   UNL A   1      37.564  21.551  25.220  1.00  0.00     0.261 C 
BRANCH   3   4
ATOM      4  O   UNL A   1      37.089  22.900  25.114  1.00  0.00    -0.462 OA
BRANCH   4   5
ATOM      5  C   UNL A   1      36.344  23.148  24.004  1.00  0.00     0.328 C 
ATOM      6  O   UNL A   1      36.700  22.899  22.855  1.00  0.00    -0.250 OA
BRANCH   5   7
ATOM      7  C   UNL A   1      34.929  23.673  24.321  1.00  0.00     0.190 C 
ATOM      8  C   UNL A   1      35.048  24.828  25.297  1.00  0.00     0.043 C 
BRANCH   7   9
ATOM      9  N   UNL A   1      33.841  22.701  24.523  1.00  0.00    -0.325 N 
ATOM     10  C   UNL A   1      32.516  22.760  24.753  1.00  0.00     0.318 C 
ATOM     11  H   UNL A   1      34.165  21.773  24.477  1.00  0.00     0.166 HD
ATOM     12  O   UNL A   1      32.020  21.796  25.340  1.00  0.00    -0.249 OA
ATOM     13  N   UNL A   1      31.786  23.845  24.408  1.00  0.00    -0.321 N 
ATOM     14  C   UNL A   1      30.589  24.165  25.185  1.00  0.00     0.143 C 
ATOM     15  C   UNL A   1      31.687  24.356  23.049  1.00  0.00     0.143 C 
ATOM     16  C   UNL A   1      30.408  25.686  25.283  1.00  0.00     0.137 C 
ATOM     17  C   UNL A   1      31.525  25.879  23.042  1.00  0.00     0.137 C 
ATOM     18  N   UNL A   1      30.456  26.348  23.954  1.00  0.00    -0.374 N 
BRANCH  18  19
ATOM     19  C   UNL A   1      29.867  27.579  23.714  1.00  0.00     0.081 C 
ATOM     20  C   UNL A   1      29.827  28.323  22.602  1.00  0.00     0.025 C 
BRANCH  20  21
ATOM     21  C   UNL A   1      29.196  29.649  22.557  1.00  0.00    -0.024 A 
ATOM     22  C   UNL A   1      28.339  30.039  23.593  1.00  0.00     0.008 A 
ATOM     23  C   UNL A   1      29.370  30.514  21.465  1.00  0.00     0.008 A 
ATOM     24  C   UNL A   1      27.686  31.274  23.544  1.00  0.00     0.001 A 
ATOM     25  C   UNL A   1      28.725  31.750  21.420  1.00  0.00     0.001 A 
ATOM     26  C   UNL A   1      27.881  32.128  22.460  1.00  0.00     0.000 A 
ENDBRANCH  20  21
ENDBRANCH  18  19
ENDBRANCH   7   9
ENDBRANCH   5   7
ENDBRANCH   4   5
ENDBRANCH   3   4
ENDBRANCH   2   3
ENDBRANCH   1   2
BRANCH   1  27
ATOM     27  C   UNL A   1      40.836  22.516  26.969  1.00  0.00     0.202 C 
BRANCH  27  28
ATOM     28  C   UNL A   1      41.579  23.762  26.473  1.00  0.00     0.261 C 
BRANCH  28  29
ATOM     29  O   UNL A   1      41.459  24.869  27.380  1.00  0.00    -0.460 OA
BRANCH  29  30
ATOM     30  C   UNL A   1      40.988  26.003  26.815  1.00  0.00     0.338 C 
ATOM     31  O   UNL A   1      40.851  26.224  25.616  1.00  0.00    -0.246 OA
BRANCH  30  32
ATOM     32  C   UNL A   1      40.446  26.913  27.838  1.00  0.00     0.060 A 
ATOM     33  C   UNL A   1      40.970  28.212  27.875  1.00  0.00     0.016 A 
ATOM     34  C   UNL A   1      39.551  26.475  28.816  1.00  0.00     0.016 A 
ATOM     35  C   UNL A   1      40.678  29.048  28.946  1.00  0.00     0.010 A 
ATOM     36  C   UNL A   1      39.266  27.315  29.898  1.00  0.00     0.010 A 
ATOM     37  C   UNL A   1      39.878  28.578  29.996  1.00  0.00    -0.014 A 
BRANCH  37  38
ATOM     38  C   UNL A   1      39.887  29.324  31.277  1.00  0.00     0.031 A 
ATOM     39  C   UNL A   1      41.021  29.082  32.240  1.00  0.00     0.074 A 
ATOM     40  C   UNL A   1      38.956  30.256  31.545  1.00  0.00     0.049 A 
ATOM     41  N   UNL A   1      41.270  29.656  33.388  1.00  0.00    -0.248 NA
ATOM     42  C   UNL A   1      42.007  28.059  31.852  1.00  0.00     0.031 C 
ATOM     43  C   UNL A   1      37.847  30.621  30.665  1.00  0.00     0.029 A 
ATOM     44  N   UNL A   1      38.809  31.077  32.632  1.00  0.00    -0.354 N 
ATOM     45  C   UNL A   1      42.432  29.056  33.864  1.00  0.00     0.074 A 
ATOM     46  C   UNL A   1      42.820  28.055  32.896  1.00  0.00     0.031 C 
ATOM     47  C   UNL A   1      37.137  31.602  31.246  1.00  0.00     0.029 A 
ATOM     48  C   UNL A   1      37.725  31.915  32.548  1.00  0.00     0.049 A 
ATOM     49  H   UNL A   1      39.423  31.066  33.403  1.00  0.00     0.167 HD
ATOM     50  C   UNL A   1      43.117  29.316  35.003  1.00  0.00     0.031 A 
ATOM     51  C   UNL A   1      37.260  32.829  33.422  1.00  0.00     0.031 A 
ATOM     52  C   UNL A   1      42.723  30.305  35.970  1.00  0.00     0.049 A 
ATOM     53  C   UNL A   1      38.004  33.061  34.711  1.00  0.00     0.074 A 
ATOM     54  C   UNL A   1      43.353  30.657  37.151  1.00  0.00     0.029 A 
ATOM     55  N   UNL A   1      41.588  31.098  35.870  1.00  0.00    -0.354 N 
ATOM     56  N   UNL A   1      39.109  32.498  35.140  1.00  0.00    -0.248 NA
ATOM     57  C   UNL A   1      37.443  34.063  35.627  1.00  0.00     0.031 C 
ATOM     58  C   UNL A   1      42.571  31.624  37.791  1.00  0.00     0.029 A 
ATOM     59  C   UNL A   1      41.487  31.921  36.979  1.00  0.00     0.049 A 
ATOM     60  H   UNL A   1      40.951  31.078  35.121  1.00  0.00     0.167 HD
ATOM     61  C   UNL A   1      39.397  33.106  36.358  1.00  0.00     0.074 A 
ATOM     62  C   UNL A   1      38.351  34.080  36.594  1.00  0.00     0.031 C 
ATOM     63  C   UNL A   1      40.438  32.884  37.198  1.00  0.00     0.031 A 
BRANCH  50  64
ATOM     64  C   UNL A   1      44.335  28.475  35.282  1.00  0.00    -0.014 A 
ATOM     65  C   UNL A   1      44.252  27.277  36.016  1.00  0.00     0.010 A 
ATOM     66  C   UNL A   1      45.590  28.896  34.803  1.00  0.00     0.010 A 
ATOM     67  C   UNL A   1      45.406  26.546  36.311  1.00  0.00     0.020 A 
ATOM     68  C   UNL A   1      46.742  28.153  35.071  1.00  0.00     0.020 A 
ATOM     69  C   UNL A   1      46.646  26.994  35.844  1.00  0.00     0.054 A 
BRANCH  69  70
ATOM     70  S   UNL A   1      48.130  26.032  36.247  1.00  0.00     0.124 S 
ATOM     71  O   UNL A   1      48.371  25.313  34.999  1.00  0.00    -0.237 OA
ATOM     72  O   UNL A   1      49.107  27.068  36.574  1.00  0.00    -0.237 OA
ATOM     73  O   UNL A   1      47.709  25.201  37.373  1.00  0.00    -0.744 OA
ENDBRANCH  69  70
ENDBRANCH  50  64
BRANCH  51  74
ATOM     74  C   UNL A   1      36.032  33.604  33.096  1.00  0.00    -0.014 A 
ATOM     75  C   UNL A   1      34.779  33.197  33.586  1.00  0.00     0.010 A 
ATOM     76  C   UNL A   1      36.115  34.765  32.307  1.00  0.00     0.010 A 
ATOM     77  C   UNL A   1      33.630  33.937  33.289  1.00  0.00     0.020 A 
ATOM     78  C   UNL A   1      34.972  35.520  32.028  1.00  0.00     0.020 A 
ATOM     79  C   UNL A   1      33.735  35.096  32.515  1.00  0.00     0.054 A 
BRANCH  79  80
ATOM     80  S   UNL A   1      32.242  36.078  32.200  1.00  0.00     0.124 S 
ATOM     81  O   UNL A   1      31.186  35.080  32.337  1.00  0.00    -0.237 OA
ATOM     82  O   UNL A   1      32.301  37.088  33.255  1.00  0.00    -0.237 OA
ATOM     83  O   UNL A   1      32.449  36.592  30.847  1.00  0.00    -0.744 OA
ENDBRANCH  79  80
ENDBRANCH  51  74
BRANCH  63  84
ATOM     84  C   UNL A   1      40.529  33.748  38.430  1.00  0.00    -0.014 A 
ATOM     85  C   UNL A   1      41.142  35.013  38.399  1.00  0.00     0.010 A 
ATOM     86  C   UNL A   1      39.949  33.297  39.631  1.00  0.00     0.010 A 
ATOM     87  C   UNL A   1      41.211  35.793  39.558  1.00  0.00     0.020 A 
ATOM     88  C   UNL A   1      39.991  34.085  40.783  1.00  0.00     0.020 A 
ATOM     89  C   UNL A   1      40.639  35.321  40.744  1.00  0.00     0.054 A 
BRANCH  89  90
ATOM     90  S   UNL A   1      40.718  36.360  42.228  1.00  0.00     0.124 S 
ATOM     91  O   UNL A   1      39.305  36.514  42.566  1.00  0.00    -0.237 OA
ATOM     92  O   UNL A   1      41.499  35.543  43.153  1.00  0.00    -0.237 OA
ATOM     93  O   UNL A   1      41.384  37.575  41.765  1.00  0.00    -0.744 OA
ENDBRANCH  89  90
ENDBRANCH  63  84
ENDBRANCH  37  38
ENDBRANCH  30  32
ENDBRANCH  29  30
ENDBRANCH  28  29
ENDBRANCH  27  28
ENDBRANCH   1  27
TORSDOF 20
ENDMDL
MODEL 2
REMARK VINA RESULT:     -10.7      6.698     12.857
REMARK SMILES C[C@H](NC(=O)N1CCN(/C=C/c2ccccc2)CC1)C(=O)OCCOCCOC(=O)c1ccc(-c2c3nc(c(-c4ccc(S(=O)(=O)[O-])cc4)c4ccc([nH]4)c(-c4ccc(S(=O)(=O)[O-])cc4)c4nc(c(-c5ccc(S(=O)(=O)[O-])cc5)c5ccc2[nH]5)C=C4)C=C3)cc1
REMARK SMILES IDX 25 1 24 2 23 3 22 4 20 5 21 6 2 7 1 8 3 9 4 10 5 12 6 13
REMARK SMILES IDX 7 14 19 15 8 16 18 17 9 18 10 19 11 20 12 21 13 22 17 23
REMARK SMILES IDX 14 24 16 25 15 26 26 27 27 28 28 29 29 30 30 31 31 32 32 33
REMARK SMILES IDX 90 34 33 35 89 36 34 37 35 38 36 39 83 40 37 41 88 42 82 43
REMARK SMILES IDX 84 44 38 45 87 46 81 47 80 48 39 50 69 51 50 52 68 53 51 54
REMARK SMILES IDX 54 55 67 56 85 57 52 58 53 59 66 61 86 62 55 63 40 64 41 65
REMARK SMILES IDX 49 66 42 67 48 68 43 69 44 70 45 71 46 72 47 73 70 74 71 75
REMARK SMILES IDX 79 76 72 77 78 78 73 79 74 80 75 81 76 82 77 83 56 84 57 85
REMARK SMILES IDX 65 86 58 87 64 88 59 89 60 90 61 91 62 92 63 93
REMARK H PARENT 3 11 84 49 54 60
REMARK Flexibility Score: inf
ROOT
ATOM      1  O   UNL A   1      33.949  31.246  27.565  1.00  0.00    -0.374 OA
ENDROOT
BRANCH   1   2
ATOM      2  C   UNL A   1      32.602  31.598  27.258  1.00  0.00     0.202 C 
BRANCH   2   3
ATOM      3  C   UNL A   1      31.766  30.602  26.445  1.00  0.00     0.261 C 
BRANCH   3   4
ATOM      4  O   UNL A   1      32.493  29.417  26.090  1.00  0.00    -0.462 OA
BRANCH   4   5
ATOM      5  C   UNL A   1      31.977  28.267  26.599  1.00  0.00     0.328 C 
ATOM      6  O   UNL A   1      31.325  28.195  27.637  1.00  0.00    -0.250 OA
BRANCH   5   7
ATOM      7  C   UNL A   1      32.180  27.045  25.681  1.00  0.00     0.190 C 
ATOM      8  C   UNL A   1      33.608  26.555  25.836  1.00  0.00     0.043 C 
BRANCH   7   9
ATOM      9  N   UNL A   1      31.596  27.069  24.329  1.00  0.00    -0.325 N 
ATOM     10  C   UNL A   1      31.521  26.219  23.287  1.00  0.00     0.318 C 
ATOM     11  H   UNL A   1      31.146  27.923  24.139  1.00  0.00     0.166 HD
ATOM     12  O   UNL A   1      31.391  26.730  22.173  1.00  0.00    -0.249 OA
ATOM     13  N   UNL A   1      31.642  24.883  23.455  1.00  0.00    -0.321 N 
ATOM     14  C   UNL A   1      32.183  24.081  22.359  1.00  0.00     0.143 C 
ATOM     15  C   UNL A   1      30.769  24.092  24.310  1.00  0.00     0.143 C 
ATOM     16  C   UNL A   1      33.018  22.917  22.911  1.00  0.00     0.137 C 
ATOM     17  C   UNL A   1      31.523  22.911  24.928  1.00  0.00     0.137 C 
ATOM     18  N   UNL A   1      32.281  22.124  23.927  1.00  0.00    -0.374 N 
BRANCH  18  19
ATOM     19  C   UNL A   1      32.596  20.806  24.216  1.00  0.00     0.081 C 
ATOM     20  C   UNL A   1      32.545  19.711  23.447  1.00  0.00     0.025 C 
BRANCH  20  21
ATOM     21  C   UNL A   1      32.867  18.370  23.955  1.00  0.00    -0.024 A 
ATOM     22  C   UNL A   1      32.503  18.024  25.262  1.00  0.00     0.008 A 
ATOM     23  C   UNL A   1      33.598  17.446  23.192  1.00  0.00     0.008 A 
ATOM     24  C   UNL A   1      32.846  16.773  25.784  1.00  0.00     0.001 A 
ATOM     25  C   UNL A   1      33.934  16.195  23.710  1.00  0.00     0.001 A 
ATOM     26  C   UNL A   1      33.558  15.860  25.008  1.00  0.00     0.000 A 
ENDBRANCH  20  21
ENDBRANCH  18  19
ENDBRANCH   7   9
ENDBRANCH   5   7
ENDBRANCH   4   5
ENDBRANCH   3   4
ENDBRANCH   2   3
ENDBRANCH   1   2
BRANCH   1  27
ATOM     27  C   UNL A   1      34.658  32.042  28.514  1.00  0.00     0.202 C 
BRANCH  27  28
ATOM     28  C   UNL A   1      35.527  31.339  29.563  1.00  0.00     0.261 C 
BRANCH  28  29
ATOM     29  O   UNL A   1      36.181  30.171  29.041  1.00  0.00    -0.460 OA
BRANCH  29  30
ATOM     30  C   UNL A   1      36.953  29.517  29.937  1.00  0.00     0.338 C 
ATOM     31  O   UNL A   1      36.666  29.256  31.101  1.00  0.00    -0.246 OA
BRANCH  30  32
ATOM     32  C   UNL A   1      38.148  28.954  29.288  1.00  0.00     0.060 A 
ATOM     33  C   UNL A   1      39.048  28.260  30.107  1.00  0.00     0.016 A 
ATOM     34  C   UNL A   1      38.450  29.206  27.948  1.00  0.00     0.016 A 
ATOM     35  C   UNL A   1      40.298  27.900  29.617  1.00  0.00     0.010 A 
ATOM     36  C   UNL A   1      39.712  28.852  27.460  1.00  0.00     0.010 A 
ATOM     37  C   UNL A   1      40.660  28.255  28.311  1.00  0.00    -0.014 A 
BRANCH  37  38
ATOM     38  C   UNL A   1      42.094  28.204  27.937  1.00  0.00     0.031 A 
ATOM     39  C   UNL A   1      42.961  29.394  28.261  1.00  0.00     0.074 A 
ATOM     40  C   UNL A   1      42.633  27.097  27.400  1.00  0.00     0.049 A 
ATOM     41  N   UNL A   1      44.247  29.555  28.083  1.00  0.00    -0.248 NA
ATOM     42  C   UNL A   1      42.288  30.554  28.869  1.00  0.00     0.031 C 
ATOM     43  C   UNL A   1      41.907  25.864  27.098  1.00  0.00     0.029 A 
ATOM     44  N   UNL A   1      43.925  26.829  27.029  1.00  0.00    -0.354 N 
ATOM     45  C   UNL A   1      44.533  30.836  28.546  1.00  0.00     0.074 A 
ATOM     46  C   UNL A   1      43.284  31.418  28.984  1.00  0.00     0.031 C 
ATOM     47  C   UNL A   1      42.770  24.965  26.595  1.00  0.00     0.029 A 
ATOM     48  C   UNL A   1      44.100  25.568  26.514  1.00  0.00     0.049 A 
ATOM     49  H   UNL A   1      44.658  27.480  27.121  1.00  0.00     0.167 HD
ATOM     50  C   UNL A   1      45.728  31.471  28.605  1.00  0.00     0.031 A 
ATOM     51  C   UNL A   1      45.207  24.970  26.033  1.00  0.00     0.031 A 
ATOM     52  C   UNL A   1      46.967  30.893  28.159  1.00  0.00     0.049 A 
ATOM     53  C   UNL A   1      46.515  25.716  26.053  1.00  0.00     0.074 A 
ATOM     54  C   UNL A   1      48.236  31.446  28.186  1.00  0.00     0.029 A 
ATOM     55  N   UNL A   1      47.092  29.631  27.597  1.00  0.00    -0.354 N 
ATOM     56  N   UNL A   1      46.773  26.919  26.507  1.00  0.00    -0.248 NA
ATOM     57  C   UNL A   1      47.685  25.014  25.506  1.00  0.00     0.031 C 
ATOM     58  C   UNL A   1      49.119  30.539  27.591  1.00  0.00     0.029 A 
ATOM     59  C   UNL A   1      48.412  29.395  27.251  1.00  0.00     0.049 A 
ATOM     60  H   UNL A   1      46.352  28.997  27.464  1.00  0.00     0.167 HD
ATOM     61  C   UNL A   1      48.142  27.104  26.337  1.00  0.00     0.074 A 
ATOM     62  C   UNL A   1      48.655  25.887  25.740  1.00  0.00     0.031 C 
ATOM     63  C   UNL A   1      48.906  28.179  26.656  1.00  0.00     0.031 A 
BRANCH  50  64
ATOM     64  C   UNL A   1      45.733  32.884  29.126  1.00  0.00    -0.014 A 
ATOM     65  C   UNL A   1      45.549  33.985  28.270  1.00  0.00     0.010 A 
ATOM     66  C   UNL A   1      45.929  33.113  30.501  1.00  0.00     0.010 A 
ATOM     67  C   UNL A   1      45.617  35.289  28.770  1.00  0.00     0.020 A 
ATOM     68  C   UNL A   1      45.969  34.413  31.009  1.00  0.00     0.020 A 
ATOM     69  C   UNL A   1      45.835  35.495  30.136  1.00  0.00     0.054 A 
BRANCH  69  70
ATOM     70  S   UNL A   1      45.927  37.196  30.759  1.00  0.00     0.124 S 
ATOM     71  O   UNL A   1      46.329  36.986  32.147  1.00  0.00    -0.237 OA
ATOM     72  O   UNL A   1      46.939  37.802  29.897  1.00  0.00    -0.237 OA
ATOM     73  O   UNL A   1      44.570  37.706  30.575  1.00  0.00    -0.744 OA
ENDBRANCH  69  70
ENDBRANCH  50  64
BRANCH  51  74
ATOM     74  C   UNL A   1      45.125  23.581  25.504  1.00  0.00    -0.014 A 
ATOM     75  C   UNL A   1      45.595  22.497  26.264  1.00  0.00     0.010 A 
ATOM     76  C   UNL A   1      44.556  23.337  24.241  1.00  0.00     0.010 A 
ATOM     77  C   UNL A   1      45.502  21.193  25.768  1.00  0.00     0.020 A 
ATOM     78  C   UNL A   1      44.440  22.033  23.752  1.00  0.00     0.020 A 
ATOM     79  C   UNL A   1      44.921  20.968  24.517  1.00  0.00     0.054 A 
BRANCH  79  80
ATOM     80  S   UNL A   1      44.747  19.262  23.924  1.00  0.00     0.124 S 
ATOM     81  O   UNL A   1      46.013  18.666  24.335  1.00  0.00    -0.237 OA
ATOM     82  O   UNL A   1      43.563  18.798  24.645  1.00  0.00    -0.237 OA
ATOM     83  O   UNL A   1      44.564  19.419  22.482  1.00  0.00    -0.744 OA
ENDBRANCH  79  80
ENDBRANCH  51  74
BRANCH  63  84
ATOM     84  C   UNL A   1      50.389  28.070  26.415  1.00  0.00    -0.014 A 
ATOM     85  C   UNL A   1      50.967  28.452  25.191  1.00  0.00     0.010 A 
ATOM     86  C   UNL A   1      51.224  27.616  27.454  1.00  0.00     0.010 A 
ATOM     87  C   UNL A   1      52.347  28.340  24.997  1.00  0.00     0.020 A 
ATOM     88  C   UNL A   1      52.605  27.530  27.273  1.00  0.00     0.020 A 
ATOM     89  C   UNL A   1      53.157  27.875  26.038  1.00  0.00     0.054 A 
BRANCH  89  90
ATOM     90  S   UNL A   1      54.947  27.762  25.771  1.00  0.00     0.124 S 
ATOM     91  O   UNL A   1      55.382  27.015  26.949  1.00  0.00    -0.237 OA
ATOM     92  O   UNL A   1      55.040  27.045  24.503  1.00  0.00    -0.237 OA
ATOM     93  O   UNL A   1      55.379  29.158  25.724  1.00  0.00    -0.744 OA
ENDBRANCH  89  90
ENDBRANCH  63  84
ENDBRANCH  37  38
ENDBRANCH  30  32
ENDBRANCH  29  30
ENDBRANCH  28  29
ENDBRANCH  27  28
ENDBRANCH   1  27
TORSDOF 20
ENDMDL
MODEL 3
REMARK VINA RESULT:     -10.6      6.233      8.447
REMARK SMILES C[C@H](NC(=O)N1CCN(/C=C/c2ccccc2)CC1)C(=O)OCCOCCOC(=O)c1ccc(-c2c3nc(c(-c4ccc(S(=O)(=O)[O-])cc4)c4ccc([nH]4)c(-c4ccc(S(=O)(=O)[O-])cc4)c4nc(c(-c5ccc(S(=O)(=O)[O-])cc5)c5ccc2[nH]5)C=C4)C=C3)cc1
REMARK SMILES IDX 25 1 24 2 23 3 22 4 20 5 21 6 2 7 1 8 3 9 4 10 5 12 6 13
REMARK SMILES IDX 7 14 19 15 8 16 18 17 9 18 10 19 11 20 12 21 13 22 17 23
REMARK SMILES IDX 14 24 16 25 15 26 26 27 27 28 28 29 29 30 30 31 31 32 32 33
REMARK SMILES IDX 90 34 33 35 89 36 34 37 35 38 36 39 83 40 37 41 88 42 82 43
REMARK SMILES IDX 84 44 38 45 87 46 81 47 80 48 39 50 69 51 50 52 68 53 51 54
REMARK SMILES IDX 54 55 67 56 85 57 52 58 53 59 66 61 86 62 55 63 40 64 41 65
REMARK SMILES IDX 49 66 42 67 48 68 43 69 44 70 45 71 46 72 47 73 70 74 71 75
REMARK SMILES IDX 79 76 72 77 78 78 73 79 74 80 75 81 76 82 77 83 56 84 57 85
REMARK SMILES IDX 65 86 58 87 64 88 59 89 60 90 61 91 62 92 63 93
REMARK H PARENT 3 11 84 49 54 60
REMARK Flexibility Score: inf
ROOT
ATOM      1  O   UNL A   1      37.846  23.476  25.807  1.00  0.00    -0.374 OA
ENDROOT
BRANCH   1   2
ATOM      2  C   UNL A   1      37.020  22.834  24.839  1.00  0.00     0.202 C 
BRANCH   2   3
ATOM      3  C   UNL A   1      36.762  23.567  23.516  1.00  0.00     0.261 C 
BRANCH   3   4
ATOM      4  O   UNL A   1      35.688  22.993  22.757  1.00  0.00    -0.462 OA
BRANCH   4   5
ATOM      5  C   UNL A   1      34.467  23.531  23.016  1.00  0.00     0.328 C 
ATOM      6  O   UNL A   1      34.140  24.683  22.741  1.00  0.00    -0.250 OA
BRANCH   5   7
ATOM      7  C   UNL A   1      33.459  22.515  23.590  1.00  0.00     0.190 C 
ATOM      8  C   UNL A   1      32.256  22.452  22.668  1.00  0.00     0.043 C 
BRANCH   7   9
ATOM      9  N   UNL A   1      33.222  22.496  25.044  1.00  0.00    -0.325 N 
ATOM     10  C   UNL A   1      32.851  23.389  25.980  1.00  0.00     0.318 C 
ATOM     11  H   UNL A   1      33.374  21.603  25.428  1.00  0.00     0.166 HD
ATOM     12  O   UNL A   1      33.218  23.157  27.133  1.00  0.00    -0.249 OA
ATOM     13  N   UNL A   1      32.163  24.508  25.656  1.00  0.00    -0.321 N 
ATOM     14  C   UNL A   1      32.325  25.700  26.487  1.00  0.00     0.143 C 
ATOM     15  C   UNL A   1      30.870  24.499  24.989  1.00  0.00     0.143 C 
ATOM     16  C   UNL A   1      32.250  26.967  25.624  1.00  0.00     0.137 C 
ATOM     17  C   UNL A   1      30.709  25.722  24.081  1.00  0.00     0.137 C 
ATOM     18  N   UNL A   1      31.039  26.995  24.765  1.00  0.00    -0.374 N 
BRANCH  18  19
ATOM     19  C   UNL A   1      30.499  28.174  24.277  1.00  0.00     0.081 C 
ATOM     20  C   UNL A   1      29.484  28.380  23.429  1.00  0.00     0.025 C 
BRANCH  20  21
ATOM     21  C   UNL A   1      29.089  29.722  22.976  1.00  0.00    -0.024 A 
ATOM     22  C   UNL A   1      28.674  29.906  21.652  1.00  0.00     0.008 A 
ATOM     23  C   UNL A   1      29.186  30.843  23.815  1.00  0.00     0.008 A 
ATOM     24  C   UNL A   1      28.346  31.182  21.185  1.00  0.00     0.001 A 
ATOM     25  C   UNL A   1      28.851  32.115  23.351  1.00  0.00     0.001 A 
ATOM     26  C   UNL A   1      28.432  32.284  22.034  1.00  0.00     0.000 A 
ENDBRANCH  20  21
ENDBRANCH  18  19
ENDBRANCH   7   9
ENDBRANCH   5   7
ENDBRANCH   4   5
ENDBRANCH   3   4
ENDBRANCH   2   3
ENDBRANCH   1   2
BRANCH   1  27
ATOM     27  C   UNL A   1      38.890  22.717  26.417  1.00  0.00     0.202 C 
BRANCH  27  28
ATOM     28  C   UNL A   1      39.234  21.339  25.841  1.00  0.00     0.261 C 
BRANCH  28  29
ATOM     29  O   UNL A   1      39.947  20.516  26.778  1.00  0.00    -0.460 OA
BRANCH  29  30
ATOM     30  C   UNL A   1      41.177  20.137  26.363  1.00  0.00     0.338 C 
ATOM     31  O   UNL A   1      41.462  19.113  25.750  1.00  0.00    -0.246 OA
BRANCH  30  32
ATOM     32  C   UNL A   1      42.153  21.222  26.559  1.00  0.00     0.060 A 
ATOM     33  C   UNL A   1      42.386  21.636  27.877  1.00  0.00     0.016 A 
ATOM     34  C   UNL A   1      42.725  21.904  25.483  1.00  0.00     0.016 A 
ATOM     35  C   UNL A   1      43.113  22.795  28.122  1.00  0.00     0.010 A 
ATOM     36  C   UNL A   1      43.448  23.076  25.732  1.00  0.00     0.010 A 
ATOM     37  C   UNL A   1      43.589  23.556  27.047  1.00  0.00    -0.014 A 
BRANCH  37  38
ATOM     38  C   UNL A   1      44.021  24.950  27.306  1.00  0.00     0.031 A 
ATOM     39  C   UNL A   1      45.464  25.311  27.060  1.00  0.00     0.074 A 
ATOM     40  C   UNL A   1      43.138  25.895  27.671  1.00  0.00     0.049 A 
ATOM     41  N   UNL A   1      46.057  26.473  27.161  1.00  0.00    -0.248 NA
ATOM     42  C   UNL A   1      46.354  24.216  26.641  1.00  0.00     0.031 C 
ATOM     43  C   UNL A   1      41.707  25.679  27.880  1.00  0.00     0.029 A 
ATOM     44  N   UNL A   1      43.318  27.232  27.914  1.00  0.00    -0.354 N 
ATOM     45  C   UNL A   1      47.389  26.245  26.830  1.00  0.00     0.074 A 
ATOM     46  C   UNL A   1      47.522  24.832  26.555  1.00  0.00     0.031 C 
ATOM     47  C   UNL A   1      41.135  26.849  28.212  1.00  0.00     0.029 A 
ATOM     48  C   UNL A   1      42.163  27.888  28.264  1.00  0.00     0.049 A 
ATOM     49  H   UNL A   1      44.192  27.680  27.845  1.00  0.00     0.167 HD
ATOM     50  C   UNL A   1      48.410  27.132  26.758  1.00  0.00     0.031 A 
ATOM     51  C   UNL A   1      41.960  29.180  28.592  1.00  0.00     0.031 A 
ATOM     52  C   UNL A   1      48.276  28.536  27.043  1.00  0.00     0.049 A 
ATOM     53  C   UNL A   1      43.122  30.138  28.563  1.00  0.00     0.074 A 
ATOM     54  C   UNL A   1      49.245  29.523  26.988  1.00  0.00     0.029 A 
ATOM     55  N   UNL A   1      47.099  29.151  27.445  1.00  0.00    -0.354 N 
ATOM     56  N   UNL A   1      44.372  29.912  28.233  1.00  0.00    -0.248 NA
ATOM     57  C   UNL A   1      42.840  31.530  28.939  1.00  0.00     0.031 C 
ATOM     58  C   UNL A   1      48.665  30.725  27.408  1.00  0.00     0.029 A 
ATOM     59  C   UNL A   1      47.321  30.500  27.664  1.00  0.00     0.049 A 
ATOM     60  H   UNL A   1      46.235  28.695  27.557  1.00  0.00     0.167 HD
ATOM     61  C   UNL A   1      45.017  31.142  28.324  1.00  0.00     0.074 A 
ATOM     62  C   UNL A   1      44.017  32.106  28.737  1.00  0.00     0.031 C 
ATOM     63  C   UNL A   1      46.315  31.445  28.077  1.00  0.00     0.031 A 
BRANCH  50  64
ATOM     64  C   UNL A   1      49.770  26.591  26.406  1.00  0.00    -0.014 A 
ATOM     65  C   UNL A   1      50.228  26.558  25.075  1.00  0.00     0.010 A 
ATOM     66  C   UNL A   1      50.606  26.101  27.427  1.00  0.00     0.010 A 
ATOM     67  C   UNL A   1      51.471  25.996  24.769  1.00  0.00     0.020 A 
ATOM     68  C   UNL A   1      51.861  25.566  27.128  1.00  0.00     0.020 A 
ATOM     69  C   UNL A   1      52.276  25.495  25.797  1.00  0.00     0.054 A 
BRANCH  69  70
ATOM     70  S   UNL A   1      53.881  24.764  25.372  1.00  0.00     0.124 S 
ATOM     71  O   UNL A   1      54.315  25.613  24.266  1.00  0.00    -0.237 OA
ATOM     72  O   UNL A   1      54.640  24.910  26.611  1.00  0.00    -0.237 OA
ATOM     73  O   UNL A   1      53.548  23.388  25.007  1.00  0.00    -0.744 OA
ENDBRANCH  69  70
ENDBRANCH  50  64
BRANCH  51  74
ATOM     74  C   UNL A   1      40.595  29.641  28.961  1.00  0.00    -0.014 A 
ATOM     75  C   UNL A   1      39.561  29.653  28.009  1.00  0.00     0.010 A 
ATOM     76  C   UNL A   1      40.318  30.055  30.277  1.00  0.00     0.010 A 
ATOM     77  C   UNL A   1      38.276  30.074  28.365  1.00  0.00     0.020 A 
ATOM     78  C   UNL A   1      39.030  30.454  30.642  1.00  0.00     0.020 A 
ATOM     79  C   UNL A   1      38.018  30.468  29.681  1.00  0.00     0.054 A 
BRANCH  79  80
ATOM     80  S   UNL A   1      36.327  30.944  30.137  1.00  0.00     0.124 S 
ATOM     81  O   UNL A   1      35.663  30.989  28.839  1.00  0.00    -0.237 OA
ATOM     82  O   UNL A   1      35.920  29.853  31.020  1.00  0.00    -0.237 OA
ATOM     83  O   UNL A   1      36.503  32.236  30.799  1.00  0.00    -0.744 OA
ENDBRANCH  79  80
ENDBRANCH  51  74
BRANCH  63  84
ATOM     84  C   UNL A   1      46.722  32.892  28.195  1.00  0.00    -0.014 A 
ATOM     85  C   UNL A   1      46.465  33.816  27.168  1.00  0.00     0.010 A 
ATOM     86  C   UNL A   1      47.336  33.339  29.381  1.00  0.00     0.010 A 
ATOM     87  C   UNL A   1      46.854  35.152  27.306  1.00  0.00     0.020 A 
ATOM     88  C   UNL A   1      47.700  34.678  29.534  1.00  0.00     0.020 A 
ATOM     89  C   UNL A   1      47.473  35.573  28.488  1.00  0.00     0.054 A 
BRANCH  89  90
ATOM     90  S   UNL A   1      47.946  37.316  28.656  1.00  0.00     0.124 S 
ATOM     91  O   UNL A   1      47.612  37.849  27.337  1.00  0.00    -0.237 OA
ATOM     92  O   UNL A   1      47.098  37.776  29.752  1.00  0.00    -0.237 OA
ATOM     93  O   UNL A   1      49.374  37.260  28.962  1.00  0.00    -0.744 OA
ENDBRANCH  89  90
ENDBRANCH  63  84
ENDBRANCH  37  38
ENDBRANCH  30  32
ENDBRANCH  29  30
ENDBRANCH  28  29
ENDBRANCH  27  28
ENDBRANCH   1  27
TORSDOF 20
ENDMDL
