MODEL 1
REMARK VINA RESULT:      -9.1      0.000      0.000
REMARK SMILES [NH3+][C@H](C(=O)OCCOCCOC(=O)c1ccc(-c2c3nc(c(-c4ccc(S(=O)(=O)[O-])cc4)c4ccc([nH]4)c(-c4ccc(S(=O)(=O)[O-])cc4)c4nc(c(-c5ccc(S(=O)(=O)[O-])cc5)c5ccc2[nH]5)C=C4)C=C3)cc1)c1ccc(Cl)c(OC(F)(F)F)c1
REMARK SMILES IDX 8 1 7 2 6 3 5 4 3 5 4 6 2 7 1 8 74 12 75 13 85 14 76 15
REMARK SMILES IDX 79 16 77 17 78 18 80 19 81 20 82 21 83 22 84 23 9 24 10 25
REMARK SMILES IDX 11 26 12 27 13 28 14 29 15 30 73 31 16 32 72 33 17 34 18 35
REMARK SMILES IDX 19 36 66 37 20 38 71 39 65 40 67 41 21 42 70 43 64 44 63 45
REMARK SMILES IDX 22 47 52 48 33 49 51 50 34 51 37 52 50 53 68 54 35 55 36 56
REMARK SMILES IDX 49 58 69 59 38 60 23 61 24 62 32 63 25 64 31 65 26 66 27 67
REMARK SMILES IDX 28 68 29 69 30 70 53 71 54 72 62 73 55 74 61 75 56 76 57 77
REMARK SMILES IDX 58 78 59 79 60 80 39 81 40 82 48 83 41 84 47 85 42 86 43 87
REMARK SMILES IDX 44 88 45 89 46 90
REMARK H PARENT 1 9 1 10 1 11 67 46 37 57
REMARK Flexibility Score: inf
ROOT
ATOM      1  O   UNL A   1      33.113  34.690  29.949  1.00  0.00    -0.374 OA
ENDROOT
BRANCH   1   2
ATOM      2  C   UNL A   1      32.833  35.976  30.509  1.00  0.00     0.202 C 
BRANCH   2   3
ATOM      3  C   UNL A   1      33.551  36.315  31.819  1.00  0.00     0.261 C 
BRANCH   3   4
ATOM      4  O   UNL A   1      34.646  35.407  32.020  1.00  0.00    -0.459 OA
BRANCH   4   5
ATOM      5  C   UNL A   1      34.773  34.880  33.277  1.00  0.00     0.369 C 
ATOM      6  O   UNL A   1      34.791  35.541  34.307  1.00  0.00    -0.245 OA
BRANCH   5   7
ATOM      7  C   UNL A   1      34.719  33.333  33.224  1.00  0.00     0.323 C 
BRANCH   7   8
ATOM      8  N   UNL A   1      34.176  32.819  31.945  1.00  0.00    -0.342 N 
ATOM      9  H   UNL A   1      33.190  33.067  31.870  1.00  0.00     0.345 HD
ATOM     10  H   UNL A   1      34.275  31.805  31.917  1.00  0.00     0.345 HD
ATOM     11  H   UNL A   1      34.691  33.232  31.167  1.00  0.00     0.345 HD
ENDBRANCH   7   8
BRANCH   7  12
ATOM     12  C   UNL A   1      36.027  32.634  33.547  1.00  0.00     0.025 A 
ATOM     13  C   UNL A   1      36.502  31.551  32.798  1.00  0.00     0.012 A 
ATOM     14  C   UNL A   1      36.761  33.057  34.676  1.00  0.00     0.059 A 
ATOM     15  C   UNL A   1      37.700  30.928  33.145  1.00  0.00     0.025 A 
ATOM     16  C   UNL A   1      37.958  32.432  35.042  1.00  0.00     0.148 A 
ATOM     17  C   UNL A   1      38.422  31.366  34.256  1.00  0.00     0.083 A 
ATOM     18  Cl  UNL A   1      39.900  30.550  34.633  1.00  0.00    -0.080 Cl
BRANCH  16  19
ATOM     19  O   UNL A   1      38.729  32.775  36.119  1.00  0.00    -0.404 OA
BRANCH  19  20
ATOM     20  C   UNL A   1      39.545  33.926  36.026  1.00  0.00     0.573 C 
ATOM     21  F   UNL A   1      40.761  33.704  36.572  1.00  0.00    -0.132 F 
ATOM     22  F   UNL A   1      39.692  34.325  34.746  1.00  0.00    -0.132 F 
ATOM     23  F   UNL A   1      38.958  34.932  36.714  1.00  0.00    -0.132 F 
ENDBRANCH  19  20
ENDBRANCH  16  19
ENDBRANCH   7  12
ENDBRANCH   5   7
ENDBRANCH   4   5
ENDBRANCH   3   4
ENDBRANCH   2   3
ENDBRANCH   1   2
BRANCH   1  24
ATOM     24  C   UNL A   1      33.840  34.626  28.726  1.00  0.00     0.202 C 
BRANCH  24  25
ATOM     25  C   UNL A   1      33.898  33.271  28.010  1.00  0.00     0.261 C 
BRANCH  25  26
ATOM     26  O   UNL A   1      34.537  32.244  28.791  1.00  0.00    -0.460 OA
BRANCH  26  27
ATOM     27  C   UNL A   1      34.446  31.002  28.250  1.00  0.00     0.338 C 
ATOM     28  O   UNL A   1      33.505  30.541  27.617  1.00  0.00    -0.246 OA
BRANCH  27  29
ATOM     29  C   UNL A   1      35.726  30.286  28.367  1.00  0.00     0.060 A 
ATOM     30  C   UNL A   1      36.042  29.736  29.616  1.00  0.00     0.016 A 
ATOM     31  C   UNL A   1      36.654  30.261  27.325  1.00  0.00     0.016 A 
ATOM     32  C   UNL A   1      37.306  29.199  29.843  1.00  0.00     0.010 A 
ATOM     33  C   UNL A   1      37.929  29.729  27.558  1.00  0.00     0.010 A 
ATOM     34  C   UNL A   1      38.272  29.230  28.828  1.00  0.00    -0.014 A 
BRANCH  34  35
ATOM     35  C   UNL A   1      39.675  28.881  29.161  1.00  0.00     0.031 A 
ATOM     36  C   UNL A   1      40.519  29.873  29.916  1.00  0.00     0.074 A 
ATOM     37  C   UNL A   1      40.175  27.671  28.852  1.00  0.00     0.049 A 
ATOM     38  N   UNL A   1      41.755  29.762  30.327  1.00  0.00    -0.248 NA
ATOM     39  C   UNL A   1      39.882  31.156  30.255  1.00  0.00     0.031 C 
ATOM     40  C   UNL A   1      39.445  26.605  28.166  1.00  0.00     0.029 A 
ATOM     41  N   UNL A   1      41.417  27.135  29.080  1.00  0.00    -0.354 N 
ATOM     42  C   UNL A   1      42.047  30.958  30.975  1.00  0.00     0.074 A 
ATOM     43  C   UNL A   1      40.868  31.791  30.874  1.00  0.00     0.031 C 
ATOM     44  C   UNL A   1      40.256  25.542  28.026  1.00  0.00     0.029 A 
ATOM     45  C   UNL A   1      41.569  25.862  28.586  1.00  0.00     0.049 A 
ATOM     46  H   UNL A   1      42.134  27.618  29.554  1.00  0.00     0.167 HD
ATOM     47  C   UNL A   1      43.188  31.327  31.604  1.00  0.00     0.031 A 
ATOM     48  C   UNL A   1      42.646  25.051  28.572  1.00  0.00     0.031 A 
ATOM     49  C   UNL A   1      44.367  30.508  31.690  1.00  0.00     0.049 A 
ATOM     50  C   UNL A   1      43.929  25.514  29.210  1.00  0.00     0.074 A 
ATOM     51  C   UNL A   1      45.573  30.797  32.308  1.00  0.00     0.029 A 
ATOM     52  N   UNL A   1      44.495  29.244  31.135  1.00  0.00    -0.354 N 
ATOM     53  N   UNL A   1      44.182  26.640  29.833  1.00  0.00    -0.248 NA
ATOM     54  C   UNL A   1      45.071  24.590  29.150  1.00  0.00     0.031 C 
ATOM     55  C   UNL A   1      46.445  29.726  32.083  1.00  0.00     0.029 A 
ATOM     56  C   UNL A   1      45.766  28.748  31.374  1.00  0.00     0.049 A 
ATOM     57  H   UNL A   1      43.787  28.769  30.645  1.00  0.00     0.167 HD
ATOM     58  C   UNL A   1      45.503  26.551  30.259  1.00  0.00     0.074 A 
ATOM     59  C   UNL A   1      45.993  25.256  29.834  1.00  0.00     0.031 C 
ATOM     60  C   UNL A   1      46.243  27.459  30.942  1.00  0.00     0.031 A 
BRANCH  47  61
ATOM     61  C   UNL A   1      43.223  32.700  32.222  1.00  0.00    -0.014 A 
ATOM     62  C   UNL A   1      43.552  33.833  31.458  1.00  0.00     0.010 A 
ATOM     63  C   UNL A   1      42.895  32.861  33.580  1.00  0.00     0.010 A 
ATOM     64  C   UNL A   1      43.594  35.098  32.051  1.00  0.00     0.020 A 
ATOM     65  C   UNL A   1      42.911  34.127  34.171  1.00  0.00     0.020 A 
ATOM     66  C   UNL A   1      43.278  35.235  33.406  1.00  0.00     0.054 A 
BRANCH  66  67
ATOM     67  S   UNL A   1      43.329  36.889  34.150  1.00  0.00     0.124 S 
ATOM     68  O   UNL A   1      42.053  36.939  34.859  1.00  0.00    -0.237 OA
ATOM     69  O   UNL A   1      44.516  36.824  34.998  1.00  0.00    -0.237 OA
ATOM     70  O   UNL A   1      43.438  37.784  33.001  1.00  0.00    -0.744 OA
ENDBRANCH  66  67
ENDBRANCH  47  61
BRANCH  48  71
ATOM     71  C   UNL A   1      42.561  23.724  27.907  1.00  0.00    -0.014 A 
ATOM     72  C   UNL A   1      42.971  23.557  26.573  1.00  0.00     0.010 A 
ATOM     73  C   UNL A   1      42.073  22.612  28.617  1.00  0.00     0.010 A 
ATOM     74  C   UNL A   1      42.885  22.304  25.959  1.00  0.00     0.020 A 
ATOM     75  C   UNL A   1      42.010  21.353  28.015  1.00  0.00     0.020 A 
ATOM     76  C   UNL A   1      42.408  21.209  26.685  1.00  0.00     0.054 A 
BRANCH  76  77
ATOM     77  S   UNL A   1      42.364  19.578  25.890  1.00  0.00     0.124 S 
ATOM     78  O   UNL A   1      43.364  19.727  24.839  1.00  0.00    -0.237 OA
ATOM     79  O   UNL A   1      42.725  18.683  26.987  1.00  0.00    -0.237 OA
ATOM     80  O   UNL A   1      40.982  19.461  25.432  1.00  0.00    -0.744 OA
ENDBRANCH  76  77
ENDBRANCH  48  71
BRANCH  60  81
ATOM     81  C   UNL A   1      47.655  27.077  31.302  1.00  0.00    -0.014 A 
ATOM     82  C   UNL A   1      48.747  27.520  30.536  1.00  0.00     0.010 A 
ATOM     83  C   UNL A   1      47.893  26.312  32.458  1.00  0.00     0.010 A 
ATOM     84  C   UNL A   1      50.052  27.179  30.903  1.00  0.00     0.020 A 
ATOM     85  C   UNL A   1      49.197  25.990  32.843  1.00  0.00     0.020 A 
ATOM     86  C   UNL A   1      50.269  26.414  32.054  1.00  0.00     0.054 A 
BRANCH  86  87
ATOM     87  S   UNL A   1      51.973  26.021  32.535  1.00  0.00     0.124 S 
ATOM     88  O   UNL A   1      52.549  25.572  31.271  1.00  0.00    -0.237 OA
ATOM     89  O   UNL A   1      52.470  27.300  33.034  1.00  0.00    -0.237 OA
ATOM     90  O   UNL A   1      51.815  24.982  33.552  1.00  0.00    -0.744 OA
ENDBRANCH  86  87
ENDBRANCH  60  81
ENDBRANCH  34  35
ENDBRANCH  27  29
ENDBRANCH  26  27
ENDBRANCH  25  26
ENDBRANCH  24  25
ENDBRANCH   1  24
TORSDOF 21
ENDMDL
MODEL 2
REMARK VINA RESULT:      -8.6      0.810      8.298
REMARK SMILES [NH3+][C@H](C(=O)OCCOCCOC(=O)c1ccc(-c2c3nc(c(-c4ccc(S(=O)(=O)[O-])cc4)c4ccc([nH]4)c(-c4ccc(S(=O)(=O)[O-])cc4)c4nc(c(-c5ccc(S(=O)(=O)[O-])cc5)c5ccc2[nH]5)C=C4)C=C3)cc1)c1ccc(Cl)c(OC(F)(F)F)c1
REMARK SMILES IDX 8 1 7 2 6 3 5 4 3 5 4 6 2 7 1 8 74 12 75 13 85 14 76 15
REMARK SMILES IDX 79 16 77 17 78 18 80 19 81 20 82 21 83 22 84 23 9 24 10 25
REMARK SMILES IDX 11 26 12 27 13 28 14 29 15 30 73 31 16 32 72 33 17 34 18 35
REMARK SMILES IDX 19 36 66 37 20 38 71 39 65 40 67 41 21 42 70 43 64 44 63 45
REMARK SMILES IDX 22 47 52 48 33 49 51 50 34 51 37 52 50 53 68 54 35 55 36 56
REMARK SMILES IDX 49 58 69 59 38 60 23 61 24 62 32 63 25 64 31 65 26 66 27 67
REMARK SMILES IDX 28 68 29 69 30 70 53 71 54 72 62 73 55 74 61 75 56 76 57 77
REMARK SMILES IDX 58 78 59 79 60 80 39 81 40 82 48 83 41 84 47 85 42 86 43 87
REMARK SMILES IDX 44 88 45 89 46 90
REMARK H PARENT 1 9 1 10 1 11 67 46 37 57
REMARK Flexibility Score: inf
ROOT
ATOM      1  O   UNL A   1      33.301  34.389  29.996  1.00  0.00    -0.374 OA
ENDROOT
BRANCH   1   2
ATOM      2  C   UNL A   1      33.033  35.682  30.545  1.00  0.00     0.202 C 
BRANCH   2   3
ATOM      3  C   UNL A   1      33.739  36.019  31.862  1.00  0.00     0.261 C 
BRANCH   3   4
ATOM      4  O   UNL A   1      34.889  35.173  32.025  1.00  0.00    -0.459 OA
BRANCH   4   5
ATOM      5  C   UNL A   1      35.053  34.605  33.259  1.00  0.00     0.369 C 
ATOM      6  O   UNL A   1      35.025  35.222  34.316  1.00  0.00    -0.245 OA
BRANCH   5   7
ATOM      7  C   UNL A   1      35.109  33.062  33.141  1.00  0.00     0.323 C 
BRANCH   7   8
ATOM      8  N   UNL A   1      34.462  32.555  31.909  1.00  0.00    -0.342 N 
ATOM      9  H   UNL A   1      34.749  31.589  31.747  1.00  0.00     0.345 HD
ATOM     10  H   UNL A   1      34.743  33.131  31.116  1.00  0.00     0.345 HD
ATOM     11  H   UNL A   1      33.448  32.595  32.016  1.00  0.00     0.345 HD
ENDBRANCH   7   8
BRANCH   7  12
ATOM     12  C   UNL A   1      36.494  32.457  33.284  1.00  0.00     0.025 A 
ATOM     13  C   UNL A   1      36.771  31.131  32.930  1.00  0.00     0.012 A 
ATOM     14  C   UNL A   1      37.523  33.244  33.843  1.00  0.00     0.059 A 
ATOM     15  C   UNL A   1      38.055  30.613  33.097  1.00  0.00     0.025 A 
ATOM     16  C   UNL A   1      38.812  32.732  34.027  1.00  0.00     0.148 A 
ATOM     17  C   UNL A   1      39.067  31.407  33.639  1.00  0.00     0.083 A 
ATOM     18  Cl  UNL A   1      40.637  30.704  33.820  1.00  0.00    -0.080 Cl
BRANCH  16  19
ATOM     19  O   UNL A   1      39.865  33.422  34.564  1.00  0.00    -0.404 OA
BRANCH  19  20
ATOM     20  C   UNL A   1      40.048  34.773  34.188  1.00  0.00     0.573 C 
ATOM     21  F   UNL A   1      40.337  34.876  32.871  1.00  0.00    -0.132 F 
ATOM     22  F   UNL A   1      38.956  35.515  34.468  1.00  0.00    -0.132 F 
ATOM     23  F   UNL A   1      41.090  35.281  34.883  1.00  0.00    -0.132 F 
ENDBRANCH  19  20
ENDBRANCH  16  19
ENDBRANCH   7  12
ENDBRANCH   5   7
ENDBRANCH   4   5
ENDBRANCH   3   4
ENDBRANCH   2   3
ENDBRANCH   1   2
BRANCH   1  24
ATOM     24  C   UNL A   1      33.883  34.309  28.698  1.00  0.00     0.202 C 
BRANCH  24  25
ATOM     25  C   UNL A   1      33.905  32.935  28.018  1.00  0.00     0.261 C 
BRANCH  25  26
ATOM     26  O   UNL A   1      34.585  31.930  28.793  1.00  0.00    -0.460 OA
BRANCH  26  27
ATOM     27  C   UNL A   1      34.607  30.704  28.210  1.00  0.00     0.338 C 
ATOM     28  O   UNL A   1      33.725  30.196  27.530  1.00  0.00    -0.246 OA
BRANCH  27  29
ATOM     29  C   UNL A   1      35.933  30.083  28.349  1.00  0.00     0.060 A 
ATOM     30  C   UNL A   1      36.281  29.587  29.612  1.00  0.00     0.016 A 
ATOM     31  C   UNL A   1      36.866  30.097  27.311  1.00  0.00     0.016 A 
ATOM     32  C   UNL A   1      37.578  29.146  29.856  1.00  0.00     0.010 A 
ATOM     33  C   UNL A   1      38.174  29.662  27.561  1.00  0.00     0.010 A 
ATOM     34  C   UNL A   1      38.545  29.219  28.845  1.00  0.00    -0.014 A 
BRANCH  34  35
ATOM     35  C   UNL A   1      39.967  28.978  29.190  1.00  0.00     0.031 A 
ATOM     36  C   UNL A   1      40.587  27.645  28.859  1.00  0.00     0.074 A 
ATOM     37  C   UNL A   1      40.718  29.952  29.734  1.00  0.00     0.049 A 
ATOM     38  N   UNL A   1      41.813  27.234  29.050  1.00  0.00    -0.248 NA
ATOM     39  C   UNL A   1      39.707  26.650  28.224  1.00  0.00     0.031 C 
ATOM     40  C   UNL A   1      40.251  31.299  30.057  1.00  0.00     0.029 A 
ATOM     41  N   UNL A   1      42.039  29.955  30.107  1.00  0.00    -0.354 N 
ATOM     42  C   UNL A   1      41.857  25.934  28.559  1.00  0.00     0.074 A 
ATOM     43  C   UNL A   1      40.525  25.615  28.090  1.00  0.00     0.031 C 
ATOM     44  C   UNL A   1      41.270  31.999  30.584  1.00  0.00     0.029 A 
ATOM     45  C   UNL A   1      42.453  31.143  30.662  1.00  0.00     0.049 A 
ATOM     46  H   UNL A   1      42.635  29.180  29.987  1.00  0.00     0.167 HD
ATOM     47  C   UNL A   1      42.909  25.084  28.496  1.00  0.00     0.031 A 
ATOM     48  C   UNL A   1      43.643  31.494  31.188  1.00  0.00     0.031 A 
ATOM     49  C   UNL A   1      44.229  25.392  28.978  1.00  0.00     0.049 A 
ATOM     50  C   UNL A   1      44.779  30.506  31.177  1.00  0.00     0.074 A 
ATOM     51  C   UNL A   1      45.361  24.595  28.957  1.00  0.00     0.029 A 
ATOM     52  N   UNL A   1      44.594  26.588  29.577  1.00  0.00    -0.354 N 
ATOM     53  N   UNL A   1      44.807  29.287  30.693  1.00  0.00    -0.248 NA
ATOM     54  C   UNL A   1      46.047  30.945  31.776  1.00  0.00     0.031 C 
ATOM     55  C   UNL A   1      46.397  25.292  29.588  1.00  0.00     0.029 A 
ATOM     56  C   UNL A   1      45.926  26.543  29.952  1.00  0.00     0.049 A 
ATOM     57  H   UNL A   1      43.994  27.356  29.714  1.00  0.00     0.167 HD
ATOM     58  C   UNL A   1      46.101  28.822  30.909  1.00  0.00     0.074 A 
ATOM     59  C   UNL A   1      46.828  29.895  31.555  1.00  0.00     0.031 C 
ATOM     60  C   UNL A   1      46.638  27.616  30.598  1.00  0.00     0.031 A 
BRANCH  47  61
ATOM     61  C   UNL A   1      42.661  23.719  27.911  1.00  0.00    -0.014 A 
ATOM     62  C   UNL A   1      42.246  22.646  28.719  1.00  0.00     0.010 A 
ATOM     63  C   UNL A   1      42.821  23.515  26.529  1.00  0.00     0.010 A 
ATOM     64  C   UNL A   1      42.034  21.382  28.161  1.00  0.00     0.020 A 
ATOM     65  C   UNL A   1      42.586  22.259  25.963  1.00  0.00     0.020 A 
ATOM     66  C   UNL A   1      42.211  21.196  26.786  1.00  0.00     0.054 A 
BRANCH  66  67
ATOM     67  S   UNL A   1      41.920  19.549  26.085  1.00  0.00     0.124 S 
ATOM     68  O   UNL A   1      42.373  18.677  27.166  1.00  0.00    -0.237 OA
ATOM     69  O   UNL A   1      40.480  19.552  25.843  1.00  0.00    -0.237 OA
ATOM     70  O   UNL A   1      42.749  19.531  24.883  1.00  0.00    -0.744 OA
ENDBRANCH  66  67
ENDBRANCH  47  61
BRANCH  48  71
ATOM     71  C   UNL A   1      43.813  32.843  31.792  1.00  0.00    -0.014 A 
ATOM     72  C   UNL A   1      43.566  33.059  33.158  1.00  0.00     0.010 A 
ATOM     73  C   UNL A   1      44.234  33.922  30.993  1.00  0.00     0.010 A 
ATOM     74  C   UNL A   1      43.728  34.332  33.713  1.00  0.00     0.020 A 
ATOM     75  C   UNL A   1      44.422  35.190  31.550  1.00  0.00     0.020 A 
ATOM     76  C   UNL A   1      44.158  35.389  32.905  1.00  0.00     0.054 A 
BRANCH  76  77
ATOM     77  S   UNL A   1      44.424  37.019  33.659  1.00  0.00     0.124 S 
ATOM     78  O   UNL A   1      45.856  37.211  33.466  1.00  0.00    -0.237 OA
ATOM     79  O   UNL A   1      43.554  37.880  32.861  1.00  0.00    -0.237 OA
ATOM     80  O   UNL A   1      43.996  36.826  35.043  1.00  0.00    -0.744 OA
ENDBRANCH  76  77
ENDBRANCH  48  71
BRANCH  60  81
ATOM     81  C   UNL A   1      48.092  27.397  30.925  1.00  0.00    -0.014 A 
ATOM     82  C   UNL A   1      48.491  26.917  32.184  1.00  0.00     0.010 A 
ATOM     83  C   UNL A   1      49.066  27.621  29.934  1.00  0.00     0.010 A 
ATOM     84  C   UNL A   1      49.844  26.693  32.457  1.00  0.00     0.020 A 
ATOM     85  C   UNL A   1      50.416  27.374  30.196  1.00  0.00     0.020 A 
ATOM     86  C   UNL A   1      50.799  26.924  31.461  1.00  0.00     0.054 A 
BRANCH  86  87
ATOM     87  S   UNL A   1      52.543  26.584  31.824  1.00  0.00     0.124 S 
ATOM     88  O   UNL A   1      52.948  27.798  32.527  1.00  0.00    -0.237 OA
ATOM     89  O   UNL A   1      52.472  25.377  32.643  1.00  0.00    -0.237 OA
ATOM     90  O   UNL A   1      53.142  26.398  30.504  1.00  0.00    -0.744 OA
ENDBRANCH  86  87
ENDBRANCH  60  81
ENDBRANCH  34  35
ENDBRANCH  27  29
ENDBRANCH  26  27
ENDBRANCH  25  26
ENDBRANCH  24  25
ENDBRANCH   1  24
TORSDOF 21
ENDMDL
MODEL 3
REMARK VINA RESULT:      -8.4      5.096      7.255
REMARK SMILES [NH3+][C@H](C(=O)OCCOCCOC(=O)c1ccc(-c2c3nc(c(-c4ccc(S(=O)(=O)[O-])cc4)c4ccc([nH]4)c(-c4ccc(S(=O)(=O)[O-])cc4)c4nc(c(-c5ccc(S(=O)(=O)[O-])cc5)c5ccc2[nH]5)C=C4)C=C3)cc1)c1ccc(Cl)c(OC(F)(F)F)c1
REMARK SMILES IDX 8 1 7 2 6 3 5 4 3 5 4 6 2 7 1 8 74 12 75 13 85 14 76 15
REMARK SMILES IDX 79 16 77 17 78 18 80 19 81 20 82 21 83 22 84 23 9 24 10 25
REMARK SMILES IDX 11 26 12 27 13 28 14 29 15 30 73 31 16 32 72 33 17 34 18 35
REMARK SMILES IDX 19 36 66 37 20 38 71 39 65 40 67 41 21 42 70 43 64 44 63 45
REMARK SMILES IDX 22 47 52 48 33 49 51 50 34 51 37 52 50 53 68 54 35 55 36 56
REMARK SMILES IDX 49 58 69 59 38 60 23 61 24 62 32 63 25 64 31 65 26 66 27 67
REMARK SMILES IDX 28 68 29 69 30 70 53 71 54 72 62 73 55 74 61 75 56 76 57 77
REMARK SMILES IDX 58 78 59 79 60 80 39 81 40 82 48 83 41 84 47 85 42 86 43 87
REMARK SMILES IDX 44 88 45 89 46 90
REMARK H PARENT 1 9 1 10 1 11 67 46 37 57
REMARK Flexibility Score: inf
ROOT
ATOM      1  O   UNL A   1      31.954  29.490  25.357  1.00  0.00    -0.374 OA
ENDROOT
BRANCH   1   2
ATOM      2  C   UNL A   1      31.598  28.796  24.160  1.00  0.00     0.202 C 
BRANCH   2   3
ATOM      3  C   UNL A   1      32.739  28.503  23.181  1.00  0.00     0.261 C 
BRANCH   3   4
ATOM      4  O   UNL A   1      32.686  27.126  22.774  1.00  0.00    -0.459 OA
BRANCH   4   5
ATOM      5  C   UNL A   1      33.376  26.237  23.553  1.00  0.00     0.369 C 
ATOM      6  O   UNL A   1      34.139  26.553  24.457  1.00  0.00    -0.245 OA
BRANCH   5   7
ATOM      7  C   UNL A   1      32.930  24.786  23.244  1.00  0.00     0.323 C 
BRANCH   7   8
ATOM      8  N   UNL A   1      32.580  24.583  21.819  1.00  0.00    -0.342 N 
ATOM      9  H   UNL A   1      33.234  25.099  21.231  1.00  0.00     0.345 HD
ATOM     10  H   UNL A   1      31.632  24.920  21.651  1.00  0.00     0.345 HD
ATOM     11  H   UNL A   1      32.631  23.589  21.595  1.00  0.00     0.345 HD
ENDBRANCH   7   8
BRANCH   7  12
ATOM     12  C   UNL A   1      33.896  23.707  23.697  1.00  0.00     0.025 A 
ATOM     13  C   UNL A   1      35.248  23.713  23.336  1.00  0.00     0.012 A 
ATOM     14  C   UNL A   1      33.399  22.632  24.464  1.00  0.00     0.059 A 
ATOM     15  C   UNL A   1      36.094  22.689  23.760  1.00  0.00     0.025 A 
ATOM     16  C   UNL A   1      34.234  21.592  24.886  1.00  0.00     0.148 A 
ATOM     17  C   UNL A   1      35.591  21.639  24.530  1.00  0.00     0.083 A 
ATOM     18  Cl  UNL A   1      36.693  20.400  25.024  1.00  0.00    -0.080 Cl
BRANCH  16  19
ATOM     19  O   UNL A   1      33.837  20.513  25.628  1.00  0.00    -0.404 OA
BRANCH  19  20
ATOM     20  C   UNL A   1      32.759  19.729  25.153  1.00  0.00     0.573 C 
ATOM     21  F   UNL A   1      32.603  18.615  25.902  1.00  0.00    -0.132 F 
ATOM     22  F   UNL A   1      31.606  20.429  25.142  1.00  0.00    -0.132 F 
ATOM     23  F   UNL A   1      33.028  19.343  23.885  1.00  0.00    -0.132 F 
ENDBRANCH  19  20
ENDBRANCH  16  19
ENDBRANCH   7  12
ENDBRANCH   5   7
ENDBRANCH   4   5
ENDBRANCH   3   4
ENDBRANCH   2   3
ENDBRANCH   1   2
BRANCH   1  24
ATOM     24  C   UNL A   1      32.141  28.734  26.551  1.00  0.00     0.202 C 
BRANCH  24  25
ATOM     25  C   UNL A   1      33.276  29.164  27.488  1.00  0.00     0.261 C 
BRANCH  25  26
ATOM     26  O   UNL A   1      33.781  30.481  27.201  1.00  0.00    -0.460 OA
BRANCH  26  27
ATOM     27  C   UNL A   1      34.568  30.996  28.179  1.00  0.00     0.338 C 
ATOM     28  O   UNL A   1      34.262  31.857  28.994  1.00  0.00    -0.246 OA
BRANCH  27  29
ATOM     29  C   UNL A   1      35.839  30.261  28.269  1.00  0.00     0.060 A 
ATOM     30  C   UNL A   1      36.199  29.752  29.524  1.00  0.00     0.016 A 
ATOM     31  C   UNL A   1      36.721  30.179  27.190  1.00  0.00     0.016 A 
ATOM     32  C   UNL A   1      37.461  29.199  29.717  1.00  0.00     0.010 A 
ATOM     33  C   UNL A   1      37.995  29.632  27.390  1.00  0.00     0.010 A 
ATOM     34  C   UNL A   1      38.384  29.174  28.663  1.00  0.00    -0.014 A 
BRANCH  34  35
ATOM     35  C   UNL A   1      39.793  28.810  28.949  1.00  0.00     0.031 A 
ATOM     36  C   UNL A   1      40.689  29.816  29.623  1.00  0.00     0.074 A 
ATOM     37  C   UNL A   1      40.256  27.578  28.671  1.00  0.00     0.049 A 
ATOM     38  N   UNL A   1      41.939  29.698  29.986  1.00  0.00    -0.248 NA
ATOM     39  C   UNL A   1      40.091  31.125  29.934  1.00  0.00     0.031 C 
ATOM     40  C   UNL A   1      39.477  26.499  28.065  1.00  0.00     0.029 A 
ATOM     41  N   UNL A   1      41.497  27.027  28.869  1.00  0.00    -0.354 N 
ATOM     42  C   UNL A   1      42.282  30.913  30.568  1.00  0.00     0.074 A 
ATOM     43  C   UNL A   1      41.115  31.765  30.482  1.00  0.00     0.031 C 
ATOM     44  C   UNL A   1      40.261  25.415  27.937  1.00  0.00     0.029 A 
ATOM     45  C   UNL A   1      41.603  25.731  28.425  1.00  0.00     0.049 A 
ATOM     46  H   UNL A   1      42.243  27.515  29.291  1.00  0.00     0.167 HD
ATOM     47  C   UNL A   1      43.455  31.286  31.130  1.00  0.00     0.031 A 
ATOM     48  C   UNL A   1      42.663  24.899  28.399  1.00  0.00     0.031 A 
ATOM     49  C   UNL A   1      44.622  30.447  31.200  1.00  0.00     0.049 A 
ATOM     50  C   UNL A   1      43.982  25.361  28.960  1.00  0.00     0.074 A 
ATOM     51  C   UNL A   1      45.859  30.736  31.752  1.00  0.00     0.029 A 
ATOM     52  N   UNL A   1      44.702  29.158  30.696  1.00  0.00    -0.354 N 
ATOM     53  N   UNL A   1      44.282  26.508  29.523  1.00  0.00    -0.248 NA
ATOM     54  C   UNL A   1      45.102  24.413  28.891  1.00  0.00     0.031 C 
ATOM     55  C   UNL A   1      46.700  29.639  31.537  1.00  0.00     0.029 A 
ATOM     56  C   UNL A   1      45.972  28.646  30.901  1.00  0.00     0.049 A 
ATOM     57  H   UNL A   1      43.964  28.677  30.258  1.00  0.00     0.167 HD
ATOM     58  C   UNL A   1      45.620  26.409  29.894  1.00  0.00     0.074 A 
ATOM     59  C   UNL A   1      46.066  25.088  29.506  1.00  0.00     0.031 C 
ATOM     60  C   UNL A   1      46.406  27.331  30.505  1.00  0.00     0.031 A 
BRANCH  47  61
ATOM     61  C   UNL A   1      43.544  32.682  31.686  1.00  0.00    -0.014 A 
ATOM     62  C   UNL A   1      43.267  32.944  33.039  1.00  0.00     0.010 A 
ATOM     63  C   UNL A   1      43.935  33.741  30.849  1.00  0.00     0.010 A 
ATOM     64  C   UNL A   1      43.340  34.249  33.536  1.00  0.00     0.020 A 
ATOM     65  C   UNL A   1      44.034  35.044  31.347  1.00  0.00     0.020 A 
ATOM     66  C   UNL A   1      43.718  35.291  32.683  1.00  0.00     0.054 A 
BRANCH  66  67
ATOM     67  S   UNL A   1      43.816  36.974  33.354  1.00  0.00     0.124 S 
ATOM     68  O   UNL A   1      42.563  37.074  34.099  1.00  0.00    -0.237 OA
ATOM     69  O   UNL A   1      45.027  36.926  34.168  1.00  0.00    -0.237 OA
ATOM     70  O   UNL A   1      43.902  37.818  32.165  1.00  0.00    -0.744 OA
ENDBRANCH  66  67
ENDBRANCH  47  61
BRANCH  48  71
ATOM     71  C   UNL A   1      42.525  23.547  27.796  1.00  0.00    -0.014 A 
ATOM     72  C   UNL A   1      42.886  23.311  26.459  1.00  0.00     0.010 A 
ATOM     73  C   UNL A   1      42.034  22.479  28.571  1.00  0.00     0.010 A 
ATOM     74  C   UNL A   1      42.749  22.035  25.904  1.00  0.00     0.020 A 
ATOM     75  C   UNL A   1      41.920  21.197  28.027  1.00  0.00     0.020 A 
ATOM     76  C   UNL A   1      42.270  20.985  26.693  1.00  0.00     0.054 A 
BRANCH  76  77
ATOM     77  S   UNL A   1      42.161  19.323  25.973  1.00  0.00     0.124 S 
ATOM     78  O   UNL A   1      43.026  19.441  24.805  1.00  0.00    -0.237 OA
ATOM     79  O   UNL A   1      42.664  18.478  27.053  1.00  0.00    -0.237 OA
ATOM     80  O   UNL A   1      40.736  19.170  25.687  1.00  0.00    -0.744 OA
ENDBRANCH  76  77
ENDBRANCH  48  71
BRANCH  60  81
ATOM     81  C   UNL A   1      47.825  26.936  30.819  1.00  0.00    -0.014 A 
ATOM     82  C   UNL A   1      48.873  27.212  29.925  1.00  0.00     0.010 A 
ATOM     83  C   UNL A   1      48.118  26.331  32.055  1.00  0.00     0.010 A 
ATOM     84  C   UNL A   1      50.188  26.863  30.249  1.00  0.00     0.020 A 
ATOM     85  C   UNL A   1      49.434  26.003  32.393  1.00  0.00     0.020 A 
ATOM     86  C   UNL A   1      50.460  26.259  31.481  1.00  0.00     0.054 A 
BRANCH  86  87
ATOM     87  S   UNL A   1      52.179  25.855  31.897  1.00  0.00     0.124 S 
ATOM     88  O   UNL A   1      52.437  26.753  33.020  1.00  0.00    -0.237 OA
ATOM     89  O   UNL A   1      52.105  24.436  32.230  1.00  0.00    -0.237 OA
ATOM     90  O   UNL A   1      52.913  26.163  30.671  1.00  0.00    -0.744 OA
ENDBRANCH  86  87
ENDBRANCH  60  81
ENDBRANCH  34  35
ENDBRANCH  27  29
ENDBRANCH  26  27
ENDBRANCH  25  26
ENDBRANCH  24  25
ENDBRANCH   1  24
TORSDOF 21
ENDMDL
