MODEL 1
REMARK VINA RESULT:      -9.3      0.000      0.000
REMARK SMILES O=C(/C=C\N1[C@@H]2CC[C@H]1C[C@H](O)C2)OCCOCCOC(=O)c1ccc(-c2c3nc(c(-c4ccc(S(=O)(=O)[O-])cc4)c4ccc([nH]4)c(-c4ccc(S(=O)(=O)[O-])cc4)c4nc(c(-c5ccc(S(=O)(=O)[O-])cc5)c5ccc2[nH]5)C=C4)C=C3)cc1
REMARK SMILES IDX 18 1 17 2 16 3 15 4 14 5 2 6 1 7 3 8 4 9 5 10 6 11 9 12 7 13
REMARK SMILES IDX 13 14 8 15 10 16 11 17 12 18 19 20 20 21 21 22 22 23 23 24
REMARK SMILES IDX 24 25 82 26 25 27 81 28 26 29 27 30 28 31 75 32 29 33 80 34
REMARK SMILES IDX 74 35 76 36 30 37 79 38 73 39 72 40 31 42 61 43 42 44 60 45
REMARK SMILES IDX 43 46 46 47 59 48 77 49 44 50 45 51 58 53 78 54 47 55 32 56
REMARK SMILES IDX 33 57 41 58 34 59 40 60 35 61 36 62 37 63 38 64 39 65 62 66
REMARK SMILES IDX 63 67 71 68 64 69 70 70 65 71 66 72 67 73 68 74 69 75 48 76
REMARK SMILES IDX 49 77 57 78 50 79 56 80 51 81 52 82 53 83 54 84 55 85
REMARK H PARENT 12 19 76 41 46 52
REMARK Flexibility Score: inf
ROOT
ATOM      1  C   UNL A   1      39.810  19.759  25.889  1.00  0.00     0.202 C 
ENDROOT
BRANCH   1   2
ATOM      2  O   UNL A   1      40.944  18.903  25.751  1.00  0.00    -0.374 OA
BRANCH   2   3
ATOM      3  C   UNL A   1      42.198  19.442  26.158  1.00  0.00     0.202 C 
BRANCH   3   4
ATOM      4  C   UNL A   1      43.422  18.797  25.498  1.00  0.00     0.261 C 
BRANCH   4   5
ATOM      5  O   UNL A   1      44.019  19.629  24.508  1.00  0.00    -0.460 OA
BRANCH   5   6
ATOM      6  C   UNL A   1      45.337  19.675  24.256  1.00  0.00     0.332 C 
ATOM      7  O   UNL A   1      45.924  18.636  23.952  1.00  0.00    -0.247 OA
BRANCH   6   8
ATOM      8  C   UNL A   1      46.176  20.872  24.486  1.00  0.00     0.111 C 
ATOM      9  C   UNL A   1      46.211  22.097  25.032  1.00  0.00     0.089 C 
BRANCH   9  10
ATOM     10  N   UNL A   1      45.462  23.002  25.760  1.00  0.00    -0.371 N 
ATOM     11  C   UNL A   1      45.341  24.416  25.345  1.00  0.00     0.084 C 
ATOM     12  C   UNL A   1      44.937  23.003  27.127  1.00  0.00     0.084 C 
ATOM     13  C   UNL A   1      45.790  25.203  26.587  1.00  0.00     0.027 C 
ATOM     14  C   UNL A   1      43.864  24.665  25.003  1.00  0.00     0.056 C 
ATOM     15  C   UNL A   1      45.597  24.244  27.749  1.00  0.00     0.027 C 
ATOM     16  C   UNL A   1      43.407  23.176  27.083  1.00  0.00     0.056 C 
ATOM     17  C   UNL A   1      42.903  23.713  25.737  1.00  0.00     0.118 C 
BRANCH  17  18
ATOM     18  O   UNL A   1      42.655  22.583  24.887  1.00  0.00    -0.393 OA
ATOM     19  H   UNL A   1      42.275  22.887  24.049  1.00  0.00     0.210 HD
ENDBRANCH  17  18
ENDBRANCH   9  10
ENDBRANCH   6   8
ENDBRANCH   5   6
ENDBRANCH   4   5
ENDBRANCH   3   4
ENDBRANCH   2   3
ENDBRANCH   1   2
BRANCH   1  20
ATOM     20  C   UNL A   1      40.072  21.063  26.654  1.00  0.00     0.261 C 
BRANCH  20  21
ATOM     21  O   UNL A   1      39.873  22.246  25.844  1.00  0.00    -0.460 OA
BRANCH  21  22
ATOM     22  C   UNL A   1      38.755  22.966  26.117  1.00  0.00     0.338 C 
ATOM     23  O   UNL A   1      37.600  22.617  25.939  1.00  0.00    -0.246 OA
BRANCH  22  24
ATOM     24  C   UNL A   1      39.094  24.243  26.787  1.00  0.00     0.060 A 
ATOM     25  C   UNL A   1      39.817  25.202  26.064  1.00  0.00     0.016 A 
ATOM     26  C   UNL A   1      38.812  24.455  28.137  1.00  0.00     0.016 A 
ATOM     27  C   UNL A   1      40.260  26.373  26.687  1.00  0.00     0.010 A 
ATOM     28  C   UNL A   1      39.278  25.618  28.765  1.00  0.00     0.010 A 
ATOM     29  C   UNL A   1      40.014  26.580  28.050  1.00  0.00    -0.014 A 
BRANCH  29  30
ATOM     30  C   UNL A   1      40.587  27.750  28.766  1.00  0.00     0.031 A 
ATOM     31  C   UNL A   1      39.728  28.960  29.017  1.00  0.00     0.074 A 
ATOM     32  C   UNL A   1      41.877  27.753  29.151  1.00  0.00     0.049 A 
ATOM     33  N   UNL A   1      40.076  30.144  29.449  1.00  0.00    -0.248 NA
ATOM     34  C   UNL A   1      38.289  28.813  28.749  1.00  0.00     0.031 C 
ATOM     35  C   UNL A   1      42.797  26.621  29.038  1.00  0.00     0.029 A 
ATOM     36  N   UNL A   1      42.646  28.756  29.693  1.00  0.00    -0.354 N 
ATOM     37  C   UNL A   1      38.906  30.897  29.475  1.00  0.00     0.074 A 
ATOM     38  C   UNL A   1      37.836  30.029  29.031  1.00  0.00     0.031 C 
ATOM     39  C   UNL A   1      44.014  27.003  29.463  1.00  0.00     0.029 A 
ATOM     40  C   UNL A   1      43.974  28.419  29.823  1.00  0.00     0.049 A 
ATOM     41  H   UNL A   1      42.281  29.630  29.962  1.00  0.00     0.167 HD
ATOM     42  C   UNL A   1      38.745  32.197  29.818  1.00  0.00     0.031 A 
ATOM     43  C   UNL A   1      45.046  29.180  30.134  1.00  0.00     0.031 A 
ATOM     44  C   UNL A   1      39.814  33.061  30.246  1.00  0.00     0.049 A 
ATOM     45  C   UNL A   1      44.855  30.652  30.409  1.00  0.00     0.074 A 
ATOM     46  C   UNL A   1      39.745  34.390  30.626  1.00  0.00     0.029 A 
ATOM     47  N   UNL A   1      41.146  32.690  30.333  1.00  0.00    -0.354 N 
ATOM     48  N   UNL A   1      43.742  31.347  30.448  1.00  0.00    -0.248 NA
ATOM     49  C   UNL A   1      46.066  31.446  30.666  1.00  0.00     0.031 C 
ATOM     50  C   UNL A   1      41.043  34.842  30.878  1.00  0.00     0.029 A 
ATOM     51  C   UNL A   1      41.915  33.777  30.715  1.00  0.00     0.049 A 
ATOM     52  H   UNL A   1      41.495  31.788  30.150  1.00  0.00     0.167 HD
ATOM     53  C   UNL A   1      44.120  32.653  30.747  1.00  0.00     0.074 A 
ATOM     54  C   UNL A   1      45.559  32.649  30.903  1.00  0.00     0.031 C 
ATOM     55  C   UNL A   1      43.346  33.758  30.874  1.00  0.00     0.031 A 
BRANCH  42  56
ATOM     56  C   UNL A   1      37.373  32.800  29.680  1.00  0.00    -0.014 A 
ATOM     57  C   UNL A   1      36.505  32.917  30.779  1.00  0.00     0.010 A 
ATOM     58  C   UNL A   1      36.980  33.328  28.435  1.00  0.00     0.010 A 
ATOM     59  C   UNL A   1      35.259  33.534  30.630  1.00  0.00     0.020 A 
ATOM     60  C   UNL A   1      35.744  33.964  28.287  1.00  0.00     0.020 A 
ATOM     61  C   UNL A   1      34.887  34.053  29.384  1.00  0.00     0.054 A 
BRANCH  61  62
ATOM     62  S   UNL A   1      33.280  34.883  29.229  1.00  0.00     0.124 S 
ATOM     63  O   UNL A   1      33.663  36.176  28.668  1.00  0.00    -0.237 OA
ATOM     64  O   UNL A   1      32.550  33.998  28.326  1.00  0.00    -0.237 OA
ATOM     65  O   UNL A   1      32.777  34.925  30.600  1.00  0.00    -0.744 OA
ENDBRANCH  61  62
ENDBRANCH  42  56
BRANCH  43  66
ATOM     66  C   UNL A   1      46.417  28.594  30.111  1.00  0.00    -0.014 A 
ATOM     67  C   UNL A   1      47.178  28.574  28.930  1.00  0.00     0.010 A 
ATOM     68  C   UNL A   1      46.951  28.004  31.273  1.00  0.00     0.010 A 
ATOM     69  C   UNL A   1      48.431  27.951  28.902  1.00  0.00     0.020 A 
ATOM     70  C   UNL A   1      48.215  27.411  31.260  1.00  0.00     0.020 A 
ATOM     71  C   UNL A   1      48.940  27.371  30.068  1.00  0.00     0.054 A 
BRANCH  71  72
ATOM     72  S   UNL A   1      50.574  26.582  30.016  1.00  0.00     0.124 S 
ATOM     73  O   UNL A   1      50.646  25.948  31.328  1.00  0.00    -0.237 OA
ATOM     74  O   UNL A   1      50.450  25.674  28.879  1.00  0.00    -0.237 OA
ATOM     75  O   UNL A   1      51.488  27.704  29.811  1.00  0.00    -0.744 OA
ENDBRANCH  71  72
ENDBRANCH  43  66
BRANCH  55  76
ATOM     76  C   UNL A   1      44.024  35.058  31.222  1.00  0.00    -0.014 A 
ATOM     77  C   UNL A   1      44.436  35.953  30.219  1.00  0.00     0.010 A 
ATOM     78  C   UNL A   1      44.169  35.429  32.572  1.00  0.00     0.010 A 
ATOM     79  C   UNL A   1      44.991  37.190  30.559  1.00  0.00     0.020 A 
ATOM     80  C   UNL A   1      44.698  36.675  32.916  1.00  0.00     0.020 A 
ATOM     81  C   UNL A   1      45.112  37.546  31.906  1.00  0.00     0.054 A 
BRANCH  81  82
ATOM     82  S   UNL A   1      45.763  39.189  32.320  1.00  0.00     0.124 S 
ATOM     83  O   UNL A   1      44.571  40.026  32.210  1.00  0.00    -0.237 OA
ATOM     84  O   UNL A   1      46.277  38.999  33.674  1.00  0.00    -0.237 OA
ATOM     85  O   UNL A   1      46.784  39.424  31.300  1.00  0.00    -0.744 OA
ENDBRANCH  81  82
ENDBRANCH  55  76
ENDBRANCH  29  30
ENDBRANCH  22  24
ENDBRANCH  21  22
ENDBRANCH  20  21
ENDBRANCH   1  20
TORSDOF 19
ENDMDL
MODEL 2
REMARK VINA RESULT:      -9.1      3.282     10.658
REMARK SMILES O=C(/C=C\N1[C@@H]2CC[C@H]1C[C@H](O)C2)OCCOCCOC(=O)c1ccc(-c2c3nc(c(-c4ccc(S(=O)(=O)[O-])cc4)c4ccc([nH]4)c(-c4ccc(S(=O)(=O)[O-])cc4)c4nc(c(-c5ccc(S(=O)(=O)[O-])cc5)c5ccc2[nH]5)C=C4)C=C3)cc1
REMARK SMILES IDX 18 1 17 2 16 3 15 4 14 5 2 6 1 7 3 8 4 9 5 10 6 11 9 12 7 13
REMARK SMILES IDX 13 14 8 15 10 16 11 17 12 18 19 20 20 21 21 22 22 23 23 24
REMARK SMILES IDX 24 25 82 26 25 27 81 28 26 29 27 30 28 31 75 32 29 33 80 34
REMARK SMILES IDX 74 35 76 36 30 37 79 38 73 39 72 40 31 42 61 43 42 44 60 45
REMARK SMILES IDX 43 46 46 47 59 48 77 49 44 50 45 51 58 53 78 54 47 55 32 56
REMARK SMILES IDX 33 57 41 58 34 59 40 60 35 61 36 62 37 63 38 64 39 65 62 66
REMARK SMILES IDX 63 67 71 68 64 69 70 70 65 71 66 72 67 73 68 74 69 75 48 76
REMARK SMILES IDX 49 77 57 78 50 79 56 80 51 81 52 82 53 83 54 84 55 85
REMARK H PARENT 12 19 76 41 46 52
REMARK Flexibility Score: inf
ROOT
ATOM      1  C   UNL A   1      33.061  33.830  27.997  1.00  0.00     0.202 C 
ENDROOT
BRANCH   1   2
ATOM      2  O   UNL A   1      34.243  34.379  28.578  1.00  0.00    -0.374 OA
BRANCH   2   3
ATOM      3  C   UNL A   1      34.138  35.698  29.104  1.00  0.00     0.202 C 
BRANCH   3   4
ATOM      4  C   UNL A   1      32.830  35.995  29.845  1.00  0.00     0.261 C 
BRANCH   4   5
ATOM      5  O   UNL A   1      32.778  35.395  31.137  1.00  0.00    -0.460 OA
BRANCH   5   6
ATOM      6  C   UNL A   1      32.798  36.084  32.289  1.00  0.00     0.332 C 
ATOM      7  O   UNL A   1      32.033  37.039  32.428  1.00  0.00    -0.247 OA
BRANCH   6   8
ATOM      8  C   UNL A   1      33.805  35.876  33.353  1.00  0.00     0.111 C 
ATOM      9  C   UNL A   1      34.951  35.254  33.671  1.00  0.00     0.089 C 
BRANCH   9  10
ATOM     10  N   UNL A   1      35.932  34.425  33.164  1.00  0.00    -0.371 N 
ATOM     11  C   UNL A   1      36.309  33.167  33.845  1.00  0.00     0.084 C 
ATOM     12  C   UNL A   1      37.009  34.618  32.190  1.00  0.00     0.084 C 
ATOM     13  C   UNL A   1      37.827  33.298  34.046  1.00  0.00     0.027 C 
ATOM     14  C   UNL A   1      35.946  32.012  32.899  1.00  0.00     0.056 C 
ATOM     15  C   UNL A   1      38.273  34.313  33.007  1.00  0.00     0.027 C 
ATOM     16  C   UNL A   1      36.848  33.596  31.048  1.00  0.00     0.056 C 
ATOM     17  C   UNL A   1      35.929  32.424  31.417  1.00  0.00     0.118 C 
BRANCH  17  18
ATOM     18  O   UNL A   1      34.589  32.802  31.072  1.00  0.00    -0.393 OA
ATOM     19  H   UNL A   1      34.053  32.866  31.878  1.00  0.00     0.210 HD
ENDBRANCH  17  18
ENDBRANCH   9  10
ENDBRANCH   6   8
ENDBRANCH   5   6
ENDBRANCH   4   5
ENDBRANCH   3   4
ENDBRANCH   2   3
ENDBRANCH   1   2
BRANCH   1  20
ATOM     20  C   UNL A   1      33.149  32.343  27.633  1.00  0.00     0.261 C 
BRANCH  20  21
ATOM     21  O   UNL A   1      34.380  31.722  28.071  1.00  0.00    -0.460 OA
BRANCH  21  22
ATOM     22  C   UNL A   1      34.631  30.487  27.565  1.00  0.00     0.338 C 
ATOM     23  O   UNL A   1      33.956  29.880  26.750  1.00  0.00    -0.246 OA
BRANCH  22  24
ATOM     24  C   UNL A   1      35.932  29.968  28.046  1.00  0.00     0.060 A 
ATOM     25  C   UNL A   1      35.997  29.433  29.340  1.00  0.00     0.016 A 
ATOM     26  C   UNL A   1      37.098  30.109  27.291  1.00  0.00     0.016 A 
ATOM     27  C   UNL A   1      37.224  29.037  29.882  1.00  0.00     0.010 A 
ATOM     28  C   UNL A   1      38.329  29.734  27.846  1.00  0.00     0.010 A 
ATOM     29  C   UNL A   1      38.404  29.206  29.147  1.00  0.00    -0.014 A 
BRANCH  29  30
ATOM     30  C   UNL A   1      39.733  28.918  29.749  1.00  0.00     0.031 A 
ATOM     31  C   UNL A   1      40.269  29.817  30.830  1.00  0.00     0.074 A 
ATOM     32  C   UNL A   1      40.476  27.887  29.304  1.00  0.00     0.049 A 
ATOM     33  N   UNL A   1      41.468  29.857  31.352  1.00  0.00    -0.248 NA
ATOM     34  C   UNL A   1      39.330  30.795  31.400  1.00  0.00     0.031 C 
ATOM     35  C   UNL A   1      40.045  26.896  28.319  1.00  0.00     0.029 A 
ATOM     36  N   UNL A   1      41.766  27.519  29.609  1.00  0.00    -0.354 N 
ATOM     37  C   UNL A   1      41.440  30.885  32.288  1.00  0.00     0.074 A 
ATOM     38  C   UNL A   1      40.100  31.431  32.274  1.00  0.00     0.031 C 
ATOM     39  C   UNL A   1      41.065  26.053  28.073  1.00  0.00     0.029 A 
ATOM     40  C   UNL A   1      42.235  26.480  28.838  1.00  0.00     0.049 A 
ATOM     41  H   UNL A   1      42.301  27.956  30.310  1.00  0.00     0.167 HD
ATOM     42  C   UNL A   1      42.446  31.343  33.070  1.00  0.00     0.031 A 
ATOM     43  C   UNL A   1      43.481  25.971  28.715  1.00  0.00     0.031 A 
ATOM     44  C   UNL A   1      43.781  30.806  33.070  1.00  0.00     0.049 A 
ATOM     45  C   UNL A   1      44.608  26.570  29.520  1.00  0.00     0.074 A 
ATOM     46  C   UNL A   1      44.864  31.197  33.839  1.00  0.00     0.029 A 
ATOM     47  N   UNL A   1      44.222  29.777  32.254  1.00  0.00    -0.354 N 
ATOM     48  N   UNL A   1      44.565  27.529  30.414  1.00  0.00    -0.248 NA
ATOM     49  C   UNL A   1      45.956  26.028  29.288  1.00  0.00     0.031 C 
ATOM     50  C   UNL A   1      45.977  30.452  33.439  1.00  0.00     0.029 A 
ATOM     51  C   UNL A   1      45.572  29.553  32.465  1.00  0.00     0.049 A 
ATOM     52  H   UNL A   1      43.660  29.280  31.617  1.00  0.00     0.167 HD
ATOM     53  C   UNL A   1      45.874  27.693  30.859  1.00  0.00     0.074 A 
ATOM     54  C   UNL A   1      46.682  26.721  30.156  1.00  0.00     0.031 C 
ATOM     55  C   UNL A   1      46.364  28.576  31.764  1.00  0.00     0.031 A 
BRANCH  42  56
ATOM     56  C   UNL A   1      42.172  32.534  33.948  1.00  0.00    -0.014 A 
ATOM     57  C   UNL A   1      42.394  33.848  33.499  1.00  0.00     0.010 A 
ATOM     58  C   UNL A   1      41.606  32.331  35.221  1.00  0.00     0.010 A 
ATOM     59  C   UNL A   1      42.076  34.935  34.318  1.00  0.00     0.020 A 
ATOM     60  C   UNL A   1      41.266  33.416  36.034  1.00  0.00     0.020 A 
ATOM     61  C   UNL A   1      41.513  34.712  35.581  1.00  0.00     0.054 A 
BRANCH  61  62
ATOM     62  S   UNL A   1      41.073  36.144  36.606  1.00  0.00     0.124 S 
ATOM     63  O   UNL A   1      42.304  36.929  36.568  1.00  0.00    -0.237 OA
ATOM     64  O   UNL A   1      39.940  36.716  35.885  1.00  0.00    -0.237 OA
ATOM     65  O   UNL A   1      40.752  35.556  37.904  1.00  0.00    -0.744 OA
ENDBRANCH  61  62
ENDBRANCH  42  56
BRANCH  43  66
ATOM     66  C   UNL A   1      43.759  24.894  27.721  1.00  0.00    -0.014 A 
ATOM     67  C   UNL A   1      43.727  23.539  28.093  1.00  0.00     0.010 A 
ATOM     68  C   UNL A   1      44.106  25.228  26.398  1.00  0.00     0.010 A 
ATOM     69  C   UNL A   1      44.067  22.542  27.171  1.00  0.00     0.020 A 
ATOM     70  C   UNL A   1      44.413  24.234  25.465  1.00  0.00     0.020 A 
ATOM     71  C   UNL A   1      44.409  22.897  25.863  1.00  0.00     0.054 A 
BRANCH  71  72
ATOM     72  S   UNL A   1      44.830  21.588  24.679  1.00  0.00     0.124 S 
ATOM     73  O   UNL A   1      43.876  20.542  25.032  1.00  0.00    -0.237 OA
ATOM     74  O   UNL A   1      44.606  22.242  23.392  1.00  0.00    -0.237 OA
ATOM     75  O   UNL A   1      46.228  21.289  24.983  1.00  0.00    -0.744 OA
ENDBRANCH  71  72
ENDBRANCH  43  66
BRANCH  55  76
ATOM     76  C   UNL A   1      47.838  28.524  32.072  1.00  0.00    -0.014 A 
ATOM     77  C   UNL A   1      48.343  27.663  33.062  1.00  0.00     0.010 A 
ATOM     78  C   UNL A   1      48.739  29.279  31.297  1.00  0.00     0.010 A 
ATOM     79  C   UNL A   1      49.721  27.567  33.280  1.00  0.00     0.020 A 
ATOM     80  C   UNL A   1      50.117  29.166  31.493  1.00  0.00     0.020 A 
ATOM     81  C   UNL A   1      50.599  28.314  32.489  1.00  0.00     0.054 A 
BRANCH  81  82
ATOM     82  S   UNL A   1      52.386  28.113  32.740  1.00  0.00     0.124 S 
ATOM     83  O   UNL A   1      52.861  29.492  32.664  1.00  0.00    -0.237 OA
ATOM     84  O   UNL A   1      52.456  27.494  34.061  1.00  0.00    -0.237 OA
ATOM     85  O   UNL A   1      52.797  27.252  31.633  1.00  0.00    -0.744 OA
ENDBRANCH  81  82
ENDBRANCH  55  76
ENDBRANCH  29  30
ENDBRANCH  22  24
ENDBRANCH  21  22
ENDBRANCH  20  21
ENDBRANCH   1  20
TORSDOF 19
ENDMDL
MODEL 3
REMARK VINA RESULT:      -9.1      2.609     11.284
REMARK SMILES O=C(/C=C\N1[C@@H]2CC[C@H]1C[C@H](O)C2)OCCOCCOC(=O)c1ccc(-c2c3nc(c(-c4ccc(S(=O)(=O)[O-])cc4)c4ccc([nH]4)c(-c4ccc(S(=O)(=O)[O-])cc4)c4nc(c(-c5ccc(S(=O)(=O)[O-])cc5)c5ccc2[nH]5)C=C4)C=C3)cc1
REMARK SMILES IDX 18 1 17 2 16 3 15 4 14 5 2 6 1 7 3 8 4 9 5 10 6 11 9 12 7 13
REMARK SMILES IDX 13 14 8 15 10 16 11 17 12 18 19 20 20 21 21 22 22 23 23 24
REMARK SMILES IDX 24 25 82 26 25 27 81 28 26 29 27 30 28 31 75 32 29 33 80 34
REMARK SMILES IDX 74 35 76 36 30 37 79 38 73 39 72 40 31 42 61 43 42 44 60 45
REMARK SMILES IDX 43 46 46 47 59 48 77 49 44 50 45 51 58 53 78 54 47 55 32 56
REMARK SMILES IDX 33 57 41 58 34 59 40 60 35 61 36 62 37 63 38 64 39 65 62 66
REMARK SMILES IDX 63 67 71 68 64 69 70 70 65 71 66 72 67 73 68 74 69 75 48 76
REMARK SMILES IDX 49 77 57 78 50 79 56 80 51 81 52 82 53 83 54 84 55 85
REMARK H PARENT 12 19 76 41 46 52
REMARK Flexibility Score: inf
ROOT
ATOM      1  C   UNL A   1      33.430  33.574  27.986  1.00  0.00     0.202 C 
ENDROOT
BRANCH   1   2
ATOM      2  O   UNL A   1      32.946  34.437  29.014  1.00  0.00    -0.374 OA
BRANCH   2   3
ATOM      3  C   UNL A   1      33.069  35.837  28.778  1.00  0.00     0.202 C 
BRANCH   3   4
ATOM      4  C   UNL A   1      33.215  36.694  30.040  1.00  0.00     0.261 C 
BRANCH   4   5
ATOM      5  O   UNL A   1      32.167  36.475  30.981  1.00  0.00    -0.460 OA
BRANCH   5   6
ATOM      6  C   UNL A   1      32.355  35.996  32.221  1.00  0.00     0.332 C 
ATOM      7  O   UNL A   1      31.399  35.504  32.822  1.00  0.00    -0.247 OA
BRANCH   6   8
ATOM      8  C   UNL A   1      33.607  36.173  32.989  1.00  0.00     0.111 C 
ATOM      9  C   UNL A   1      34.790  35.621  33.298  1.00  0.00     0.089 C 
BRANCH   9  10
ATOM     10  N   UNL A   1      35.593  34.524  33.052  1.00  0.00    -0.371 N 
ATOM     11  C   UNL A   1      36.486  34.468  31.875  1.00  0.00     0.084 C 
ATOM     12  C   UNL A   1      35.584  33.142  33.538  1.00  0.00     0.084 C 
ATOM     13  C   UNL A   1      36.082  33.163  31.170  1.00  0.00     0.027 C 
ATOM     14  C   UNL A   1      37.929  34.420  32.401  1.00  0.00     0.056 C 
ATOM     15  C   UNL A   1      35.418  32.324  32.249  1.00  0.00     0.027 C 
ATOM     16  C   UNL A   1      36.940  32.829  34.201  1.00  0.00     0.056 C 
ATOM     17  C   UNL A   1      38.040  33.827  33.816  1.00  0.00     0.118 C 
BRANCH  17  18
ATOM     18  O   UNL A   1      37.992  34.907  34.760  1.00  0.00    -0.393 OA
ATOM     19  H   UNL A   1      37.490  35.646  34.381  1.00  0.00     0.210 HD
ENDBRANCH  17  18
ENDBRANCH   9  10
ENDBRANCH   6   8
ENDBRANCH   5   6
ENDBRANCH   4   5
ENDBRANCH   3   4
ENDBRANCH   2   3
ENDBRANCH   1   2
BRANCH   1  20
ATOM     20  C   UNL A   1      34.008  32.241  28.479  1.00  0.00     0.261 C 
BRANCH  20  21
ATOM     21  O   UNL A   1      34.059  31.228  27.447  1.00  0.00    -0.460 OA
BRANCH  21  22
ATOM     22  C   UNL A   1      34.370  29.974  27.866  1.00  0.00     0.338 C 
ATOM     23  O   UNL A   1      33.636  29.001  27.868  1.00  0.00    -0.246 OA
BRANCH  22  24
ATOM     24  C   UNL A   1      35.800  29.878  28.241  1.00  0.00     0.060 A 
ATOM     25  C   UNL A   1      36.763  30.051  27.239  1.00  0.00     0.016 A 
ATOM     26  C   UNL A   1      36.192  29.510  29.530  1.00  0.00     0.016 A 
ATOM     27  C   UNL A   1      38.120  29.857  27.519  1.00  0.00     0.010 A 
ATOM     28  C   UNL A   1      37.550  29.293  29.801  1.00  0.00     0.010 A 
ATOM     29  C   UNL A   1      38.522  29.453  28.798  1.00  0.00    -0.014 A 
BRANCH  29  30
ATOM     30  C   UNL A   1      39.941  29.112  29.086  1.00  0.00     0.031 A 
ATOM     31  C   UNL A   1      40.883  30.188  29.553  1.00  0.00     0.074 A 
ATOM     32  C   UNL A   1      40.396  27.860  28.891  1.00  0.00     0.049 A 
ATOM     33  N   UNL A   1      42.184  30.149  29.679  1.00  0.00    -0.248 NA
ATOM     34  C   UNL A   1      40.278  31.475  29.930  1.00  0.00     0.031 C 
ATOM     35  C   UNL A   1      39.576  26.708  28.516  1.00  0.00     0.029 A 
ATOM     36  N   UNL A   1      41.674  27.354  28.958  1.00  0.00    -0.354 N 
ATOM     37  C   UNL A   1      42.560  31.414  30.118  1.00  0.00     0.074 A 
ATOM     38  C   UNL A   1      41.348  32.191  30.253  1.00  0.00     0.031 C 
ATOM     39  C   UNL A   1      40.375  25.639  28.351  1.00  0.00     0.029 A 
ATOM     40  C   UNL A   1      41.765  26.042  28.551  1.00  0.00     0.049 A 
ATOM     41  H   UNL A   1      42.447  27.879  29.266  1.00  0.00     0.167 HD
ATOM     42  C   UNL A   1      43.805  31.886  30.365  1.00  0.00     0.031 A 
ATOM     43  C   UNL A   1      42.848  25.273  28.305  1.00  0.00     0.031 A 
ATOM     44  C   UNL A   1      45.010  31.113  30.215  1.00  0.00     0.049 A 
ATOM     45  C   UNL A   1      44.228  25.857  28.486  1.00  0.00     0.074 A 
ATOM     46  C   UNL A   1      46.317  31.504  30.455  1.00  0.00     0.029 A 
ATOM     47  N   UNL A   1      45.061  29.802  29.771  1.00  0.00    -0.354 N 
ATOM     48  N   UNL A   1      44.570  27.047  28.919  1.00  0.00    -0.248 NA
ATOM     49  C   UNL A   1      45.368  24.999  28.130  1.00  0.00     0.031 C 
ATOM     50  C   UNL A   1      47.162  30.452  30.091  1.00  0.00     0.029 A 
ATOM     51  C   UNL A   1      46.378  29.384  29.685  1.00  0.00     0.049 A 
ATOM     52  H   UNL A   1      44.277  29.249  29.550  1.00  0.00     0.167 HD
ATOM     53  C   UNL A   1      45.962  27.073  28.900  1.00  0.00     0.074 A 
ATOM     54  C   UNL A   1      46.400  25.774  28.436  1.00  0.00     0.031 C 
ATOM     55  C   UNL A   1      46.802  28.085  29.229  1.00  0.00     0.031 A 
BRANCH  42  56
ATOM     56  C   UNL A   1      43.947  33.333  30.756  1.00  0.00    -0.014 A 
ATOM     57  C   UNL A   1      43.902  34.363  29.799  1.00  0.00     0.010 A 
ATOM     58  C   UNL A   1      44.050  33.667  32.119  1.00  0.00     0.010 A 
ATOM     59  C   UNL A   1      43.979  35.700  30.201  1.00  0.00     0.020 A 
ATOM     60  C   UNL A   1      44.106  35.002  32.526  1.00  0.00     0.020 A 
ATOM     61  C   UNL A   1      44.080  36.011  31.562  1.00  0.00     0.054 A 
BRANCH  61  62
ATOM     62  S   UNL A   1      44.139  37.757  32.057  1.00  0.00     0.124 S 
ATOM     63  O   UNL A   1      43.117  37.808  33.099  1.00  0.00    -0.237 OA
ATOM     64  O   UNL A   1      45.515  37.911  32.519  1.00  0.00    -0.237 OA
ATOM     65  O   UNL A   1      43.811  38.477  30.829  1.00  0.00    -0.744 OA
ENDBRANCH  61  62
ENDBRANCH  42  56
BRANCH  43  66
ATOM     66  C   UNL A   1      42.683  23.891  27.767  1.00  0.00    -0.014 A 
ATOM     67  C   UNL A   1      42.684  23.647  26.383  1.00  0.00     0.010 A 
ATOM     68  C   UNL A   1      42.474  22.813  28.648  1.00  0.00     0.010 A 
ATOM     69  C   UNL A   1      42.450  22.359  25.890  1.00  0.00     0.020 A 
ATOM     70  C   UNL A   1      42.274  21.519  28.161  1.00  0.00     0.020 A 
ATOM     71  C   UNL A   1      42.245  21.303  26.783  1.00  0.00     0.054 A 
BRANCH  71  72
ATOM     72  S   UNL A   1      41.959  19.636  26.123  1.00  0.00     0.124 S 
ATOM     73  O   UNL A   1      40.543  19.687  25.777  1.00  0.00    -0.237 OA
ATOM     74  O   UNL A   1      42.885  19.581  24.994  1.00  0.00    -0.237 OA
ATOM     75  O   UNL A   1      42.300  18.763  27.244  1.00  0.00    -0.744 OA
ENDBRANCH  71  72
ENDBRANCH  43  66
BRANCH  55  76
ATOM     76  C   UNL A   1      48.283  27.832  29.128  1.00  0.00    -0.014 A 
ATOM     77  C   UNL A   1      48.986  27.205  30.172  1.00  0.00     0.010 A 
ATOM     78  C   UNL A   1      48.964  28.143  27.935  1.00  0.00     0.010 A 
ATOM     79  C   UNL A   1      50.344  26.904  30.030  1.00  0.00     0.020 A 
ATOM     80  C   UNL A   1      50.314  27.820  27.779  1.00  0.00     0.020 A 
ATOM     81  C   UNL A   1      50.997  27.208  28.831  1.00  0.00     0.054 A 
BRANCH  81  82
ATOM     82  S   UNL A   1      52.740  26.736  28.644  1.00  0.00     0.124 S 
ATOM     83  O   UNL A   1      53.387  28.032  28.455  1.00  0.00    -0.237 OA
ATOM     84  O   UNL A   1      53.029  26.067  29.910  1.00  0.00    -0.237 OA
ATOM     85  O   UNL A   1      52.739  25.864  27.471  1.00  0.00    -0.744 OA
ENDBRANCH  81  82
ENDBRANCH  55  76
ENDBRANCH  29  30
ENDBRANCH  22  24
ENDBRANCH  21  22
ENDBRANCH  20  21
ENDBRANCH   1  20
TORSDOF 19
ENDMDL
