MODEL 1
REMARK VINA RESULT:     -10.0      0.000      0.000
REMARK SMILES Cc1cc(NC(=O)[C@@H]2CC=CC[C@H]2C(=O)OCCOCCOC(=O)c2ccc(-c3c4nc(c(-c5ccc(S(=O)(=O)[O-])cc5)c5ccc([nH]5)c(-c5ccc(S(=O)(=O)[O-])cc5)c5nc(c(-c6ccc(S(=O)(=O)[O-])cc6)c6ccc3[nH]6)C=C5)C=C4)cc2)no1
REMARK SMILES IDX 20 1 19 2 18 3 17 4 16 5 14 6 15 7 13 8 8 9 9 10 10 11 12 12
REMARK SMILES IDX 11 13 6 14 5 15 7 17 4 18 1 19 2 20 3 21 86 22 85 23 21 24
REMARK SMILES IDX 22 25 23 26 24 27 25 28 26 29 84 30 27 31 83 32 28 33 29 34
REMARK SMILES IDX 30 35 77 36 31 37 82 38 76 39 78 40 32 41 81 42 75 43 74 44
REMARK SMILES IDX 33 46 63 47 44 48 62 49 45 50 48 51 61 52 79 53 46 54 47 55
REMARK SMILES IDX 60 57 80 58 49 59 34 60 35 61 43 62 36 63 42 64 37 65 38 66
REMARK SMILES IDX 39 67 40 68 41 69 64 70 65 71 73 72 66 73 72 74 67 75 68 76
REMARK SMILES IDX 69 77 70 78 71 79 50 80 51 81 59 82 52 83 58 84 53 85 54 86
REMARK SMILES IDX 55 87 56 88 57 89
REMARK H PARENT 5 16 78 45 48 56
REMARK Flexibility Score: inf
ROOT
ATOM      1  C   UNL A   1      38.276  22.936  26.025  1.00  0.00     0.202 C 
ENDROOT
BRANCH   1   2
ATOM      2  O   UNL A   1      38.583  21.592  25.651  1.00  0.00    -0.374 OA
BRANCH   2   3
ATOM      3  C   UNL A   1      39.859  21.089  26.035  1.00  0.00     0.202 C 
BRANCH   3   4
ATOM      4  C   UNL A   1      40.043  19.571  25.996  1.00  0.00     0.261 C 
BRANCH   4   5
ATOM      5  O   UNL A   1      41.273  19.133  25.391  1.00  0.00    -0.463 OA
BRANCH   5   6
ATOM      6  C   UNL A   1      42.393  19.314  26.140  1.00  0.00     0.310 C 
ATOM      7  O   UNL A   1      42.425  19.270  27.366  1.00  0.00    -0.252 OA
BRANCH   6   8
ATOM      8  C   UNL A   1      43.593  19.763  25.323  1.00  0.00     0.116 C 
ATOM      9  C   UNL A   1      44.247  21.090  25.751  1.00  0.00     0.097 C 
ATOM     10  C   UNL A   1      45.716  21.289  25.299  1.00  0.00     0.041 C 
ATOM     11  C   UNL A   1      46.467  20.052  24.924  1.00  0.00    -0.030 C 
ATOM     12  C   UNL A   1      44.545  18.557  25.406  1.00  0.00     0.043 C 
ATOM     13  C   UNL A   1      45.943  18.824  24.971  1.00  0.00    -0.030 C 
BRANCH   9  14
ATOM     14  C   UNL A   1      43.386  22.335  25.459  1.00  0.00     0.229 C 
ATOM     15  N   UNL A   1      42.821  23.119  26.421  1.00  0.00    -0.308 N 
ATOM     16  H   UNL A   1      42.080  23.693  26.120  1.00  0.00     0.171 HD
ATOM     17  O   UNL A   1      43.086  22.606  24.290  1.00  0.00    -0.274 OA
BRANCH  15  18
ATOM     18  C   UNL A   1      43.143  23.218  27.752  1.00  0.00     0.176 A 
ATOM     19  C   UNL A   1      44.532  24.731  30.779  1.00  0.00     0.091 C 
ATOM     20  C   UNL A   1      43.996  23.986  29.629  1.00  0.00     0.135 A 
ATOM     21  C   UNL A   1      44.177  24.038  28.267  1.00  0.00     0.095 A 
ATOM     22  O   UNL A   1      43.031  23.076  29.914  1.00  0.00    -0.360 OA
ATOM     23  N   UNL A   1      42.490  22.604  28.739  1.00  0.00    -0.062 NA
ENDBRANCH  15  18
ENDBRANCH   9  14
ENDBRANCH   6   8
ENDBRANCH   5   6
ENDBRANCH   4   5
ENDBRANCH   3   4
ENDBRANCH   2   3
ENDBRANCH   1   2
BRANCH   1  24
ATOM     24  C   UNL A   1      39.402  23.719  26.706  1.00  0.00     0.261 C 
BRANCH  24  25
ATOM     25  O   UNL A   1      39.286  25.134  26.472  1.00  0.00    -0.460 OA
BRANCH  25  26
ATOM     26  C   UNL A   1      40.361  25.868  26.819  1.00  0.00     0.338 C 
ATOM     27  O   UNL A   1      41.452  25.895  26.257  1.00  0.00    -0.246 OA
BRANCH  26  28
ATOM     28  C   UNL A   1      40.014  26.806  27.902  1.00  0.00     0.060 A 
ATOM     29  C   UNL A   1      40.667  28.045  27.908  1.00  0.00     0.016 A 
ATOM     30  C   UNL A   1      39.150  26.454  28.942  1.00  0.00     0.016 A 
ATOM     31  C   UNL A   1      40.525  28.902  28.996  1.00  0.00     0.010 A 
ATOM     32  C   UNL A   1      39.014  27.315  30.039  1.00  0.00     0.010 A 
ATOM     33  C   UNL A   1      39.740  28.519  30.091  1.00  0.00    -0.014 A 
BRANCH  33  34
ATOM     34  C   UNL A   1      39.825  29.307  31.347  1.00  0.00     0.031 A 
ATOM     35  C   UNL A   1      40.962  29.042  32.300  1.00  0.00     0.074 A 
ATOM     36  C   UNL A   1      38.944  30.288  31.609  1.00  0.00     0.049 A 
ATOM     37  N   UNL A   1      41.244  29.626  33.435  1.00  0.00    -0.248 NA
ATOM     38  C   UNL A   1      41.907  27.980  31.917  1.00  0.00     0.031 C 
ATOM     39  C   UNL A   1      37.829  30.676  30.746  1.00  0.00     0.029 A 
ATOM     40  N   UNL A   1      38.855  31.143  32.680  1.00  0.00    -0.354 N 
ATOM     41  C   UNL A   1      42.395  29.004  33.906  1.00  0.00     0.074 A 
ATOM     42  C   UNL A   1      42.740  27.975  32.948  1.00  0.00     0.031 C 
ATOM     43  C   UNL A   1      37.165  31.691  31.324  1.00  0.00     0.029 A 
ATOM     44  C   UNL A   1      37.789  32.006  32.608  1.00  0.00     0.049 A 
ATOM     45  H   UNL A   1      39.495  31.137  33.428  1.00  0.00     0.167 HD
ATOM     46  C   UNL A   1      43.107  29.267  35.028  1.00  0.00     0.031 A 
ATOM     47  C   UNL A   1      37.355  32.934  33.484  1.00  0.00     0.031 A 
ATOM     48  C   UNL A   1      42.756  30.279  35.989  1.00  0.00     0.049 A 
ATOM     49  C   UNL A   1      38.118  33.162  34.762  1.00  0.00     0.074 A 
ATOM     50  C   UNL A   1      43.418  30.628  37.154  1.00  0.00     0.029 A 
ATOM     51  N   UNL A   1      41.641  31.100  35.903  1.00  0.00    -0.354 N 
ATOM     52  N   UNL A   1      39.215  32.577  35.182  1.00  0.00    -0.248 NA
ATOM     53  C   UNL A   1      37.589  34.180  35.680  1.00  0.00     0.031 C 
ATOM     54  C   UNL A   1      42.673  31.621  37.800  1.00  0.00     0.029 A 
ATOM     55  C   UNL A   1      41.581  31.934  37.006  1.00  0.00     0.049 A 
ATOM     56  H   UNL A   1      40.989  31.092  35.165  1.00  0.00     0.167 HD
ATOM     57  C   UNL A   1      39.520  33.174  36.402  1.00  0.00     0.074 A 
ATOM     58  C   UNL A   1      38.500  34.172  36.645  1.00  0.00     0.031 C 
ATOM     59  C   UNL A   1      40.555  32.920  37.242  1.00  0.00     0.031 A 
BRANCH  46  60
ATOM     60  C   UNL A   1      44.320  28.415  35.293  1.00  0.00    -0.014 A 
ATOM     61  C   UNL A   1      44.230  27.229  36.047  1.00  0.00     0.010 A 
ATOM     62  C   UNL A   1      45.567  28.797  34.764  1.00  0.00     0.010 A 
ATOM     63  C   UNL A   1      45.373  26.468  36.305  1.00  0.00     0.020 A 
ATOM     64  C   UNL A   1      46.707  28.023  34.998  1.00  0.00     0.020 A 
ATOM     65  C   UNL A   1      46.606  26.873  35.784  1.00  0.00     0.054 A 
BRANCH  65  66
ATOM     66  S   UNL A   1      48.075  25.866  36.131  1.00  0.00     0.124 S 
ATOM     67  O   UNL A   1      48.151  25.026  34.938  1.00  0.00    -0.237 OA
ATOM     68  O   UNL A   1      49.129  26.868  36.260  1.00  0.00    -0.237 OA
ATOM     69  O   UNL A   1      47.732  25.164  37.365  1.00  0.00    -0.744 OA
ENDBRANCH  65  66
ENDBRANCH  46  60
BRANCH  47  70
ATOM     70  C   UNL A   1      36.119  33.705  33.186  1.00  0.00    -0.014 A 
ATOM     71  C   UNL A   1      36.186  34.977  32.593  1.00  0.00     0.010 A 
ATOM     72  C   UNL A   1      34.857  33.152  33.477  1.00  0.00     0.010 A 
ATOM     73  C   UNL A   1      35.016  35.686  32.302  1.00  0.00     0.020 A 
ATOM     74  C   UNL A   1      33.685  33.845  33.165  1.00  0.00     0.020 A 
ATOM     75  C   UNL A   1      33.772  35.112  32.585  1.00  0.00     0.054 A 
BRANCH  75  76
ATOM     76  S   UNL A   1      32.265  36.017  32.134  1.00  0.00     0.124 S 
ATOM     77  O   UNL A   1      32.446  36.212  30.699  1.00  0.00    -0.237 OA
ATOM     78  O   UNL A   1      31.209  35.083  32.518  1.00  0.00    -0.237 OA
ATOM     79  O   UNL A   1      32.340  37.229  32.947  1.00  0.00    -0.744 OA
ENDBRANCH  75  76
ENDBRANCH  47  70
BRANCH  59  80
ATOM     80  C   UNL A   1      40.655  33.750  38.495  1.00  0.00    -0.014 A 
ATOM     81  C   UNL A   1      41.278  35.011  38.486  1.00  0.00     0.010 A 
ATOM     82  C   UNL A   1      40.067  33.285  39.685  1.00  0.00     0.010 A 
ATOM     83  C   UNL A   1      41.337  35.777  39.654  1.00  0.00     0.020 A 
ATOM     84  C   UNL A   1      40.099  34.060  40.847  1.00  0.00     0.020 A 
ATOM     85  C   UNL A   1      40.747  35.297  40.828  1.00  0.00     0.054 A 
BRANCH  85  86
ATOM     86  S   UNL A   1      40.798  36.329  42.319  1.00  0.00     0.124 S 
ATOM     87  O   UNL A   1      41.207  37.623  41.779  1.00  0.00    -0.237 OA
ATOM     88  O   UNL A   1      39.422  36.258  42.805  1.00  0.00    -0.237 OA
ATOM     89  O   UNL A   1      41.787  35.666  43.166  1.00  0.00    -0.744 OA
ENDBRANCH  85  86
ENDBRANCH  59  80
ENDBRANCH  33  34
ENDBRANCH  26  28
ENDBRANCH  25  26
ENDBRANCH  24  25
ENDBRANCH   1  24
TORSDOF 19
ENDMDL
MODEL 2
REMARK VINA RESULT:      -9.8      5.054     11.585
REMARK SMILES Cc1cc(NC(=O)[C@@H]2CC=CC[C@H]2C(=O)OCCOCCOC(=O)c2ccc(-c3c4nc(c(-c5ccc(S(=O)(=O)[O-])cc5)c5ccc([nH]5)c(-c5ccc(S(=O)(=O)[O-])cc5)c5nc(c(-c6ccc(S(=O)(=O)[O-])cc6)c6ccc3[nH]6)C=C5)C=C4)cc2)no1
REMARK SMILES IDX 20 1 19 2 18 3 17 4 16 5 14 6 15 7 13 8 8 9 9 10 10 11 12 12
REMARK SMILES IDX 11 13 6 14 5 15 7 17 4 18 1 19 2 20 3 21 86 22 85 23 21 24
REMARK SMILES IDX 22 25 23 26 24 27 25 28 26 29 84 30 27 31 83 32 28 33 29 34
REMARK SMILES IDX 30 35 77 36 31 37 82 38 76 39 78 40 32 41 81 42 75 43 74 44
REMARK SMILES IDX 33 46 63 47 44 48 62 49 45 50 48 51 61 52 79 53 46 54 47 55
REMARK SMILES IDX 60 57 80 58 49 59 34 60 35 61 43 62 36 63 42 64 37 65 38 66
REMARK SMILES IDX 39 67 40 68 41 69 64 70 65 71 73 72 66 73 72 74 67 75 68 76
REMARK SMILES IDX 69 77 70 78 71 79 50 80 51 81 59 82 52 83 58 84 53 85 54 86
REMARK SMILES IDX 55 87 56 88 57 89
REMARK H PARENT 5 16 78 45 48 56
REMARK Flexibility Score: inf
ROOT
ATOM      1  C   UNL A   1      32.459  28.972  27.223  1.00  0.00     0.202 C 
ENDROOT
BRANCH   1   2
ATOM      2  O   UNL A   1      31.449  28.481  26.340  1.00  0.00    -0.374 OA
BRANCH   2   3
ATOM      3  C   UNL A   1      31.449  28.993  25.010  1.00  0.00     0.202 C 
BRANCH   3   4
ATOM      4  C   UNL A   1      31.567  27.971  23.877  1.00  0.00     0.261 C 
BRANCH   4   5
ATOM      5  O   UNL A   1      31.816  26.623  24.312  1.00  0.00    -0.463 OA
BRANCH   5   6
ATOM      6  C   UNL A   1      33.117  26.228  24.287  1.00  0.00     0.310 C 
ATOM      7  O   UNL A   1      34.076  26.993  24.241  1.00  0.00    -0.252 OA
BRANCH   6   8
ATOM      8  C   UNL A   1      33.282  24.725  24.134  1.00  0.00     0.116 C 
ATOM      9  C   UNL A   1      32.250  23.850  24.870  1.00  0.00     0.097 C 
ATOM     10  C   UNL A   1      32.083  22.410  24.324  1.00  0.00     0.041 C 
ATOM     11  C   UNL A   1      32.559  22.171  22.927  1.00  0.00    -0.030 C 
ATOM     12  C   UNL A   1      33.276  24.526  22.608  1.00  0.00     0.043 C 
ATOM     13  C   UNL A   1      33.095  23.119  22.154  1.00  0.00    -0.030 C 
BRANCH   9  14
ATOM     14  C   UNL A   1      32.398  23.867  26.404  1.00  0.00     0.229 C 
ATOM     15  N   UNL A   1      33.412  23.258  27.083  1.00  0.00    -0.308 N 
ATOM     16  H   UNL A   1      33.245  23.096  28.039  1.00  0.00     0.171 HD
ATOM     17  O   UNL A   1      31.503  24.368  27.096  1.00  0.00    -0.274 OA
BRANCH  15  18
ATOM     18  C   UNL A   1      34.633  22.839  26.615  1.00  0.00     0.176 A 
ATOM     19  C   UNL A   1      37.027  20.614  24.972  1.00  0.00     0.091 C 
ATOM     20  C   UNL A   1      36.182  21.562  25.715  1.00  0.00     0.135 A 
ATOM     21  C   UNL A   1      34.970  21.486  26.358  1.00  0.00     0.095 A 
ATOM     22  O   UNL A   1      36.614  22.848  25.732  1.00  0.00    -0.360 OA
ATOM     23  N   UNL A   1      35.640  23.648  26.286  1.00  0.00    -0.062 NA
ENDBRANCH  15  18
ENDBRANCH   9  14
ENDBRANCH   6   8
ENDBRANCH   5   6
ENDBRANCH   4   5
ENDBRANCH   3   4
ENDBRANCH   2   3
ENDBRANCH   1   2
BRANCH   1  24
ATOM     24  C   UNL A   1      32.661  30.490  27.238  1.00  0.00     0.261 C 
BRANCH  24  25
ATOM     25  O   UNL A   1      34.047  30.845  27.080  1.00  0.00    -0.460 OA
BRANCH  25  26
ATOM     26  C   UNL A   1      34.704  31.133  28.220  1.00  0.00     0.338 C 
ATOM     27  O   UNL A   1      34.311  31.843  29.142  1.00  0.00    -0.246 OA
BRANCH  26  28
ATOM     28  C   UNL A   1      35.936  30.331  28.319  1.00  0.00     0.060 A 
ATOM     29  C   UNL A   1      36.285  29.850  29.587  1.00  0.00     0.016 A 
ATOM     30  C   UNL A   1      36.785  30.134  27.226  1.00  0.00     0.016 A 
ATOM     31  C   UNL A   1      37.523  29.243  29.785  1.00  0.00     0.010 A 
ATOM     32  C   UNL A   1      38.032  29.529  27.430  1.00  0.00     0.010 A 
ATOM     33  C   UNL A   1      38.425  29.127  28.720  1.00  0.00    -0.014 A 
BRANCH  33  34
ATOM     34  C   UNL A   1      39.830  28.743  29.007  1.00  0.00     0.031 A 
ATOM     35  C   UNL A   1      40.730  29.728  29.705  1.00  0.00     0.074 A 
ATOM     36  C   UNL A   1      40.284  27.513  28.709  1.00  0.00     0.049 A 
ATOM     37  N   UNL A   1      41.977  29.594  30.075  1.00  0.00    -0.248 NA
ATOM     38  C   UNL A   1      40.142  31.037  30.035  1.00  0.00     0.031 C 
ATOM     39  C   UNL A   1      39.500  26.452  28.077  1.00  0.00     0.029 A 
ATOM     40  N   UNL A   1      41.520  26.947  28.908  1.00  0.00    -0.354 N 
ATOM     41  C   UNL A   1      42.326  30.798  30.677  1.00  0.00     0.074 A 
ATOM     42  C   UNL A   1      41.168  31.662  30.593  1.00  0.00     0.031 C 
ATOM     43  C   UNL A   1      40.277  25.363  27.936  1.00  0.00     0.029 A 
ATOM     44  C   UNL A   1      41.617  25.659  28.441  1.00  0.00     0.049 A 
ATOM     45  H   UNL A   1      42.265  27.421  29.342  1.00  0.00     0.167 HD
ATOM     46  C   UNL A   1      43.499  31.153  31.254  1.00  0.00     0.031 A 
ATOM     47  C   UNL A   1      42.669  24.818  28.410  1.00  0.00     0.031 A 
ATOM     48  C   UNL A   1      44.656  30.300  31.323  1.00  0.00     0.049 A 
ATOM     49  C   UNL A   1      43.988  25.257  28.991  1.00  0.00     0.074 A 
ATOM     50  C   UNL A   1      45.889  30.565  31.894  1.00  0.00     0.029 A 
ATOM     51  N   UNL A   1      44.728  29.019  30.797  1.00  0.00    -0.354 N 
ATOM     52  N   UNL A   1      44.295  26.392  29.572  1.00  0.00    -0.248 NA
ATOM     53  C   UNL A   1      45.099  24.298  28.918  1.00  0.00     0.031 C 
ATOM     54  C   UNL A   1      46.723  29.466  31.664  1.00  0.00     0.029 A 
ATOM     55  C   UNL A   1      45.991  28.491  31.004  1.00  0.00     0.049 A 
ATOM     56  H   UNL A   1      43.989  28.552  30.343  1.00  0.00     0.167 HD
ATOM     57  C   UNL A   1      45.627  26.274  29.955  1.00  0.00     0.074 A 
ATOM     58  C   UNL A   1      46.063  24.954  29.551  1.00  0.00     0.031 C 
ATOM     59  C   UNL A   1      46.417  27.177  30.589  1.00  0.00     0.031 A 
BRANCH  46  60
ATOM     60  C   UNL A   1      43.597  32.544  31.823  1.00  0.00    -0.014 A 
ATOM     61  C   UNL A   1      43.985  33.635  31.023  1.00  0.00     0.010 A 
ATOM     62  C   UNL A   1      43.278  32.766  33.175  1.00  0.00     0.010 A 
ATOM     63  C   UNL A   1      44.097  34.913  31.578  1.00  0.00     0.020 A 
ATOM     64  C   UNL A   1      43.362  34.047  33.726  1.00  0.00     0.020 A 
ATOM     65  C   UNL A   1      43.791  35.110  32.928  1.00  0.00     0.054 A 
BRANCH  65  66
ATOM     66  S   UNL A   1      43.941  36.779  33.624  1.00  0.00     0.124 S 
ATOM     67  O   UNL A   1      42.564  37.063  34.022  1.00  0.00    -0.237 OA
ATOM     68  O   UNL A   1      44.884  36.586  34.722  1.00  0.00    -0.237 OA
ATOM     69  O   UNL A   1      44.443  37.577  32.509  1.00  0.00    -0.744 OA
ENDBRANCH  65  66
ENDBRANCH  46  60
BRANCH  47  70
ATOM     70  C   UNL A   1      42.520  23.476  27.785  1.00  0.00    -0.014 A 
ATOM     71  C   UNL A   1      42.807  23.277  26.424  1.00  0.00     0.010 A 
ATOM     72  C   UNL A   1      42.107  22.379  28.564  1.00  0.00     0.010 A 
ATOM     73  C   UNL A   1      42.678  22.008  25.852  1.00  0.00     0.020 A 
ATOM     74  C   UNL A   1      42.002  21.104  28.003  1.00  0.00     0.020 A 
ATOM     75  C   UNL A   1      42.282  20.928  26.647  1.00  0.00     0.054 A 
BRANCH  75  76
ATOM     76  S   UNL A   1      42.191  19.276  25.901  1.00  0.00     0.124 S 
ATOM     77  O   UNL A   1      40.763  19.143  25.628  1.00  0.00    -0.237 OA
ATOM     78  O   UNL A   1      43.051  19.412  24.728  1.00  0.00    -0.237 OA
ATOM     79  O   UNL A   1      42.713  18.400  26.948  1.00  0.00    -0.744 OA
ENDBRANCH  75  76
ENDBRANCH  47  70
BRANCH  59  80
ATOM     80  C   UNL A   1      47.829  26.764  30.911  1.00  0.00    -0.014 A 
ATOM     81  C   UNL A   1      48.896  27.085  30.054  1.00  0.00     0.010 A 
ATOM     82  C   UNL A   1      48.098  26.093  32.118  1.00  0.00     0.010 A 
ATOM     83  C   UNL A   1      50.203  26.716  30.384  1.00  0.00     0.020 A 
ATOM     84  C   UNL A   1      49.407  25.747  32.465  1.00  0.00     0.020 A 
ATOM     85  C   UNL A   1      50.450  26.048  31.588  1.00  0.00     0.054 A 
BRANCH  85  86
ATOM     86  S   UNL A   1      52.160  25.619  32.016  1.00  0.00     0.124 S 
ATOM     87  O   UNL A   1      52.860  25.868  30.759  1.00  0.00    -0.237 OA
ATOM     88  O   UNL A   1      52.464  26.550  33.100  1.00  0.00    -0.237 OA
ATOM     89  O   UNL A   1      52.076  24.215  32.415  1.00  0.00    -0.744 OA
ENDBRANCH  85  86
ENDBRANCH  59  80
ENDBRANCH  33  34
ENDBRANCH  26  28
ENDBRANCH  25  26
ENDBRANCH  24  25
ENDBRANCH   1  24
TORSDOF 19
ENDMDL
MODEL 3
REMARK VINA RESULT:      -9.8      5.304     11.704
REMARK SMILES Cc1cc(NC(=O)[C@@H]2CC=CC[C@H]2C(=O)OCCOCCOC(=O)c2ccc(-c3c4nc(c(-c5ccc(S(=O)(=O)[O-])cc5)c5ccc([nH]5)c(-c5ccc(S(=O)(=O)[O-])cc5)c5nc(c(-c6ccc(S(=O)(=O)[O-])cc6)c6ccc3[nH]6)C=C5)C=C4)cc2)no1
REMARK SMILES IDX 20 1 19 2 18 3 17 4 16 5 14 6 15 7 13 8 8 9 9 10 10 11 12 12
REMARK SMILES IDX 11 13 6 14 5 15 7 17 4 18 1 19 2 20 3 21 86 22 85 23 21 24
REMARK SMILES IDX 22 25 23 26 24 27 25 28 26 29 84 30 27 31 83 32 28 33 29 34
REMARK SMILES IDX 30 35 77 36 31 37 82 38 76 39 78 40 32 41 81 42 75 43 74 44
REMARK SMILES IDX 33 46 63 47 44 48 62 49 45 50 48 51 61 52 79 53 46 54 47 55
REMARK SMILES IDX 60 57 80 58 49 59 34 60 35 61 43 62 36 63 42 64 37 65 38 66
REMARK SMILES IDX 39 67 40 68 41 69 64 70 65 71 73 72 66 73 72 74 67 75 68 76
REMARK SMILES IDX 69 77 70 78 71 79 50 80 51 81 59 82 52 83 58 84 53 85 54 86
REMARK SMILES IDX 55 87 56 88 57 89
REMARK H PARENT 5 16 78 45 48 56
REMARK Flexibility Score: inf
ROOT
ATOM      1  C   UNL A   1      32.059  29.865  26.077  1.00  0.00     0.202 C 
ENDROOT
BRANCH   1   2
ATOM      2  O   UNL A   1      31.497  28.632  26.528  1.00  0.00    -0.374 OA
BRANCH   2   3
ATOM      3  C   UNL A   1      32.182  27.437  26.163  1.00  0.00     0.202 C 
BRANCH   3   4
ATOM      4  C   UNL A   1      31.453  26.117  26.420  1.00  0.00     0.261 C 
BRANCH   4   5
ATOM      5  O   UNL A   1      32.299  24.953  26.404  1.00  0.00    -0.463 OA
BRANCH   5   6
ATOM      6  C   UNL A   1      31.715  23.808  25.962  1.00  0.00     0.310 C 
ATOM      7  O   UNL A   1      30.508  23.586  25.992  1.00  0.00    -0.252 OA
BRANCH   6   8
ATOM      8  C   UNL A   1      32.719  22.731  25.588  1.00  0.00     0.116 C 
ATOM      9  C   UNL A   1      33.413  22.896  24.222  1.00  0.00     0.097 C 
ATOM     10  C   UNL A   1      34.759  22.146  24.061  1.00  0.00     0.041 C 
ATOM     11  C   UNL A   1      35.451  21.746  25.325  1.00  0.00    -0.030 C 
ATOM     12  C   UNL A   1      33.697  22.736  26.775  1.00  0.00     0.043 C 
ATOM     13  C   UNL A   1      34.976  22.010  26.545  1.00  0.00    -0.030 C 
BRANCH   9  14
ATOM     14  C   UNL A   1      32.482  22.665  23.016  1.00  0.00     0.229 C 
ATOM     15  N   UNL A   1      32.035  23.656  22.192  1.00  0.00    -0.308 N 
ATOM     16  H   UNL A   1      31.242  23.434  21.653  1.00  0.00     0.171 HD
ATOM     17  O   UNL A   1      32.012  21.539  22.817  1.00  0.00    -0.274 OA
BRANCH  15  18
ATOM     18  C   UNL A   1      32.539  24.921  22.012  1.00  0.00     0.176 A 
ATOM     19  C   UNL A   1      33.715  28.247  22.979  1.00  0.00     0.091 C 
ATOM     20  C   UNL A   1      33.206  26.970  22.454  1.00  0.00     0.135 A 
ATOM     21  C   UNL A   1      32.372  25.987  22.931  1.00  0.00     0.095 A 
ATOM     22  O   UNL A   1      33.707  26.584  21.254  1.00  0.00    -0.360 OA
ATOM     23  N   UNL A   1      33.299  25.297  20.983  1.00  0.00    -0.062 NA
ENDBRANCH  15  18
ENDBRANCH   9  14
ENDBRANCH   6   8
ENDBRANCH   5   6
ENDBRANCH   4   5
ENDBRANCH   3   4
ENDBRANCH   2   3
ENDBRANCH   1   2
BRANCH   1  24
ATOM     24  C   UNL A   1      32.642  30.776  27.162  1.00  0.00     0.261 C 
BRANCH  24  25
ATOM     25  O   UNL A   1      34.072  30.891  27.051  1.00  0.00    -0.460 OA
BRANCH  25  26
ATOM     26  C   UNL A   1      34.721  31.164  28.200  1.00  0.00     0.338 C 
ATOM     27  O   UNL A   1      34.318  31.856  29.131  1.00  0.00    -0.246 OA
BRANCH  26  28
ATOM     28  C   UNL A   1      35.958  30.369  28.292  1.00  0.00     0.060 A 
ATOM     29  C   UNL A   1      36.267  29.811  29.539  1.00  0.00     0.016 A 
ATOM     30  C   UNL A   1      36.847  30.252  27.221  1.00  0.00     0.016 A 
ATOM     31  C   UNL A   1      37.504  29.205  29.743  1.00  0.00     0.010 A 
ATOM     32  C   UNL A   1      38.094  29.647  27.431  1.00  0.00     0.010 A 
ATOM     33  C   UNL A   1      38.445  29.167  28.706  1.00  0.00    -0.014 A 
BRANCH  33  34
ATOM     34  C   UNL A   1      39.843  28.778  29.019  1.00  0.00     0.031 A 
ATOM     35  C   UNL A   1      40.732  29.760  29.738  1.00  0.00     0.074 A 
ATOM     36  C   UNL A   1      40.300  27.547  28.727  1.00  0.00     0.049 A 
ATOM     37  N   UNL A   1      41.971  29.621  30.131  1.00  0.00    -0.248 NA
ATOM     38  C   UNL A   1      40.141  31.069  30.059  1.00  0.00     0.031 C 
ATOM     39  C   UNL A   1      39.526  26.490  28.077  1.00  0.00     0.029 A 
ATOM     40  N   UNL A   1      41.531  26.979  28.948  1.00  0.00    -0.354 N 
ATOM     41  C   UNL A   1      42.311  30.823  30.742  1.00  0.00     0.074 A 
ATOM     42  C   UNL A   1      41.157  31.690  30.639  1.00  0.00     0.031 C 
ATOM     43  C   UNL A   1      40.303  25.400  27.948  1.00  0.00     0.029 A 
ATOM     44  C   UNL A   1      41.633  25.691  28.480  1.00  0.00     0.049 A 
ATOM     45  H   UNL A   1      42.268  27.449  29.398  1.00  0.00     0.167 HD
ATOM     46  C   UNL A   1      43.474  31.173  31.343  1.00  0.00     0.031 A 
ATOM     47  C   UNL A   1      42.684  24.847  28.467  1.00  0.00     0.031 A 
ATOM     48  C   UNL A   1      44.627  30.318  31.432  1.00  0.00     0.049 A 
ATOM     49  C   UNL A   1      43.992  25.282  29.074  1.00  0.00     0.074 A 
ATOM     50  C   UNL A   1      45.850  30.578  32.028  1.00  0.00     0.029 A 
ATOM     51  N   UNL A   1      44.706  29.037  30.905  1.00  0.00    -0.354 N 
ATOM     52  N   UNL A   1      44.291  26.415  29.665  1.00  0.00    -0.248 NA
ATOM     53  C   UNL A   1      45.103  24.321  29.020  1.00  0.00     0.031 C 
ATOM     54  C   UNL A   1      46.685  29.478  31.811  1.00  0.00     0.029 A 
ATOM     55  C   UNL A   1      45.964  28.506  31.134  1.00  0.00     0.049 A 
ATOM     56  H   UNL A   1      43.975  28.574  30.435  1.00  0.00     0.167 HD
ATOM     57  C   UNL A   1      45.616  26.293  30.073  1.00  0.00     0.074 A 
ATOM     58  C   UNL A   1      46.055  24.973  29.673  1.00  0.00     0.031 C 
ATOM     59  C   UNL A   1      46.394  27.193  30.724  1.00  0.00     0.031 A 
BRANCH  46  60
ATOM     60  C   UNL A   1      43.564  32.563  31.918  1.00  0.00    -0.014 A 
ATOM     61  C   UNL A   1      42.889  32.909  33.103  1.00  0.00     0.010 A 
ATOM     62  C   UNL A   1      44.353  33.532  31.271  1.00  0.00     0.010 A 
ATOM     63  C   UNL A   1      42.963  34.211  33.604  1.00  0.00     0.020 A 
ATOM     64  C   UNL A   1      44.451  34.828  31.785  1.00  0.00     0.020 A 
ATOM     65  C   UNL A   1      43.739  35.165  32.938  1.00  0.00     0.054 A 
BRANCH  65  66
ATOM     66  S   UNL A   1      43.822  36.848  33.610  1.00  0.00     0.124 S 
ATOM     67  O   UNL A   1      42.694  36.857  34.538  1.00  0.00    -0.237 OA
ATOM     68  O   UNL A   1      45.145  36.882  34.230  1.00  0.00    -0.237 OA
ATOM     69  O   UNL A   1      43.667  37.700  32.434  1.00  0.00    -0.744 OA
ENDBRANCH  65  66
ENDBRANCH  46  60
BRANCH  47  70
ATOM     70  C   UNL A   1      42.544  23.508  27.836  1.00  0.00    -0.014 A 
ATOM     71  C   UNL A   1      42.871  23.309  26.484  1.00  0.00     0.010 A 
ATOM     72  C   UNL A   1      42.099  22.413  28.600  1.00  0.00     0.010 A 
ATOM     73  C   UNL A   1      42.750  22.041  25.906  1.00  0.00     0.020 A 
ATOM     74  C   UNL A   1      42.001  21.140  28.034  1.00  0.00     0.020 A 
ATOM     75  C   UNL A   1      42.321  20.963  26.687  1.00  0.00     0.054 A 
BRANCH  75  76
ATOM     76  S   UNL A   1      42.241  19.313  25.936  1.00  0.00     0.124 S 
ATOM     77  O   UNL A   1      42.723  18.462  27.019  1.00  0.00    -0.237 OA
ATOM     78  O   UNL A   1      40.822  19.183  25.612  1.00  0.00    -0.237 OA
ATOM     79  O   UNL A   1      43.128  19.421  24.780  1.00  0.00    -0.744 OA
ENDBRANCH  75  76
ENDBRANCH  47  70
BRANCH  59  80
ATOM     80  C   UNL A   1      47.799  26.775  31.072  1.00  0.00    -0.014 A 
ATOM     81  C   UNL A   1      48.063  25.956  32.184  1.00  0.00     0.010 A 
ATOM     82  C   UNL A   1      48.865  27.164  30.239  1.00  0.00     0.010 A 
ATOM     83  C   UNL A   1      49.372  25.557  32.473  1.00  0.00     0.020 A 
ATOM     84  C   UNL A   1      50.171  26.745  30.509  1.00  0.00     0.020 A 
ATOM     85  C   UNL A   1      50.418  25.955  31.634  1.00  0.00     0.054 A 
BRANCH  85  86
ATOM     86  S   UNL A   1      52.101  25.389  32.005  1.00  0.00     0.124 S 
ATOM     87  O   UNL A   1      52.404  26.120  33.232  1.00  0.00    -0.237 OA
ATOM     88  O   UNL A   1      51.928  23.946  32.158  1.00  0.00    -0.237 OA
ATOM     89  O   UNL A   1      52.870  25.796  30.831  1.00  0.00    -0.744 OA
ENDBRANCH  85  86
ENDBRANCH  59  80
ENDBRANCH  33  34
ENDBRANCH  26  28
ENDBRANCH  25  26
ENDBRANCH  24  25
ENDBRANCH   1  24
TORSDOF 19
ENDMDL
