MODEL 1
REMARK VINA RESULT:      -8.0      0.000      0.000
REMARK SMILES CCCc1cc(OC(F)(F)F)cc2c1O[C@H](C(F)(F)F)C(C(=O)OCCOCCOC(=O)c1ccc(-c3c4nc(c(-c5ccc(S(=O)(=O)[O-])cc5)c5ccc([nH]5)c(-c5ccc(S(=O)(=O)[O-])cc5)c5nc(c(-c6ccc(S(=O)(=O)[O-])cc6)c6ccc3[nH]6)C=C5)C=C4)cc1)=C2
REMARK SMILES IDX 28 1 27 2 26 3 25 4 24 5 22 6 23 7 21 8 4 9 5 10 14 11 6 12
REMARK SMILES IDX 13 13 15 14 12 15 93 16 16 17 3 18 2 19 1 20 7 21 8 22 9 23
REMARK SMILES IDX 10 24 11 25 17 26 18 27 19 28 20 29 29 30 30 31 31 32 32 33
REMARK SMILES IDX 33 34 34 35 92 36 35 37 91 38 36 39 37 40 38 41 85 42 39 43
REMARK SMILES IDX 90 44 84 45 86 46 40 47 89 48 83 49 82 50 41 52 71 53 52 54
REMARK SMILES IDX 70 55 53 56 56 57 69 58 87 59 54 60 55 61 68 63 88 64 57 65
REMARK SMILES IDX 42 66 43 67 51 68 44 69 50 70 45 71 46 72 47 73 48 74 49 75
REMARK SMILES IDX 72 76 73 77 81 78 74 79 80 80 75 81 76 82 77 83 78 84 79 85
REMARK SMILES IDX 58 86 59 87 67 88 60 89 66 90 61 91 62 92 63 93 64 94 65 95
REMARK H PARENT 86 51 56 62
REMARK Flexibility Score: inf
ROOT
ATOM      1  C   UNL A   1      45.085  23.006  24.069  1.00  0.00     0.202 C 
ENDROOT
BRANCH   1   2
ATOM      2  O   UNL A   1      44.286  21.831  24.107  1.00  0.00    -0.374 OA
BRANCH   2   3
ATOM      3  C   UNL A   1      44.856  20.647  24.661  1.00  0.00     0.202 C 
BRANCH   3   4
ATOM      4  C   UNL A   1      43.918  19.594  25.259  1.00  0.00     0.261 C 
BRANCH   4   5
ATOM      5  O   UNL A   1      42.554  20.054  25.342  1.00  0.00    -0.460 OA
BRANCH   5   6
ATOM      6  C   UNL A   1      42.074  20.133  26.605  1.00  0.00     0.338 C 
ATOM      7  O   UNL A   1      41.750  19.190  27.311  1.00  0.00    -0.246 OA
BRANCH   6   8
ATOM      8  C   UNL A   1      42.103  21.508  27.138  1.00  0.00     0.087 C 
ATOM      9  C   UNL A   1      43.331  25.464  27.165  1.00  0.00    -0.002 A 
ATOM     10  C   UNL A   1      43.961  25.984  28.308  1.00  0.00     0.054 A 
ATOM     11  C   UNL A   1      42.930  24.129  27.199  1.00  0.00     0.131 A 
ATOM     12  C   UNL A   1      44.192  25.180  29.436  1.00  0.00     0.130 A 
ATOM     13  C   UNL A   1      43.172  23.293  28.303  1.00  0.00     0.021 A 
ATOM     14  O   UNL A   1      42.311  23.666  26.074  1.00  0.00    -0.475 OA
ATOM     15  C   UNL A   1      43.800  23.833  29.424  1.00  0.00     0.058 A 
ATOM     16  C   UNL A   1      42.877  21.860  28.177  1.00  0.00     0.027 C 
ATOM     17  C   UNL A   1      41.445  22.540  26.259  1.00  0.00     0.316 C 
BRANCH   9  18
ATOM     18  C   UNL A   1      43.010  26.355  25.979  1.00  0.00     0.039 C 
BRANCH  18  19
ATOM     19  C   UNL A   1      41.720  27.198  26.041  1.00  0.00     0.001 C 
ATOM     20  C   UNL A   1      41.785  28.587  25.408  1.00  0.00     0.004 C 
ENDBRANCH  18  19
ENDBRANCH   9  18
BRANCH  12  21
ATOM     21  O   UNL A   1      44.790  25.579  30.600  1.00  0.00    -0.406 OA
BRANCH  21  22
ATOM     22  C   UNL A   1      46.173  25.881  30.569  1.00  0.00     0.573 C 
ATOM     23  F   UNL A   1      46.758  25.620  31.758  1.00  0.00    -0.132 F 
ATOM     24  F   UNL A   1      46.803  25.181  29.598  1.00  0.00    -0.132 F 
ATOM     25  F   UNL A   1      46.329  27.196  30.303  1.00  0.00    -0.132 F 
ENDBRANCH  21  22
ENDBRANCH  12  21
BRANCH  17  26
ATOM     26  C   UNL A   1      40.058  23.035  26.702  1.00  0.00     0.430 C 
ATOM     27  F   UNL A   1      39.957  23.215  28.038  1.00  0.00    -0.167 F 
ATOM     28  F   UNL A   1      39.769  24.227  26.117  1.00  0.00    -0.167 F 
ATOM     29  F   UNL A   1      39.071  22.189  26.341  1.00  0.00    -0.167 F 
ENDBRANCH  17  26
ENDBRANCH   6   8
ENDBRANCH   5   6
ENDBRANCH   4   5
ENDBRANCH   3   4
ENDBRANCH   2   3
ENDBRANCH   1   2
BRANCH   1  30
ATOM     30  C   UNL A   1      46.081  23.275  25.204  1.00  0.00     0.261 C 
BRANCH  30  31
ATOM     31  O   UNL A   1      46.063  24.632  25.666  1.00  0.00    -0.460 OA
BRANCH  31  32
ATOM     32  C   UNL A   1      46.953  25.439  25.041  1.00  0.00     0.338 C 
ATOM     33  O   UNL A   1      47.655  25.161  24.075  1.00  0.00    -0.246 OA
BRANCH  32  34
ATOM     34  C   UNL A   1      46.832  26.806  25.568  1.00  0.00     0.060 A 
ATOM     35  C   UNL A   1      47.277  27.041  26.874  1.00  0.00     0.016 A 
ATOM     36  C   UNL A   1      46.246  27.825  24.814  1.00  0.00     0.016 A 
ATOM     37  C   UNL A   1      47.101  28.293  27.454  1.00  0.00     0.010 A 
ATOM     38  C   UNL A   1      46.057  29.076  25.403  1.00  0.00     0.010 A 
ATOM     39  C   UNL A   1      46.454  29.304  26.733  1.00  0.00    -0.014 A 
BRANCH  39  40
ATOM     40  C   UNL A   1      46.050  30.549  27.421  1.00  0.00     0.031 A 
ATOM     41  C   UNL A   1      46.987  31.724  27.390  1.00  0.00     0.074 A 
ATOM     42  C   UNL A   1      44.866  30.631  28.052  1.00  0.00     0.049 A 
ATOM     43  N   UNL A   1      46.875  32.886  27.977  1.00  0.00    -0.248 NA
ATOM     44  C   UNL A   1      48.215  31.567  26.593  1.00  0.00     0.031 C 
ATOM     45  C   UNL A   1      43.860  29.570  28.102  1.00  0.00     0.029 A 
ATOM     46  N   UNL A   1      44.315  31.652  28.780  1.00  0.00    -0.354 N 
ATOM     47  C   UNL A   1      48.022  33.592  27.635  1.00  0.00     0.074 A 
ATOM     48  C   UNL A   1      48.828  32.721  26.809  1.00  0.00     0.031 C 
ATOM     49  C   UNL A   1      42.816  29.994  28.836  1.00  0.00     0.029 A 
ATOM     50  C   UNL A   1      43.099  31.338  29.337  1.00  0.00     0.049 A 
ATOM     51  H   UNL A   1      44.750  32.528  28.894  1.00  0.00     0.167 HD
ATOM     52  C   UNL A   1      48.368  34.855  27.976  1.00  0.00     0.031 A 
ATOM     53  C   UNL A   1      42.319  32.044  30.178  1.00  0.00     0.031 A 
ATOM     54  C   UNL A   1      47.564  35.709  28.809  1.00  0.00     0.049 A 
ATOM     55  C   UNL A   1      42.762  33.418  30.608  1.00  0.00     0.074 A 
ATOM     56  C   UNL A   1      47.816  37.009  29.206  1.00  0.00     0.029 A 
ATOM     57  N   UNL A   1      46.352  35.343  29.377  1.00  0.00    -0.354 N 
ATOM     58  N   UNL A   1      43.841  34.081  30.261  1.00  0.00    -0.248 NA
ATOM     59  C   UNL A   1      41.882  34.141  31.535  1.00  0.00     0.031 C 
ATOM     60  C   UNL A   1      46.786  37.410  30.062  1.00  0.00     0.029 A 
ATOM     61  C   UNL A   1      45.858  36.383  30.144  1.00  0.00     0.049 A 
ATOM     62  H   UNL A   1      45.910  34.472  29.254  1.00  0.00     0.167 HD
ATOM     63  C   UNL A   1      43.752  35.312  30.904  1.00  0.00     0.074 A 
ATOM     64  C   UNL A   1      42.510  35.304  31.652  1.00  0.00     0.031 C 
ATOM     65  C   UNL A   1      44.617  36.357  30.876  1.00  0.00     0.031 A 
BRANCH  52  66
ATOM     66  C   UNL A   1      49.691  35.375  27.479  1.00  0.00    -0.014 A 
ATOM     67  C   UNL A   1      49.787  36.093  26.274  1.00  0.00     0.010 A 
ATOM     68  C   UNL A   1      50.852  35.170  28.248  1.00  0.00     0.010 A 
ATOM     69  C   UNL A   1      51.026  36.567  25.830  1.00  0.00     0.020 A 
ATOM     70  C   UNL A   1      52.087  35.665  27.821  1.00  0.00     0.020 A 
ATOM     71  C   UNL A   1      52.168  36.347  26.606  1.00  0.00     0.054 A 
BRANCH  71  72
ATOM     72  S   UNL A   1      53.757  36.996  26.019  1.00  0.00     0.124 S 
ATOM     73  O   UNL A   1      53.423  37.426  24.663  1.00  0.00    -0.237 OA
ATOM     74  O   UNL A   1      54.035  38.071  26.968  1.00  0.00    -0.237 OA
ATOM     75  O   UNL A   1      54.654  35.847  26.104  1.00  0.00    -0.744 OA
ENDBRANCH  71  72
ENDBRANCH  52  66
BRANCH  53  76
ATOM     76  C   UNL A   1      41.051  31.456  30.687  1.00  0.00    -0.014 A 
ATOM     77  C   UNL A   1      39.869  31.529  29.929  1.00  0.00     0.010 A 
ATOM     78  C   UNL A   1      41.020  30.811  31.938  1.00  0.00     0.010 A 
ATOM     79  C   UNL A   1      38.678  30.985  30.420  1.00  0.00     0.020 A 
ATOM     80  C   UNL A   1      39.839  30.240  32.419  1.00  0.00     0.020 A 
ATOM     81  C   UNL A   1      38.671  30.341  31.660  1.00  0.00     0.054 A 
BRANCH  81  82
ATOM     82  S   UNL A   1      37.126  29.598  32.254  1.00  0.00     0.124 S 
ATOM     83  O   UNL A   1      37.613  28.450  33.011  1.00  0.00    -0.237 OA
ATOM     84  O   UNL A   1      36.543  30.678  33.045  1.00  0.00    -0.237 OA
ATOM     85  O   UNL A   1      36.406  29.279  31.023  1.00  0.00    -0.744 OA
ENDBRANCH  81  82
ENDBRANCH  53  76
BRANCH  65  86
ATOM     86  C   UNL A   1      44.237  37.598  31.640  1.00  0.00    -0.014 A 
ATOM     87  C   UNL A   1      44.440  37.694  33.027  1.00  0.00     0.010 A 
ATOM     88  C   UNL A   1      43.739  38.712  30.939  1.00  0.00     0.010 A 
ATOM     89  C   UNL A   1      44.131  38.877  33.704  1.00  0.00     0.020 A 
ATOM     90  C   UNL A   1      43.456  39.905  31.608  1.00  0.00     0.020 A 
ATOM     91  C   UNL A   1      43.644  39.976  32.989  1.00  0.00     0.054 A 
BRANCH  91  92
ATOM     92  S   UNL A   1      43.308  41.519  33.882  1.00  0.00     0.124 S 
ATOM     93  O   UNL A   1      44.095  42.487  33.124  1.00  0.00    -0.237 OA
ATOM     94  O   UNL A   1      41.859  41.651  33.759  1.00  0.00    -0.237 OA
ATOM     95  O   UNL A   1      43.790  41.248  35.235  1.00  0.00    -0.744 OA
ENDBRANCH  91  92
ENDBRANCH  65  86
ENDBRANCH  39  40
ENDBRANCH  32  34
ENDBRANCH  31  32
ENDBRANCH  30  31
ENDBRANCH   1  30
TORSDOF 22
ENDMDL
MODEL 2
REMARK VINA RESULT:      -8.0      6.394      8.945
REMARK SMILES CCCc1cc(OC(F)(F)F)cc2c1O[C@H](C(F)(F)F)C(C(=O)OCCOCCOC(=O)c1ccc(-c3c4nc(c(-c5ccc(S(=O)(=O)[O-])cc5)c5ccc([nH]5)c(-c5ccc(S(=O)(=O)[O-])cc5)c5nc(c(-c6ccc(S(=O)(=O)[O-])cc6)c6ccc3[nH]6)C=C5)C=C4)cc1)=C2
REMARK SMILES IDX 28 1 27 2 26 3 25 4 24 5 22 6 23 7 21 8 4 9 5 10 14 11 6 12
REMARK SMILES IDX 13 13 15 14 12 15 93 16 16 17 3 18 2 19 1 20 7 21 8 22 9 23
REMARK SMILES IDX 10 24 11 25 17 26 18 27 19 28 20 29 29 30 30 31 31 32 32 33
REMARK SMILES IDX 33 34 34 35 92 36 35 37 91 38 36 39 37 40 38 41 85 42 39 43
REMARK SMILES IDX 90 44 84 45 86 46 40 47 89 48 83 49 82 50 41 52 71 53 52 54
REMARK SMILES IDX 70 55 53 56 56 57 69 58 87 59 54 60 55 61 68 63 88 64 57 65
REMARK SMILES IDX 42 66 43 67 51 68 44 69 50 70 45 71 46 72 47 73 48 74 49 75
REMARK SMILES IDX 72 76 73 77 81 78 74 79 80 80 75 81 76 82 77 83 78 84 79 85
REMARK SMILES IDX 58 86 59 87 67 88 60 89 66 90 61 91 62 92 63 93 64 94 65 95
REMARK H PARENT 86 51 56 62
REMARK Flexibility Score: inf
ROOT
ATOM      1  C   UNL A   1      44.802  26.385  26.692  1.00  0.00     0.202 C 
ENDROOT
BRANCH   1   2
ATOM      2  O   UNL A   1      45.012  27.718  27.143  1.00  0.00    -0.374 OA
BRANCH   2   3
ATOM      3  C   UNL A   1      44.938  27.974  28.544  1.00  0.00     0.202 C 
BRANCH   3   4
ATOM      4  C   UNL A   1      46.195  27.759  29.393  1.00  0.00     0.261 C 
BRANCH   4   5
ATOM      5  O   UNL A   1      45.915  27.786  30.807  1.00  0.00    -0.460 OA
BRANCH   5   6
ATOM      6  C   UNL A   1      46.842  27.158  31.565  1.00  0.00     0.338 C 
ATOM      7  O   UNL A   1      47.952  27.586  31.847  1.00  0.00    -0.246 OA
BRANCH   6   8
ATOM      8  C   UNL A   1      46.332  25.913  32.170  1.00  0.00     0.087 C 
ATOM      9  C   UNL A   1      44.006  23.747  34.827  1.00  0.00    -0.002 A 
ATOM     10  C   UNL A   1      44.623  22.844  35.707  1.00  0.00     0.054 A 
ATOM     11  C   UNL A   1      44.825  24.453  33.946  1.00  0.00     0.131 A 
ATOM     12  C   UNL A   1      46.017  22.673  35.709  1.00  0.00     0.130 A 
ATOM     13  C   UNL A   1      46.224  24.322  33.944  1.00  0.00     0.021 A 
ATOM     14  O   UNL A   1      44.185  25.312  33.100  1.00  0.00    -0.475 OA
ATOM     15  C   UNL A   1      46.812  23.421  34.828  1.00  0.00     0.058 A 
ATOM     16  C   UNL A   1      47.014  25.237  33.109  1.00  0.00     0.027 C 
ATOM     17  C   UNL A   1      44.881  25.622  31.886  1.00  0.00     0.316 C 
BRANCH   9  18
ATOM     18  C   UNL A   1      42.494  23.871  34.770  1.00  0.00     0.039 C 
BRANCH  18  19
ATOM     19  C   UNL A   1      41.811  24.824  35.771  1.00  0.00     0.001 C 
ATOM     20  C   UNL A   1      41.523  26.240  35.274  1.00  0.00     0.004 C 
ENDBRANCH  18  19
ENDBRANCH   9  18
BRANCH  12  21
ATOM     21  O   UNL A   1      46.722  21.821  36.515  1.00  0.00    -0.406 OA
BRANCH  21  22
ATOM     22  C   UNL A   1      46.648  20.433  36.243  1.00  0.00     0.573 C 
ATOM     23  F   UNL A   1      46.143  20.202  35.012  1.00  0.00    -0.132 F 
ATOM     24  F   UNL A   1      47.863  19.850  36.345  1.00  0.00    -0.132 F 
ATOM     25  F   UNL A   1      45.830  19.852  37.148  1.00  0.00    -0.132 F 
ENDBRANCH  21  22
ENDBRANCH  12  21
BRANCH  17  26
ATOM     26  C   UNL A   1      44.592  24.529  30.843  1.00  0.00     0.430 C 
ATOM     27  F   UNL A   1      44.334  23.321  31.392  1.00  0.00    -0.167 F 
ATOM     28  F   UNL A   1      43.511  24.864  30.090  1.00  0.00    -0.167 F 
ATOM     29  F   UNL A   1      45.615  24.360  29.978  1.00  0.00    -0.167 F 
ENDBRANCH  17  26
ENDBRANCH   6   8
ENDBRANCH   5   6
ENDBRANCH   4   5
ENDBRANCH   3   4
ENDBRANCH   2   3
ENDBRANCH   1   2
BRANCH   1  30
ATOM     30  C   UNL A   1      43.438  25.995  26.108  1.00  0.00     0.261 C 
BRANCH  30  31
ATOM     31  O   UNL A   1      42.416  25.851  27.101  1.00  0.00    -0.460 OA
BRANCH  31  32
ATOM     32  C   UNL A   1      41.285  26.548  26.834  1.00  0.00     0.338 C 
ATOM     33  O   UNL A   1      40.535  26.404  25.875  1.00  0.00    -0.246 OA
BRANCH  32  34
ATOM     34  C   UNL A   1      40.953  27.405  27.981  1.00  0.00     0.060 A 
ATOM     35  C   UNL A   1      41.470  28.707  27.992  1.00  0.00     0.016 A 
ATOM     36  C   UNL A   1      40.194  26.926  29.050  1.00  0.00     0.016 A 
ATOM     37  C   UNL A   1      41.263  29.528  29.095  1.00  0.00     0.010 A 
ATOM     38  C   UNL A   1      40.000  27.747  30.163  1.00  0.00     0.010 A 
ATOM     39  C   UNL A   1      40.561  29.036  30.201  1.00  0.00    -0.014 A 
BRANCH  39  40
ATOM     40  C   UNL A   1      40.547  29.809  31.462  1.00  0.00     0.031 A 
ATOM     41  C   UNL A   1      41.640  29.570  32.465  1.00  0.00     0.074 A 
ATOM     42  C   UNL A   1      39.581  30.713  31.701  1.00  0.00     0.049 A 
ATOM     43  N   UNL A   1      41.792  30.077  33.659  1.00  0.00    -0.248 NA
ATOM     44  C   UNL A   1      42.704  28.630  32.069  1.00  0.00     0.031 C 
ATOM     45  C   UNL A   1      38.501  31.061  30.778  1.00  0.00     0.029 A 
ATOM     46  N   UNL A   1      39.349  31.496  32.801  1.00  0.00    -0.354 N 
ATOM     47  C   UNL A   1      42.957  29.509  34.163  1.00  0.00     0.074 A 
ATOM     48  C   UNL A   1      43.459  28.600  33.156  1.00  0.00     0.031 C 
ATOM     49  C   UNL A   1      37.713  31.982  31.359  1.00  0.00     0.029 A 
ATOM     50  C   UNL A   1      38.210  32.258  32.705  1.00  0.00     0.049 A 
ATOM     51  H   UNL A   1      39.943  31.512  33.587  1.00  0.00     0.167 HD
ATOM     52  C   UNL A   1      43.554  29.729  35.358  1.00  0.00     0.031 A 
ATOM     53  C   UNL A   1      37.623  33.063  33.611  1.00  0.00     0.031 A 
ATOM     54  C   UNL A   1      43.038  30.626  36.357  1.00  0.00     0.049 A 
ATOM     55  C   UNL A   1      38.263  33.233  34.964  1.00  0.00     0.074 A 
ATOM     56  C   UNL A   1      43.571  30.931  37.597  1.00  0.00     0.029 A 
ATOM     57  N   UNL A   1      41.866  31.357  36.233  1.00  0.00    -0.354 N 
ATOM     58  N   UNL A   1      39.375  32.703  35.421  1.00  0.00    -0.248 NA
ATOM     59  C   UNL A   1      37.576  34.111  35.919  1.00  0.00     0.031 C 
ATOM     60  C   UNL A   1      42.691  31.803  38.246  1.00  0.00     0.029 A 
ATOM     61  C   UNL A   1      41.644  32.092  37.384  1.00  0.00     0.049 A 
ATOM     62  H   UNL A   1      41.278  31.353  35.443  1.00  0.00     0.167 HD
ATOM     63  C   UNL A   1      39.535  33.211  36.706  1.00  0.00     0.074 A 
ATOM     64  C   UNL A   1      38.412  34.095  36.949  1.00  0.00     0.031 C 
ATOM     65  C   UNL A   1      40.523  32.971  37.604  1.00  0.00     0.031 A 
BRANCH  52  66
ATOM     66  C   UNL A   1      44.812  28.959  35.662  1.00  0.00    -0.014 A 
ATOM     67  C   UNL A   1      46.079  29.474  35.340  1.00  0.00     0.010 A 
ATOM     68  C   UNL A   1      44.724  27.714  36.312  1.00  0.00     0.010 A 
ATOM     69  C   UNL A   1      47.235  28.742  35.631  1.00  0.00     0.020 A 
ATOM     70  C   UNL A   1      45.877  26.993  36.629  1.00  0.00     0.020 A 
ATOM     71  C   UNL A   1      47.125  27.505  36.272  1.00  0.00     0.054 A 
BRANCH  71  72
ATOM     72  S   UNL A   1      48.642  26.590  36.661  1.00  0.00     0.124 S 
ATOM     73  O   UNL A   1      49.308  27.493  37.597  1.00  0.00    -0.237 OA
ATOM     74  O   UNL A   1      48.129  25.352  37.241  1.00  0.00    -0.237 OA
ATOM     75  O   UNL A   1      49.301  26.441  35.366  1.00  0.00    -0.744 OA
ENDBRANCH  71  72
ENDBRANCH  52  66
BRANCH  53  76
ATOM     76  C   UNL A   1      36.346  33.751  33.277  1.00  0.00    -0.014 A 
ATOM     77  C   UNL A   1      36.350  35.028  32.690  1.00  0.00     0.010 A 
ATOM     78  C   UNL A   1      35.113  33.127  33.543  1.00  0.00     0.010 A 
ATOM     79  C   UNL A   1      35.147  35.674  32.391  1.00  0.00     0.020 A 
ATOM     80  C   UNL A   1      33.909  33.756  33.219  1.00  0.00     0.020 A 
ATOM     81  C   UNL A   1      33.934  35.033  32.655  1.00  0.00     0.054 A 
BRANCH  81  82
ATOM     82  S   UNL A   1      32.386  35.870  32.212  1.00  0.00     0.124 S 
ATOM     83  O   UNL A   1      32.505  35.980  30.762  1.00  0.00    -0.237 OA
ATOM     84  O   UNL A   1      31.375  34.934  32.696  1.00  0.00    -0.237 OA
ATOM     85  O   UNL A   1      32.458  37.131  32.945  1.00  0.00    -0.744 OA
ENDBRANCH  81  82
ENDBRANCH  53  76
BRANCH  65  86
ATOM     86  C   UNL A   1      40.465  33.704  38.918  1.00  0.00    -0.014 A 
ATOM     87  C   UNL A   1      41.085  34.953  39.087  1.00  0.00     0.010 A 
ATOM     88  C   UNL A   1      39.711  33.162  39.976  1.00  0.00     0.010 A 
ATOM     89  C   UNL A   1      40.970  35.639  40.300  1.00  0.00     0.020 A 
ATOM     90  C   UNL A   1      39.570  33.858  41.179  1.00  0.00     0.020 A 
ATOM     91  C   UNL A   1      40.210  35.088  41.337  1.00  0.00     0.054 A 
BRANCH  91  92
ATOM     92  S   UNL A   1      40.027  36.027  42.878  1.00  0.00     0.124 S 
ATOM     93  O   UNL A   1      40.536  37.340  42.496  1.00  0.00    -0.237 OA
ATOM     94  O   UNL A   1      38.589  35.957  43.126  1.00  0.00    -0.237 OA
ATOM     95  O   UNL A   1      40.854  35.291  43.832  1.00  0.00    -0.744 OA
ENDBRANCH  91  92
ENDBRANCH  65  86
ENDBRANCH  39  40
ENDBRANCH  32  34
ENDBRANCH  31  32
ENDBRANCH  30  31
ENDBRANCH   1  30
TORSDOF 22
ENDMDL
MODEL 3
REMARK VINA RESULT:      -7.6      4.147     10.749
REMARK SMILES CCCc1cc(OC(F)(F)F)cc2c1O[C@H](C(F)(F)F)C(C(=O)OCCOCCOC(=O)c1ccc(-c3c4nc(c(-c5ccc(S(=O)(=O)[O-])cc5)c5ccc([nH]5)c(-c5ccc(S(=O)(=O)[O-])cc5)c5nc(c(-c6ccc(S(=O)(=O)[O-])cc6)c6ccc3[nH]6)C=C5)C=C4)cc1)=C2
REMARK SMILES IDX 28 1 27 2 26 3 25 4 24 5 22 6 23 7 21 8 4 9 5 10 14 11 6 12
REMARK SMILES IDX 13 13 15 14 12 15 93 16 16 17 3 18 2 19 1 20 7 21 8 22 9 23
REMARK SMILES IDX 10 24 11 25 17 26 18 27 19 28 20 29 29 30 30 31 31 32 32 33
REMARK SMILES IDX 33 34 34 35 92 36 35 37 91 38 36 39 37 40 38 41 85 42 39 43
REMARK SMILES IDX 90 44 84 45 86 46 40 47 89 48 83 49 82 50 41 52 71 53 52 54
REMARK SMILES IDX 70 55 53 56 56 57 69 58 87 59 54 60 55 61 68 63 88 64 57 65
REMARK SMILES IDX 42 66 43 67 51 68 44 69 50 70 45 71 46 72 47 73 48 74 49 75
REMARK SMILES IDX 72 76 73 77 81 78 74 79 80 80 75 81 76 82 77 83 78 84 79 85
REMARK SMILES IDX 58 86 59 87 67 88 60 89 66 90 61 91 62 92 63 93 64 94 65 95
REMARK H PARENT 86 51 56 62
REMARK Flexibility Score: inf
ROOT
ATOM      1  C   UNL A   1      33.726  35.037  29.943  1.00  0.00     0.202 C 
ENDROOT
BRANCH   1   2
ATOM      2  O   UNL A   1      33.628  34.374  31.197  1.00  0.00    -0.374 OA
BRANCH   2   3
ATOM      3  C   UNL A   1      34.630  34.634  32.176  1.00  0.00     0.202 C 
BRANCH   3   4
ATOM      4  C   UNL A   1      36.004  33.977  32.010  1.00  0.00     0.261 C 
BRANCH   4   5
ATOM      5  O   UNL A   1      36.468  33.356  33.225  1.00  0.00    -0.460 OA
BRANCH   5   6
ATOM      6  C   UNL A   1      36.620  32.014  33.136  1.00  0.00     0.338 C 
ATOM      7  O   UNL A   1      35.833  31.234  32.622  1.00  0.00    -0.246 OA
BRANCH   6   8
ATOM      8  C   UNL A   1      37.940  31.560  33.611  1.00  0.00     0.087 C 
ATOM      9  C   UNL A   1      42.053  31.852  34.014  1.00  0.00    -0.002 A 
ATOM     10  C   UNL A   1      42.866  30.797  33.568  1.00  0.00     0.054 A 
ATOM     11  C   UNL A   1      40.673  31.711  33.864  1.00  0.00     0.131 A 
ATOM     12  C   UNL A   1      42.308  29.651  32.978  1.00  0.00     0.130 A 
ATOM     13  C   UNL A   1      40.088  30.589  33.252  1.00  0.00     0.021 A 
ATOM     14  O   UNL A   1      39.918  32.753  34.319  1.00  0.00    -0.475 OA
ATOM     15  C   UNL A   1      40.918  29.557  32.817  1.00  0.00     0.058 A 
ATOM     16  C   UNL A   1      38.646  30.612  32.975  1.00  0.00     0.027 C 
ATOM     17  C   UNL A   1      38.565  32.433  34.669  1.00  0.00     0.316 C 
BRANCH   9  18
ATOM     18  C   UNL A   1      42.652  33.051  34.724  1.00  0.00     0.039 C 
BRANCH  18  19
ATOM     19  C   UNL A   1      42.672  33.039  36.266  1.00  0.00     0.001 C 
ATOM     20  C   UNL A   1      42.265  34.337  36.962  1.00  0.00     0.004 C 
ENDBRANCH  18  19
ENDBRANCH   9  18
BRANCH  12  21
ATOM     21  O   UNL A   1      43.000  28.566  32.515  1.00  0.00    -0.406 OA
BRANCH  21  22
ATOM     22  C   UNL A   1      43.194  27.474  33.397  1.00  0.00     0.573 C 
ATOM     23  F   UNL A   1      44.346  27.604  34.090  1.00  0.00    -0.132 F 
ATOM     24  F   UNL A   1      42.162  27.359  34.263  1.00  0.00    -0.132 F 
ATOM     25  F   UNL A   1      43.263  26.334  32.676  1.00  0.00    -0.132 F 
ENDBRANCH  21  22
ENDBRANCH  12  21
BRANCH  17  26
ATOM     26  C   UNL A   1      38.527  31.899  36.110  1.00  0.00     0.430 C 
ATOM     27  F   UNL A   1      39.548  32.350  36.874  1.00  0.00    -0.167 F 
ATOM     28  F   UNL A   1      37.375  32.271  36.726  1.00  0.00    -0.167 F 
ATOM     29  F   UNL A   1      38.562  30.551  36.160  1.00  0.00    -0.167 F 
ENDBRANCH  17  26
ENDBRANCH   6   8
ENDBRANCH   5   6
ENDBRANCH   4   5
ENDBRANCH   3   4
ENDBRANCH   2   3
ENDBRANCH   1   2
BRANCH   1  30
ATOM     30  C   UNL A   1      33.147  34.368  28.690  1.00  0.00     0.261 C 
BRANCH  30  31
ATOM     31  O   UNL A   1      34.139  33.731  27.876  1.00  0.00    -0.460 OA
BRANCH  31  32
ATOM     32  C   UNL A   1      34.270  32.403  28.104  1.00  0.00     0.338 C 
ATOM     33  O   UNL A   1      33.483  31.515  27.794  1.00  0.00    -0.246 OA
BRANCH  32  34
ATOM     34  C   UNL A   1      35.617  32.124  28.624  1.00  0.00     0.060 A 
ATOM     35  C   UNL A   1      36.604  33.097  28.428  1.00  0.00     0.016 A 
ATOM     36  C   UNL A   1      35.918  30.910  29.245  1.00  0.00     0.016 A 
ATOM     37  C   UNL A   1      37.915  32.845  28.818  1.00  0.00     0.010 A 
ATOM     38  C   UNL A   1      37.238  30.654  29.621  1.00  0.00     0.010 A 
ATOM     39  C   UNL A   1      38.244  31.607  29.379  1.00  0.00    -0.014 A 
BRANCH  39  40
ATOM     40  C   UNL A   1      39.665  31.243  29.570  1.00  0.00     0.031 A 
ATOM     41  C   UNL A   1      40.605  32.279  30.121  1.00  0.00     0.074 A 
ATOM     42  C   UNL A   1      40.104  30.010  29.265  1.00  0.00     0.049 A 
ATOM     43  N   UNL A   1      41.895  32.209  30.307  1.00  0.00    -0.248 NA
ATOM     44  C   UNL A   1      40.008  33.567  30.514  1.00  0.00     0.031 C 
ATOM     45  C   UNL A   1      39.271  28.914  28.771  1.00  0.00     0.029 A 
ATOM     46  N   UNL A   1      41.365  29.478  29.317  1.00  0.00    -0.354 N 
ATOM     47  C   UNL A   1      42.269  33.444  30.822  1.00  0.00     0.074 A 
ATOM     48  C   UNL A   1      41.073  34.254  30.897  1.00  0.00     0.031 C 
ATOM     49  C   UNL A   1      40.050  27.840  28.553  1.00  0.00     0.029 A 
ATOM     50  C   UNL A   1      41.437  28.186  28.855  1.00  0.00     0.049 A 
ATOM     51  H   UNL A   1      42.147  29.974  29.654  1.00  0.00     0.167 HD
ATOM     52  C   UNL A   1      43.499  33.863  31.201  1.00  0.00     0.031 A 
ATOM     53  C   UNL A   1      42.505  27.386  28.672  1.00  0.00     0.031 A 
ATOM     54  C   UNL A   1      44.685  33.053  31.110  1.00  0.00     0.049 A 
ATOM     55  C   UNL A   1      43.875  27.900  29.028  1.00  0.00     0.074 A 
ATOM     56  C   UNL A   1      45.978  33.376  31.477  1.00  0.00     0.029 A 
ATOM     57  N   UNL A   1      44.720  31.759  30.609  1.00  0.00    -0.354 N 
ATOM     58  N   UNL A   1      44.212  29.065  29.531  1.00  0.00    -0.248 NA
ATOM     59  C   UNL A   1      45.007  26.994  28.796  1.00  0.00     0.031 C 
ATOM     60  C   UNL A   1      46.806  32.299  31.145  1.00  0.00     0.029 A 
ATOM     61  C   UNL A   1      46.017  31.280  30.633  1.00  0.00     0.049 A 
ATOM     62  H   UNL A   1      43.938  31.257  30.285  1.00  0.00     0.167 HD
ATOM     63  C   UNL A   1      45.592  29.017  29.706  1.00  0.00     0.074 A 
ATOM     64  C   UNL A   1      46.024  27.707  29.263  1.00  0.00     0.031 C 
ATOM     65  C   UNL A   1      46.426  29.970  30.192  1.00  0.00     0.031 A 
BRANCH  52  66
ATOM     66  C   UNL A   1      43.629  35.273  31.714  1.00  0.00    -0.014 A 
ATOM     67  C   UNL A   1      43.999  36.328  30.861  1.00  0.00     0.010 A 
ATOM     68  C   UNL A   1      43.343  35.551  33.063  1.00  0.00     0.010 A 
ATOM     69  C   UNL A   1      44.114  37.631  31.357  1.00  0.00     0.020 A 
ATOM     70  C   UNL A   1      43.430  36.856  33.556  1.00  0.00     0.020 A 
ATOM     71  C   UNL A   1      43.831  37.885  32.702  1.00  0.00     0.054 A 
BRANCH  71  72
ATOM     72  S   UNL A   1      43.963  39.588  33.312  1.00  0.00     0.124 S 
ATOM     73  O   UNL A   1      44.524  40.280  32.154  1.00  0.00    -0.237 OA
ATOM     74  O   UNL A   1      42.578  39.922  33.632  1.00  0.00    -0.237 OA
ATOM     75  O   UNL A   1      44.856  39.477  34.463  1.00  0.00    -0.744 OA
ENDBRANCH  71  72
ENDBRANCH  52  66
BRANCH  53  76
ATOM     76  C   UNL A   1      42.324  26.022  28.104  1.00  0.00    -0.014 A 
ATOM     77  C   UNL A   1      42.142  24.911  28.945  1.00  0.00     0.010 A 
ATOM     78  C   UNL A   1      42.328  25.829  26.709  1.00  0.00     0.010 A 
ATOM     79  C   UNL A   1      41.985  23.631  28.404  1.00  0.00     0.020 A 
ATOM     80  C   UNL A   1      42.143  24.556  26.164  1.00  0.00     0.020 A 
ATOM     81  C   UNL A   1      41.984  23.462  27.016  1.00  0.00     0.054 A 
BRANCH  81  82
ATOM     82  S   UNL A   1      41.728  21.800  26.336  1.00  0.00     0.124 S 
ATOM     83  O   UNL A   1      40.314  21.834  25.977  1.00  0.00    -0.237 OA
ATOM     84  O   UNL A   1      42.666  21.772  25.217  1.00  0.00    -0.237 OA
ATOM     85  O   UNL A   1      42.072  20.919  27.449  1.00  0.00    -0.744 OA
ENDBRANCH  81  82
ENDBRANCH  53  76
BRANCH  65  86
ATOM     86  C   UNL A   1      47.886  29.622  30.315  1.00  0.00    -0.014 A 
ATOM     87  C   UNL A   1      48.796  29.909  29.283  1.00  0.00     0.010 A 
ATOM     88  C   UNL A   1      48.363  29.067  31.518  1.00  0.00     0.010 A 
ATOM     89  C   UNL A   1      50.156  29.627  29.444  1.00  0.00     0.020 A 
ATOM     90  C   UNL A   1      49.725  28.812  31.692  1.00  0.00     0.020 A 
ATOM     91  C   UNL A   1      50.611  29.083  30.649  1.00  0.00     0.054 A 
BRANCH  91  92
ATOM     92  S   UNL A   1      52.389  28.784  30.854  1.00  0.00     0.124 S 
ATOM     93  O   UNL A   1      52.496  27.362  30.539  1.00  0.00    -0.237 OA
ATOM     94  O   UNL A   1      52.981  29.691  29.875  1.00  0.00    -0.237 OA
ATOM     95  O   UNL A   1      52.641  29.134  32.250  1.00  0.00    -0.744 OA
ENDBRANCH  91  92
ENDBRANCH  65  86
ENDBRANCH  39  40
ENDBRANCH  32  34
ENDBRANCH  31  32
ENDBRANCH  30  31
ENDBRANCH   1  30
TORSDOF 22
ENDMDL
