MODEL 1
REMARK VINA RESULT:      -9.5      0.000      0.000
REMARK SMILES O=C(CCc1ccc(S(=O)(=O)Nc2cccc(I)c2)cc1)OCCOCCOC(=O)c1ccc(-c2c3nc(c(-c4ccc(S(=O)(=O)[O-])cc4)c4ccc([nH]4)c(-c4ccc(S(=O)(=O)[O-])cc4)c4nc(c(-c5ccc(S(=O)(=O)[O-])cc5)c5ccc2[nH]5)C=C4)C=C3)cc1
REMARK SMILES IDX 24 1 23 2 22 3 2 4 1 5 3 6 4 7 5 8 6 9 21 10 7 11 20 12 8 13
REMARK SMILES IDX 9 14 10 15 11 16 12 17 13 19 14 20 19 21 15 22 17 23 16 24
REMARK SMILES IDX 18 25 25 26 26 27 27 28 28 29 29 30 30 31 31 32 32 33 90 34
REMARK SMILES IDX 33 35 89 36 34 37 35 38 36 39 83 40 37 41 88 42 82 43 84 44
REMARK SMILES IDX 38 45 87 46 81 47 80 48 39 50 69 51 50 52 68 53 51 54 54 55
REMARK SMILES IDX 67 56 85 57 52 58 53 59 66 61 86 62 55 63 40 64 41 65 49 66
REMARK SMILES IDX 42 67 48 68 43 69 44 70 45 71 46 72 47 73 70 74 71 75 79 76
REMARK SMILES IDX 72 77 78 78 73 79 74 80 75 81 76 82 77 83 56 84 57 85 65 86
REMARK SMILES IDX 58 87 64 88 59 89 60 90 61 91 62 92 63 93
REMARK H PARENT 12 18 84 49 54 60
REMARK Flexibility Score: inf
ROOT
ATOM      1  C   UNL A   1      40.661  21.108  25.796  1.00  0.00     0.202 C 
ENDROOT
BRANCH   1   2
ATOM      2  C   UNL A   1      41.490  19.933  26.295  1.00  0.00     0.261 C 
BRANCH   2   3
ATOM      3  O   UNL A   1      42.224  19.253  25.274  1.00  0.00    -0.463 OA
BRANCH   3   4
ATOM      4  C   UNL A   1      43.577  19.225  25.284  1.00  0.00     0.306 C 
ATOM      5  O   UNL A   1      44.175  18.201  24.960  1.00  0.00    -0.252 OA
BRANCH   4   6
ATOM      6  C   UNL A   1      44.335  20.423  25.813  1.00  0.00     0.127 C 
BRANCH   6   7
ATOM      7  C   UNL A   1      45.069  21.245  24.745  1.00  0.00     0.047 C 
BRANCH   7   8
ATOM      8  C   UNL A   1      44.998  22.744  24.956  1.00  0.00    -0.047 A 
ATOM      9  C   UNL A   1      46.131  23.558  24.810  1.00  0.00     0.005 A 
ATOM     10  C   UNL A   1      43.777  23.354  25.256  1.00  0.00     0.005 A 
ATOM     11  C   UNL A   1      46.025  24.957  24.885  1.00  0.00     0.022 A 
ATOM     12  C   UNL A   1      43.673  24.744  25.338  1.00  0.00     0.022 A 
ATOM     13  C   UNL A   1      44.783  25.560  25.128  1.00  0.00     0.087 A 
BRANCH  13  14
ATOM     14  S   UNL A   1      44.685  27.336  25.363  1.00  0.00     0.261 S 
ATOM     15  O   UNL A   1      45.786  27.928  24.619  1.00  0.00    -0.201 OA
ATOM     16  O   UNL A   1      43.321  27.709  25.083  1.00  0.00    -0.201 OA
BRANCH  14  17
ATOM     17  N   UNL A   1      44.875  27.638  27.004  1.00  0.00    -0.280 N 
ATOM     18  H   UNL A   1      44.436  28.447  27.356  1.00  0.00     0.180 HD
BRANCH  17  19
ATOM     19  C   UNL A   1      45.608  26.847  27.947  1.00  0.00     0.050 A 
ATOM     20  C   UNL A   1      47.003  26.965  27.938  1.00  0.00     0.027 A 
ATOM     21  C   UNL A   1      45.025  26.145  28.996  1.00  0.00     0.041 A 
ATOM     22  C   UNL A   1      47.773  26.539  29.027  1.00  0.00     0.003 A 
ATOM     23  C   UNL A   1      45.782  25.755  30.104  1.00  0.00     0.015 A 
ATOM     24  C   UNL A   1      47.153  25.979  30.139  1.00  0.00     0.015 A 
ATOM     25  I   UNL A   1      44.825  24.916  31.749  1.00  0.00    -0.044 I 
ENDBRANCH  17  19
ENDBRANCH  14  17
ENDBRANCH  13  14
ENDBRANCH   7   8
ENDBRANCH   6   7
ENDBRANCH   4   6
ENDBRANCH   3   4
ENDBRANCH   2   3
ENDBRANCH   1   2
BRANCH   1  26
ATOM     26  O   UNL A   1      39.683  21.610  26.701  1.00  0.00    -0.374 OA
BRANCH  26  27
ATOM     27  C   UNL A   1      38.549  22.193  26.047  1.00  0.00     0.202 C 
BRANCH  27  28
ATOM     28  C   UNL A   1      38.429  23.710  26.269  1.00  0.00     0.261 C 
BRANCH  28  29
ATOM     29  O   UNL A   1      39.423  24.186  27.200  1.00  0.00    -0.460 OA
BRANCH  29  30
ATOM     30  C   UNL A   1      39.986  25.378  26.890  1.00  0.00     0.338 C 
ATOM     31  O   UNL A   1      40.526  25.693  25.844  1.00  0.00    -0.246 OA
BRANCH  30  32
ATOM     32  C   UNL A   1      39.655  26.362  27.938  1.00  0.00     0.060 A 
ATOM     33  C   UNL A   1      40.077  27.676  27.730  1.00  0.00     0.016 A 
ATOM     34  C   UNL A   1      39.027  26.013  29.132  1.00  0.00     0.016 A 
ATOM     35  C   UNL A   1      39.924  28.634  28.727  1.00  0.00     0.010 A 
ATOM     36  C   UNL A   1      38.908  26.975  30.150  1.00  0.00     0.010 A 
ATOM     37  C   UNL A   1      39.411  28.278  29.976  1.00  0.00    -0.014 A 
BRANCH  37  38
ATOM     38  C   UNL A   1      39.604  29.200  31.133  1.00  0.00     0.031 A 
ATOM     39  C   UNL A   1      40.851  29.062  31.975  1.00  0.00     0.074 A 
ATOM     40  C   UNL A   1      38.765  30.226  31.382  1.00  0.00     0.049 A 
ATOM     41  N   UNL A   1      41.148  29.622  33.119  1.00  0.00    -0.248 NA
ATOM     42  C   UNL A   1      41.908  28.182  31.447  1.00  0.00     0.031 C 
ATOM     43  C   UNL A   1      37.605  30.595  30.571  1.00  0.00     0.029 A 
ATOM     44  N   UNL A   1      38.771  31.154  32.395  1.00  0.00    -0.354 N 
ATOM     45  C   UNL A   1      42.391  29.113  33.479  1.00  0.00     0.074 A 
ATOM     46  C   UNL A   1      42.803  28.215  32.424  1.00  0.00     0.031 C 
ATOM     47  C   UNL A   1      37.018  31.675  31.112  1.00  0.00     0.029 A 
ATOM     48  C   UNL A   1      37.701  32.017  32.358  1.00  0.00     0.049 A 
ATOM     49  H   UNL A   1      39.475  31.199  33.082  1.00  0.00     0.167 HD
ATOM     50  C   UNL A   1      43.117  29.357  34.598  1.00  0.00     0.031 A 
ATOM     51  C   UNL A   1      37.275  32.932  33.253  1.00  0.00     0.031 A 
ATOM     52  C   UNL A   1      42.719  30.274  35.633  1.00  0.00     0.049 A 
ATOM     53  C   UNL A   1      38.032  33.112  34.542  1.00  0.00     0.074 A 
ATOM     54  C   UNL A   1      43.366  30.564  36.822  1.00  0.00     0.029 A 
ATOM     55  N   UNL A   1      41.579  31.059  35.597  1.00  0.00    -0.354 N 
ATOM     56  N   UNL A   1      39.143  32.534  34.932  1.00  0.00    -0.248 NA
ATOM     57  C   UNL A   1      37.462  34.048  35.522  1.00  0.00     0.031 C 
ATOM     58  C   UNL A   1      42.590  31.491  37.526  1.00  0.00     0.029 A 
ATOM     59  C   UNL A   1      41.491  31.820  36.749  1.00  0.00     0.049 A 
ATOM     60  H   UNL A   1      40.927  31.075  34.859  1.00  0.00     0.167 HD
ATOM     61  C   UNL A   1      39.410  33.045  36.200  1.00  0.00     0.074 A 
ATOM     62  C   UNL A   1      38.355  33.992  36.501  1.00  0.00     0.031 C 
ATOM     63  C   UNL A   1      40.433  32.753  37.039  1.00  0.00     0.031 A 
BRANCH  50  64
ATOM     64  C   UNL A   1      44.375  28.557  34.799  1.00  0.00    -0.014 A 
ATOM     65  C   UNL A   1      44.392  27.376  35.560  1.00  0.00     0.010 A 
ATOM     66  C   UNL A   1      45.564  28.993  34.183  1.00  0.00     0.010 A 
ATOM     67  C   UNL A   1      45.584  26.664  35.731  1.00  0.00     0.020 A 
ATOM     68  C   UNL A   1      46.751  28.271  34.330  1.00  0.00     0.020 A 
ATOM     69  C   UNL A   1      46.757  27.120  35.119  1.00  0.00     0.054 A 
BRANCH  69  70
ATOM     70  S   UNL A   1      48.288  26.174  35.344  1.00  0.00     0.124 S 
ATOM     71  O   UNL A   1      48.856  26.200  33.998  1.00  0.00    -0.237 OA
ATOM     72  O   UNL A   1      49.007  26.957  36.345  1.00  0.00    -0.237 OA
ATOM     73  O   UNL A   1      47.823  24.865  35.799  1.00  0.00    -0.744 OA
ENDBRANCH  69  70
ENDBRANCH  50  64
BRANCH  51  74
ATOM     74  C   UNL A   1      36.010  33.679  33.003  1.00  0.00    -0.014 A 
ATOM     75  C   UNL A   1      34.758  33.077  33.215  1.00  0.00     0.010 A 
ATOM     76  C   UNL A   1      36.060  35.012  32.553  1.00  0.00     0.010 A 
ATOM     77  C   UNL A   1      33.580  33.797  32.981  1.00  0.00     0.020 A 
ATOM     78  C   UNL A   1      34.888  35.742  32.348  1.00  0.00     0.020 A 
ATOM     79  C   UNL A   1      33.654  35.127  32.556  1.00  0.00     0.054 A 
BRANCH  79  80
ATOM     80  S   UNL A   1      32.118  36.068  32.332  1.00  0.00     0.124 S 
ATOM     81  O   UNL A   1      32.183  36.422  30.917  1.00  0.00    -0.237 OA
ATOM     82  O   UNL A   1      31.093  35.095  32.698  1.00  0.00    -0.237 OA
ATOM     83  O   UNL A   1      32.267  37.184  33.265  1.00  0.00    -0.744 OA
ENDBRANCH  79  80
ENDBRANCH  51  74
BRANCH  63  84
ATOM     84  C   UNL A   1      40.484  33.484  38.354  1.00  0.00    -0.014 A 
ATOM     85  C   UNL A   1      41.179  34.699  38.485  1.00  0.00     0.010 A 
ATOM     86  C   UNL A   1      39.777  32.974  39.459  1.00  0.00     0.010 A 
ATOM     87  C   UNL A   1      41.191  35.377  39.707  1.00  0.00     0.020 A 
ATOM     88  C   UNL A   1      39.768  33.661  40.675  1.00  0.00     0.020 A 
ATOM     89  C   UNL A   1      40.487  34.852  40.795  1.00  0.00     0.054 A 
BRANCH  89  90
ATOM     90  S   UNL A   1      40.484  35.769  42.361  1.00  0.00     0.124 S 
ATOM     91  O   UNL A   1      39.170  36.406  42.336  1.00  0.00    -0.237 OA
ATOM     92  O   UNL A   1      40.651  34.710  43.354  1.00  0.00    -0.237 OA
ATOM     93  O   UNL A   1      41.621  36.677  42.231  1.00  0.00    -0.744 OA
ENDBRANCH  89  90
ENDBRANCH  63  84
ENDBRANCH  37  38
ENDBRANCH  30  32
ENDBRANCH  29  30
ENDBRANCH  28  29
ENDBRANCH  27  28
ENDBRANCH  26  27
ENDBRANCH   1  26
TORSDOF 22
ENDMDL
MODEL 2
REMARK VINA RESULT:      -8.7      5.773     13.442
REMARK SMILES O=C(CCc1ccc(S(=O)(=O)Nc2cccc(I)c2)cc1)OCCOCCOC(=O)c1ccc(-c2c3nc(c(-c4ccc(S(=O)(=O)[O-])cc4)c4ccc([nH]4)c(-c4ccc(S(=O)(=O)[O-])cc4)c4nc(c(-c5ccc(S(=O)(=O)[O-])cc5)c5ccc2[nH]5)C=C4)C=C3)cc1
REMARK SMILES IDX 24 1 23 2 22 3 2 4 1 5 3 6 4 7 5 8 6 9 21 10 7 11 20 12 8 13
REMARK SMILES IDX 9 14 10 15 11 16 12 17 13 19 14 20 19 21 15 22 17 23 16 24
REMARK SMILES IDX 18 25 25 26 26 27 27 28 28 29 29 30 30 31 31 32 32 33 90 34
REMARK SMILES IDX 33 35 89 36 34 37 35 38 36 39 83 40 37 41 88 42 82 43 84 44
REMARK SMILES IDX 38 45 87 46 81 47 80 48 39 50 69 51 50 52 68 53 51 54 54 55
REMARK SMILES IDX 67 56 85 57 52 58 53 59 66 61 86 62 55 63 40 64 41 65 49 66
REMARK SMILES IDX 42 67 48 68 43 69 44 70 45 71 46 72 47 73 70 74 71 75 79 76
REMARK SMILES IDX 72 77 78 78 73 79 74 80 75 81 76 82 77 83 56 84 57 85 65 86
REMARK SMILES IDX 58 87 64 88 59 89 60 90 61 91 62 92 63 93
REMARK H PARENT 12 18 84 49 54 60
REMARK Flexibility Score: inf
ROOT
ATOM      1  C   UNL A   1      35.046  34.178  33.039  1.00  0.00     0.202 C 
ENDROOT
BRANCH   1   2
ATOM      2  C   UNL A   1      35.765  34.560  31.753  1.00  0.00     0.261 C 
BRANCH   2   3
ATOM      3  O   UNL A   1      35.220  33.964  30.573  1.00  0.00    -0.463 OA
BRANCH   3   4
ATOM      4  C   UNL A   1      36.022  33.504  29.585  1.00  0.00     0.306 C 
ATOM      5  O   UNL A   1      36.977  34.177  29.202  1.00  0.00    -0.252 OA
BRANCH   4   6
ATOM      6  C   UNL A   1      35.657  32.216  28.880  1.00  0.00     0.127 C 
BRANCH   6   7
ATOM      7  C   UNL A   1      34.309  32.240  28.149  1.00  0.00     0.047 C 
BRANCH   7   8
ATOM      8  C   UNL A   1      33.905  30.910  27.544  1.00  0.00    -0.047 A 
ATOM      9  C   UNL A   1      34.826  29.860  27.406  1.00  0.00     0.005 A 
ATOM     10  C   UNL A   1      32.581  30.688  27.154  1.00  0.00     0.005 A 
ATOM     11  C   UNL A   1      34.409  28.594  26.961  1.00  0.00     0.022 A 
ATOM     12  C   UNL A   1      32.169  29.431  26.706  1.00  0.00     0.022 A 
ATOM     13  C   UNL A   1      33.066  28.368  26.629  1.00  0.00     0.087 A 
BRANCH  13  14
ATOM     14  S   UNL A   1      32.574  26.791  25.928  1.00  0.00     0.261 S 
ATOM     15  O   UNL A   1      31.713  26.138  26.903  1.00  0.00    -0.201 OA
ATOM     16  O   UNL A   1      32.100  27.068  24.595  1.00  0.00    -0.201 OA
BRANCH  14  17
ATOM     17  N   UNL A   1      33.969  25.884  25.699  1.00  0.00    -0.280 N 
ATOM     18  H   UNL A   1      34.822  26.377  25.723  1.00  0.00     0.180 HD
BRANCH  17  19
ATOM     19  C   UNL A   1      34.053  24.472  25.472  1.00  0.00     0.050 A 
ATOM     20  C   UNL A   1      32.938  23.845  24.904  1.00  0.00     0.027 A 
ATOM     21  C   UNL A   1      35.226  23.734  25.579  1.00  0.00     0.041 A 
ATOM     22  C   UNL A   1      33.041  22.581  24.311  1.00  0.00     0.003 A 
ATOM     23  C   UNL A   1      35.348  22.490  24.953  1.00  0.00     0.015 A 
ATOM     24  C   UNL A   1      34.267  21.922  24.290  1.00  0.00     0.015 A 
ATOM     25  I   UNL A   1      37.193  21.530  24.943  1.00  0.00    -0.044 I 
ENDBRANCH  17  19
ENDBRANCH  14  17
ENDBRANCH  13  14
ENDBRANCH   7   8
ENDBRANCH   6   7
ENDBRANCH   4   6
ENDBRANCH   3   4
ENDBRANCH   2   3
ENDBRANCH   1   2
BRANCH   1  26
ATOM     26  O   UNL A   1      35.762  33.321  33.923  1.00  0.00    -0.374 OA
BRANCH  26  27
ATOM     27  C   UNL A   1      36.735  32.504  33.259  1.00  0.00     0.202 C 
BRANCH  27  28
ATOM     28  C   UNL A   1      36.140  31.235  32.628  1.00  0.00     0.261 C 
BRANCH  28  29
ATOM     29  O   UNL A   1      37.143  30.211  32.462  1.00  0.00    -0.460 OA
BRANCH  29  30
ATOM     30  C   UNL A   1      37.190  29.638  31.235  1.00  0.00     0.338 C 
ATOM     31  O   UNL A   1      36.255  29.205  30.583  1.00  0.00    -0.246 OA
BRANCH  30  32
ATOM     32  C   UNL A   1      38.540  29.810  30.667  1.00  0.00     0.060 A 
ATOM     33  C   UNL A   1      38.661  29.718  29.279  1.00  0.00     0.016 A 
ATOM     34  C   UNL A   1      39.678  29.974  31.455  1.00  0.00     0.016 A 
ATOM     35  C   UNL A   1      39.914  29.733  28.677  1.00  0.00     0.010 A 
ATOM     36  C   UNL A   1      40.943  29.952  30.845  1.00  0.00     0.010 A 
ATOM     37  C   UNL A   1      41.073  29.772  29.455  1.00  0.00    -0.014 A 
BRANCH  37  38
ATOM     38  C   UNL A   1      42.380  29.409  28.834  1.00  0.00     0.031 A 
ATOM     39  C   UNL A   1      42.575  28.004  28.314  1.00  0.00     0.074 A 
ATOM     40  C   UNL A   1      43.348  30.321  28.616  1.00  0.00     0.049 A 
ATOM     41  N   UNL A   1      43.668  27.415  27.903  1.00  0.00    -0.248 NA
ATOM     42  C   UNL A   1      41.372  27.157  28.236  1.00  0.00     0.031 C 
ATOM     43  C   UNL A   1      43.256  31.750  28.911  1.00  0.00     0.029 A 
ATOM     44  N   UNL A   1      44.606  30.172  28.081  1.00  0.00    -0.354 N 
ATOM     45  C   UNL A   1      43.299  26.112  27.583  1.00  0.00     0.074 A 
ATOM     46  C   UNL A   1      41.878  26.002  27.827  1.00  0.00     0.031 C 
ATOM     47  C   UNL A   1      44.402  32.348  28.547  1.00  0.00     0.029 A 
ATOM     48  C   UNL A   1      45.344  31.333  28.081  1.00  0.00     0.049 A 
ATOM     49  H   UNL A   1      44.946  29.318  27.731  1.00  0.00     0.167 HD
ATOM     50  C   UNL A   1      44.077  25.093  27.143  1.00  0.00     0.031 A 
ATOM     51  C   UNL A   1      46.647  31.548  27.803  1.00  0.00     0.031 A 
ATOM     52  C   UNL A   1      45.485  25.212  26.872  1.00  0.00     0.049 A 
ATOM     53  C   UNL A   1      47.523  30.385  27.423  1.00  0.00     0.074 A 
ATOM     54  C   UNL A   1      46.368  24.230  26.458  1.00  0.00     0.029 A 
ATOM     55  N   UNL A   1      46.212  26.386  26.974  1.00  0.00    -0.354 N 
ATOM     56  N   UNL A   1      47.192  29.129  27.243  1.00  0.00    -0.248 NA
ATOM     57  C   UNL A   1      48.954  30.664  27.235  1.00  0.00     0.031 C 
ATOM     58  C   UNL A   1      47.641  24.803  26.356  1.00  0.00     0.029 A 
ATOM     59  C   UNL A   1      47.537  26.153  26.650  1.00  0.00     0.049 A 
ATOM     60  H   UNL A   1      45.840  27.259  27.237  1.00  0.00     0.167 HD
ATOM     61  C   UNL A   1      48.373  28.469  26.910  1.00  0.00     0.074 A 
ATOM     62  C   UNL A   1      49.420  29.470  26.896  1.00  0.00     0.031 C 
ATOM     63  C   UNL A   1      48.570  27.155  26.646  1.00  0.00     0.031 A 
BRANCH  50  64
ATOM     64  C   UNL A   1      43.437  23.738  27.008  1.00  0.00    -0.014 A 
ATOM     65  C   UNL A   1      42.932  23.272  25.783  1.00  0.00     0.010 A 
ATOM     66  C   UNL A   1      43.370  22.902  28.139  1.00  0.00     0.010 A 
ATOM     67  C   UNL A   1      42.337  22.009  25.699  1.00  0.00     0.020 A 
ATOM     68  C   UNL A   1      42.799  21.630  28.055  1.00  0.00     0.020 A 
ATOM     69  C   UNL A   1      42.270  21.198  26.838  1.00  0.00     0.054 A 
BRANCH  69  70
ATOM     70  S   UNL A   1      41.505  19.558  26.703  1.00  0.00     0.124 S 
ATOM     71  O   UNL A   1      42.675  18.695  26.551  1.00  0.00    -0.237 OA
ATOM     72  O   UNL A   1      40.790  19.431  27.969  1.00  0.00    -0.237 OA
ATOM     73  O   UNL A   1      40.656  19.668  25.519  1.00  0.00    -0.744 OA
ENDBRANCH  69  70
ENDBRANCH  50  64
BRANCH  51  74
ATOM     74  C   UNL A   1      47.225  32.911  27.975  1.00  0.00    -0.014 A 
ATOM     75  C   UNL A   1      47.277  33.818  26.904  1.00  0.00     0.010 A 
ATOM     76  C   UNL A   1      47.725  33.307  29.231  1.00  0.00     0.010 A 
ATOM     77  C   UNL A   1      47.817  35.097  27.087  1.00  0.00     0.020 A 
ATOM     78  C   UNL A   1      48.236  34.591  29.425  1.00  0.00     0.020 A 
ATOM     79  C   UNL A   1      48.286  35.477  28.348  1.00  0.00     0.054 A 
BRANCH  79  80
ATOM     80  S   UNL A   1      48.913  37.163  28.586  1.00  0.00     0.124 S 
ATOM     81  O   UNL A   1      50.131  37.151  27.781  1.00  0.00    -0.237 OA
ATOM     82  O   UNL A   1      47.820  37.984  28.071  1.00  0.00    -0.237 OA
ATOM     83  O   UNL A   1      49.117  37.247  30.031  1.00  0.00    -0.744 OA
ENDBRANCH  79  80
ENDBRANCH  51  74
BRANCH  63  84
ATOM     84  C   UNL A   1      49.967  26.721  26.287  1.00  0.00    -0.014 A 
ATOM     85  C   UNL A   1      50.461  26.869  24.980  1.00  0.00     0.010 A 
ATOM     86  C   UNL A   1      50.812  26.210  27.289  1.00  0.00     0.010 A 
ATOM     87  C   UNL A   1      51.770  26.486  24.674  1.00  0.00     0.020 A 
ATOM     88  C   UNL A   1      52.128  25.848  26.991  1.00  0.00     0.020 A 
ATOM     89  C   UNL A   1      52.595  25.975  25.681  1.00  0.00     0.054 A 
BRANCH  89  90
ATOM     90  S   UNL A   1      54.302  25.521  25.269  1.00  0.00     0.124 S 
ATOM     91  O   UNL A   1      55.068  26.349  26.196  1.00  0.00    -0.237 OA
ATOM     92  O   UNL A   1      54.327  24.085  25.540  1.00  0.00    -0.237 OA
ATOM     93  O   UNL A   1      54.426  25.884  23.859  1.00  0.00    -0.744 OA
ENDBRANCH  89  90
ENDBRANCH  63  84
ENDBRANCH  37  38
ENDBRANCH  30  32
ENDBRANCH  29  30
ENDBRANCH  28  29
ENDBRANCH  27  28
ENDBRANCH  26  27
ENDBRANCH   1  26
TORSDOF 22
ENDMDL
MODEL 3
REMARK VINA RESULT:      -8.6      6.518     13.612
REMARK SMILES O=C(CCc1ccc(S(=O)(=O)Nc2cccc(I)c2)cc1)OCCOCCOC(=O)c1ccc(-c2c3nc(c(-c4ccc(S(=O)(=O)[O-])cc4)c4ccc([nH]4)c(-c4ccc(S(=O)(=O)[O-])cc4)c4nc(c(-c5ccc(S(=O)(=O)[O-])cc5)c5ccc2[nH]5)C=C4)C=C3)cc1
REMARK SMILES IDX 24 1 23 2 22 3 2 4 1 5 3 6 4 7 5 8 6 9 21 10 7 11 20 12 8 13
REMARK SMILES IDX 9 14 10 15 11 16 12 17 13 19 14 20 19 21 15 22 17 23 16 24
REMARK SMILES IDX 18 25 25 26 26 27 27 28 28 29 29 30 30 31 31 32 32 33 90 34
REMARK SMILES IDX 33 35 89 36 34 37 35 38 36 39 83 40 37 41 88 42 82 43 84 44
REMARK SMILES IDX 38 45 87 46 81 47 80 48 39 50 69 51 50 52 68 53 51 54 54 55
REMARK SMILES IDX 67 56 85 57 52 58 53 59 66 61 86 62 55 63 40 64 41 65 49 66
REMARK SMILES IDX 42 67 48 68 43 69 44 70 45 71 46 72 47 73 70 74 71 75 79 76
REMARK SMILES IDX 72 77 78 78 73 79 74 80 75 81 76 82 77 83 56 84 57 85 65 86
REMARK SMILES IDX 58 87 64 88 59 89 60 90 61 91 62 92 63 93
REMARK H PARENT 12 18 84 49 54 60
REMARK Flexibility Score: inf
ROOT
ATOM      1  C   UNL A   1      34.879  32.771  31.637  1.00  0.00     0.202 C 
ENDROOT
BRANCH   1   2
ATOM      2  C   UNL A   1      35.134  33.246  30.214  1.00  0.00     0.261 C 
BRANCH   2   3
ATOM      3  O   UNL A   1      34.433  32.508  29.211  1.00  0.00    -0.463 OA
BRANCH   3   4
ATOM      4  C   UNL A   1      35.029  32.171  28.043  1.00  0.00     0.306 C 
ATOM      5  O   UNL A   1      35.823  32.943  27.511  1.00  0.00    -0.252 OA
BRANCH   4   6
ATOM      6  C   UNL A   1      34.613  30.894  27.346  1.00  0.00     0.127 C 
BRANCH   6   7
ATOM      7  C   UNL A   1      33.105  30.612  27.360  1.00  0.00     0.047 C 
BRANCH   7   8
ATOM      8  C   UNL A   1      32.733  29.197  26.967  1.00  0.00    -0.047 A 
ATOM      9  C   UNL A   1      33.656  28.344  26.342  1.00  0.00     0.005 A 
ATOM     10  C   UNL A   1      31.464  28.694  27.268  1.00  0.00     0.005 A 
ATOM     11  C   UNL A   1      33.339  26.997  26.098  1.00  0.00     0.022 A 
ATOM     12  C   UNL A   1      31.146  27.357  27.019  1.00  0.00     0.022 A 
ATOM     13  C   UNL A   1      32.082  26.490  26.459  1.00  0.00     0.087 A 
BRANCH  13  14
ATOM     14  S   UNL A   1      31.638  24.810  26.014  1.00  0.00     0.261 S 
ATOM     15  O   UNL A   1      31.581  24.040  27.248  1.00  0.00    -0.201 OA
ATOM     16  O   UNL A   1      30.486  24.908  25.153  1.00  0.00    -0.201 OA
BRANCH  14  17
ATOM     17  N   UNL A   1      32.855  24.212  25.024  1.00  0.00    -0.280 N 
ATOM     18  H   UNL A   1      32.832  24.495  24.081  1.00  0.00     0.180 HD
BRANCH  17  19
ATOM     19  C   UNL A   1      33.922  23.334  25.402  1.00  0.00     0.050 A 
ATOM     20  C   UNL A   1      33.757  21.970  25.135  1.00  0.00     0.027 A 
ATOM     21  C   UNL A   1      35.177  23.766  25.815  1.00  0.00     0.041 A 
ATOM     22  C   UNL A   1      34.852  21.097  25.120  1.00  0.00     0.003 A 
ATOM     23  C   UNL A   1      36.281  22.910  25.761  1.00  0.00     0.015 A 
ATOM     24  C   UNL A   1      36.129  21.581  25.383  1.00  0.00     0.015 A 
ATOM     25  I   UNL A   1      38.177  23.665  26.164  1.00  0.00    -0.044 I 
ENDBRANCH  17  19
ENDBRANCH  14  17
ENDBRANCH  13  14
ENDBRANCH   7   8
ENDBRANCH   6   7
ENDBRANCH   4   6
ENDBRANCH   3   4
ENDBRANCH   2   3
ENDBRANCH   1   2
BRANCH   1  26
ATOM     26  O   UNL A   1      35.759  31.764  32.125  1.00  0.00    -0.374 OA
BRANCH  26  27
ATOM     27  C   UNL A   1      36.691  31.297  31.141  1.00  0.00     0.202 C 
BRANCH  27  28
ATOM     28  C   UNL A   1      36.477  29.826  30.746  1.00  0.00     0.261 C 
BRANCH  28  29
ATOM     29  O   UNL A   1      37.716  29.205  30.344  1.00  0.00    -0.460 OA
BRANCH  29  30
ATOM     30  C   UNL A   1      37.863  29.012  29.011  1.00  0.00     0.338 C 
ATOM     31  O   UNL A   1      36.988  28.774  28.196  1.00  0.00    -0.246 OA
BRANCH  30  32
ATOM     32  C   UNL A   1      39.241  29.360  28.615  1.00  0.00     0.060 A 
ATOM     33  C   UNL A   1      39.587  29.154  27.279  1.00  0.00     0.016 A 
ATOM     34  C   UNL A   1      40.202  29.795  29.525  1.00  0.00     0.016 A 
ATOM     35  C   UNL A   1      40.901  29.328  26.855  1.00  0.00     0.010 A 
ATOM     36  C   UNL A   1      41.534  29.934  29.100  1.00  0.00     0.010 A 
ATOM     37  C   UNL A   1      41.904  29.643  27.773  1.00  0.00    -0.014 A 
BRANCH  37  38
ATOM     38  C   UNL A   1      43.332  29.454  27.386  1.00  0.00     0.031 A 
ATOM     39  C   UNL A   1      43.783  28.095  26.903  1.00  0.00     0.074 A 
ATOM     40  C   UNL A   1      44.206  30.480  27.340  1.00  0.00     0.049 A 
ATOM     41  N   UNL A   1      44.994  27.650  26.685  1.00  0.00    -0.248 NA
ATOM     42  C   UNL A   1      42.723  27.113  26.617  1.00  0.00     0.031 C 
ATOM     43  C   UNL A   1      43.891  31.881  27.618  1.00  0.00     0.029 A 
ATOM     44  N   UNL A   1      45.545  30.495  27.029  1.00  0.00    -0.354 N 
ATOM     45  C   UNL A   1      44.846  26.321  26.303  1.00  0.00     0.074 A 
ATOM     46  C   UNL A   1      43.428  26.036  26.299  1.00  0.00     0.031 C 
ATOM     47  C   UNL A   1      45.001  32.620  27.458  1.00  0.00     0.029 A 
ATOM     48  C   UNL A   1      46.125  31.736  27.158  1.00  0.00     0.049 A 
ATOM     49  H   UNL A   1      46.040  29.696  26.740  1.00  0.00     0.167 HD
ATOM     50  C   UNL A   1      45.805  25.413  26.001  1.00  0.00     0.031 A 
ATOM     51  C   UNL A   1      47.420  32.111  27.109  1.00  0.00     0.031 A 
ATOM     52  C   UNL A   1      47.214  25.705  25.976  1.00  0.00     0.049 A 
ATOM     53  C   UNL A   1      48.483  31.070  26.882  1.00  0.00     0.074 A 
ATOM     54  C   UNL A   1      48.268  24.846  25.718  1.00  0.00     0.029 A 
ATOM     55  N   UNL A   1      47.764  26.956  26.205  1.00  0.00    -0.354 N 
ATOM     56  N   UNL A   1      48.343  29.788  26.645  1.00  0.00    -0.248 NA
ATOM     57  C   UNL A   1      49.880  31.523  26.944  1.00  0.00     0.031 C 
ATOM     58  C   UNL A   1      49.460  25.569  25.837  1.00  0.00     0.029 A 
ATOM     59  C   UNL A   1      49.144  26.889  26.113  1.00  0.00     0.049 A 
ATOM     60  H   UNL A   1      47.250  27.772  26.401  1.00  0.00     0.167 HD
ATOM     61  C   UNL A   1      49.635  29.283  26.519  1.00  0.00     0.074 A 
ATOM     62  C   UNL A   1      50.540  30.402  26.687  1.00  0.00     0.031 C 
ATOM     63  C   UNL A   1      50.033  28.008  26.289  1.00  0.00     0.031 A 
BRANCH  50  64
ATOM     64  C   UNL A   1      45.368  23.994  25.754  1.00  0.00    -0.014 A 
ATOM     65  C   UNL A   1      44.991  23.138  26.803  1.00  0.00     0.010 A 
ATOM     66  C   UNL A   1      45.309  23.521  24.429  1.00  0.00     0.010 A 
ATOM     67  C   UNL A   1      44.599  21.823  26.534  1.00  0.00     0.020 A 
ATOM     68  C   UNL A   1      44.893  22.217  24.154  1.00  0.00     0.020 A 
ATOM     69  C   UNL A   1      44.557  21.369  25.211  1.00  0.00     0.054 A 
BRANCH  69  70
ATOM     70  S   UNL A   1      44.032  19.664  24.886  1.00  0.00     0.124 S 
ATOM     71  O   UNL A   1      44.250  19.554  23.445  1.00  0.00    -0.237 OA
ATOM     72  O   UNL A   1      44.940  18.883  25.721  1.00  0.00    -0.237 OA
ATOM     73  O   UNL A   1      42.633  19.645  25.306  1.00  0.00    -0.744 OA
ENDBRANCH  69  70
ENDBRANCH  50  64
BRANCH  51  74
ATOM     74  C   UNL A   1      47.790  33.529  27.381  1.00  0.00    -0.014 A 
ATOM     75  C   UNL A   1      47.921  34.459  26.337  1.00  0.00     0.010 A 
ATOM     76  C   UNL A   1      48.007  33.955  28.706  1.00  0.00     0.010 A 
ATOM     77  C   UNL A   1      48.263  35.789  26.613  1.00  0.00     0.020 A 
ATOM     78  C   UNL A   1      48.318  35.286  28.988  1.00  0.00     0.020 A 
ATOM     79  C   UNL A   1      48.451  36.194  27.937  1.00  0.00     0.054 A 
BRANCH  79  80
ATOM     80  S   UNL A   1      48.818  37.938  28.283  1.00  0.00     0.124 S 
ATOM     81  O   UNL A   1      49.685  37.839  29.453  1.00  0.00    -0.237 OA
ATOM     82  O   UNL A   1      49.463  38.377  27.049  1.00  0.00    -0.237 OA
ATOM     83  O   UNL A   1      47.499  38.518  28.527  1.00  0.00    -0.744 OA
ENDBRANCH  79  80
ENDBRANCH  51  74
BRANCH  63  84
ATOM     84  C   UNL A   1      51.512  27.752  26.175  1.00  0.00    -0.014 A 
ATOM     85  C   UNL A   1      52.274  27.376  27.295  1.00  0.00     0.010 A 
ATOM     86  C   UNL A   1      52.135  27.836  24.916  1.00  0.00     0.010 A 
ATOM     87  C   UNL A   1      53.640  27.115  27.163  1.00  0.00     0.020 A 
ATOM     88  C   UNL A   1      53.497  27.554  24.777  1.00  0.00     0.020 A 
ATOM     89  C   UNL A   1      54.244  27.208  25.904  1.00  0.00     0.054 A 
BRANCH  89  90
ATOM     90  S   UNL A   1      56.011  26.828  25.750  1.00  0.00     0.124 S 
ATOM     91  O   UNL A   1      56.129  26.507  24.331  1.00  0.00    -0.237 OA
ATOM     92  O   UNL A   1      56.646  28.076  26.168  1.00  0.00    -0.237 OA
ATOM     93  O   UNL A   1      56.203  25.703  26.663  1.00  0.00    -0.744 OA
ENDBRANCH  89  90
ENDBRANCH  63  84
ENDBRANCH  37  38
ENDBRANCH  30  32
ENDBRANCH  29  30
ENDBRANCH  28  29
ENDBRANCH  27  28
ENDBRANCH  26  27
ENDBRANCH   1  26
TORSDOF 22
ENDMDL
