MODEL 1
REMARK VINA RESULT:     -11.0      0.000      0.000
REMARK SMILES CC(C)OC(=O)c1c(NC(=O)[C@H]2[C@@H](C(=O)OCCOCCOC(=O)c3ccc(-c4c5nc(c(-c6ccc(S(=O)(=O)[O-])cc6)c6ccc([nH]6)c(-c6ccc(S(=O)(=O)[O-])cc6)c6nc(c(-c7ccc(S(=O)(=O)[O-])cc7)c7ccc4[nH]7)C=C6)C=C5)cc3)[C@@H]3C=C[C@H]2CC3)sc2c1CCC2
REMARK SMILES IDX 18 1 17 2 16 3 14 4 15 5 13 6 12 7 88 8 85 9 87 10 89 11
REMARK SMILES IDX 86 12 90 13 10 14 9 15 11 17 8 18 7 19 93 20 91 21 92 22
REMARK SMILES IDX 94 23 96 24 95 25 5 26 6 27 4 28 2 29 1 30 3 31 19 32 20 33
REMARK SMILES IDX 21 34 22 35 23 36 24 37 25 38 26 39 84 40 27 41 83 42 28 43
REMARK SMILES IDX 29 44 30 45 77 46 31 47 82 48 76 49 78 50 32 51 81 52 75 53
REMARK SMILES IDX 74 54 33 56 63 57 44 58 62 59 45 60 48 61 61 62 79 63 46 64
REMARK SMILES IDX 47 65 60 67 80 68 49 69 34 70 35 71 43 72 36 73 42 74 37 75
REMARK SMILES IDX 38 76 39 77 40 78 41 79 64 80 65 81 73 82 66 83 72 84 67 85
REMARK SMILES IDX 68 86 69 87 70 88 71 89 50 90 51 91 59 92 52 93 58 94 53 95
REMARK SMILES IDX 54 96 55 97 56 98 57 99
REMARK H PARENT 9 16 78 55 48 66
REMARK Flexibility Score: inf
ROOT
ATOM      1  C   UNL A   1      33.219  29.562  27.411  1.00  0.00     0.202 C 
ENDROOT
BRANCH   1   2
ATOM      2  C   UNL A   1      33.556  28.227  26.745  1.00  0.00     0.261 C 
BRANCH   2   3
ATOM      3  O   UNL A   1      34.203  28.338  25.459  1.00  0.00    -0.463 OA
BRANCH   3   4
ATOM      4  C   UNL A   1      33.381  28.228  24.376  1.00  0.00     0.310 C 
ATOM      5  O   UNL A   1      33.438  28.958  23.398  1.00  0.00    -0.252 OA
BRANCH   4   6
ATOM      6  C   UNL A   1      32.327  27.149  24.585  1.00  0.00     0.119 C 
ATOM      7  C   UNL A   1      32.087  26.230  23.339  1.00  0.00     0.100 C 
ATOM      8  C   UNL A   1      30.770  26.687  22.635  1.00  0.00     0.025 C 
ATOM      9  C   UNL A   1      30.976  27.841  24.957  1.00  0.00     0.026 C 
ATOM     10  C   UNL A   1      29.685  26.290  23.634  1.00  0.00    -0.027 C 
ATOM     11  C   UNL A   1      30.694  28.225  22.485  1.00  0.00     0.009 C 
ATOM     12  C   UNL A   1      29.840  26.831  24.857  1.00  0.00    -0.027 C 
ATOM     13  C   UNL A   1      30.640  28.899  23.878  1.00  0.00     0.009 C 
BRANCH   7  14
ATOM     14  C   UNL A   1      33.261  25.984  22.391  1.00  0.00     0.229 C 
ATOM     15  N   UNL A   1      33.996  24.824  22.396  1.00  0.00    -0.317 N 
ATOM     16  H   UNL A   1      34.822  24.890  21.865  1.00  0.00     0.170 HD
ATOM     17  O   UNL A   1      33.600  26.858  21.584  1.00  0.00    -0.274 OA
BRANCH  15  18
ATOM     18  C   UNL A   1      33.829  23.577  22.988  1.00  0.00     0.110 A 
ATOM     19  C   UNL A   1      34.818  22.816  23.635  1.00  0.00     0.098 A 
ATOM     20  C   UNL A   1      34.188  21.740  24.339  1.00  0.00    -0.017 A 
ATOM     21  S   UNL A   1      32.321  22.768  22.974  1.00  0.00    -0.122 S 
ATOM     22  C   UNL A   1      32.849  21.674  24.099  1.00  0.00     0.011 A 
ATOM     23  C   UNL A   1      34.587  20.762  25.382  1.00  0.00     0.038 C 
ATOM     24  C   UNL A   1      32.101  20.704  24.917  1.00  0.00     0.047 C 
ATOM     25  C   UNL A   1      33.246  20.050  25.737  1.00  0.00     0.010 C 
BRANCH  19  26
ATOM     26  C   UNL A   1      36.225  23.221  23.727  1.00  0.00     0.341 C 
ATOM     27  O   UNL A   1      36.950  23.256  22.742  1.00  0.00    -0.246 OA
BRANCH  26  28
ATOM     28  O   UNL A   1      36.589  23.577  24.987  1.00  0.00    -0.459 OA
BRANCH  28  29
ATOM     29  C   UNL A   1      37.934  23.381  25.488  1.00  0.00     0.170 C 
ATOM     30  C   UNL A   1      38.328  24.263  26.669  1.00  0.00     0.052 C 
ATOM     31  C   UNL A   1      38.177  21.903  25.769  1.00  0.00     0.052 C 
ENDBRANCH  28  29
ENDBRANCH  26  28
ENDBRANCH  19  26
ENDBRANCH  15  18
ENDBRANCH   7  14
ENDBRANCH   4   6
ENDBRANCH   3   4
ENDBRANCH   2   3
ENDBRANCH   1   2
BRANCH   1  32
ATOM     32  O   UNL A   1      33.901  30.725  26.967  1.00  0.00    -0.374 OA
BRANCH  32  33
ATOM     33  C   UNL A   1      34.993  31.238  27.705  1.00  0.00     0.202 C 
BRANCH  33  34
ATOM     34  C   UNL A   1      34.774  32.309  28.766  1.00  0.00     0.261 C 
BRANCH  34  35
ATOM     35  O   UNL A   1      34.462  31.882  30.072  1.00  0.00    -0.460 OA
BRANCH  35  36
ATOM     36  C   UNL A   1      35.196  32.526  31.002  1.00  0.00     0.338 C 
ATOM     37  O   UNL A   1      34.998  33.641  31.446  1.00  0.00    -0.246 OA
BRANCH  36  38
ATOM     38  C   UNL A   1      36.425  31.750  31.202  1.00  0.00     0.060 A 
ATOM     39  C   UNL A   1      37.628  32.437  31.053  1.00  0.00     0.016 A 
ATOM     40  C   UNL A   1      36.381  30.347  31.313  1.00  0.00     0.016 A 
ATOM     41  C   UNL A   1      38.791  31.708  30.925  1.00  0.00     0.010 A 
ATOM     42  C   UNL A   1      37.542  29.619  31.169  1.00  0.00     0.010 A 
ATOM     43  C   UNL A   1      38.728  30.310  30.938  1.00  0.00    -0.014 A 
BRANCH  43  44
ATOM     44  C   UNL A   1      39.976  29.593  30.807  1.00  0.00     0.031 A 
ATOM     45  C   UNL A   1      40.799  29.569  32.030  1.00  0.00     0.074 A 
ATOM     46  C   UNL A   1      40.332  28.922  29.702  1.00  0.00     0.049 A 
ATOM     47  N   UNL A   1      41.916  30.182  32.233  1.00  0.00    -0.248 NA
ATOM     48  C   UNL A   1      40.245  28.896  33.212  1.00  0.00     0.031 C 
ATOM     49  C   UNL A   1      39.513  28.601  28.540  1.00  0.00     0.029 A 
ATOM     50  N   UNL A   1      41.501  28.282  29.449  1.00  0.00    -0.354 N 
ATOM     51  C   UNL A   1      42.310  29.825  33.515  1.00  0.00     0.074 A 
ATOM     52  C   UNL A   1      41.172  29.182  34.125  1.00  0.00     0.031 C 
ATOM     53  C   UNL A   1      40.119  27.632  27.822  1.00  0.00     0.029 A 
ATOM     54  C   UNL A   1      41.431  27.388  28.396  1.00  0.00     0.049 A 
ATOM     55  H   UNL A   1      42.323  28.439  29.967  1.00  0.00     0.167 HD
ATOM     56  C   UNL A   1      43.610  29.882  33.910  1.00  0.00     0.031 A 
ATOM     57  C   UNL A   1      42.364  26.463  28.071  1.00  0.00     0.031 A 
ATOM     58  C   UNL A   1      44.423  30.633  32.990  1.00  0.00     0.049 A 
ATOM     59  C   UNL A   1      43.649  26.899  28.673  1.00  0.00     0.074 A 
ATOM     60  C   UNL A   1      44.439  31.940  32.549  1.00  0.00     0.029 A 
ATOM     61  N   UNL A   1      45.185  29.915  32.097  1.00  0.00    -0.354 N 
ATOM     62  N   UNL A   1      44.292  27.971  28.297  1.00  0.00    -0.248 NA
ATOM     63  C   UNL A   1      44.028  26.380  29.979  1.00  0.00     0.031 C 
ATOM     64  C   UNL A   1      44.852  31.871  31.186  1.00  0.00     0.029 A 
ATOM     65  C   UNL A   1      45.086  30.530  30.875  1.00  0.00     0.049 A 
ATOM     66  H   UNL A   1      45.707  29.105  32.299  1.00  0.00     0.167 HD
ATOM     67  C   UNL A   1      44.845  28.490  29.460  1.00  0.00     0.074 A 
ATOM     68  C   UNL A   1      44.755  27.406  30.433  1.00  0.00     0.031 C 
ATOM     69  C   UNL A   1      45.068  29.830  29.603  1.00  0.00     0.031 A 
BRANCH  56  70
ATOM     70  C   UNL A   1      44.209  28.935  34.918  1.00  0.00    -0.014 A 
ATOM     71  C   UNL A   1      44.332  27.572  34.582  1.00  0.00     0.010 A 
ATOM     72  C   UNL A   1      44.395  29.282  36.272  1.00  0.00     0.010 A 
ATOM     73  C   UNL A   1      44.540  26.601  35.568  1.00  0.00     0.020 A 
ATOM     74  C   UNL A   1      44.653  28.328  37.255  1.00  0.00     0.020 A 
ATOM     75  C   UNL A   1      44.675  26.987  36.903  1.00  0.00     0.054 A 
BRANCH  75  76
ATOM     76  S   UNL A   1      44.776  25.725  38.192  1.00  0.00     0.124 S 
ATOM     77  O   UNL A   1      43.970  26.320  39.252  1.00  0.00    -0.237 OA
ATOM     78  O   UNL A   1      44.199  24.556  37.532  1.00  0.00    -0.237 OA
ATOM     79  O   UNL A   1      46.208  25.634  38.468  1.00  0.00    -0.744 OA
ENDBRANCH  75  76
ENDBRANCH  56  70
BRANCH  57  80
ATOM     80  C   UNL A   1      42.107  25.103  27.549  1.00  0.00    -0.014 A 
ATOM     81  C   UNL A   1      42.599  24.701  26.296  1.00  0.00     0.010 A 
ATOM     82  C   UNL A   1      41.580  24.106  28.400  1.00  0.00     0.010 A 
ATOM     83  C   UNL A   1      42.611  23.345  25.931  1.00  0.00     0.020 A 
ATOM     84  C   UNL A   1      41.577  22.757  28.039  1.00  0.00     0.020 A 
ATOM     85  C   UNL A   1      42.116  22.380  26.814  1.00  0.00     0.054 A 
BRANCH  85  86
ATOM     86  S   UNL A   1      42.294  20.619  26.407  1.00  0.00     0.124 S 
ATOM     87  O   UNL A   1      43.568  20.593  25.696  1.00  0.00    -0.237 OA
ATOM     88  O   UNL A   1      42.288  19.988  27.723  1.00  0.00    -0.237 OA
ATOM     89  O   UNL A   1      41.118  20.337  25.584  1.00  0.00    -0.744 OA
ENDBRANCH  85  86
ENDBRANCH  57  80
BRANCH  69  90
ATOM     90  C   UNL A   1      45.001  30.704  28.371  1.00  0.00    -0.014 A 
ATOM     91  C   UNL A   1      43.790  31.198  27.849  1.00  0.00     0.010 A 
ATOM     92  C   UNL A   1      46.209  31.194  27.841  1.00  0.00     0.010 A 
ATOM     93  C   UNL A   1      43.787  32.152  26.821  1.00  0.00     0.020 A 
ATOM     94  C   UNL A   1      46.214  32.157  26.828  1.00  0.00     0.020 A 
ATOM     95  C   UNL A   1      45.002  32.631  26.322  1.00  0.00     0.054 A 
BRANCH  95  96
ATOM     96  S   UNL A   1      44.989  33.941  25.066  1.00  0.00     0.124 S 
ATOM     97  O   UNL A   1      44.064  34.917  25.635  1.00  0.00    -0.237 OA
ATOM     98  O   UNL A   1      46.389  34.358  25.014  1.00  0.00    -0.237 OA
ATOM     99  O   UNL A   1      44.511  33.264  23.861  1.00  0.00    -0.744 OA
ENDBRANCH  95  96
ENDBRANCH  69  90
ENDBRANCH  43  44
ENDBRANCH  36  38
ENDBRANCH  35  36
ENDBRANCH  34  35
ENDBRANCH  33  34
ENDBRANCH  32  33
ENDBRANCH   1  32
TORSDOF 22
ENDMDL
MODEL 2
REMARK VINA RESULT:     -10.8      1.780      2.606
REMARK SMILES CC(C)OC(=O)c1c(NC(=O)[C@H]2[C@@H](C(=O)OCCOCCOC(=O)c3ccc(-c4c5nc(c(-c6ccc(S(=O)(=O)[O-])cc6)c6ccc([nH]6)c(-c6ccc(S(=O)(=O)[O-])cc6)c6nc(c(-c7ccc(S(=O)(=O)[O-])cc7)c7ccc4[nH]7)C=C6)C=C5)cc3)[C@@H]3C=C[C@H]2CC3)sc2c1CCC2
REMARK SMILES IDX 18 1 17 2 16 3 14 4 15 5 13 6 12 7 88 8 85 9 87 10 89 11
REMARK SMILES IDX 86 12 90 13 10 14 9 15 11 17 8 18 7 19 93 20 91 21 92 22
REMARK SMILES IDX 94 23 96 24 95 25 5 26 6 27 4 28 2 29 1 30 3 31 19 32 20 33
REMARK SMILES IDX 21 34 22 35 23 36 24 37 25 38 26 39 84 40 27 41 83 42 28 43
REMARK SMILES IDX 29 44 30 45 77 46 31 47 82 48 76 49 78 50 32 51 81 52 75 53
REMARK SMILES IDX 74 54 33 56 63 57 44 58 62 59 45 60 48 61 61 62 79 63 46 64
REMARK SMILES IDX 47 65 60 67 80 68 49 69 34 70 35 71 43 72 36 73 42 74 37 75
REMARK SMILES IDX 38 76 39 77 40 78 41 79 64 80 65 81 73 82 66 83 72 84 67 85
REMARK SMILES IDX 68 86 69 87 70 88 71 89 50 90 51 91 59 92 52 93 58 94 53 95
REMARK SMILES IDX 54 96 55 97 56 98 57 99
REMARK H PARENT 9 16 78 55 48 66
REMARK Flexibility Score: inf
ROOT
ATOM      1  C   UNL A   1      31.447  28.587  27.624  1.00  0.00     0.202 C 
ENDROOT
BRANCH   1   2
ATOM      2  C   UNL A   1      30.936  27.358  26.871  1.00  0.00     0.261 C 
BRANCH   2   3
ATOM      3  O   UNL A   1      31.744  26.172  27.028  1.00  0.00    -0.463 OA
BRANCH   3   4
ATOM      4  C   UNL A   1      32.556  25.869  25.976  1.00  0.00     0.310 C 
ATOM      5  O   UNL A   1      33.629  26.414  25.761  1.00  0.00    -0.252 OA
BRANCH   4   6
ATOM      6  C   UNL A   1      31.912  24.841  25.054  1.00  0.00     0.119 C 
ATOM      7  C   UNL A   1      32.759  23.539  24.847  1.00  0.00     0.100 C 
ATOM      8  C   UNL A   1      33.460  23.621  23.455  1.00  0.00     0.025 C 
ATOM      9  C   UNL A   1      31.677  25.505  23.660  1.00  0.00     0.026 C 
ATOM     10  C   UNL A   1      32.297  23.498  22.472  1.00  0.00    -0.027 C 
ATOM     11  C   UNL A   1      34.104  25.006  23.209  1.00  0.00     0.009 C 
ATOM     12  C   UNL A   1      31.341  24.431  22.633  1.00  0.00    -0.027 C 
ATOM     13  C   UNL A   1      33.014  26.105  23.157  1.00  0.00     0.009 C 
BRANCH   7  14
ATOM     14  C   UNL A   1      33.667  23.084  25.990  1.00  0.00     0.229 C 
ATOM     15  N   UNL A   1      34.014  21.771  26.191  1.00  0.00    -0.317 N 
ATOM     16  H   UNL A   1      34.445  21.617  27.063  1.00  0.00     0.170 HD
ATOM     17  O   UNL A   1      34.110  23.911  26.797  1.00  0.00    -0.274 OA
BRANCH  15  18
ATOM     18  C   UNL A   1      33.891  20.611  25.435  1.00  0.00     0.110 A 
ATOM     19  C   UNL A   1      34.938  19.818  24.938  1.00  0.00     0.098 A 
ATOM     20  C   UNL A   1      34.397  18.582  24.457  1.00  0.00    -0.017 A 
ATOM     21  S   UNL A   1      32.361  19.994  24.975  1.00  0.00    -0.122 S 
ATOM     22  C   UNL A   1      33.035  18.560  24.498  1.00  0.00     0.011 A 
ATOM     23  C   UNL A   1      34.936  17.257  24.061  1.00  0.00     0.038 C 
ATOM     24  C   UNL A   1      32.409  17.264  24.183  1.00  0.00     0.047 C 
ATOM     25  C   UNL A   1      33.651  16.401  23.837  1.00  0.00     0.010 C 
BRANCH  19  26
ATOM     26  C   UNL A   1      36.358  20.147  25.105  1.00  0.00     0.341 C 
ATOM     27  O   UNL A   1      37.242  19.355  24.806  1.00  0.00    -0.246 OA
BRANCH  26  28
ATOM     28  O   UNL A   1      36.554  21.408  25.574  1.00  0.00    -0.459 OA
BRANCH  28  29
ATOM     29  C   UNL A   1      37.337  22.389  24.851  1.00  0.00     0.170 C 
ATOM     30  C   UNL A   1      36.889  22.658  23.417  1.00  0.00     0.052 C 
ATOM     31  C   UNL A   1      37.451  23.672  25.666  1.00  0.00     0.052 C 
ENDBRANCH  28  29
ENDBRANCH  26  28
ENDBRANCH  19  26
ENDBRANCH  15  18
ENDBRANCH   7  14
ENDBRANCH   4   6
ENDBRANCH   3   4
ENDBRANCH   2   3
ENDBRANCH   1   2
BRANCH   1  32
ATOM     32  O   UNL A   1      32.723  29.104  27.278  1.00  0.00    -0.374 OA
BRANCH  32  33
ATOM     33  C   UNL A   1      32.830  30.310  26.548  1.00  0.00     0.202 C 
BRANCH  33  34
ATOM     34  C   UNL A   1      33.328  31.582  27.224  1.00  0.00     0.261 C 
BRANCH  34  35
ATOM     35  O   UNL A   1      34.704  31.672  27.517  1.00  0.00    -0.460 OA
BRANCH  35  36
ATOM     36  C   UNL A   1      34.925  31.946  28.818  1.00  0.00     0.338 C 
ATOM     37  O   UNL A   1      34.387  32.810  29.486  1.00  0.00    -0.246 OA
BRANCH  36  38
ATOM     38  C   UNL A   1      36.113  31.189  29.228  1.00  0.00     0.060 A 
ATOM     39  C   UNL A   1      37.172  31.925  29.755  1.00  0.00     0.016 A 
ATOM     40  C   UNL A   1      36.250  29.828  28.895  1.00  0.00     0.016 A 
ATOM     41  C   UNL A   1      38.405  31.319  29.865  1.00  0.00     0.010 A 
ATOM     42  C   UNL A   1      37.487  29.228  28.991  1.00  0.00     0.010 A 
ATOM     43  C   UNL A   1      38.558  29.995  29.440  1.00  0.00    -0.014 A 
BRANCH  43  44
ATOM     44  C   UNL A   1      39.868  29.403  29.584  1.00  0.00     0.031 A 
ATOM     45  C   UNL A   1      40.277  29.152  30.978  1.00  0.00     0.074 A 
ATOM     46  C   UNL A   1      40.628  29.024  28.546  1.00  0.00     0.049 A 
ATOM     47  N   UNL A   1      41.189  29.769  31.649  1.00  0.00    -0.248 NA
ATOM     48  C   UNL A   1      39.482  28.194  31.759  1.00  0.00     0.031 C 
ATOM     49  C   UNL A   1      40.250  28.928  27.141  1.00  0.00     0.029 A 
ATOM     50  N   UNL A   1      41.891  28.531  28.566  1.00  0.00    -0.354 N 
ATOM     51  C   UNL A   1      41.217  29.153  32.893  1.00  0.00     0.074 A 
ATOM     52  C   UNL A   1      40.042  28.320  32.961  1.00  0.00     0.031 C 
ATOM     53  C   UNL A   1      41.166  28.187  26.483  1.00  0.00     0.029 A 
ATOM     54  C   UNL A   1      42.262  27.898  27.392  1.00  0.00     0.049 A 
ATOM     55  H   UNL A   1      42.489  28.616  29.343  1.00  0.00     0.167 HD
ATOM     56  C   UNL A   1      42.317  29.197  33.692  1.00  0.00     0.031 A 
ATOM     57  C   UNL A   1      43.361  27.129  27.214  1.00  0.00     0.031 A 
ATOM     58  C   UNL A   1      43.266  30.187  33.253  1.00  0.00     0.049 A 
ATOM     59  C   UNL A   1      44.335  27.494  28.274  1.00  0.00     0.074 A 
ATOM     60  C   UNL A   1      43.245  31.558  33.107  1.00  0.00     0.029 A 
ATOM     61  N   UNL A   1      44.350  29.738  32.533  1.00  0.00    -0.354 N 
ATOM     62  N   UNL A   1      44.916  28.660  28.346  1.00  0.00    -0.248 NA
ATOM     63  C   UNL A   1      44.363  26.716  29.503  1.00  0.00     0.031 C 
ATOM     64  C   UNL A   1      44.058  31.827  31.967  1.00  0.00     0.029 A 
ATOM     65  C   UNL A   1      44.549  30.608  31.492  1.00  0.00     0.049 A 
ATOM     66  H   UNL A   1      44.887  28.937  32.731  1.00  0.00     0.167 HD
ATOM     67  C   UNL A   1      45.017  28.933  29.703  1.00  0.00     0.074 A 
ATOM     68  C   UNL A   1      44.778  27.654  30.361  1.00  0.00     0.031 C 
ATOM     69  C   UNL A   1      45.009  30.217  30.172  1.00  0.00     0.031 A 
BRANCH  56  70
ATOM     70  C   UNL A   1      42.699  28.084  34.633  1.00  0.00    -0.014 A 
ATOM     71  C   UNL A   1      42.985  28.398  35.977  1.00  0.00     0.010 A 
ATOM     72  C   UNL A   1      43.057  26.796  34.184  1.00  0.00     0.010 A 
ATOM     73  C   UNL A   1      43.675  27.498  36.798  1.00  0.00     0.020 A 
ATOM     74  C   UNL A   1      43.699  25.874  35.008  1.00  0.00     0.020 A 
ATOM     75  C   UNL A   1      44.047  26.249  36.297  1.00  0.00     0.054 A 
BRANCH  75  76
ATOM     76  S   UNL A   1      45.080  25.157  37.299  1.00  0.00     0.124 S 
ATOM     77  O   UNL A   1      44.646  25.497  38.650  1.00  0.00    -0.237 OA
ATOM     78  O   UNL A   1      44.693  23.833  36.820  1.00  0.00    -0.237 OA
ATOM     79  O   UNL A   1      46.441  25.565  36.955  1.00  0.00    -0.744 OA
ENDBRANCH  75  76
ENDBRANCH  56  70
BRANCH  57  80
ATOM     80  C   UNL A   1      43.455  25.911  26.380  1.00  0.00    -0.014 A 
ATOM     81  C   UNL A   1      44.518  25.726  25.481  1.00  0.00     0.010 A 
ATOM     82  C   UNL A   1      42.619  24.805  26.649  1.00  0.00     0.010 A 
ATOM     83  C   UNL A   1      44.768  24.466  24.914  1.00  0.00     0.020 A 
ATOM     84  C   UNL A   1      42.853  23.551  26.078  1.00  0.00     0.020 A 
ATOM     85  C   UNL A   1      43.943  23.382  25.231  1.00  0.00     0.054 A 
BRANCH  85  86
ATOM     86  S   UNL A   1      44.374  21.723  24.631  1.00  0.00     0.124 S 
ATOM     87  O   UNL A   1      44.501  21.938  23.193  1.00  0.00    -0.237 OA
ATOM     88  O   UNL A   1      45.616  21.442  25.343  1.00  0.00    -0.237 OA
ATOM     89  O   UNL A   1      43.232  20.904  25.037  1.00  0.00    -0.744 OA
ENDBRANCH  85  86
ENDBRANCH  57  80
BRANCH  69  90
ATOM     90  C   UNL A   1      45.207  31.343  29.182  1.00  0.00    -0.014 A 
ATOM     91  C   UNL A   1      46.445  31.612  28.568  1.00  0.00     0.010 A 
ATOM     92  C   UNL A   1      44.066  32.023  28.719  1.00  0.00     0.010 A 
ATOM     93  C   UNL A   1      46.541  32.542  27.523  1.00  0.00     0.020 A 
ATOM     94  C   UNL A   1      44.151  32.939  27.665  1.00  0.00     0.020 A 
ATOM     95  C   UNL A   1      45.389  33.195  27.073  1.00  0.00     0.054 A 
BRANCH  95  96
ATOM     96  S   UNL A   1      45.504  34.317  25.651  1.00  0.00     0.124 S 
ATOM     97  O   UNL A   1      46.946  34.448  25.466  1.00  0.00    -0.237 OA
ATOM     98  O   UNL A   1      44.799  33.586  24.600  1.00  0.00    -0.237 OA
ATOM     99  O   UNL A   1      44.826  35.530  26.108  1.00  0.00    -0.744 OA
ENDBRANCH  95  96
ENDBRANCH  69  90
ENDBRANCH  43  44
ENDBRANCH  36  38
ENDBRANCH  35  36
ENDBRANCH  34  35
ENDBRANCH  33  34
ENDBRANCH  32  33
ENDBRANCH   1  32
TORSDOF 22
ENDMDL
MODEL 3
REMARK VINA RESULT:     -10.2      4.517      9.716
REMARK SMILES CC(C)OC(=O)c1c(NC(=O)[C@H]2[C@@H](C(=O)OCCOCCOC(=O)c3ccc(-c4c5nc(c(-c6ccc(S(=O)(=O)[O-])cc6)c6ccc([nH]6)c(-c6ccc(S(=O)(=O)[O-])cc6)c6nc(c(-c7ccc(S(=O)(=O)[O-])cc7)c7ccc4[nH]7)C=C6)C=C5)cc3)[C@@H]3C=C[C@H]2CC3)sc2c1CCC2
REMARK SMILES IDX 18 1 17 2 16 3 14 4 15 5 13 6 12 7 88 8 85 9 87 10 89 11
REMARK SMILES IDX 86 12 90 13 10 14 9 15 11 17 8 18 7 19 93 20 91 21 92 22
REMARK SMILES IDX 94 23 96 24 95 25 5 26 6 27 4 28 2 29 1 30 3 31 19 32 20 33
REMARK SMILES IDX 21 34 22 35 23 36 24 37 25 38 26 39 84 40 27 41 83 42 28 43
REMARK SMILES IDX 29 44 30 45 77 46 31 47 82 48 76 49 78 50 32 51 81 52 75 53
REMARK SMILES IDX 74 54 33 56 63 57 44 58 62 59 45 60 48 61 61 62 79 63 46 64
REMARK SMILES IDX 47 65 60 67 80 68 49 69 34 70 35 71 43 72 36 73 42 74 37 75
REMARK SMILES IDX 38 76 39 77 40 78 41 79 64 80 65 81 73 82 66 83 72 84 67 85
REMARK SMILES IDX 68 86 69 87 70 88 71 89 50 90 51 91 59 92 52 93 58 94 53 95
REMARK SMILES IDX 54 96 55 97 56 98 57 99
REMARK H PARENT 9 16 78 55 48 66
REMARK Flexibility Score: inf
ROOT
ATOM      1  C   UNL A   1      34.023  34.758  32.828  1.00  0.00     0.202 C 
ENDROOT
BRANCH   1   2
ATOM      2  C   UNL A   1      34.680  33.509  33.418  1.00  0.00     0.261 C 
BRANCH   2   3
ATOM      3  O   UNL A   1      35.252  33.689  34.731  1.00  0.00    -0.463 OA
BRANCH   3   4
ATOM      4  C   UNL A   1      36.611  33.802  34.770  1.00  0.00     0.310 C 
ATOM      5  O   UNL A   1      37.228  34.769  34.351  1.00  0.00    -0.252 OA
BRANCH   4   6
ATOM      6  C   UNL A   1      37.259  32.534  35.311  1.00  0.00     0.119 C 
ATOM      7  C   UNL A   1      38.552  32.781  36.161  1.00  0.00     0.100 C 
ATOM      8  C   UNL A   1      39.796  32.450  35.277  1.00  0.00     0.025 C 
ATOM      9  C   UNL A   1      37.630  31.614  34.103  1.00  0.00     0.026 C 
ATOM     10  C   UNL A   1      39.713  30.934  35.113  1.00  0.00    -0.027 C 
ATOM     11  C   UNL A   1      39.678  33.057  33.858  1.00  0.00     0.009 C 
ATOM     12  C   UNL A   1      38.558  30.502  34.574  1.00  0.00    -0.027 C 
ATOM     13  C   UNL A   1      38.486  32.424  33.099  1.00  0.00     0.009 C 
BRANCH   7  14
ATOM     14  C   UNL A   1      38.658  34.091  36.942  1.00  0.00     0.229 C 
ATOM     15  N   UNL A   1      38.218  34.227  38.236  1.00  0.00    -0.317 N 
ATOM     16  H   UNL A   1      38.185  35.165  38.533  1.00  0.00     0.170 HD
ATOM     17  O   UNL A   1      39.140  35.095  36.405  1.00  0.00    -0.274 OA
BRANCH  15  18
ATOM     18  C   UNL A   1      37.809  33.332  39.217  1.00  0.00     0.110 A 
ATOM     19  C   UNL A   1      38.629  32.680  40.154  1.00  0.00     0.098 A 
ATOM     20  C   UNL A   1      37.801  32.070  41.150  1.00  0.00    -0.017 A 
ATOM     21  S   UNL A   1      36.168  32.875  39.393  1.00  0.00    -0.122 S 
ATOM     22  C   UNL A   1      36.474  32.179  40.862  1.00  0.00     0.011 A 
ATOM     23  C   UNL A   1      38.004  31.474  42.495  1.00  0.00     0.038 C 
ATOM     24  C   UNL A   1      35.554  31.729  41.921  1.00  0.00     0.047 C 
ATOM     25  C   UNL A   1      36.550  31.208  42.991  1.00  0.00     0.010 C 
BRANCH  19  26
ATOM     26  C   UNL A   1      40.089  32.815  40.188  1.00  0.00     0.341 C 
ATOM     27  O   UNL A   1      40.787  32.492  39.236  1.00  0.00    -0.246 OA
BRANCH  26  28
ATOM     28  O   UNL A   1      40.542  33.360  41.348  1.00  0.00    -0.459 OA
BRANCH  28  29
ATOM     29  C   UNL A   1      41.760  32.911  41.991  1.00  0.00     0.170 C 
ATOM     30  C   UNL A   1      41.787  31.437  42.385  1.00  0.00     0.052 C 
ATOM     31  C   UNL A   1      42.970  33.302  41.150  1.00  0.00     0.052 C 
ENDBRANCH  28  29
ENDBRANCH  26  28
ENDBRANCH  19  26
ENDBRANCH  15  18
ENDBRANCH   7  14
ENDBRANCH   4   6
ENDBRANCH   3   4
ENDBRANCH   2   3
ENDBRANCH   1   2
BRANCH   1  32
ATOM     32  O   UNL A   1      33.486  34.676  31.516  1.00  0.00    -0.374 OA
BRANCH  32  33
ATOM     33  C   UNL A   1      34.347  34.579  30.398  1.00  0.00     0.202 C 
BRANCH  33  34
ATOM     34  C   UNL A   1      34.065  33.572  29.289  1.00  0.00     0.261 C 
BRANCH  34  35
ATOM     35  O   UNL A   1      34.438  32.231  29.513  1.00  0.00    -0.460 OA
BRANCH  35  36
ATOM     36  C   UNL A   1      34.939  31.655  28.402  1.00  0.00     0.338 C 
ATOM     37  O   UNL A   1      34.395  31.566  27.317  1.00  0.00    -0.246 OA
BRANCH  36  38
ATOM     38  C   UNL A   1      36.150  30.927  28.795  1.00  0.00     0.060 A 
ATOM     39  C   UNL A   1      37.091  31.635  29.540  1.00  0.00     0.016 A 
ATOM     40  C   UNL A   1      36.435  29.658  28.254  1.00  0.00     0.016 A 
ATOM     41  C   UNL A   1      38.359  31.110  29.669  1.00  0.00     0.010 A 
ATOM     42  C   UNL A   1      37.707  29.143  28.371  1.00  0.00     0.010 A 
ATOM     43  C   UNL A   1      38.664  29.895  29.046  1.00  0.00    -0.014 A 
BRANCH  43  44
ATOM     44  C   UNL A   1      40.005  29.384  29.218  1.00  0.00     0.031 A 
ATOM     45  C   UNL A   1      40.375  29.097  30.616  1.00  0.00     0.074 A 
ATOM     46  C   UNL A   1      40.827  29.103  28.197  1.00  0.00     0.049 A 
ATOM     47  N   UNL A   1      41.219  29.742  31.350  1.00  0.00    -0.248 NA
ATOM     48  C   UNL A   1      39.617  28.056  31.323  1.00  0.00     0.031 C 
ATOM     49  C   UNL A   1      40.510  29.045  26.775  1.00  0.00     0.029 A 
ATOM     50  N   UNL A   1      42.119  28.692  28.248  1.00  0.00    -0.354 N 
ATOM     51  C   UNL A   1      41.240  29.074  32.567  1.00  0.00     0.074 A 
ATOM     52  C   UNL A   1      40.121  28.164  32.551  1.00  0.00     0.031 C 
ATOM     53  C   UNL A   1      41.498  28.395  26.125  1.00  0.00     0.029 A 
ATOM     54  C   UNL A   1      42.575  28.138  27.066  1.00  0.00     0.049 A 
ATOM     55  H   UNL A   1      42.679  28.780  29.052  1.00  0.00     0.167 HD
ATOM     56  C   UNL A   1      42.303  29.154  33.411  1.00  0.00     0.031 A 
ATOM     57  C   UNL A   1      43.730  27.451  26.900  1.00  0.00     0.031 A 
ATOM     58  C   UNL A   1      43.200  30.222  33.054  1.00  0.00     0.049 A 
ATOM     59  C   UNL A   1      44.635  27.831  28.014  1.00  0.00     0.074 A 
ATOM     60  C   UNL A   1      43.093  31.594  32.965  1.00  0.00     0.029 A 
ATOM     61  N   UNL A   1      44.338  29.877  32.361  1.00  0.00    -0.354 N 
ATOM     62  N   UNL A   1      45.134  29.028  28.159  1.00  0.00    -0.248 NA
ATOM     63  C   UNL A   1      44.669  27.001  29.209  1.00  0.00     0.031 C 
ATOM     64  C   UNL A   1      43.929  31.966  31.872  1.00  0.00     0.029 A 
ATOM     65  C   UNL A   1      44.518  30.804  31.366  1.00  0.00     0.049 A 
ATOM     66  H   UNL A   1      44.920  29.105  32.547  1.00  0.00     0.167 HD
ATOM     67  C   UNL A   1      45.164  29.246  29.529  1.00  0.00     0.074 A 
ATOM     68  C   UNL A   1      44.986  27.925  30.122  1.00  0.00     0.031 C 
ATOM     69  C   UNL A   1      45.054  30.503  30.051  1.00  0.00     0.031 A 
BRANCH  56  70
ATOM     70  C   UNL A   1      42.723  28.027  34.319  1.00  0.00    -0.014 A 
ATOM     71  C   UNL A   1      42.693  28.230  35.714  1.00  0.00     0.010 A 
ATOM     72  C   UNL A   1      43.405  26.885  33.851  1.00  0.00     0.010 A 
ATOM     73  C   UNL A   1      43.388  27.380  36.583  1.00  0.00     0.020 A 
ATOM     74  C   UNL A   1      44.058  26.005  34.712  1.00  0.00     0.020 A 
ATOM     75  C   UNL A   1      44.085  26.286  36.069  1.00  0.00     0.054 A 
BRANCH  75  76
ATOM     76  S   UNL A   1      45.117  25.289  37.169  1.00  0.00     0.124 S 
ATOM     77  O   UNL A   1      46.340  26.082  37.225  1.00  0.00    -0.237 OA
ATOM     78  O   UNL A   1      44.324  25.254  38.395  1.00  0.00    -0.237 OA
ATOM     79  O   UNL A   1      45.228  24.012  36.467  1.00  0.00    -0.744 OA
ENDBRANCH  75  76
ENDBRANCH  56  70
BRANCH  57  80
ATOM     80  C   UNL A   1      43.936  26.280  26.019  1.00  0.00    -0.014 A 
ATOM     81  C   UNL A   1      45.225  25.887  25.625  1.00  0.00     0.010 A 
ATOM     82  C   UNL A   1      42.868  25.392  25.763  1.00  0.00     0.010 A 
ATOM     83  C   UNL A   1      45.445  24.628  25.043  1.00  0.00     0.020 A 
ATOM     84  C   UNL A   1      43.077  24.143  25.173  1.00  0.00     0.020 A 
ATOM     85  C   UNL A   1      44.370  23.757  24.837  1.00  0.00     0.054 A 
BRANCH  85  86
ATOM     86  S   UNL A   1      44.685  22.069  24.246  1.00  0.00     0.124 S 
ATOM     87  O   UNL A   1      44.289  22.153  22.844  1.00  0.00    -0.237 OA
ATOM     88  O   UNL A   1      46.115  21.909  24.494  1.00  0.00    -0.237 OA
ATOM     89  O   UNL A   1      43.819  21.243  25.087  1.00  0.00    -0.744 OA
ENDBRANCH  85  86
ENDBRANCH  57  80
BRANCH  69  90
ATOM     90  C   UNL A   1      45.213  31.683  29.118  1.00  0.00    -0.014 A 
ATOM     91  C   UNL A   1      46.408  32.421  29.017  1.00  0.00     0.010 A 
ATOM     92  C   UNL A   1      44.190  31.931  28.184  1.00  0.00     0.010 A 
ATOM     93  C   UNL A   1      46.574  33.384  28.012  1.00  0.00     0.020 A 
ATOM     94  C   UNL A   1      44.355  32.878  27.169  1.00  0.00     0.020 A 
ATOM     95  C   UNL A   1      45.546  33.602  27.088  1.00  0.00     0.054 A 
BRANCH  95  96
ATOM     96  S   UNL A   1      45.809  34.775  25.728  1.00  0.00     0.124 S 
ATOM     97  O   UNL A   1      47.152  34.433  25.270  1.00  0.00    -0.237 OA
ATOM     98  O   UNL A   1      44.727  34.448  24.802  1.00  0.00    -0.237 OA
ATOM     99  O   UNL A   1      45.688  36.084  26.369  1.00  0.00    -0.744 OA
ENDBRANCH  95  96
ENDBRANCH  69  90
ENDBRANCH  43  44
ENDBRANCH  36  38
ENDBRANCH  35  36
ENDBRANCH  34  35
ENDBRANCH  33  34
ENDBRANCH  32  33
ENDBRANCH   1  32
TORSDOF 22
ENDMDL
