MODEL 1
REMARK VINA RESULT:      -9.2      0.000      0.000
REMARK SMILES CCN(CC)C(=O)/C(C#N)=C\c1ccc(O[C@H](C)C(=O)OCCOCCOC(=O)c2ccc(-c3c4nc(c(-c5ccc(S(=O)(=O)[O-])cc5)c5ccc([nH]5)c(-c5ccc(S(=O)(=O)[O-])cc5)c5nc(c(-c6ccc(S(=O)(=O)[O-])cc6)c6ccc3[nH]6)C=C5)C=C4)cc2)cc1
REMARK SMILES IDX 23 1 22 2 21 3 19 4 20 5 17 6 18 7 16 8 15 9 12 10 13 11
REMARK SMILES IDX 91 12 14 13 90 14 11 15 8 16 6 17 3 18 7 19 2 20 1 21 4 22
REMARK SMILES IDX 5 23 9 24 10 25 24 26 25 27 26 28 27 29 28 30 29 31 30 32
REMARK SMILES IDX 31 33 89 34 32 35 88 36 33 37 34 38 35 39 82 40 36 41 87 42
REMARK SMILES IDX 81 43 83 44 37 45 86 46 80 47 79 48 38 50 68 51 49 52 67 53
REMARK SMILES IDX 50 54 53 55 66 56 84 57 51 58 52 59 65 61 85 62 54 63 39 64
REMARK SMILES IDX 40 65 48 66 41 67 47 68 42 69 43 70 44 71 45 72 46 73 69 74
REMARK SMILES IDX 70 75 78 76 71 77 77 78 72 79 73 80 74 81 75 82 76 83 55 84
REMARK SMILES IDX 56 85 64 86 57 87 63 88 58 89 59 90 60 91 61 92 62 93
REMARK H PARENT 83 49 53 60
REMARK Flexibility Score: inf
ROOT
ATOM      1  C   UNL A   1      40.887  20.020  26.588  1.00  0.00     0.202 C 
ENDROOT
BRANCH   1   2
ATOM      2  C   UNL A   1      42.065  19.200  26.053  1.00  0.00     0.261 C 
BRANCH   2   3
ATOM      3  O   UNL A   1      43.007  20.018  25.337  1.00  0.00    -0.461 OA
BRANCH   3   4
ATOM      4  C   UNL A   1      44.192  19.422  25.018  1.00  0.00     0.347 C 
ATOM      5  O   UNL A   1      44.316  18.272  24.613  1.00  0.00    -0.248 OA
BRANCH   4   6
ATOM      6  C   UNL A   1      45.370  20.371  25.200  1.00  0.00     0.279 C 
ATOM      7  C   UNL A   1      46.710  19.715  24.909  1.00  0.00     0.066 C 
BRANCH   6   8
ATOM      8  O   UNL A   1      44.991  21.596  24.597  1.00  0.00    -0.479 OA
BRANCH   8   9
ATOM      9  C   UNL A   1      44.745  22.798  25.160  1.00  0.00     0.120 A 
ATOM     10  C   UNL A   1      44.819  25.286  26.437  1.00  0.00    -0.024 A 
ATOM     11  C   UNL A   1      43.986  25.086  25.337  1.00  0.00     0.012 A 
ATOM     12  C   UNL A   1      45.511  24.208  26.984  1.00  0.00     0.012 A 
ATOM     13  C   UNL A   1      43.946  23.838  24.705  1.00  0.00     0.047 A 
ATOM     14  C   UNL A   1      45.486  22.980  26.332  1.00  0.00     0.047 A 
BRANCH  10  15
ATOM     15  C   UNL A   1      45.055  26.641  26.921  1.00  0.00     0.033 C 
ATOM     16  C   UNL A   1      45.949  27.492  26.379  1.00  0.00     0.117 C 
BRANCH  16  17
ATOM     17  C   UNL A   1      46.842  27.184  25.186  1.00  0.00     0.264 C 
ATOM     18  N   UNL A   1      48.118  26.620  25.329  1.00  0.00    -0.339 N 
ATOM     19  O   UNL A   1      46.414  27.407  24.048  1.00  0.00    -0.268 OA
BRANCH  18  20
ATOM     20  C   UNL A   1      48.697  25.987  24.138  1.00  0.00     0.116 C 
ATOM     21  C   UNL A   1      49.458  27.008  23.301  1.00  0.00     0.027 C 
ENDBRANCH  18  20
BRANCH  18  22
ATOM     22  C   UNL A   1      48.995  26.624  26.507  1.00  0.00     0.116 C 
ATOM     23  C   UNL A   1      49.915  25.407  26.505  1.00  0.00     0.027 C 
ENDBRANCH  18  22
ENDBRANCH  16  17
BRANCH  16  24
ATOM     24  C   UNL A   1      46.108  28.843  27.058  1.00  0.00     0.105 C 
ATOM     25  N   UNL A   1      46.241  29.964  27.619  1.00  0.00    -0.192 NA
ENDBRANCH  16  24
ENDBRANCH  10  15
ENDBRANCH   8   9
ENDBRANCH   6   8
ENDBRANCH   4   6
ENDBRANCH   3   4
ENDBRANCH   2   3
ENDBRANCH   1   2
BRANCH   1  26
ATOM     26  O   UNL A   1      40.565  21.219  25.881  1.00  0.00    -0.374 OA
BRANCH  26  27
ATOM     27  C   UNL A   1      39.280  21.785  26.120  1.00  0.00     0.202 C 
BRANCH  27  28
ATOM     28  C   UNL A   1      39.200  23.310  26.256  1.00  0.00     0.261 C 
BRANCH  28  29
ATOM     29  O   UNL A   1      40.408  23.879  26.786  1.00  0.00    -0.460 OA
BRANCH  29  30
ATOM     30  C   UNL A   1      40.551  25.202  26.536  1.00  0.00     0.338 C 
ATOM     31  O   UNL A   1      40.431  25.761  25.452  1.00  0.00    -0.246 OA
BRANCH  30  32
ATOM     32  C   UNL A   1      40.711  25.957  27.792  1.00  0.00     0.060 A 
ATOM     33  C   UNL A   1      39.695  25.824  28.746  1.00  0.00     0.016 A 
ATOM     34  C   UNL A   1      41.772  26.840  28.003  1.00  0.00     0.016 A 
ATOM     35  C   UNL A   1      39.694  26.630  29.881  1.00  0.00     0.010 A 
ATOM     36  C   UNL A   1      41.767  27.654  29.142  1.00  0.00     0.010 A 
ATOM     37  C   UNL A   1      40.702  27.585  30.060  1.00  0.00    -0.014 A 
BRANCH  37  38
ATOM     38  C   UNL A   1      40.533  28.623  31.107  1.00  0.00     0.031 A 
ATOM     39  C   UNL A   1      41.429  28.584  32.317  1.00  0.00     0.074 A 
ATOM     40  C   UNL A   1      39.643  29.621  30.957  1.00  0.00     0.049 A 
ATOM     41  N   UNL A   1      41.469  29.391  33.345  1.00  0.00    -0.248 NA
ATOM     42  C   UNL A   1      42.413  27.490  32.373  1.00  0.00     0.031 C 
ATOM     43  C   UNL A   1      38.758  29.799  29.807  1.00  0.00     0.029 A 
ATOM     44  N   UNL A   1      39.345  30.678  31.779  1.00  0.00    -0.354 N 
ATOM     45  C   UNL A   1      42.475  28.902  34.172  1.00  0.00     0.074 A 
ATOM     46  C   UNL A   1      42.998  27.710  33.542  1.00  0.00     0.031 C 
ATOM     47  C   UNL A   1      38.015  30.903  29.997  1.00  0.00     0.029 A 
ATOM     48  C   UNL A   1      38.351  31.492  31.293  1.00  0.00     0.049 A 
ATOM     49  H   UNL A   1      39.802  30.838  32.637  1.00  0.00     0.167 HD
ATOM     50  C   UNL A   1      42.930  29.403  35.345  1.00  0.00     0.031 A 
ATOM     51  C   UNL A   1      37.768  32.578  31.837  1.00  0.00     0.031 A 
ATOM     52  C   UNL A   1      42.402  30.584  35.976  1.00  0.00     0.049 A 
ATOM     53  C   UNL A   1      38.240  33.077  33.179  1.00  0.00     0.074 A 
ATOM     54  C   UNL A   1      42.794  31.172  37.166  1.00  0.00     0.029 A 
ATOM     55  N   UNL A   1      41.364  31.353  35.473  1.00  0.00    -0.354 N 
ATOM     56  N   UNL A   1      39.199  32.607  33.942  1.00  0.00    -0.248 NA
ATOM     57  C   UNL A   1      37.559  34.258  33.726  1.00  0.00     0.031 C 
ATOM     58  C   UNL A   1      41.960  32.269  37.406  1.00  0.00     0.029 A 
ATOM     59  C   UNL A   1      41.088  32.398  36.337  1.00  0.00     0.049 A 
ATOM     60  H   UNL A   1      40.893  31.180  34.625  1.00  0.00     0.167 HD
ATOM     61  C   UNL A   1      39.255  33.456  35.044  1.00  0.00     0.074 A 
ATOM     62  C   UNL A   1      38.241  34.471  34.842  1.00  0.00     0.031 C 
ATOM     63  C   UNL A   1      40.077  33.402  36.121  1.00  0.00     0.031 A 
BRANCH  50  64
ATOM     64  C   UNL A   1      44.033  28.650  36.039  1.00  0.00    -0.014 A 
ATOM     65  C   UNL A   1      43.753  27.586  36.915  1.00  0.00     0.010 A 
ATOM     66  C   UNL A   1      45.374  28.999  35.793  1.00  0.00     0.010 A 
ATOM     67  C   UNL A   1      44.791  26.911  37.563  1.00  0.00     0.020 A 
ATOM     68  C   UNL A   1      46.416  28.309  36.419  1.00  0.00     0.020 A 
ATOM     69  C   UNL A   1      46.116  27.281  37.315  1.00  0.00     0.054 A 
BRANCH  69  70
ATOM     70  S   UNL A   1      47.446  26.383  38.162  1.00  0.00     0.124 S 
ATOM     71  O   UNL A   1      46.928  25.017  38.170  1.00  0.00    -0.237 OA
ATOM     72  O   UNL A   1      48.595  26.613  37.291  1.00  0.00    -0.237 OA
ATOM     73  O   UNL A   1      47.520  27.028  39.470  1.00  0.00    -0.744 OA
ENDBRANCH  69  70
ENDBRANCH  50  64
BRANCH  51  74
ATOM     74  C   UNL A   1      36.662  33.266  31.116  1.00  0.00    -0.014 A 
ATOM     75  C   UNL A   1      36.918  34.028  29.963  1.00  0.00     0.010 A 
ATOM     76  C   UNL A   1      35.340  33.158  31.586  1.00  0.00     0.010 A 
ATOM     77  C   UNL A   1      35.874  34.682  29.301  1.00  0.00     0.020 A 
ATOM     78  C   UNL A   1      34.291  33.789  30.912  1.00  0.00     0.020 A 
ATOM     79  C   UNL A   1      34.566  34.556  29.779  1.00  0.00     0.054 A 
BRANCH  79  80
ATOM     80  S   UNL A   1      33.219  35.368  28.875  1.00  0.00     0.124 S 
ATOM     81  O   UNL A   1      33.945  36.298  28.017  1.00  0.00    -0.237 OA
ATOM     82  O   UNL A   1      32.576  34.246  28.192  1.00  0.00    -0.237 OA
ATOM     83  O   UNL A   1      32.420  35.983  29.932  1.00  0.00    -0.744 OA
ENDBRANCH  79  80
ENDBRANCH  51  74
BRANCH  63  84
ATOM     84  C   UNL A   1      39.950  34.497  37.148  1.00  0.00    -0.014 A 
ATOM     85  C   UNL A   1      40.614  35.727  36.996  1.00  0.00     0.010 A 
ATOM     86  C   UNL A   1      39.104  34.309  38.257  1.00  0.00     0.010 A 
ATOM     87  C   UNL A   1      40.460  36.736  37.952  1.00  0.00     0.020 A 
ATOM     88  C   UNL A   1      38.927  35.324  39.200  1.00  0.00     0.020 A 
ATOM     89  C   UNL A   1      39.618  36.527  39.048  1.00  0.00     0.054 A 
BRANCH  89  90
ATOM     90  S   UNL A   1      39.403  37.865  40.254  1.00  0.00     0.124 S 
ATOM     91  O   UNL A   1      39.104  37.127  41.478  1.00  0.00    -0.237 OA
ATOM     92  O   UNL A   1      40.701  38.535  40.225  1.00  0.00    -0.237 OA
ATOM     93  O   UNL A   1      38.294  38.647  39.711  1.00  0.00    -0.744 OA
ENDBRANCH  89  90
ENDBRANCH  63  84
ENDBRANCH  37  38
ENDBRANCH  30  32
ENDBRANCH  29  30
ENDBRANCH  28  29
ENDBRANCH  27  28
ENDBRANCH  26  27
ENDBRANCH   1  26
TORSDOF 24
ENDMDL
MODEL 2
REMARK VINA RESULT:      -9.1      3.604     10.471
REMARK SMILES CCN(CC)C(=O)/C(C#N)=C\c1ccc(O[C@H](C)C(=O)OCCOCCOC(=O)c2ccc(-c3c4nc(c(-c5ccc(S(=O)(=O)[O-])cc5)c5ccc([nH]5)c(-c5ccc(S(=O)(=O)[O-])cc5)c5nc(c(-c6ccc(S(=O)(=O)[O-])cc6)c6ccc3[nH]6)C=C5)C=C4)cc2)cc1
REMARK SMILES IDX 23 1 22 2 21 3 19 4 20 5 17 6 18 7 16 8 15 9 12 10 13 11
REMARK SMILES IDX 91 12 14 13 90 14 11 15 8 16 6 17 3 18 7 19 2 20 1 21 4 22
REMARK SMILES IDX 5 23 9 24 10 25 24 26 25 27 26 28 27 29 28 30 29 31 30 32
REMARK SMILES IDX 31 33 89 34 32 35 88 36 33 37 34 38 35 39 82 40 36 41 87 42
REMARK SMILES IDX 81 43 83 44 37 45 86 46 80 47 79 48 38 50 68 51 49 52 67 53
REMARK SMILES IDX 50 54 53 55 66 56 84 57 51 58 52 59 65 61 85 62 54 63 39 64
REMARK SMILES IDX 40 65 48 66 41 67 47 68 42 69 43 70 44 71 45 72 46 73 69 74
REMARK SMILES IDX 70 75 78 76 71 77 77 78 72 79 73 80 74 81 75 82 76 83 55 84
REMARK SMILES IDX 56 85 64 86 57 87 63 88 58 89 59 90 60 91 61 92 62 93
REMARK H PARENT 83 49 53 60
REMARK Flexibility Score: inf
ROOT
ATOM      1  C   UNL A   1      41.024  21.533  27.711  1.00  0.00     0.202 C 
ENDROOT
BRANCH   1   2
ATOM      2  C   UNL A   1      40.301  21.440  26.364  1.00  0.00     0.261 C 
BRANCH   2   3
ATOM      3  O   UNL A   1      38.935  21.882  26.456  1.00  0.00    -0.461 OA
BRANCH   3   4
ATOM      4  C   UNL A   1      38.100  21.449  25.467  1.00  0.00     0.347 C 
ATOM      5  O   UNL A   1      38.031  20.295  25.059  1.00  0.00    -0.248 OA
BRANCH   4   6
ATOM      6  C   UNL A   1      37.226  22.575  24.931  1.00  0.00     0.279 C 
ATOM      7  C   UNL A   1      36.862  22.396  23.466  1.00  0.00     0.066 C 
BRANCH   6   8
ATOM      8  O   UNL A   1      36.242  22.821  25.920  1.00  0.00    -0.479 OA
BRANCH   8   9
ATOM      9  C   UNL A   1      35.047  23.439  25.816  1.00  0.00     0.120 A 
ATOM     10  C   UNL A   1      32.752  24.844  25.049  1.00  0.00    -0.024 A 
ATOM     11  C   UNL A   1      32.645  23.714  25.857  1.00  0.00     0.012 A 
ATOM     12  C   UNL A   1      34.011  25.353  24.736  1.00  0.00     0.012 A 
ATOM     13  C   UNL A   1      33.795  23.017  26.245  1.00  0.00     0.047 A 
ATOM     14  C   UNL A   1      35.145  24.638  25.104  1.00  0.00     0.047 A 
BRANCH  10  15
ATOM     15  C   UNL A   1      31.554  25.404  24.436  1.00  0.00     0.033 C 
ATOM     16  C   UNL A   1      30.932  26.519  24.871  1.00  0.00     0.117 C 
BRANCH  16  17
ATOM     17  C   UNL A   1      31.376  27.366  26.054  1.00  0.00     0.264 C 
ATOM     18  N   UNL A   1      31.777  28.703  25.912  1.00  0.00    -0.339 N 
ATOM     19  O   UNL A   1      31.348  26.870  27.185  1.00  0.00    -0.268 OA
BRANCH  18  20
ATOM     20  C   UNL A   1      31.770  29.526  27.127  1.00  0.00     0.116 C 
ATOM     21  C   UNL A   1      32.950  30.490  27.132  1.00  0.00     0.027 C 
ENDBRANCH  18  20
BRANCH  18  22
ATOM     22  C   UNL A   1      32.265  29.390  24.710  1.00  0.00     0.116 C 
ATOM     23  C   UNL A   1      33.507  28.699  24.155  1.00  0.00     0.027 C 
ENDBRANCH  18  22
ENDBRANCH  16  17
BRANCH  16  24
ATOM     24  C   UNL A   1      29.655  26.917  24.149  1.00  0.00     0.105 C 
ATOM     25  N   UNL A   1      28.596  27.250  23.550  1.00  0.00    -0.192 NA
ENDBRANCH  16  24
ENDBRANCH  10  15
ENDBRANCH   8   9
ENDBRANCH   6   8
ENDBRANCH   4   6
ENDBRANCH   3   4
ENDBRANCH   2   3
ENDBRANCH   1   2
BRANCH   1  26
ATOM     26  O   UNL A   1      41.978  22.586  27.857  1.00  0.00    -0.374 OA
BRANCH  26  27
ATOM     27  C   UNL A   1      43.026  22.647  26.893  1.00  0.00     0.202 C 
BRANCH  27  28
ATOM     28  C   UNL A   1      42.952  23.766  25.848  1.00  0.00     0.261 C 
BRANCH  28  29
ATOM     29  O   UNL A   1      41.806  24.615  26.031  1.00  0.00    -0.460 OA
BRANCH  29  30
ATOM     30  C   UNL A   1      42.050  25.927  25.801  1.00  0.00     0.338 C 
ATOM     31  O   UNL A   1      42.518  26.418  24.780  1.00  0.00    -0.246 OA
BRANCH  30  32
ATOM     32  C   UNL A   1      41.513  26.758  26.894  1.00  0.00     0.060 A 
ATOM     33  C   UNL A   1      41.895  28.104  26.914  1.00  0.00     0.016 A 
ATOM     34  C   UNL A   1      40.732  26.225  27.923  1.00  0.00     0.016 A 
ATOM     35  C   UNL A   1      41.564  28.908  28.002  1.00  0.00     0.010 A 
ATOM     36  C   UNL A   1      40.405  27.033  29.018  1.00  0.00     0.010 A 
ATOM     37  C   UNL A   1      40.860  28.363  29.083  1.00  0.00    -0.014 A 
BRANCH  37  38
ATOM     38  C   UNL A   1      40.771  29.137  30.346  1.00  0.00     0.031 A 
ATOM     39  C   UNL A   1      39.702  30.191  30.475  1.00  0.00     0.074 A 
ATOM     40  C   UNL A   1      41.581  28.866  31.385  1.00  0.00     0.049 A 
ATOM     41  N   UNL A   1      39.429  30.976  31.484  1.00  0.00    -0.248 NA
ATOM     42  C   UNL A   1      38.822  30.382  29.309  1.00  0.00     0.031 C 
ATOM     43  C   UNL A   1      42.617  27.835  31.403  1.00  0.00     0.029 A 
ATOM     44  N   UNL A   1      41.651  29.437  32.630  1.00  0.00    -0.354 N 
ATOM     45  C   UNL A   1      38.353  31.756  31.077  1.00  0.00     0.074 A 
ATOM     46  C   UNL A   1      38.042  31.373  29.717  1.00  0.00     0.031 C 
ATOM     47  C   UNL A   1      43.221  27.846  32.604  1.00  0.00     0.029 A 
ATOM     48  C   UNL A   1      42.634  28.902  33.428  1.00  0.00     0.049 A 
ATOM     49  H   UNL A   1      41.053  30.161  32.925  1.00  0.00     0.167 HD
ATOM     50  C   UNL A   1      37.676  32.701  31.774  1.00  0.00     0.031 A 
ATOM     51  C   UNL A   1      43.026  29.235  34.673  1.00  0.00     0.031 A 
ATOM     52  C   UNL A   1      37.992  33.088  33.123  1.00  0.00     0.049 A 
ATOM     53  C   UNL A   1      42.306  30.340  35.403  1.00  0.00     0.074 A 
ATOM     54  C   UNL A   1      37.366  34.035  33.915  1.00  0.00     0.029 A 
ATOM     55  N   UNL A   1      39.023  32.553  33.879  1.00  0.00    -0.354 N 
ATOM     56  N   UNL A   1      41.284  31.062  35.007  1.00  0.00    -0.248 NA
ATOM     57  C   UNL A   1      42.785  30.667  36.753  1.00  0.00     0.031 C 
ATOM     58  C   UNL A   1      38.051  34.107  35.132  1.00  0.00     0.029 A 
ATOM     59  C   UNL A   1      39.067  33.164  35.120  1.00  0.00     0.049 A 
ATOM     60  H   UNL A   1      39.636  31.843  33.576  1.00  0.00     0.167 HD
ATOM     61  C   UNL A   1      40.980  31.906  36.071  1.00  0.00     0.074 A 
ATOM     62  C   UNL A   1      41.919  31.597  37.130  1.00  0.00     0.031 C 
ATOM     63  C   UNL A   1      40.006  32.844  36.165  1.00  0.00     0.031 A 
BRANCH  50  64
ATOM     64  C   UNL A   1      36.547  33.405  31.069  1.00  0.00    -0.014 A 
ATOM     65  C   UNL A   1      36.766  34.129  29.883  1.00  0.00     0.010 A 
ATOM     66  C   UNL A   1      35.244  33.324  31.591  1.00  0.00     0.010 A 
ATOM     67  C   UNL A   1      35.708  34.791  29.254  1.00  0.00     0.020 A 
ATOM     68  C   UNL A   1      34.178  33.963  30.950  1.00  0.00     0.020 A 
ATOM     69  C   UNL A   1      34.421  34.708  29.795  1.00  0.00     0.054 A 
BRANCH  69  70
ATOM     70  S   UNL A   1      33.064  35.569  28.954  1.00  0.00     0.124 S 
ATOM     71  O   UNL A   1      32.414  34.476  28.235  1.00  0.00    -0.237 OA
ATOM     72  O   UNL A   1      32.301  36.131  30.065  1.00  0.00    -0.237 OA
ATOM     73  O   UNL A   1      33.746  36.549  28.112  1.00  0.00    -0.744 OA
ENDBRANCH  69  70
ENDBRANCH  50  64
BRANCH  51  74
ATOM     74  C   UNL A   1      44.166  28.521  35.309  1.00  0.00    -0.014 A 
ATOM     75  C   UNL A   1      45.487  28.968  35.125  1.00  0.00     0.010 A 
ATOM     76  C   UNL A   1      43.932  27.385  36.105  1.00  0.00     0.010 A 
ATOM     77  C   UNL A   1      46.554  28.282  35.715  1.00  0.00     0.020 A 
ATOM     78  C   UNL A   1      44.994  26.713  36.717  1.00  0.00     0.020 A 
ATOM     79  C   UNL A   1      46.299  27.160  36.509  1.00  0.00     0.054 A 
BRANCH  79  80
ATOM     80  S   UNL A   1      47.693  26.317  37.309  1.00  0.00     0.124 S 
ATOM     81  O   UNL A   1      48.840  27.007  36.729  1.00  0.00    -0.237 OA
ATOM     82  O   UNL A   1      47.448  26.576  38.726  1.00  0.00    -0.237 OA
ATOM     83  O   UNL A   1      47.528  24.923  36.902  1.00  0.00    -0.744 OA
ENDBRANCH  79  80
ENDBRANCH  51  74
BRANCH  63  84
ATOM     84  C   UNL A   1      39.873  33.580  37.472  1.00  0.00    -0.014 A 
ATOM     85  C   UNL A   1      39.050  33.097  38.505  1.00  0.00     0.010 A 
ATOM     86  C   UNL A   1      40.630  34.746  37.690  1.00  0.00     0.010 A 
ATOM     87  C   UNL A   1      38.962  33.786  39.719  1.00  0.00     0.020 A 
ATOM     88  C   UNL A   1      40.566  35.422  38.910  1.00  0.00     0.020 A 
ATOM     89  C   UNL A   1      39.720  34.945  39.913  1.00  0.00     0.054 A 
BRANCH  89  90
ATOM     90  S   UNL A   1      39.620  35.799  41.510  1.00  0.00     0.124 S 
ATOM     91  O   UNL A   1      38.200  35.681  41.830  1.00  0.00    -0.237 OA
ATOM     92  O   UNL A   1      40.522  35.015  42.351  1.00  0.00    -0.237 OA
ATOM     93  O   UNL A   1      40.080  37.153  41.208  1.00  0.00    -0.744 OA
ENDBRANCH  89  90
ENDBRANCH  63  84
ENDBRANCH  37  38
ENDBRANCH  30  32
ENDBRANCH  29  30
ENDBRANCH  28  29
ENDBRANCH  27  28
ENDBRANCH  26  27
ENDBRANCH   1  26
TORSDOF 24
ENDMDL
MODEL 3
REMARK VINA RESULT:      -9.0      2.780      4.153
REMARK SMILES CCN(CC)C(=O)/C(C#N)=C\c1ccc(O[C@H](C)C(=O)OCCOCCOC(=O)c2ccc(-c3c4nc(c(-c5ccc(S(=O)(=O)[O-])cc5)c5ccc([nH]5)c(-c5ccc(S(=O)(=O)[O-])cc5)c5nc(c(-c6ccc(S(=O)(=O)[O-])cc6)c6ccc3[nH]6)C=C5)C=C4)cc2)cc1
REMARK SMILES IDX 23 1 22 2 21 3 19 4 20 5 17 6 18 7 16 8 15 9 12 10 13 11
REMARK SMILES IDX 91 12 14 13 90 14 11 15 8 16 6 17 3 18 7 19 2 20 1 21 4 22
REMARK SMILES IDX 5 23 9 24 10 25 24 26 25 27 26 28 27 29 28 30 29 31 30 32
REMARK SMILES IDX 31 33 89 34 32 35 88 36 33 37 34 38 35 39 82 40 36 41 87 42
REMARK SMILES IDX 81 43 83 44 37 45 86 46 80 47 79 48 38 50 68 51 49 52 67 53
REMARK SMILES IDX 50 54 53 55 66 56 84 57 51 58 52 59 65 61 85 62 54 63 39 64
REMARK SMILES IDX 40 65 48 66 41 67 47 68 42 69 43 70 44 71 45 72 46 73 69 74
REMARK SMILES IDX 70 75 78 76 71 77 77 78 72 79 73 80 74 81 75 82 76 83 55 84
REMARK SMILES IDX 56 85 64 86 57 87 63 88 58 89 59 90 60 91 61 92 62 93
REMARK H PARENT 83 49 53 60
REMARK Flexibility Score: inf
ROOT
ATOM      1  C   UNL A   1      44.152  19.488  25.317  1.00  0.00     0.202 C 
ENDROOT
BRANCH   1   2
ATOM      2  C   UNL A   1      45.390  20.365  25.111  1.00  0.00     0.261 C 
BRANCH   2   3
ATOM      3  O   UNL A   1      45.136  21.741  25.445  1.00  0.00    -0.461 OA
BRANCH   3   4
ATOM      4  C   UNL A   1      44.861  22.568  24.396  1.00  0.00     0.347 C 
ATOM      5  O   UNL A   1      44.423  22.206  23.310  1.00  0.00    -0.248 OA
BRANCH   4   6
ATOM      6  C   UNL A   1      45.140  24.026  24.737  1.00  0.00     0.279 C 
ATOM      7  C   UNL A   1      43.881  24.804  25.087  1.00  0.00     0.066 C 
BRANCH   6   8
ATOM      8  O   UNL A   1      46.277  24.027  25.582  1.00  0.00    -0.479 OA
BRANCH   8   9
ATOM      9  C   UNL A   1      46.902  25.058  26.189  1.00  0.00     0.120 A 
ATOM     10  C   UNL A   1      48.224  27.420  26.898  1.00  0.00    -0.024 A 
ATOM     11  C   UNL A   1      47.249  26.883  27.736  1.00  0.00     0.012 A 
ATOM     12  C   UNL A   1      48.638  26.707  25.774  1.00  0.00     0.012 A 
ATOM     13  C   UNL A   1      46.594  25.698  27.382  1.00  0.00     0.047 A 
ATOM     14  C   UNL A   1      47.962  25.545  25.418  1.00  0.00     0.047 A 
BRANCH  10  15
ATOM     15  C   UNL A   1      48.708  28.774  27.135  1.00  0.00     0.033 C 
ATOM     16  C   UNL A   1      47.978  29.886  26.914  1.00  0.00     0.117 C 
BRANCH  16  17
ATOM     17  C   UNL A   1      46.548  29.910  26.393  1.00  0.00     0.264 C 
ATOM     18  N   UNL A   1      45.457  30.241  27.210  1.00  0.00    -0.339 N 
ATOM     19  O   UNL A   1      46.345  29.663  25.200  1.00  0.00    -0.268 OA
BRANCH  18  20
ATOM     20  C   UNL A   1      44.220  30.640  26.529  1.00  0.00     0.116 C 
ATOM     21  C   UNL A   1      43.101  29.646  26.816  1.00  0.00     0.027 C 
ENDBRANCH  18  20
BRANCH  18  22
ATOM     22  C   UNL A   1      45.358  30.187  28.675  1.00  0.00     0.116 C 
ATOM     23  C   UNL A   1      44.948  31.542  29.242  1.00  0.00     0.027 C 
ENDBRANCH  18  22
ENDBRANCH  16  17
BRANCH  16  24
ATOM     24  C   UNL A   1      48.669  31.219  27.154  1.00  0.00     0.105 C 
ATOM     25  N   UNL A   1      49.242  32.325  27.354  1.00  0.00    -0.192 NA
ENDBRANCH  16  24
ENDBRANCH  10  15
ENDBRANCH   8   9
ENDBRANCH   6   8
ENDBRANCH   4   6
ENDBRANCH   3   4
ENDBRANCH   2   3
ENDBRANCH   1   2
BRANCH   1  26
ATOM     26  O   UNL A   1      42.882  20.138  25.235  1.00  0.00    -0.374 OA
BRANCH  26  27
ATOM     27  C   UNL A   1      42.068  20.117  26.404  1.00  0.00     0.202 C 
BRANCH  27  28
ATOM     28  C   UNL A   1      41.640  21.470  26.984  1.00  0.00     0.261 C 
BRANCH  28  29
ATOM     29  O   UNL A   1      41.171  22.378  25.973  1.00  0.00    -0.460 OA
BRANCH  29  30
ATOM     30  C   UNL A   1      39.888  22.777  26.143  1.00  0.00     0.338 C 
ATOM     31  O   UNL A   1      38.878  22.129  25.891  1.00  0.00    -0.246 OA
BRANCH  30  32
ATOM     32  C   UNL A   1      39.832  24.069  26.851  1.00  0.00     0.060 A 
ATOM     33  C   UNL A   1      40.588  25.120  26.316  1.00  0.00     0.016 A 
ATOM     34  C   UNL A   1      39.137  24.233  28.051  1.00  0.00     0.016 A 
ATOM     35  C   UNL A   1      40.716  26.315  27.018  1.00  0.00     0.010 A 
ATOM     36  C   UNL A   1      39.271  25.434  28.758  1.00  0.00     0.010 A 
ATOM     37  C   UNL A   1      40.099  26.461  28.267  1.00  0.00    -0.014 A 
BRANCH  37  38
ATOM     38  C   UNL A   1      40.478  27.610  29.125  1.00  0.00     0.031 A 
ATOM     39  C   UNL A   1      41.816  27.587  29.817  1.00  0.00     0.074 A 
ATOM     40  C   UNL A   1      39.677  28.685  29.239  1.00  0.00     0.049 A 
ATOM     41  N   UNL A   1      42.360  28.483  30.600  1.00  0.00    -0.248 NA
ATOM     42  C   UNL A   1      42.653  26.397  29.592  1.00  0.00     0.031 C 
ATOM     43  C   UNL A   1      38.384  28.850  28.576  1.00  0.00     0.029 A 
ATOM     44  N   UNL A   1      39.842  29.846  29.950  1.00  0.00    -0.354 N 
ATOM     45  C   UNL A   1      43.597  27.964  30.966  1.00  0.00     0.074 A 
ATOM     46  C   UNL A   1      43.711  26.662  30.345  1.00  0.00     0.031 C 
ATOM     47  C   UNL A   1      37.873  30.047  28.913  1.00  0.00     0.029 A 
ATOM     48  C   UNL A   1      38.787  30.718  29.836  1.00  0.00     0.049 A 
ATOM     49  H   UNL A   1      40.643  30.036  30.492  1.00  0.00     0.167 HD
ATOM     50  C   UNL A   1      44.557  28.523  31.741  1.00  0.00     0.031 A 
ATOM     51  C   UNL A   1      38.575  31.914  30.420  1.00  0.00     0.031 A 
ATOM     52  C   UNL A   1      44.439  29.814  32.365  1.00  0.00     0.049 A 
ATOM     53  C   UNL A   1      39.625  32.485  31.338  1.00  0.00     0.074 A 
ATOM     54  C   UNL A   1      45.356  30.467  33.170  1.00  0.00     0.029 A 
ATOM     55  N   UNL A   1      43.335  30.645  32.261  1.00  0.00    -0.354 N 
ATOM     56  N   UNL A   1      40.794  31.985  31.666  1.00  0.00    -0.248 NA
ATOM     57  C   UNL A   1      39.333  33.786  31.955  1.00  0.00     0.031 C 
ATOM     58  C   UNL A   1      44.785  31.673  33.592  1.00  0.00     0.029 A 
ATOM     59  C   UNL A   1      43.537  31.796  33.002  1.00  0.00     0.049 A 
ATOM     60  H   UNL A   1      42.525  30.445  31.737  1.00  0.00     0.167 HD
ATOM     61  C   UNL A   1      41.387  32.926  32.502  1.00  0.00     0.074 A 
ATOM     62  C   UNL A   1      40.453  34.027  32.621  1.00  0.00     0.031 C 
ATOM     63  C   UNL A   1      42.599  32.884  33.109  1.00  0.00     0.031 A 
BRANCH  50  64
ATOM     64  C   UNL A   1      45.807  27.719  31.983  1.00  0.00    -0.014 A 
ATOM     65  C   UNL A   1      46.922  27.828  31.133  1.00  0.00     0.010 A 
ATOM     66  C   UNL A   1      45.874  26.856  33.093  1.00  0.00     0.010 A 
ATOM     67  C   UNL A   1      48.066  27.060  31.364  1.00  0.00     0.020 A 
ATOM     68  C   UNL A   1      47.027  26.106  33.343  1.00  0.00     0.020 A 
ATOM     69  C   UNL A   1      48.109  26.199  32.466  1.00  0.00     0.054 A 
BRANCH  69  70
ATOM     70  S   UNL A   1      49.610  25.220  32.750  1.00  0.00     0.124 S 
ATOM     71  O   UNL A   1      50.426  26.142  33.535  1.00  0.00    -0.237 OA
ATOM     72  O   UNL A   1      49.103  24.058  33.473  1.00  0.00    -0.237 OA
ATOM     73  O   UNL A   1      50.103  24.946  31.402  1.00  0.00    -0.744 OA
ENDBRANCH  69  70
ENDBRANCH  50  64
BRANCH  51  74
ATOM     74  C   UNL A   1      37.307  32.650  30.165  1.00  0.00    -0.014 A 
ATOM     75  C   UNL A   1      36.141  32.352  30.892  1.00  0.00     0.010 A 
ATOM     76  C   UNL A   1      37.263  33.660  29.185  1.00  0.00     0.010 A 
ATOM     77  C   UNL A   1      34.951  33.040  30.635  1.00  0.00     0.020 A 
ATOM     78  C   UNL A   1      36.082  34.368  28.944  1.00  0.00     0.020 A 
ATOM     79  C   UNL A   1      34.931  34.046  29.663  1.00  0.00     0.054 A 
BRANCH  79  80
ATOM     80  S   UNL A   1      33.391  34.963  29.383  1.00  0.00     0.124 S 
ATOM     81  O   UNL A   1      32.581  33.986  28.662  1.00  0.00    -0.237 OA
ATOM     82  O   UNL A   1      32.952  35.268  30.743  1.00  0.00    -0.237 OA
ATOM     83  O   UNL A   1      33.820  36.121  28.601  1.00  0.00    -0.744 OA
ENDBRANCH  79  80
ENDBRANCH  51  74
BRANCH  63  84
ATOM     84  C   UNL A   1      43.010  34.083  33.924  1.00  0.00    -0.014 A 
ATOM     85  C   UNL A   1      43.644  35.189  33.332  1.00  0.00     0.010 A 
ATOM     86  C   UNL A   1      42.704  34.123  35.297  1.00  0.00     0.010 A 
ATOM     87  C   UNL A   1      43.995  36.300  34.106  1.00  0.00     0.020 A 
ATOM     88  C   UNL A   1      43.027  35.242  36.068  1.00  0.00     0.020 A 
ATOM     89  C   UNL A   1      43.684  36.318  35.469  1.00  0.00     0.054 A 
BRANCH  89  90
ATOM     90  S   UNL A   1      44.112  37.787  36.445  1.00  0.00     0.124 S 
ATOM     91  O   UNL A   1      43.913  38.863  35.479  1.00  0.00    -0.237 OA
ATOM     92  O   UNL A   1      43.146  37.738  37.540  1.00  0.00    -0.237 OA
ATOM     93  O   UNL A   1      45.500  37.550  36.837  1.00  0.00    -0.744 OA
ENDBRANCH  89  90
ENDBRANCH  63  84
ENDBRANCH  37  38
ENDBRANCH  30  32
ENDBRANCH  29  30
ENDBRANCH  28  29
ENDBRANCH  27  28
ENDBRANCH  26  27
ENDBRANCH   1  26
TORSDOF 24
ENDMDL
