MODEL 1
REMARK VINA RESULT:      -9.7      0.000      0.000
REMARK SMILES Cc1cscc1-c1noc(SCC(=O)OCCOCCOC(=O)c2ccc(-c3c4nc(c(-c5ccc(S(=O)(=O)[O-])cc5)c5ccc([nH]5)c(-c5ccc(S(=O)(=O)[O-])cc5)c5nc(c(-c6ccc(S(=O)(=O)[O-])cc6)c6ccc3[nH]6)C=C5)C=C4)cc2)n1
REMARK SMILES IDX 18 1 17 2 16 3 15 4 13 5 14 6 12 7 11 8 10 9 7 10 8 11 84 12
REMARK SMILES IDX 9 13 6 14 1 15 2 16 3 17 4 18 5 19 19 20 20 21 21 22 22 23
REMARK SMILES IDX 23 24 24 25 25 26 83 27 26 28 82 29 27 30 28 31 29 32 76 33
REMARK SMILES IDX 30 34 81 35 75 36 77 37 31 38 80 39 74 40 73 41 32 43 62 44
REMARK SMILES IDX 43 45 61 46 44 47 47 48 60 49 78 50 45 51 46 52 59 54 79 55
REMARK SMILES IDX 48 56 33 57 34 58 42 59 35 60 41 61 36 62 37 63 38 64 39 65
REMARK SMILES IDX 40 66 63 67 64 68 72 69 65 70 71 71 66 72 67 73 68 74 69 75
REMARK SMILES IDX 70 76 49 77 50 78 58 79 51 80 57 81 52 82 53 83 54 84 55 85
REMARK SMILES IDX 56 86
REMARK H PARENT 77 42 47 53
REMARK Flexibility Score: inf
ROOT
ATOM      1  O   UNL A   1      33.125  30.789  27.433  1.00  0.00    -0.374 OA
ENDROOT
BRANCH   1   2
ATOM      2  C   UNL A   1      32.911  29.779  26.456  1.00  0.00     0.202 C 
BRANCH   2   3
ATOM      3  C   UNL A   1      31.575  29.753  25.685  1.00  0.00     0.261 C 
BRANCH   3   4
ATOM      4  O   UNL A   1      31.695  29.658  24.244  1.00  0.00    -0.463 OA
BRANCH   4   5
ATOM      5  C   UNL A   1      30.839  28.792  23.634  1.00  0.00     0.316 C 
ATOM      6  O   UNL A   1      29.614  28.885  23.706  1.00  0.00    -0.251 OA
BRANCH   5   7
ATOM      7  C   UNL A   1      31.462  27.730  22.741  1.00  0.00     0.202 C 
BRANCH   7   8
ATOM      8  S   UNL A   1      33.249  27.632  22.613  1.00  0.00    -0.053 SA
BRANCH   8   9
ATOM      9  C   UNL A   1      33.669  25.924  22.567  1.00  0.00     0.286 A 
ATOM     10  C   UNL A   1      33.847  23.854  23.006  1.00  0.00     0.204 A 
ATOM     11  N   UNL A   1      33.686  23.880  21.677  1.00  0.00    -0.056 NA
ATOM     12  N   UNL A   1      33.907  25.117  23.589  1.00  0.00    -0.181 NA
ATOM     13  O   UNL A   1      33.552  25.232  21.387  1.00  0.00    -0.327 OA
BRANCH  10  14
ATOM     14  C   UNL A   1      34.195  22.603  23.718  1.00  0.00     0.036 A 
ATOM     15  C   UNL A   1      36.793  22.882  24.344  1.00  0.00     0.046 C 
ATOM     16  C   UNL A   1      35.472  22.180  24.277  1.00  0.00    -0.029 A 
ATOM     17  C   UNL A   1      35.348  20.932  24.871  1.00  0.00     0.069 A 
ATOM     18  S   UNL A   1      33.754  20.343  24.895  1.00  0.00    -0.151 S 
ATOM     19  C   UNL A   1      33.190  21.716  24.062  1.00  0.00     0.077 A 
ENDBRANCH  10  14
ENDBRANCH   8   9
ENDBRANCH   7   8
ENDBRANCH   5   7
ENDBRANCH   4   5
ENDBRANCH   3   4
ENDBRANCH   2   3
ENDBRANCH   1   2
BRANCH   1  20
ATOM     20  C   UNL A   1      34.458  31.214  27.646  1.00  0.00     0.202 C 
BRANCH  20  21
ATOM     21  C   UNL A   1      34.950  31.482  29.074  1.00  0.00     0.261 C 
BRANCH  21  22
ATOM     22  O   UNL A   1      36.329  31.365  29.322  1.00  0.00    -0.460 OA
BRANCH  22  23
ATOM     23  C   UNL A   1      36.674  30.318  30.087  1.00  0.00     0.338 C 
ATOM     24  O   UNL A   1      36.029  29.728  30.934  1.00  0.00    -0.246 OA
BRANCH  23  25
ATOM     25  C   UNL A   1      38.031  30.018  29.664  1.00  0.00     0.060 A 
ATOM     26  C   UNL A   1      38.275  29.883  28.300  1.00  0.00     0.016 A 
ATOM     27  C   UNL A   1      39.048  29.962  30.625  1.00  0.00     0.016 A 
ATOM     28  C   UNL A   1      39.569  29.625  27.888  1.00  0.00     0.010 A 
ATOM     29  C   UNL A   1      40.345  29.723  30.206  1.00  0.00     0.010 A 
ATOM     30  C   UNL A   1      40.594  29.516  28.842  1.00  0.00    -0.014 A 
BRANCH  30  31
ATOM     31  C   UNL A   1      41.916  29.047  28.406  1.00  0.00     0.031 A 
ATOM     32  C   UNL A   1      43.040  30.035  28.363  1.00  0.00     0.074 A 
ATOM     33  C   UNL A   1      42.084  27.749  28.108  1.00  0.00     0.049 A 
ATOM     34  N   UNL A   1      44.294  29.839  28.064  1.00  0.00    -0.248 NA
ATOM     35  C   UNL A   1      42.709  31.432  28.701  1.00  0.00     0.031 C 
ATOM     36  C   UNL A   1      41.031  26.732  28.145  1.00  0.00     0.029 A 
ATOM     37  N   UNL A   1      43.203  27.066  27.728  1.00  0.00    -0.354 N 
ATOM     38  C   UNL A   1      44.901  31.083  28.170  1.00  0.00     0.074 A 
ATOM     39  C   UNL A   1      43.874  32.036  28.522  1.00  0.00     0.031 C 
ATOM     40  C   UNL A   1      41.563  25.544  27.815  1.00  0.00     0.029 A 
ATOM     41  C   UNL A   1      42.979  25.729  27.515  1.00  0.00     0.049 A 
ATOM     42  H   UNL A   1      44.084  27.489  27.618  1.00  0.00     0.167 HD
ATOM     43  C   UNL A   1      46.206  31.393  27.998  1.00  0.00     0.031 A 
ATOM     44  C   UNL A   1      43.830  24.769  27.111  1.00  0.00     0.031 A 
ATOM     45  C   UNL A   1      47.199  30.421  27.629  1.00  0.00     0.049 A 
ATOM     46  C   UNL A   1      45.268  25.147  26.882  1.00  0.00     0.074 A 
ATOM     47  C   UNL A   1      48.556  30.604  27.438  1.00  0.00     0.029 A 
ATOM     48  N   UNL A   1      46.933  29.080  27.386  1.00  0.00    -0.354 N 
ATOM     49  N   UNL A   1      45.841  26.319  27.023  1.00  0.00    -0.248 NA
ATOM     50  C   UNL A   1      46.172  24.076  26.452  1.00  0.00     0.031 C 
ATOM     51  C   UNL A   1      49.100  29.384  27.021  1.00  0.00     0.029 A 
ATOM     52  C   UNL A   1      48.095  28.426  27.019  1.00  0.00     0.049 A 
ATOM     53  H   UNL A   1      46.048  28.656  27.465  1.00  0.00     0.167 HD
ATOM     54  C   UNL A   1      47.183  26.124  26.720  1.00  0.00     0.074 A 
ATOM     55  C   UNL A   1      47.334  24.716  26.406  1.00  0.00     0.031 C 
ATOM     56  C   UNL A   1      48.201  27.022  26.703  1.00  0.00     0.031 A 
BRANCH  43  57
ATOM     57  C   UNL A   1      46.606  32.835  28.163  1.00  0.00    -0.014 A 
ATOM     58  C   UNL A   1      46.596  33.729  27.076  1.00  0.00     0.010 A 
ATOM     59  C   UNL A   1      46.994  33.305  29.430  1.00  0.00     0.010 A 
ATOM     60  C   UNL A   1      47.009  35.054  27.245  1.00  0.00     0.020 A 
ATOM     61  C   UNL A   1      47.378  34.637  29.610  1.00  0.00     0.020 A 
ATOM     62  C   UNL A   1      47.400  35.499  28.511  1.00  0.00     0.054 A 
BRANCH  62  63
ATOM     63  S   UNL A   1      47.916  37.227  28.706  1.00  0.00     0.124 S 
ATOM     64  O   UNL A   1      49.144  37.266  27.917  1.00  0.00    -0.237 OA
ATOM     65  O   UNL A   1      46.786  37.963  28.145  1.00  0.00    -0.237 OA
ATOM     66  O   UNL A   1      48.098  37.375  30.149  1.00  0.00    -0.744 OA
ENDBRANCH  62  63
ENDBRANCH  43  57
BRANCH  44  67
ATOM     67  C   UNL A   1      43.334  23.383  26.906  1.00  0.00    -0.014 A 
ATOM     68  C   UNL A   1      43.137  22.871  25.613  1.00  0.00     0.010 A 
ATOM     69  C   UNL A   1      43.100  22.547  28.016  1.00  0.00     0.010 A 
ATOM     70  C   UNL A   1      42.707  21.551  25.433  1.00  0.00     0.020 A 
ATOM     71  C   UNL A   1      42.698  21.222  27.839  1.00  0.00     0.020 A 
ATOM     72  C   UNL A   1      42.495  20.734  26.548  1.00  0.00     0.054 A 
BRANCH  72  73
ATOM     73  S   UNL A   1      42.000  19.009  26.287  1.00  0.00     0.124 S 
ATOM     74  O   UNL A   1      42.176  18.437  27.618  1.00  0.00    -0.237 OA
ATOM     75  O   UNL A   1      40.619  19.144  25.832  1.00  0.00    -0.237 OA
ATOM     76  O   UNL A   1      42.938  18.534  25.271  1.00  0.00    -0.744 OA
ENDBRANCH  72  73
ENDBRANCH  44  67
BRANCH  56  77
ATOM     77  C   UNL A   1      49.566  26.496  26.357  1.00  0.00    -0.014 A 
ATOM     78  C   UNL A   1      50.085  26.617  25.056  1.00  0.00     0.010 A 
ATOM     79  C   UNL A   1      50.361  25.924  27.367  1.00  0.00     0.010 A 
ATOM     80  C   UNL A   1      51.364  26.140  24.763  1.00  0.00     0.020 A 
ATOM     81  C   UNL A   1      51.652  25.477  27.086  1.00  0.00     0.020 A 
ATOM     82  C   UNL A   1      52.140  25.574  25.781  1.00  0.00     0.054 A 
BRANCH  82  83
ATOM     83  S   UNL A   1      53.812  25.002  25.384  1.00  0.00     0.124 S 
ATOM     84  O   UNL A   1      54.535  25.301  26.616  1.00  0.00    -0.237 OA
ATOM     85  O   UNL A   1      53.607  23.583  25.105  1.00  0.00    -0.237 OA
ATOM     86  O   UNL A   1      54.191  25.811  24.226  1.00  0.00    -0.744 OA
ENDBRANCH  82  83
ENDBRANCH  56  77
ENDBRANCH  30  31
ENDBRANCH  23  25
ENDBRANCH  22  23
ENDBRANCH  21  22
ENDBRANCH  20  21
ENDBRANCH   1  20
TORSDOF 20
ENDMDL
MODEL 2
REMARK VINA RESULT:      -9.5      2.020      3.581
REMARK SMILES Cc1cscc1-c1noc(SCC(=O)OCCOCCOC(=O)c2ccc(-c3c4nc(c(-c5ccc(S(=O)(=O)[O-])cc5)c5ccc([nH]5)c(-c5ccc(S(=O)(=O)[O-])cc5)c5nc(c(-c6ccc(S(=O)(=O)[O-])cc6)c6ccc3[nH]6)C=C5)C=C4)cc2)n1
REMARK SMILES IDX 18 1 17 2 16 3 15 4 13 5 14 6 12 7 11 8 10 9 7 10 8 11 84 12
REMARK SMILES IDX 9 13 6 14 1 15 2 16 3 17 4 18 5 19 19 20 20 21 21 22 22 23
REMARK SMILES IDX 23 24 24 25 25 26 83 27 26 28 82 29 27 30 28 31 29 32 76 33
REMARK SMILES IDX 30 34 81 35 75 36 77 37 31 38 80 39 74 40 73 41 32 43 62 44
REMARK SMILES IDX 43 45 61 46 44 47 47 48 60 49 78 50 45 51 46 52 59 54 79 55
REMARK SMILES IDX 48 56 33 57 34 58 42 59 35 60 41 61 36 62 37 63 38 64 39 65
REMARK SMILES IDX 40 66 63 67 64 68 72 69 65 70 71 71 66 72 67 73 68 74 69 75
REMARK SMILES IDX 70 76 49 77 50 78 58 79 51 80 57 81 52 82 53 83 54 84 55 85
REMARK SMILES IDX 56 86
REMARK H PARENT 77 42 47 53
REMARK Flexibility Score: inf
ROOT
ATOM      1  O   UNL A   1      33.441  31.223  27.430  1.00  0.00    -0.374 OA
ENDROOT
BRANCH   1   2
ATOM      2  C   UNL A   1      33.074  29.881  27.135  1.00  0.00     0.202 C 
BRANCH   2   3
ATOM      3  C   UNL A   1      33.942  29.065  26.156  1.00  0.00     0.261 C 
BRANCH   3   4
ATOM      4  O   UNL A   1      33.238  28.524  25.011  1.00  0.00    -0.463 OA
BRANCH   4   5
ATOM      5  C   UNL A   1      33.180  27.164  24.940  1.00  0.00     0.316 C 
ATOM      6  O   UNL A   1      34.013  26.479  24.348  1.00  0.00    -0.251 OA
BRANCH   5   7
ATOM      7  C   UNL A   1      32.074  26.486  25.733  1.00  0.00     0.202 C 
BRANCH   7   8
ATOM      8  S   UNL A   1      30.612  25.899  24.874  1.00  0.00    -0.053 SA
BRANCH   8   9
ATOM      9  C   UNL A   1      30.152  27.150  23.726  1.00  0.00     0.286 A 
ATOM     10  C   UNL A   1      29.767  29.015  22.786  1.00  0.00     0.204 A 
ATOM     11  N   UNL A   1      30.308  28.278  21.809  1.00  0.00    -0.056 NA
ATOM     12  N   UNL A   1      29.594  28.324  23.981  1.00  0.00    -0.181 NA
ATOM     13  O   UNL A   1      30.578  27.061  22.424  1.00  0.00    -0.327 OA
BRANCH  10  14
ATOM     14  C   UNL A   1      29.176  30.345  22.512  1.00  0.00     0.036 A 
ATOM     15  C   UNL A   1      29.779  31.811  24.682  1.00  0.00     0.046 C 
ATOM     16  C   UNL A   1      29.168  31.543  23.342  1.00  0.00    -0.029 A 
ATOM     17  C   UNL A   1      28.508  32.576  22.690  1.00  0.00     0.069 A 
ATOM     18  S   UNL A   1      28.039  32.191  21.102  1.00  0.00    -0.151 S 
ATOM     19  C   UNL A   1      28.658  30.613  21.257  1.00  0.00     0.077 A 
ENDBRANCH  10  14
ENDBRANCH   8   9
ENDBRANCH   7   8
ENDBRANCH   5   7
ENDBRANCH   4   5
ENDBRANCH   3   4
ENDBRANCH   2   3
ENDBRANCH   1   2
BRANCH   1  20
ATOM     20  C   UNL A   1      34.804  31.477  27.709  1.00  0.00     0.202 C 
BRANCH  20  21
ATOM     21  C   UNL A   1      35.403  31.020  29.045  1.00  0.00     0.261 C 
BRANCH  21  22
ATOM     22  O   UNL A   1      36.072  29.783  29.072  1.00  0.00    -0.460 OA
BRANCH  22  23
ATOM     23  C   UNL A   1      36.729  29.527  30.214  1.00  0.00     0.338 C 
ATOM     24  O   UNL A   1      36.310  29.459  31.354  1.00  0.00    -0.246 OA
BRANCH  23  25
ATOM     25  C   UNL A   1      38.101  29.326  29.780  1.00  0.00     0.060 A 
ATOM     26  C   UNL A   1      38.375  29.415  28.418  1.00  0.00     0.016 A 
ATOM     27  C   UNL A   1      39.100  29.139  30.743  1.00  0.00     0.016 A 
ATOM     28  C   UNL A   1      39.683  29.252  28.001  1.00  0.00     0.010 A 
ATOM     29  C   UNL A   1      40.411  28.997  30.323  1.00  0.00     0.010 A 
ATOM     30  C   UNL A   1      40.691  29.014  28.949  1.00  0.00    -0.014 A 
BRANCH  30  31
ATOM     31  C   UNL A   1      42.032  28.648  28.475  1.00  0.00     0.031 A 
ATOM     32  C   UNL A   1      43.080  29.716  28.418  1.00  0.00     0.074 A 
ATOM     33  C   UNL A   1      42.287  27.370  28.155  1.00  0.00     0.049 A 
ATOM     34  N   UNL A   1      44.337  29.616  28.086  1.00  0.00    -0.248 NA
ATOM     35  C   UNL A   1      42.657  31.081  28.782  1.00  0.00     0.031 C 
ATOM     36  C   UNL A   1      41.312  26.279  28.205  1.00  0.00     0.029 A 
ATOM     37  N   UNL A   1      43.443  26.774  27.740  1.00  0.00    -0.354 N 
ATOM     38  C   UNL A   1      44.854  30.900  28.194  1.00  0.00     0.074 A 
ATOM     39  C   UNL A   1      43.770  31.771  28.583  1.00  0.00     0.031 C 
ATOM     40  C   UNL A   1      41.921  25.137  27.847  1.00  0.00     0.029 A 
ATOM     41  C   UNL A   1      43.311  25.427  27.514  1.00  0.00     0.049 A 
ATOM     42  H   UNL A   1      44.288  27.263  27.615  1.00  0.00     0.167 HD
ATOM     43  C   UNL A   1      46.129  31.306  27.994  1.00  0.00     0.031 A 
ATOM     44  C   UNL A   1      44.220  24.537  27.078  1.00  0.00     0.031 A 
ATOM     45  C   UNL A   1      47.180  30.414  27.588  1.00  0.00     0.049 A 
ATOM     46  C   UNL A   1      45.620  25.021  26.819  1.00  0.00     0.074 A 
ATOM     47  C   UNL A   1      48.515  30.698  27.367  1.00  0.00     0.029 A 
ATOM     48  N   UNL A   1      47.007  29.060  27.335  1.00  0.00    -0.354 N 
ATOM     49  N   UNL A   1      46.110  26.231  26.962  1.00  0.00    -0.248 NA
ATOM     50  C   UNL A   1      46.588  24.024  26.353  1.00  0.00     0.031 C 
ATOM     51  C   UNL A   1      49.135  29.525  26.921  1.00  0.00     0.029 A 
ATOM     52  C   UNL A   1      48.203  28.496  26.931  1.00  0.00     0.049 A 
ATOM     53  H   UNL A   1      46.157  28.572  27.430  1.00  0.00     0.167 HD
ATOM     54  C   UNL A   1      47.454  26.138  26.623  1.00  0.00     0.074 A 
ATOM     55  C   UNL A   1      47.699  24.748  26.288  1.00  0.00     0.031 C 
ATOM     56  C   UNL A   1      48.403  27.108  26.594  1.00  0.00     0.031 A 
BRANCH  43  57
ATOM     57  C   UNL A   1      46.426  32.771  28.169  1.00  0.00    -0.014 A 
ATOM     58  C   UNL A   1      46.308  33.677  27.099  1.00  0.00     0.010 A 
ATOM     59  C   UNL A   1      46.829  33.251  29.428  1.00  0.00     0.010 A 
ATOM     60  C   UNL A   1      46.627  35.027  27.275  1.00  0.00     0.020 A 
ATOM     61  C   UNL A   1      47.119  34.606  29.616  1.00  0.00     0.020 A 
ATOM     62  C   UNL A   1      47.034  35.482  28.532  1.00  0.00     0.054 A 
BRANCH  62  63
ATOM     63  S   UNL A   1      47.427  37.241  28.737  1.00  0.00     0.124 S 
ATOM     64  O   UNL A   1      47.175  37.765  27.396  1.00  0.00    -0.237 OA
ATOM     65  O   UNL A   1      46.479  37.663  29.764  1.00  0.00    -0.237 OA
ATOM     66  O   UNL A   1      48.829  37.238  29.150  1.00  0.00    -0.744 OA
ENDBRANCH  62  63
ENDBRANCH  43  57
BRANCH  44  67
ATOM     67  C   UNL A   1      43.821  23.120  26.867  1.00  0.00    -0.014 A 
ATOM     68  C   UNL A   1      43.009  22.453  27.798  1.00  0.00     0.010 A 
ATOM     69  C   UNL A   1      44.218  22.444  25.697  1.00  0.00     0.010 A 
ATOM     70  C   UNL A   1      42.608  21.132  27.568  1.00  0.00     0.020 A 
ATOM     71  C   UNL A   1      43.797  21.136  25.450  1.00  0.00     0.020 A 
ATOM     72  C   UNL A   1      43.001  20.484  26.393  1.00  0.00     0.054 A 
BRANCH  72  73
ATOM     73  S   UNL A   1      42.416  18.794  26.088  1.00  0.00     0.124 S 
ATOM     74  O   UNL A   1      42.656  18.152  27.375  1.00  0.00    -0.237 OA
ATOM     75  O   UNL A   1      41.014  19.007  25.736  1.00  0.00    -0.237 OA
ATOM     76  O   UNL A   1      43.262  18.333  24.988  1.00  0.00    -0.744 OA
ENDBRANCH  72  73
ENDBRANCH  44  67
BRANCH  56  77
ATOM     77  C   UNL A   1      49.794  26.687  26.209  1.00  0.00    -0.014 A 
ATOM     78  C   UNL A   1      50.260  26.834  24.890  1.00  0.00     0.010 A 
ATOM     79  C   UNL A   1      50.664  26.191  27.197  1.00  0.00     0.010 A 
ATOM     80  C   UNL A   1      51.563  26.456  24.560  1.00  0.00     0.020 A 
ATOM     81  C   UNL A   1      51.976  25.844  26.878  1.00  0.00     0.020 A 
ATOM     82  C   UNL A   1      52.413  25.964  25.556  1.00  0.00     0.054 A 
BRANCH  82  83
ATOM     83  S   UNL A   1      54.111  25.521  25.110  1.00  0.00     0.124 S 
ATOM     84  O   UNL A   1      54.877  26.116  26.201  1.00  0.00    -0.237 OA
ATOM     85  O   UNL A   1      54.069  24.060  25.097  1.00  0.00    -0.237 OA
ATOM     86  O   UNL A   1      54.302  26.144  23.802  1.00  0.00    -0.744 OA
ENDBRANCH  82  83
ENDBRANCH  56  77
ENDBRANCH  30  31
ENDBRANCH  23  25
ENDBRANCH  22  23
ENDBRANCH  21  22
ENDBRANCH  20  21
ENDBRANCH   1  20
TORSDOF 20
ENDMDL
MODEL 3
REMARK VINA RESULT:      -9.4      6.378     12.320
REMARK SMILES Cc1cscc1-c1noc(SCC(=O)OCCOCCOC(=O)c2ccc(-c3c4nc(c(-c5ccc(S(=O)(=O)[O-])cc5)c5ccc([nH]5)c(-c5ccc(S(=O)(=O)[O-])cc5)c5nc(c(-c6ccc(S(=O)(=O)[O-])cc6)c6ccc3[nH]6)C=C5)C=C4)cc2)n1
REMARK SMILES IDX 18 1 17 2 16 3 15 4 13 5 14 6 12 7 11 8 10 9 7 10 8 11 84 12
REMARK SMILES IDX 9 13 6 14 1 15 2 16 3 17 4 18 5 19 19 20 20 21 21 22 22 23
REMARK SMILES IDX 23 24 24 25 25 26 83 27 26 28 82 29 27 30 28 31 29 32 76 33
REMARK SMILES IDX 30 34 81 35 75 36 77 37 31 38 80 39 74 40 73 41 32 43 62 44
REMARK SMILES IDX 43 45 61 46 44 47 47 48 60 49 78 50 45 51 46 52 59 54 79 55
REMARK SMILES IDX 48 56 33 57 34 58 42 59 35 60 41 61 36 62 37 63 38 64 39 65
REMARK SMILES IDX 40 66 63 67 64 68 72 69 65 70 71 71 66 72 67 73 68 74 69 75
REMARK SMILES IDX 70 76 49 77 50 78 58 79 51 80 57 81 52 82 53 83 54 84 55 85
REMARK SMILES IDX 56 86
REMARK H PARENT 77 42 47 53
REMARK Flexibility Score: inf
ROOT
ATOM      1  O   UNL A   1      39.153  21.498  26.120  1.00  0.00    -0.374 OA
ENDROOT
BRANCH   1   2
ATOM      2  C   UNL A   1      37.990  22.211  25.720  1.00  0.00     0.202 C 
BRANCH   2   3
ATOM      3  C   UNL A   1      37.035  21.571  24.692  1.00  0.00     0.261 C 
BRANCH   3   4
ATOM      4  O   UNL A   1      36.101  20.605  25.236  1.00  0.00    -0.463 OA
BRANCH   4   5
ATOM      5  C   UNL A   1      34.891  21.102  25.619  1.00  0.00     0.316 C 
ATOM      6  O   UNL A   1      34.664  21.543  26.744  1.00  0.00    -0.251 OA
BRANCH   5   7
ATOM      7  C   UNL A   1      33.821  21.197  24.543  1.00  0.00     0.202 C 
BRANCH   7   8
ATOM      8  S   UNL A   1      32.293  22.068  24.901  1.00  0.00    -0.053 SA
BRANCH   8   9
ATOM      9  C   UNL A   1      32.547  23.753  24.466  1.00  0.00     0.286 A 
ATOM     10  C   UNL A   1      32.673  25.873  24.501  1.00  0.00     0.204 A 
ATOM     11  N   UNL A   1      33.771  25.505  23.832  1.00  0.00    -0.056 NA
ATOM     12  N   UNL A   1      31.849  24.809  24.858  1.00  0.00    -0.181 NA
ATOM     13  O   UNL A   1      33.703  24.117  23.821  1.00  0.00    -0.327 OA
BRANCH  10  14
ATOM     14  C   UNL A   1      32.268  27.294  24.600  1.00  0.00     0.036 A 
ATOM     15  C   UNL A   1      30.048  27.469  23.095  1.00  0.00     0.046 C 
ATOM     16  C   UNL A   1      31.144  27.982  23.976  1.00  0.00    -0.029 A 
ATOM     17  C   UNL A   1      31.131  29.319  24.350  1.00  0.00     0.069 A 
ATOM     18  S   UNL A   1      32.313  29.717  25.504  1.00  0.00    -0.151 S 
ATOM     19  C   UNL A   1      32.914  28.124  25.499  1.00  0.00     0.077 A 
ENDBRANCH  10  14
ENDBRANCH   8   9
ENDBRANCH   7   8
ENDBRANCH   5   7
ENDBRANCH   4   5
ENDBRANCH   3   4
ENDBRANCH   2   3
ENDBRANCH   1   2
BRANCH   1  20
ATOM     20  C   UNL A   1      40.113  22.199  26.886  1.00  0.00     0.202 C 
BRANCH  20  21
ATOM     21  C   UNL A   1      41.168  23.059  26.178  1.00  0.00     0.261 C 
BRANCH  21  22
ATOM     22  O   UNL A   1      41.679  24.170  26.873  1.00  0.00    -0.460 OA
BRANCH  22  23
ATOM     23  C   UNL A   1      41.318  25.360  26.368  1.00  0.00     0.338 C 
ATOM     24  O   UNL A   1      41.112  25.685  25.214  1.00  0.00    -0.246 OA
BRANCH  23  25
ATOM     25  C   UNL A   1      41.209  26.209  27.542  1.00  0.00     0.060 A 
ATOM     26  C   UNL A   1      40.172  25.959  28.436  1.00  0.00     0.016 A 
ATOM     27  C   UNL A   1      42.191  27.181  27.773  1.00  0.00     0.016 A 
ATOM     28  C   UNL A   1      40.078  26.746  29.569  1.00  0.00     0.010 A 
ATOM     29  C   UNL A   1      42.105  27.953  28.919  1.00  0.00     0.010 A 
ATOM     30  C   UNL A   1      41.025  27.758  29.792  1.00  0.00    -0.014 A 
BRANCH  30  31
ATOM     31  C   UNL A   1      40.797  28.707  30.890  1.00  0.00     0.031 A 
ATOM     32  C   UNL A   1      41.678  28.620  32.098  1.00  0.00     0.074 A 
ATOM     33  C   UNL A   1      39.846  29.644  30.758  1.00  0.00     0.049 A 
ATOM     34  N   UNL A   1      41.695  29.379  33.158  1.00  0.00    -0.248 NA
ATOM     35  C   UNL A   1      42.671  27.530  32.117  1.00  0.00     0.031 C 
ATOM     36  C   UNL A   1      38.964  29.792  29.598  1.00  0.00     0.029 A 
ATOM     37  N   UNL A   1      39.473  30.653  31.599  1.00  0.00    -0.354 N 
ATOM     38  C   UNL A   1      42.693  28.859  33.971  1.00  0.00     0.074 A 
ATOM     39  C   UNL A   1      43.233  27.697  33.305  1.00  0.00     0.031 C 
ATOM     40  C   UNL A   1      38.159  30.848  29.797  1.00  0.00     0.029 A 
ATOM     41  C   UNL A   1      38.449  31.422  31.106  1.00  0.00     0.049 A 
ATOM     42  H   UNL A   1      39.896  30.813  32.472  1.00  0.00     0.167 HD
ATOM     43  C   UNL A   1      43.123  29.325  35.166  1.00  0.00     0.031 A 
ATOM     44  C   UNL A   1      37.817  32.470  31.665  1.00  0.00     0.031 A 
ATOM     45  C   UNL A   1      42.550  30.475  35.810  1.00  0.00     0.049 A 
ATOM     46  C   UNL A   1      38.283  32.941  33.015  1.00  0.00     0.074 A 
ATOM     47  C   UNL A   1      42.905  31.056  37.013  1.00  0.00     0.029 A 
ATOM     48  N   UNL A   1      41.490  31.213  35.301  1.00  0.00    -0.354 N 
ATOM     49  N   UNL A   1      39.254  32.467  33.760  1.00  0.00    -0.248 NA
ATOM     50  C   UNL A   1      37.579  34.091  33.592  1.00  0.00     0.031 C 
ATOM     51  C   UNL A   1      42.018  32.111  37.259  1.00  0.00     0.029 A 
ATOM     52  C   UNL A   1      41.156  32.230  36.177  1.00  0.00     0.049 A 
ATOM     53  H   UNL A   1      41.042  31.040  34.441  1.00  0.00     0.167 HD
ATOM     54  C   UNL A   1      39.294  33.276  34.889  1.00  0.00     0.074 A 
ATOM     55  C   UNL A   1      38.260  34.278  34.716  1.00  0.00     0.031 C 
ATOM     56  C   UNL A   1      40.110  33.202  35.972  1.00  0.00     0.031 A 
BRANCH  43  57
ATOM     57  C   UNL A   1      44.223  28.562  35.854  1.00  0.00    -0.014 A 
ATOM     58  C   UNL A   1      43.944  27.594  36.836  1.00  0.00     0.010 A 
ATOM     59  C   UNL A   1      45.563  28.816  35.508  1.00  0.00     0.010 A 
ATOM     60  C   UNL A   1      44.984  26.926  37.489  1.00  0.00     0.020 A 
ATOM     61  C   UNL A   1      46.605  28.128  36.137  1.00  0.00     0.020 A 
ATOM     62  C   UNL A   1      46.308  27.199  37.137  1.00  0.00     0.054 A 
BRANCH  62  63
ATOM     63  S   UNL A   1      47.638  26.307  37.989  1.00  0.00     0.124 S 
ATOM     64  O   UNL A   1      47.896  27.174  39.137  1.00  0.00    -0.237 OA
ATOM     65  O   UNL A   1      47.015  25.024  38.299  1.00  0.00    -0.237 OA
ATOM     66  O   UNL A   1      48.711  26.252  36.998  1.00  0.00    -0.744 OA
ENDBRANCH  62  63
ENDBRANCH  43  57
BRANCH  44  67
ATOM     67  C   UNL A   1      36.692  33.122  30.944  1.00  0.00    -0.014 A 
ATOM     68  C   UNL A   1      35.422  33.227  31.533  1.00  0.00     0.010 A 
ATOM     69  C   UNL A   1      36.905  33.686  29.671  1.00  0.00     0.010 A 
ATOM     70  C   UNL A   1      34.382  33.877  30.860  1.00  0.00     0.020 A 
ATOM     71  C   UNL A   1      35.877  34.360  29.009  1.00  0.00     0.020 A 
ATOM     72  C   UNL A   1      34.618  34.444  29.604  1.00  0.00     0.054 A 
BRANCH  72  73
ATOM     73  S   UNL A   1      33.272  35.338  28.779  1.00  0.00     0.124 S 
ATOM     74  O   UNL A   1      34.001  36.310  27.973  1.00  0.00    -0.237 OA
ATOM     75  O   UNL A   1      32.598  34.275  28.037  1.00  0.00    -0.237 OA
ATOM     76  O   UNL A   1      32.502  35.895  29.890  1.00  0.00    -0.744 OA
ENDBRANCH  72  73
ENDBRANCH  44  67
BRANCH  56  77
ATOM     77  C   UNL A   1      39.928  34.250  37.034  1.00  0.00    -0.014 A 
ATOM     78  C   UNL A   1      40.614  35.476  36.971  1.00  0.00     0.010 A 
ATOM     79  C   UNL A   1      39.014  34.023  38.078  1.00  0.00     0.010 A 
ATOM     80  C   UNL A   1      40.413  36.444  37.958  1.00  0.00     0.020 A 
ATOM     81  C   UNL A   1      38.786  35.001  39.047  1.00  0.00     0.020 A 
ATOM     82  C   UNL A   1      39.500  36.200  38.989  1.00  0.00     0.054 A 
BRANCH  82  83
ATOM     83  S   UNL A   1      39.227  37.488  40.232  1.00  0.00     0.124 S 
ATOM     84  O   UNL A   1      38.758  36.711  41.377  1.00  0.00    -0.237 OA
ATOM     85  O   UNL A   1      40.554  38.081  40.377  1.00  0.00    -0.237 OA
ATOM     86  O   UNL A   1      38.226  38.358  39.618  1.00  0.00    -0.744 OA
ENDBRANCH  82  83
ENDBRANCH  56  77
ENDBRANCH  30  31
ENDBRANCH  23  25
ENDBRANCH  22  23
ENDBRANCH  21  22
ENDBRANCH  20  21
ENDBRANCH   1  20
TORSDOF 20
ENDMDL
