MODEL 1
REMARK VINA RESULT:      -8.6      0.000      0.000
REMARK SMILES CC1(C)[C@@H](CBr)CC[C@]1(C)C(=O)OCCOCCOC(=O)c1ccc(-c2c3nc(c(-c4ccc(S(=O)(=O)[O-])cc4)c4ccc([nH]4)c(-c4ccc(S(=O)(=O)[O-])cc4)c4nc(c(-c5ccc(S(=O)(=O)[O-])cc5)c5ccc2[nH]5)C=C4)C=C3)cc1
REMARK SMILES IDX 17 1 16 2 15 3 14 4 13 5 11 6 12 7 9 8 1 9 2 10 3 11 4 12
REMARK SMILES IDX 7 13 8 14 10 15 5 16 6 17 18 18 19 19 20 20 21 21 22 22
REMARK SMILES IDX 23 23 81 24 24 25 80 26 25 27 26 28 27 29 74 30 28 31 79 32
REMARK SMILES IDX 73 33 75 34 29 35 78 36 72 37 71 38 30 40 60 41 41 42 59 43
REMARK SMILES IDX 42 44 45 45 58 46 76 47 43 48 44 49 57 51 77 52 46 53 31 54
REMARK SMILES IDX 32 55 40 56 33 57 39 58 34 59 35 60 36 61 37 62 38 63 61 64
REMARK SMILES IDX 62 65 70 66 63 67 69 68 64 69 65 70 66 71 67 72 68 73 47 74
REMARK SMILES IDX 48 75 56 76 49 77 55 78 50 79 51 80 52 81 53 82 54 83
REMARK H PARENT 75 39 45 50
REMARK Flexibility Score: inf
ROOT
ATOM      1  C   UNL A   1      33.793  34.455  27.939  1.00  0.00     0.202 C 
ENDROOT
BRANCH   1   2
ATOM      2  O   UNL A   1      34.051  35.490  28.885  1.00  0.00    -0.374 OA
BRANCH   2   3
ATOM      3  C   UNL A   1      33.026  35.794  29.827  1.00  0.00     0.202 C 
BRANCH   3   4
ATOM      4  C   UNL A   1      33.335  35.620  31.320  1.00  0.00     0.261 C 
BRANCH   4   5
ATOM      5  O   UNL A   1      34.677  35.191  31.622  1.00  0.00    -0.463 OA
BRANCH   5   6
ATOM      6  C   UNL A   1      34.771  33.908  32.044  1.00  0.00     0.312 C 
ATOM      7  O   UNL A   1      33.851  33.096  31.953  1.00  0.00    -0.252 OA
BRANCH   6   8
ATOM      8  C   UNL A   1      36.092  33.544  32.751  1.00  0.00     0.071 C 
ATOM      9  C   UNL A   1      38.336  34.679  31.970  1.00  0.00     0.012 C 
ATOM     10  C   UNL A   1      37.466  33.406  31.965  1.00  0.00    -0.016 C 
ATOM     11  C   UNL A   1      37.332  33.018  30.471  1.00  0.00     0.012 C 
ATOM     12  C   UNL A   1      38.181  32.188  32.668  1.00  0.00     0.006 C 
ATOM     13  C   UNL A   1      37.013  31.234  32.927  1.00  0.00     0.006 C 
ATOM     14  C   UNL A   1      35.869  32.129  33.377  1.00  0.00     0.019 C 
ATOM     15  C   UNL A   1      36.160  34.596  33.887  1.00  0.00     0.024 C 
BRANCH  12  16
ATOM     16  C   UNL A   1      38.944  32.498  33.960  1.00  0.00     0.084 C 
ATOM     17  Br  UNL A   1      38.826  30.989  35.207  1.00  0.00    -0.092 Br
ENDBRANCH  12  16
ENDBRANCH   6   8
ENDBRANCH   5   6
ENDBRANCH   4   5
ENDBRANCH   3   4
ENDBRANCH   2   3
ENDBRANCH   1   2
BRANCH   1  18
ATOM     18  C   UNL A   1      33.552  33.043  28.496  1.00  0.00     0.261 C 
BRANCH  18  19
ATOM     19  O   UNL A   1      34.762  32.261  28.530  1.00  0.00    -0.460 OA
BRANCH  19  20
ATOM     20  C   UNL A   1      34.635  31.003  28.037  1.00  0.00     0.338 C 
ATOM     21  O   UNL A   1      33.690  30.554  27.411  1.00  0.00    -0.246 OA
BRANCH  20  22
ATOM     22  C   UNL A   1      35.906  30.264  28.177  1.00  0.00     0.060 A 
ATOM     23  C   UNL A   1      36.196  29.725  29.436  1.00  0.00     0.016 A 
ATOM     24  C   UNL A   1      36.840  30.184  27.142  1.00  0.00     0.016 A 
ATOM     25  C   UNL A   1      37.446  29.161  29.687  1.00  0.00     0.010 A 
ATOM     26  C   UNL A   1      38.100  29.623  27.399  1.00  0.00     0.010 A 
ATOM     27  C   UNL A   1      38.424  29.148  28.684  1.00  0.00    -0.014 A 
BRANCH  27  28
ATOM     28  C   UNL A   1      39.820  28.785  29.042  1.00  0.00     0.031 A 
ATOM     29  C   UNL A   1      40.662  29.772  29.807  1.00  0.00     0.074 A 
ATOM     30  C   UNL A   1      40.314  27.565  28.759  1.00  0.00     0.049 A 
ATOM     31  N   UNL A   1      41.887  29.647  30.251  1.00  0.00    -0.248 NA
ATOM     32  C   UNL A   1      40.040  31.069  30.117  1.00  0.00     0.031 C 
ATOM     33  C   UNL A   1      39.590  26.496  28.072  1.00  0.00     0.029 A 
ATOM     34  N   UNL A   1      41.546  27.019  29.025  1.00  0.00    -0.354 N 
ATOM     35  C   UNL A   1      42.183  30.847  30.889  1.00  0.00     0.074 A 
ATOM     36  C   UNL A   1      41.021  31.698  30.748  1.00  0.00     0.031 C 
ATOM     37  C   UNL A   1      40.391  25.422  27.972  1.00  0.00     0.029 A 
ATOM     38  C   UNL A   1      41.694  25.734  28.560  1.00  0.00     0.049 A 
ATOM     39  H   UNL A   1      42.258  27.503  29.505  1.00  0.00     0.167 HD
ATOM     40  C   UNL A   1      43.315  31.207  31.541  1.00  0.00     0.031 A 
ATOM     41  C   UNL A   1      42.758  24.908  28.588  1.00  0.00     0.031 A 
ATOM     42  C   UNL A   1      44.477  30.370  31.676  1.00  0.00     0.049 A 
ATOM     43  C   UNL A   1      44.036  25.361  29.248  1.00  0.00     0.074 A 
ATOM     44  C   UNL A   1      45.665  30.648  32.331  1.00  0.00     0.029 A 
ATOM     45  N   UNL A   1      44.604  29.098  31.140  1.00  0.00    -0.354 N 
ATOM     46  N   UNL A   1      44.289  26.490  29.866  1.00  0.00    -0.248 NA
ATOM     47  C   UNL A   1      45.168  24.423  29.222  1.00  0.00     0.031 C 
ATOM     48  C   UNL A   1      46.532  29.567  32.142  1.00  0.00     0.029 A 
ATOM     49  C   UNL A   1      45.862  28.590  31.422  1.00  0.00     0.049 A 
ATOM     50  H   UNL A   1      43.905  28.626  30.634  1.00  0.00     0.167 HD
ATOM     51  C   UNL A   1      45.600  26.386  30.323  1.00  0.00     0.074 A 
ATOM     52  C   UNL A   1      46.081  25.080  29.923  1.00  0.00     0.031 C 
ATOM     53  C   UNL A   1      46.336  27.290  31.017  1.00  0.00     0.031 A 
BRANCH  40  54
ATOM     54  C   UNL A   1      43.363  32.591  32.133  1.00  0.00    -0.014 A 
ATOM     55  C   UNL A   1      43.881  33.680  31.407  1.00  0.00     0.010 A 
ATOM     56  C   UNL A   1      42.844  32.813  33.422  1.00  0.00     0.010 A 
ATOM     57  C   UNL A   1      43.914  34.956  31.975  1.00  0.00     0.020 A 
ATOM     58  C   UNL A   1      42.850  34.093  33.982  1.00  0.00     0.020 A 
ATOM     59  C   UNL A   1      43.401  35.154  33.262  1.00  0.00     0.054 A 
BRANCH  59  60
ATOM     60  S   UNL A   1      43.439  36.825  33.967  1.00  0.00     0.124 S 
ATOM     61  O   UNL A   1      44.641  36.775  34.795  1.00  0.00    -0.237 OA
ATOM     62  O   UNL A   1      43.529  37.672  32.780  1.00  0.00    -0.237 OA
ATOM     63  O   UNL A   1      42.179  36.920  34.702  1.00  0.00    -0.744 OA
ENDBRANCH  59  60
ENDBRANCH  40  54
BRANCH  41  64
ATOM     64  C   UNL A   1      42.673  23.566  27.949  1.00  0.00    -0.014 A 
ATOM     65  C   UNL A   1      42.185  22.457  28.662  1.00  0.00     0.010 A 
ATOM     66  C   UNL A   1      43.086  23.394  26.615  1.00  0.00     0.010 A 
ATOM     67  C   UNL A   1      42.124  21.197  28.056  1.00  0.00     0.020 A 
ATOM     68  C   UNL A   1      43.002  22.144  25.998  1.00  0.00     0.020 A 
ATOM     69  C   UNL A   1      42.531  21.051  26.727  1.00  0.00     0.054 A 
BRANCH  69  70
ATOM     70  S   UNL A   1      42.391  19.421  25.942  1.00  0.00     0.124 S 
ATOM     71  O   UNL A   1      40.957  19.330  25.683  1.00  0.00    -0.237 OA
ATOM     72  O   UNL A   1      43.240  19.564  24.762  1.00  0.00    -0.237 OA
ATOM     73  O   UNL A   1      42.904  18.506  26.960  1.00  0.00    -0.744 OA
ENDBRANCH  69  70
ENDBRANCH  41  64
BRANCH  53  74
ATOM     74  C   UNL A   1      47.733  26.895  31.419  1.00  0.00    -0.014 A 
ATOM     75  C   UNL A   1      47.976  26.160  32.594  1.00  0.00     0.010 A 
ATOM     76  C   UNL A   1      48.814  27.214  30.577  1.00  0.00     0.010 A 
ATOM     77  C   UNL A   1      49.278  25.781  32.934  1.00  0.00     0.020 A 
ATOM     78  C   UNL A   1      50.113  26.813  30.899  1.00  0.00     0.020 A 
ATOM     79  C   UNL A   1      50.339  26.110  32.084  1.00  0.00     0.054 A 
BRANCH  79  80
ATOM     80  S   UNL A   1      52.013  25.570  32.526  1.00  0.00     0.124 S 
ATOM     81  O   UNL A   1      52.486  24.988  31.274  1.00  0.00    -0.237 OA
ATOM     82  O   UNL A   1      52.660  26.818  32.924  1.00  0.00    -0.237 OA
ATOM     83  O   UNL A   1      51.794  24.617  33.612  1.00  0.00    -0.744 OA
ENDBRANCH  79  80
ENDBRANCH  53  74
ENDBRANCH  27  28
ENDBRANCH  20  22
ENDBRANCH  19  20
ENDBRANCH  18  19
ENDBRANCH   1  18
TORSDOF 18
ENDMDL
MODEL 2
REMARK VINA RESULT:      -8.4      4.714      6.581
REMARK SMILES CC1(C)[C@@H](CBr)CC[C@]1(C)C(=O)OCCOCCOC(=O)c1ccc(-c2c3nc(c(-c4ccc(S(=O)(=O)[O-])cc4)c4ccc([nH]4)c(-c4ccc(S(=O)(=O)[O-])cc4)c4nc(c(-c5ccc(S(=O)(=O)[O-])cc5)c5ccc2[nH]5)C=C4)C=C3)cc1
REMARK SMILES IDX 17 1 16 2 15 3 14 4 13 5 11 6 12 7 9 8 1 9 2 10 3 11 4 12
REMARK SMILES IDX 7 13 8 14 10 15 5 16 6 17 18 18 19 19 20 20 21 21 22 22
REMARK SMILES IDX 23 23 81 24 24 25 80 26 25 27 26 28 27 29 74 30 28 31 79 32
REMARK SMILES IDX 73 33 75 34 29 35 78 36 72 37 71 38 30 40 60 41 41 42 59 43
REMARK SMILES IDX 42 44 45 45 58 46 76 47 43 48 44 49 57 51 77 52 46 53 31 54
REMARK SMILES IDX 32 55 40 56 33 57 39 58 34 59 35 60 36 61 37 62 38 63 61 64
REMARK SMILES IDX 62 65 70 66 63 67 69 68 64 69 65 70 66 71 67 72 68 73 47 74
REMARK SMILES IDX 48 75 56 76 49 77 55 78 50 79 51 80 52 81 53 82 54 83
REMARK H PARENT 75 39 45 50
REMARK Flexibility Score: inf
ROOT
ATOM      1  C   UNL A   1      34.489  31.718  28.580  1.00  0.00     0.202 C 
ENDROOT
BRANCH   1   2
ATOM      2  O   UNL A   1      34.271  31.134  27.297  1.00  0.00    -0.374 OA
BRANCH   2   3
ATOM      3  C   UNL A   1      32.923  30.901  26.898  1.00  0.00     0.202 C 
BRANCH   3   4
ATOM      4  C   UNL A   1      32.283  29.550  27.247  1.00  0.00     0.261 C 
BRANCH   4   5
ATOM      5  O   UNL A   1      32.669  28.452  26.396  1.00  0.00    -0.463 OA
BRANCH   5   6
ATOM      6  C   UNL A   1      31.800  28.194  25.390  1.00  0.00     0.312 C 
ATOM      7  O   UNL A   1      31.078  29.050  24.883  1.00  0.00    -0.252 OA
BRANCH   6   8
ATOM      8  C   UNL A   1      31.695  26.712  24.978  1.00  0.00     0.071 C 
ATOM      9  C   UNL A   1      33.852  25.202  25.004  1.00  0.00     0.012 C 
ATOM     10  C   UNL A   1      32.833  25.978  24.146  1.00  0.00    -0.016 C 
ATOM     11  C   UNL A   1      33.689  26.905  23.247  1.00  0.00     0.012 C 
ATOM     12  C   UNL A   1      32.033  25.037  23.164  1.00  0.00     0.006 C 
ATOM     13  C   UNL A   1      30.841  25.913  22.776  1.00  0.00     0.006 C 
ATOM     14  C   UNL A   1      30.431  26.609  24.064  1.00  0.00     0.019 C 
ATOM     15  C   UNL A   1      31.401  26.013  26.329  1.00  0.00     0.024 C 
BRANCH  12  16
ATOM     16  C   UNL A   1      31.574  23.691  23.734  1.00  0.00     0.084 C 
ATOM     17  Br  UNL A   1      32.556  22.218  22.890  1.00  0.00    -0.092 Br
ENDBRANCH  12  16
ENDBRANCH   6   8
ENDBRANCH   5   6
ENDBRANCH   4   5
ENDBRANCH   3   4
ENDBRANCH   2   3
ENDBRANCH   1   2
BRANCH   1  18
ATOM     18  C   UNL A   1      35.765  31.304  29.328  1.00  0.00     0.261 C 
BRANCH  18  19
ATOM     19  O   UNL A   1      36.196  29.976  28.971  1.00  0.00    -0.460 OA
BRANCH  19  20
ATOM     20  C   UNL A   1      36.978  29.368  29.899  1.00  0.00     0.338 C 
ATOM     21  O   UNL A   1      36.661  29.059  31.035  1.00  0.00    -0.246 OA
BRANCH  20  22
ATOM     22  C   UNL A   1      38.250  28.926  29.291  1.00  0.00     0.060 A 
ATOM     23  C   UNL A   1      39.190  28.330  30.140  1.00  0.00     0.016 A 
ATOM     24  C   UNL A   1      38.562  29.174  27.953  1.00  0.00     0.016 A 
ATOM     25  C   UNL A   1      40.471  28.040  29.674  1.00  0.00     0.010 A 
ATOM     26  C   UNL A   1      39.855  28.887  27.488  1.00  0.00     0.010 A 
ATOM     27  C   UNL A   1      40.828  28.359  28.357  1.00  0.00    -0.014 A 
BRANCH  27  28
ATOM     28  C   UNL A   1      42.258  28.284  27.958  1.00  0.00     0.031 A 
ATOM     29  C   UNL A   1      43.150  29.475  28.197  1.00  0.00     0.074 A 
ATOM     30  C   UNL A   1      42.780  27.149  27.458  1.00  0.00     0.049 A 
ATOM     31  N   UNL A   1      44.430  29.611  27.960  1.00  0.00    -0.248 NA
ATOM     32  C   UNL A   1      42.517  30.666  28.785  1.00  0.00     0.031 C 
ATOM     33  C   UNL A   1      42.043  25.907  27.227  1.00  0.00     0.029 A 
ATOM     34  N   UNL A   1      44.062  26.857  27.062  1.00  0.00    -0.354 N 
ATOM     35  C   UNL A   1      44.755  30.901  28.367  1.00  0.00     0.074 A 
ATOM     36  C   UNL A   1      43.533  31.516  28.836  1.00  0.00     0.031 C 
ATOM     37  C   UNL A   1      42.886  24.986  26.730  1.00  0.00     0.029 A 
ATOM     38  C   UNL A   1      44.215  25.578  26.580  1.00  0.00     0.049 A 
ATOM     39  H   UNL A   1      44.804  27.503  27.118  1.00  0.00     0.167 HD
ATOM     40  C   UNL A   1      45.962  31.516  28.358  1.00  0.00     0.031 A 
ATOM     41  C   UNL A   1      45.295  24.959  26.062  1.00  0.00     0.031 A 
ATOM     42  C   UNL A   1      47.179  30.914  27.882  1.00  0.00     0.049 A 
ATOM     43  C   UNL A   1      46.609  25.692  25.988  1.00  0.00     0.074 A 
ATOM     44  C   UNL A   1      48.451  31.459  27.848  1.00  0.00     0.029 A 
ATOM     45  N   UNL A   1      47.276  29.638  27.350  1.00  0.00    -0.354 N 
ATOM     46  N   UNL A   1      46.903  26.903  26.398  1.00  0.00    -0.248 NA
ATOM     47  C   UNL A   1      47.741  24.970  25.388  1.00  0.00     0.031 C 
ATOM     48  C   UNL A   1      49.307  30.534  27.242  1.00  0.00     0.029 A 
ATOM     49  C   UNL A   1      48.581  29.388  26.955  1.00  0.00     0.049 A 
ATOM     50  H   UNL A   1      46.530  29.003  27.265  1.00  0.00     0.167 HD
ATOM     51  C   UNL A   1      48.258  27.077  26.129  1.00  0.00     0.074 A 
ATOM     52  C   UNL A   1      48.729  25.843  25.534  1.00  0.00     0.031 C 
ATOM     53  C   UNL A   1      49.042  28.160  26.360  1.00  0.00     0.031 A 
BRANCH  40  54
ATOM     54  C   UNL A   1      46.019  32.938  28.851  1.00  0.00    -0.014 A 
ATOM     55  C   UNL A   1      46.288  33.235  30.200  1.00  0.00     0.010 A 
ATOM     56  C   UNL A   1      45.841  33.996  27.940  1.00  0.00     0.010 A 
ATOM     57  C   UNL A   1      46.340  34.562  30.635  1.00  0.00     0.020 A 
ATOM     58  C   UNL A   1      45.919  35.325  28.367  1.00  0.00     0.020 A 
ATOM     59  C   UNL A   1      46.151  35.599  29.715  1.00  0.00     0.054 A 
BRANCH  59  60
ATOM     60  S   UNL A   1      46.242  37.312  30.304  1.00  0.00     0.124 S 
ATOM     61  O   UNL A   1      44.832  37.692  30.342  1.00  0.00    -0.237 OA
ATOM     62  O   UNL A   1      46.890  37.170  31.605  1.00  0.00    -0.237 OA
ATOM     63  O   UNL A   1      47.041  37.988  29.283  1.00  0.00    -0.744 OA
ENDBRANCH  59  60
ENDBRANCH  40  54
BRANCH  41  64
ATOM     64  C   UNL A   1      45.175  23.567  25.548  1.00  0.00    -0.014 A 
ATOM     65  C   UNL A   1      44.770  23.319  24.225  1.00  0.00     0.010 A 
ATOM     66  C   UNL A   1      45.464  22.478  26.390  1.00  0.00     0.010 A 
ATOM     67  C   UNL A   1      44.645  22.007  23.757  1.00  0.00     0.020 A 
ATOM     68  C   UNL A   1      45.366  21.166  25.919  1.00  0.00     0.020 A 
ATOM     69  C   UNL A   1      44.947  20.939  24.608  1.00  0.00     0.054 A 
BRANCH  69  70
ATOM     70  S   UNL A   1      44.834  19.246  23.964  1.00  0.00     0.124 S 
ATOM     71  O   UNL A   1      44.328  19.467  22.614  1.00  0.00    -0.237 OA
ATOM     72  O   UNL A   1      46.214  18.780  24.056  1.00  0.00    -0.237 OA
ATOM     73  O   UNL A   1      43.903  18.594  24.884  1.00  0.00    -0.744 OA
ENDBRANCH  69  70
ENDBRANCH  41  64
BRANCH  53  74
ATOM     74  C   UNL A   1      50.501  28.057  25.998  1.00  0.00    -0.014 A 
ATOM     75  C   UNL A   1      51.448  27.565  26.914  1.00  0.00     0.010 A 
ATOM     76  C   UNL A   1      50.920  28.406  24.701  1.00  0.00     0.010 A 
ATOM     77  C   UNL A   1      52.793  27.453  26.547  1.00  0.00     0.020 A 
ATOM     78  C   UNL A   1      52.259  28.270  24.323  1.00  0.00     0.020 A 
ATOM     79  C   UNL A   1      53.190  27.808  25.253  1.00  0.00     0.054 A 
BRANCH  79  80
ATOM     80  S   UNL A   1      54.933  27.614  24.790  1.00  0.00     0.124 S 
ATOM     81  O   UNL A   1      54.977  26.224  24.345  1.00  0.00    -0.237 OA
ATOM     82  O   UNL A   1      55.100  28.615  23.740  1.00  0.00    -0.237 OA
ATOM     83  O   UNL A   1      55.654  27.894  26.029  1.00  0.00    -0.744 OA
ENDBRANCH  79  80
ENDBRANCH  53  74
ENDBRANCH  27  28
ENDBRANCH  20  22
ENDBRANCH  19  20
ENDBRANCH  18  19
ENDBRANCH   1  18
TORSDOF 18
ENDMDL
MODEL 3
REMARK VINA RESULT:      -8.4      4.373      6.230
REMARK SMILES CC1(C)[C@@H](CBr)CC[C@]1(C)C(=O)OCCOCCOC(=O)c1ccc(-c2c3nc(c(-c4ccc(S(=O)(=O)[O-])cc4)c4ccc([nH]4)c(-c4ccc(S(=O)(=O)[O-])cc4)c4nc(c(-c5ccc(S(=O)(=O)[O-])cc5)c5ccc2[nH]5)C=C4)C=C3)cc1
REMARK SMILES IDX 17 1 16 2 15 3 14 4 13 5 11 6 12 7 9 8 1 9 2 10 3 11 4 12
REMARK SMILES IDX 7 13 8 14 10 15 5 16 6 17 18 18 19 19 20 20 21 21 22 22
REMARK SMILES IDX 23 23 81 24 24 25 80 26 25 27 26 28 27 29 74 30 28 31 79 32
REMARK SMILES IDX 73 33 75 34 29 35 78 36 72 37 71 38 30 40 60 41 41 42 59 43
REMARK SMILES IDX 42 44 45 45 58 46 76 47 43 48 44 49 57 51 77 52 46 53 31 54
REMARK SMILES IDX 32 55 40 56 33 57 39 58 34 59 35 60 36 61 37 62 38 63 61 64
REMARK SMILES IDX 62 65 70 66 63 67 69 68 64 69 65 70 66 71 67 72 68 73 47 74
REMARK SMILES IDX 48 75 56 76 49 77 55 78 50 79 51 80 52 81 53 82 54 83
REMARK H PARENT 75 39 45 50
REMARK Flexibility Score: inf
ROOT
ATOM      1  C   UNL A   1      34.114  33.025  28.527  1.00  0.00     0.202 C 
ENDROOT
BRANCH   1   2
ATOM      2  O   UNL A   1      34.275  32.057  27.492  1.00  0.00    -0.374 OA
BRANCH   2   3
ATOM      3  C   UNL A   1      33.541  30.842  27.605  1.00  0.00     0.202 C 
BRANCH   3   4
ATOM      4  C   UNL A   1      32.335  30.631  26.680  1.00  0.00     0.261 C 
BRANCH   4   5
ATOM      5  O   UNL A   1      31.972  29.254  26.452  1.00  0.00    -0.463 OA
BRANCH   5   6
ATOM      6  C   UNL A   1      32.452  28.734  25.298  1.00  0.00     0.312 C 
ATOM      7  O   UNL A   1      32.967  29.415  24.411  1.00  0.00    -0.252 OA
BRANCH   6   8
ATOM      8  C   UNL A   1      32.219  27.222  25.112  1.00  0.00     0.071 C 
ATOM      9  C   UNL A   1      32.013  26.230  22.682  1.00  0.00     0.012 C 
ATOM     10  C   UNL A   1      31.277  26.640  23.972  1.00  0.00    -0.016 C 
ATOM     11  C   UNL A   1      30.149  27.593  23.505  1.00  0.00     0.012 C 
ATOM     12  C   UNL A   1      30.556  25.420  24.666  1.00  0.00     0.006 C 
ATOM     13  C   UNL A   1      30.300  25.957  26.076  1.00  0.00     0.006 C 
ATOM     14  C   UNL A   1      31.562  26.722  26.439  1.00  0.00     0.019 C 
ATOM     15  C   UNL A   1      33.666  26.673  25.025  1.00  0.00     0.024 C 
BRANCH  12  16
ATOM     16  C   UNL A   1      31.334  24.101  24.704  1.00  0.00     0.084 C 
ATOM     17  Br  UNL A   1      30.732  22.993  26.206  1.00  0.00    -0.092 Br
ENDBRANCH  12  16
ENDBRANCH   6   8
ENDBRANCH   5   6
ENDBRANCH   4   5
ENDBRANCH   3   4
ENDBRANCH   2   3
ENDBRANCH   1   2
BRANCH   1  18
ATOM     18  C   UNL A   1      34.892  32.791  29.831  1.00  0.00     0.261 C 
BRANCH  18  19
ATOM     19  O   UNL A   1      36.268  32.436  29.584  1.00  0.00    -0.460 OA
BRANCH  19  20
ATOM     20  C   UNL A   1      36.879  31.799  30.615  1.00  0.00     0.338 C 
ATOM     21  O   UNL A   1      36.508  31.759  31.775  1.00  0.00    -0.246 OA
BRANCH  20  22
ATOM     22  C   UNL A   1      37.985  30.957  30.116  1.00  0.00     0.060 A 
ATOM     23  C   UNL A   1      39.006  30.641  31.021  1.00  0.00     0.016 A 
ATOM     24  C   UNL A   1      38.082  30.569  28.778  1.00  0.00     0.016 A 
ATOM     25  C   UNL A   1      40.158  29.993  30.580  1.00  0.00     0.010 A 
ATOM     26  C   UNL A   1      39.247  29.924  28.335  1.00  0.00     0.010 A 
ATOM     27  C   UNL A   1      40.308  29.672  29.224  1.00  0.00    -0.014 A 
BRANCH  27  28
ATOM     28  C   UNL A   1      41.637  29.223  28.732  1.00  0.00     0.031 A 
ATOM     29  C   UNL A   1      42.774  30.211  28.683  1.00  0.00     0.074 A 
ATOM     30  C   UNL A   1      41.856  27.937  28.400  1.00  0.00     0.049 A 
ATOM     31  N   UNL A   1      44.018  30.024  28.323  1.00  0.00    -0.248 NA
ATOM     32  C   UNL A   1      42.468  31.589  29.100  1.00  0.00     0.031 C 
ATOM     33  C   UNL A   1      40.861  26.867  28.453  1.00  0.00     0.029 A 
ATOM     34  N   UNL A   1      42.998  27.313  27.961  1.00  0.00    -0.354 N 
ATOM     35  C   UNL A   1      44.643  31.259  28.467  1.00  0.00     0.074 A 
ATOM     36  C   UNL A   1      43.634  32.192  28.918  1.00  0.00     0.031 C 
ATOM     37  C   UNL A   1      41.436  25.718  28.061  1.00  0.00     0.029 A 
ATOM     38  C   UNL A   1      42.830  25.973  27.702  1.00  0.00     0.049 A 
ATOM     39  H   UNL A   1      43.857  27.781  27.842  1.00  0.00     0.167 HD
ATOM     40  C   UNL A   1      45.940  31.585  28.253  1.00  0.00     0.031 A 
ATOM     41  C   UNL A   1      43.694  25.058  27.217  1.00  0.00     0.031 A 
ATOM     42  C   UNL A   1      46.946  30.664  27.795  1.00  0.00     0.049 A 
ATOM     43  C   UNL A   1      45.113  25.464  26.908  1.00  0.00     0.074 A 
ATOM     44  C   UNL A   1      48.290  30.904  27.563  1.00  0.00     0.029 A 
ATOM     45  N   UNL A   1      46.720  29.330  27.491  1.00  0.00    -0.354 N 
ATOM     46  N   UNL A   1      45.692  26.630  27.073  1.00  0.00    -0.248 NA
ATOM     47  C   UNL A   1      45.997  24.426  26.357  1.00  0.00     0.031 C 
ATOM     48  C   UNL A   1      48.864  29.730  27.063  1.00  0.00     0.029 A 
ATOM     49  C   UNL A   1      47.892  28.742  27.043  1.00  0.00     0.049 A 
ATOM     50  H   UNL A   1      45.856  28.869  27.581  1.00  0.00     0.167 HD
ATOM     51  C   UNL A   1      47.013  26.458  26.669  1.00  0.00     0.074 A 
ATOM     52  C   UNL A   1      47.151  25.074  26.266  1.00  0.00     0.031 C 
ATOM     53  C   UNL A   1      48.021  27.365  26.640  1.00  0.00     0.031 A 
BRANCH  40  54
ATOM     54  C   UNL A   1      46.341  33.019  28.480  1.00  0.00    -0.014 A 
ATOM     55  C   UNL A   1      46.812  33.458  29.731  1.00  0.00     0.010 A 
ATOM     56  C   UNL A   1      46.285  33.932  27.411  1.00  0.00     0.010 A 
ATOM     57  C   UNL A   1      47.182  34.792  29.918  1.00  0.00     0.020 A 
ATOM     58  C   UNL A   1      46.680  35.261  27.588  1.00  0.00     0.020 A 
ATOM     59  C   UNL A   1      47.111  35.687  28.845  1.00  0.00     0.054 A 
BRANCH  59  60
ATOM     60  S   UNL A   1      47.615  37.408  29.111  1.00  0.00     0.124 S 
ATOM     61  O   UNL A   1      48.404  37.305  30.336  1.00  0.00    -0.237 OA
ATOM     62  O   UNL A   1      48.373  37.712  27.900  1.00  0.00    -0.237 OA
ATOM     63  O   UNL A   1      46.348  38.125  29.246  1.00  0.00    -0.744 OA
ENDBRANCH  59  60
ENDBRANCH  40  54
BRANCH  41  64
ATOM     64  C   UNL A   1      43.236  23.664  26.969  1.00  0.00    -0.014 A 
ATOM     65  C   UNL A   1      42.775  23.271  25.700  1.00  0.00     0.010 A 
ATOM     66  C   UNL A   1      43.255  22.720  28.012  1.00  0.00     0.010 A 
ATOM     67  C   UNL A   1      42.332  21.962  25.483  1.00  0.00     0.020 A 
ATOM     68  C   UNL A   1      42.838  21.405  27.793  1.00  0.00     0.020 A 
ATOM     69  C   UNL A   1      42.369  21.038  26.531  1.00  0.00     0.054 A 
BRANCH  69  70
ATOM     70  S   UNL A   1      41.842  19.330  26.213  1.00  0.00     0.124 S 
ATOM     71  O   UNL A   1      42.678  18.961  25.075  1.00  0.00    -0.237 OA
ATOM     72  O   UNL A   1      42.156  18.663  27.473  1.00  0.00    -0.237 OA
ATOM     73  O   UNL A   1      40.414  19.462  25.927  1.00  0.00    -0.744 OA
ENDBRANCH  69  70
ENDBRANCH  41  64
BRANCH  53  74
ATOM     74  C   UNL A   1      49.377  26.889  26.186  1.00  0.00    -0.014 A 
ATOM     75  C   UNL A   1      49.802  27.055  24.856  1.00  0.00     0.010 A 
ATOM     76  C   UNL A   1      50.261  26.319  27.121  1.00  0.00     0.010 A 
ATOM     77  C   UNL A   1      51.075  26.629  24.463  1.00  0.00     0.020 A 
ATOM     78  C   UNL A   1      51.544  25.918  26.737  1.00  0.00     0.020 A 
ATOM     79  C   UNL A   1      51.938  26.063  25.406  1.00  0.00     0.054 A 
BRANCH  79  80
ATOM     80  S   UNL A   1      53.599  25.559  24.880  1.00  0.00     0.124 S 
ATOM     81  O   UNL A   1      53.539  24.108  25.031  1.00  0.00    -0.237 OA
ATOM     82  O   UNL A   1      53.662  26.045  23.504  1.00  0.00    -0.237 OA
ATOM     83  O   UNL A   1      54.484  26.247  25.818  1.00  0.00    -0.744 OA
ENDBRANCH  79  80
ENDBRANCH  53  74
ENDBRANCH  27  28
ENDBRANCH  20  22
ENDBRANCH  19  20
ENDBRANCH  18  19
ENDBRANCH   1  18
TORSDOF 18
ENDMDL
