MODEL 1
REMARK VINA RESULT:     -10.2      0.000      0.000
REMARK SMILES CNc1nc(C(=O)N2C[C@@H](C(=O)OCCOCCOC(=O)c3ccc(-c4c5nc(c(-c6ccc(S(=O)(=O)[O-])cc6)c6ccc([nH]6)c(-c6ccc(S(=O)(=O)[O-])cc6)c6nc(c(-c7ccc(S(=O)(=O)[O-])cc7)c7ccc4[nH]7)C=C6)C=C5)cc3)[C@H](c3ccccc3C)C2)cs1
REMARK SMILES IDX 16 1 15 2 14 3 13 4 11 5 12 6 10 7 8 8 9 9 90 10 82 11 6 12
REMARK SMILES IDX 7 13 5 14 3 15 4 16 92 17 91 18 2 19 1 20 83 22 84 23 88 24
REMARK SMILES IDX 85 25 87 26 89 27 86 28 17 29 18 30 19 31 20 32 21 33 22 34
REMARK SMILES IDX 23 35 81 36 24 37 80 38 25 39 26 40 27 41 74 42 28 43 79 44
REMARK SMILES IDX 73 45 75 46 29 47 78 48 72 49 71 50 30 52 60 53 41 54 59 55
REMARK SMILES IDX 42 56 45 57 58 58 76 59 43 60 44 61 57 63 77 64 46 65 31 66
REMARK SMILES IDX 32 67 40 68 33 69 39 70 34 71 35 72 36 73 37 74 38 75 61 76
REMARK SMILES IDX 62 77 70 78 63 79 69 80 64 81 65 82 66 83 67 84 68 85 47 86
REMARK SMILES IDX 48 87 56 88 49 89 55 90 50 91 51 92 52 93 53 94 54 95
REMARK H PARENT 2 21 75 51 45 62
REMARK Flexibility Score: inf
ROOT
ATOM      1  O   UNL A   1      34.478  22.911  23.487  1.00  0.00    -0.374 OA
ENDROOT
BRANCH   1   2
ATOM      2  C   UNL A   1      33.124  22.445  23.527  1.00  0.00     0.202 C 
BRANCH   2   3
ATOM      3  C   UNL A   1      32.134  23.342  22.768  1.00  0.00     0.261 C 
BRANCH   3   4
ATOM      4  O   UNL A   1      31.970  24.552  23.529  1.00  0.00    -0.463 OA
BRANCH   4   5
ATOM      5  C   UNL A   1      31.898  25.737  22.882  1.00  0.00     0.311 C 
ATOM      6  O   UNL A   1      32.243  25.918  21.724  1.00  0.00    -0.252 OA
BRANCH   5   7
ATOM      7  C   UNL A   1      31.177  26.744  23.770  1.00  0.00     0.128 C 
ATOM      8  N   UNL A   1      29.442  28.246  23.238  1.00  0.00    -0.336 N 
ATOM      9  C   UNL A   1      29.718  26.837  23.321  1.00  0.00     0.136 C 
ATOM     10  C   UNL A   1      30.676  28.962  22.996  1.00  0.00     0.129 C 
ATOM     11  C   UNL A   1      31.789  28.167  23.745  1.00  0.00     0.055 C 
BRANCH   8  12
ATOM     12  C   UNL A   1      28.191  28.805  23.018  1.00  0.00     0.273 C 
ATOM     13  O   UNL A   1      27.157  28.179  23.255  1.00  0.00    -0.267 OA
BRANCH  12  14
ATOM     14  C   UNL A   1      28.133  30.177  22.480  1.00  0.00     0.141 A 
ATOM     15  C   UNL A   1      28.318  32.403  22.557  1.00  0.00     0.183 A 
ATOM     16  N   UNL A   1      28.254  31.313  23.285  1.00  0.00    -0.215 NA
ATOM     17  S   UNL A   1      28.115  32.150  20.866  1.00  0.00    -0.105 S 
ATOM     18  C   UNL A   1      28.066  30.459  21.127  1.00  0.00     0.102 A 
BRANCH  15  19
ATOM     19  N   UNL A   1      28.555  33.643  23.028  1.00  0.00    -0.365 N 
ATOM     20  C   UNL A   1      29.840  34.004  23.571  1.00  0.00     0.142 C 
ATOM     21  H   UNL A   1      27.836  34.315  23.000  1.00  0.00     0.162 HD
ENDBRANCH  15  19
ENDBRANCH  12  14
ENDBRANCH   8  12
BRANCH  11  22
ATOM     22  C   UNL A   1      32.281  28.735  25.110  1.00  0.00    -0.039 A 
ATOM     23  C   UNL A   1      31.828  30.009  25.529  1.00  0.00     0.004 A 
ATOM     24  C   UNL A   1      33.296  28.148  25.923  1.00  0.00    -0.048 A 
ATOM     25  C   UNL A   1      32.330  30.667  26.660  1.00  0.00     0.000 A 
ATOM     26  C   UNL A   1      33.790  28.831  27.063  1.00  0.00     0.004 A 
ATOM     27  C   UNL A   1      33.990  26.842  25.663  1.00  0.00     0.044 C 
ATOM     28  C   UNL A   1      33.317  30.080  27.427  1.00  0.00     0.000 A 
ENDBRANCH  11  22
ENDBRANCH   5   7
ENDBRANCH   4   5
ENDBRANCH   3   4
ENDBRANCH   2   3
ENDBRANCH   1   2
BRANCH   1  29
ATOM     29  C   UNL A   1      35.038  23.342  24.725  1.00  0.00     0.202 C 
BRANCH  29  30
ATOM     30  C   UNL A   1      36.427  22.788  25.051  1.00  0.00     0.261 C 
BRANCH  30  31
ATOM     31  O   UNL A   1      37.296  23.798  25.592  1.00  0.00    -0.460 OA
BRANCH  31  32
ATOM     32  C   UNL A   1      38.474  23.325  26.055  1.00  0.00     0.338 C 
ATOM     33  O   UNL A   1      38.960  22.220  25.835  1.00  0.00    -0.246 OA
BRANCH  32  34
ATOM     34  C   UNL A   1      39.209  24.375  26.781  1.00  0.00     0.060 A 
ATOM     35  C   UNL A   1      38.964  24.491  28.153  1.00  0.00     0.016 A 
ATOM     36  C   UNL A   1      40.047  25.287  26.132  1.00  0.00     0.016 A 
ATOM     37  C   UNL A   1      39.512  25.551  28.872  1.00  0.00     0.010 A 
ATOM     38  C   UNL A   1      40.597  26.352  26.858  1.00  0.00     0.010 A 
ATOM     39  C   UNL A   1      40.305  26.508  28.224  1.00  0.00    -0.014 A 
BRANCH  39  40
ATOM     40  C   UNL A   1      40.727  27.719  28.973  1.00  0.00     0.031 A 
ATOM     41  C   UNL A   1      42.110  27.785  29.566  1.00  0.00     0.074 A 
ATOM     42  C   UNL A   1      39.906  28.782  29.061  1.00  0.00     0.049 A 
ATOM     43  N   UNL A   1      42.684  28.768  30.212  1.00  0.00    -0.248 NA
ATOM     44  C   UNL A   1      42.958  26.592  29.408  1.00  0.00     0.031 C 
ATOM     45  C   UNL A   1      38.555  28.855  28.505  1.00  0.00     0.029 A 
ATOM     46  N   UNL A   1      40.094  30.008  29.648  1.00  0.00    -0.354 N 
ATOM     47  C   UNL A   1      43.962  28.319  30.528  1.00  0.00     0.074 A 
ATOM     48  C   UNL A   1      44.064  26.961  30.039  1.00  0.00     0.031 C 
ATOM     49  C   UNL A   1      38.035  30.064  28.776  1.00  0.00     0.029 A 
ATOM     50  C   UNL A   1      39.005  30.841  29.545  1.00  0.00     0.049 A 
ATOM     51  H   UNL A   1      40.930  30.267  30.098  1.00  0.00     0.167 HD
ATOM     52  C   UNL A   1      44.964  28.981  31.155  1.00  0.00     0.031 A 
ATOM     53  C   UNL A   1      38.807  32.085  30.027  1.00  0.00     0.031 A 
ATOM     54  C   UNL A   1      44.861  30.326  31.658  1.00  0.00     0.049 A 
ATOM     55  C   UNL A   1      39.915  32.774  30.778  1.00  0.00     0.074 A 
ATOM     56  C   UNL A   1      45.825  31.077  32.310  1.00  0.00     0.029 A 
ATOM     57  N   UNL A   1      43.731  31.122  31.566  1.00  0.00    -0.354 N 
ATOM     58  N   UNL A   1      41.124  32.340  31.048  1.00  0.00    -0.248 NA
ATOM     59  C   UNL A   1      39.636  34.129  31.278  1.00  0.00     0.031 C 
ATOM     60  C   UNL A   1      45.260  32.310  32.654  1.00  0.00     0.029 A 
ATOM     61  C   UNL A   1      43.965  32.348  32.167  1.00  0.00     0.049 A 
ATOM     62  H   UNL A   1      42.885  30.855  31.138  1.00  0.00     0.167 HD
ATOM     63  C   UNL A   1      41.754  33.377  31.730  1.00  0.00     0.074 A 
ATOM     64  C   UNL A   1      40.803  34.465  31.811  1.00  0.00     0.031 C 
ATOM     65  C   UNL A   1      43.008  33.422  32.245  1.00  0.00     0.031 A 
BRANCH  52  66
ATOM     66  C   UNL A   1      46.269  28.253  31.345  1.00  0.00    -0.014 A 
ATOM     67  C   UNL A   1      46.495  27.463  32.486  1.00  0.00     0.010 A 
ATOM     68  C   UNL A   1      47.254  28.307  30.342  1.00  0.00     0.010 A 
ATOM     69  C   UNL A   1      47.692  26.757  32.631  1.00  0.00     0.020 A 
ATOM     70  C   UNL A   1      48.443  27.583  30.474  1.00  0.00     0.020 A 
ATOM     71  C   UNL A   1      48.659  26.822  31.624  1.00  0.00     0.054 A 
BRANCH  71  72
ATOM     72  S   UNL A   1      50.186  25.862  31.820  1.00  0.00     0.124 S 
ATOM     73  O   UNL A   1      50.597  25.663  30.433  1.00  0.00    -0.237 OA
ATOM     74  O   UNL A   1      51.031  26.760  32.603  1.00  0.00    -0.237 OA
ATOM     75  O   UNL A   1      49.750  24.656  32.519  1.00  0.00    -0.744 OA
ENDBRANCH  71  72
ENDBRANCH  52  66
BRANCH  53  76
ATOM     76  C   UNL A   1      37.490  32.753  29.844  1.00  0.00    -0.014 A 
ATOM     77  C   UNL A   1      36.424  32.510  30.728  1.00  0.00     0.010 A 
ATOM     78  C   UNL A   1      37.291  33.623  28.756  1.00  0.00     0.010 A 
ATOM     79  C   UNL A   1      35.175  33.100  30.510  1.00  0.00     0.020 A 
ATOM     80  C   UNL A   1      36.054  34.237  28.551  1.00  0.00     0.020 A 
ATOM     81  C   UNL A   1      34.997  33.957  29.420  1.00  0.00     0.054 A 
BRANCH  81  82
ATOM     82  S   UNL A   1      33.378  34.735  29.167  1.00  0.00     0.124 S 
ATOM     83  O   UNL A   1      32.845  34.772  30.525  1.00  0.00    -0.237 OA
ATOM     84  O   UNL A   1      33.735  36.030  28.591  1.00  0.00    -0.237 OA
ATOM     85  O   UNL A   1      32.702  33.820  28.251  1.00  0.00    -0.744 OA
ENDBRANCH  81  82
ENDBRANCH  53  76
BRANCH  65  86
ATOM     86  C   UNL A   1      43.432  34.700  32.920  1.00  0.00    -0.014 A 
ATOM     87  C   UNL A   1      44.027  35.746  32.191  1.00  0.00     0.010 A 
ATOM     88  C   UNL A   1      43.201  34.871  34.297  1.00  0.00     0.010 A 
ATOM     89  C   UNL A   1      44.422  36.921  32.836  1.00  0.00     0.020 A 
ATOM     90  C   UNL A   1      43.570  36.056  34.940  1.00  0.00     0.020 A 
ATOM     91  C   UNL A   1      44.195  37.067  34.207  1.00  0.00     0.054 A 
BRANCH  91  92
ATOM     92  S   UNL A   1      44.697  38.611  35.018  1.00  0.00     0.124 S 
ATOM     93  O   UNL A   1      46.147  38.461  35.086  1.00  0.00    -0.237 OA
ATOM     94  O   UNL A   1      44.213  39.632  34.093  1.00  0.00    -0.237 OA
ATOM     95  O   UNL A   1      44.004  38.567  36.304  1.00  0.00    -0.744 OA
ENDBRANCH  91  92
ENDBRANCH  65  86
ENDBRANCH  39  40
ENDBRANCH  32  34
ENDBRANCH  31  32
ENDBRANCH  30  31
ENDBRANCH  29  30
ENDBRANCH   1  29
TORSDOF 21
ENDMDL
MODEL 2
REMARK VINA RESULT:      -9.7      3.944      6.128
REMARK SMILES CNc1nc(C(=O)N2C[C@@H](C(=O)OCCOCCOC(=O)c3ccc(-c4c5nc(c(-c6ccc(S(=O)(=O)[O-])cc6)c6ccc([nH]6)c(-c6ccc(S(=O)(=O)[O-])cc6)c6nc(c(-c7ccc(S(=O)(=O)[O-])cc7)c7ccc4[nH]7)C=C6)C=C5)cc3)[C@H](c3ccccc3C)C2)cs1
REMARK SMILES IDX 16 1 15 2 14 3 13 4 11 5 12 6 10 7 8 8 9 9 90 10 82 11 6 12
REMARK SMILES IDX 7 13 5 14 3 15 4 16 92 17 91 18 2 19 1 20 83 22 84 23 88 24
REMARK SMILES IDX 85 25 87 26 89 27 86 28 17 29 18 30 19 31 20 32 21 33 22 34
REMARK SMILES IDX 23 35 81 36 24 37 80 38 25 39 26 40 27 41 74 42 28 43 79 44
REMARK SMILES IDX 73 45 75 46 29 47 78 48 72 49 71 50 30 52 60 53 41 54 59 55
REMARK SMILES IDX 42 56 45 57 58 58 76 59 43 60 44 61 57 63 77 64 46 65 31 66
REMARK SMILES IDX 32 67 40 68 33 69 39 70 34 71 35 72 36 73 37 74 38 75 61 76
REMARK SMILES IDX 62 77 70 78 63 79 69 80 64 81 65 82 66 83 67 84 68 85 47 86
REMARK SMILES IDX 48 87 56 88 49 89 55 90 50 91 51 92 52 93 53 94 54 95
REMARK H PARENT 2 21 75 51 45 62
REMARK Flexibility Score: inf
ROOT
ATOM      1  O   UNL A   1      40.188  22.926  26.795  1.00  0.00    -0.374 OA
ENDROOT
BRANCH   1   2
ATOM      2  C   UNL A   1      39.394  22.096  25.937  1.00  0.00     0.202 C 
BRANCH   2   3
ATOM      3  C   UNL A   1      37.909  22.489  25.891  1.00  0.00     0.261 C 
BRANCH   3   4
ATOM      4  O   UNL A   1      37.309  21.795  24.783  1.00  0.00    -0.463 OA
BRANCH   4   5
ATOM      5  C   UNL A   1      36.507  22.474  23.932  1.00  0.00     0.311 C 
ATOM      6  O   UNL A   1      36.905  23.190  23.026  1.00  0.00    -0.252 OA
BRANCH   5   7
ATOM      7  C   UNL A   1      35.059  22.070  24.186  1.00  0.00     0.128 C 
ATOM      8  N   UNL A   1      33.592  22.735  25.905  1.00  0.00    -0.336 N 
ATOM      9  C   UNL A   1      34.313  23.266  24.780  1.00  0.00     0.136 C 
ATOM     10  C   UNL A   1      34.273  21.556  26.396  1.00  0.00     0.129 C 
ATOM     11  C   UNL A   1      34.895  20.864  25.144  1.00  0.00     0.055 C 
BRANCH   8  12
ATOM     12  C   UNL A   1      32.653  23.429  26.654  1.00  0.00     0.273 C 
ATOM     13  O   UNL A   1      32.152  22.941  27.667  1.00  0.00    -0.267 OA
BRANCH  12  14
ATOM     14  C   UNL A   1      32.260  24.774  26.193  1.00  0.00     0.141 A 
ATOM     15  C   UNL A   1      32.588  26.919  25.658  1.00  0.00     0.183 A 
ATOM     16  N   UNL A   1      33.112  25.879  26.262  1.00  0.00    -0.215 NA
ATOM     17  S   UNL A   1      30.986  26.678  25.074  1.00  0.00    -0.105 S 
ATOM     18  C   UNL A   1      31.061  25.037  25.554  1.00  0.00     0.102 A 
BRANCH  15  19
ATOM     19  N   UNL A   1      33.210  28.096  25.449  1.00  0.00    -0.365 N 
ATOM     20  C   UNL A   1      32.462  29.315  25.268  1.00  0.00     0.142 C 
ATOM     21  H   UNL A   1      34.193  28.123  25.420  1.00  0.00     0.162 HD
ENDBRANCH  15  19
ENDBRANCH  12  14
ENDBRANCH   8  12
BRANCH  11  22
ATOM     22  C   UNL A   1      34.154  19.618  24.572  1.00  0.00    -0.039 A 
ATOM     23  C   UNL A   1      34.809  18.363  24.582  1.00  0.00     0.004 A 
ATOM     24  C   UNL A   1      32.911  19.654  23.873  1.00  0.00    -0.048 A 
ATOM     25  C   UNL A   1      34.290  17.223  23.956  1.00  0.00     0.000 A 
ATOM     26  C   UNL A   1      32.404  18.488  23.246  1.00  0.00     0.004 A 
ATOM     27  C   UNL A   1      32.054  20.869  23.658  1.00  0.00     0.044 C 
ATOM     28  C   UNL A   1      33.087  17.285  23.281  1.00  0.00     0.000 A 
ENDBRANCH  11  22
ENDBRANCH   5   7
ENDBRANCH   4   5
ENDBRANCH   3   4
ENDBRANCH   2   3
ENDBRANCH   1   2
BRANCH   1  29
ATOM     29  C   UNL A   1      41.599  22.738  26.733  1.00  0.00     0.202 C 
BRANCH  29  30
ATOM     30  C   UNL A   1      42.383  23.843  26.019  1.00  0.00     0.261 C 
BRANCH  30  31
ATOM     31  O   UNL A   1      42.480  25.035  26.817  1.00  0.00    -0.460 OA
BRANCH  31  32
ATOM     32  C   UNL A   1      41.656  26.032  26.426  1.00  0.00     0.338 C 
ATOM     33  O   UNL A   1      41.196  26.207  25.301  1.00  0.00    -0.246 OA
BRANCH  32  34
ATOM     34  C   UNL A   1      41.244  26.851  27.578  1.00  0.00     0.060 A 
ATOM     35  C   UNL A   1      41.831  28.115  27.703  1.00  0.00     0.016 A 
ATOM     36  C   UNL A   1      40.378  26.372  28.566  1.00  0.00     0.016 A 
ATOM     37  C   UNL A   1      41.598  28.882  28.843  1.00  0.00     0.010 A 
ATOM     38  C   UNL A   1      40.146  27.145  29.711  1.00  0.00     0.010 A 
ATOM     39  C   UNL A   1      40.782  28.390  29.870  1.00  0.00    -0.014 A 
BRANCH  39  40
ATOM     40  C   UNL A   1      40.695  29.146  31.145  1.00  0.00     0.031 A 
ATOM     41  C   UNL A   1      41.719  28.910  32.224  1.00  0.00     0.074 A 
ATOM     42  C   UNL A   1      39.749  30.090  31.310  1.00  0.00     0.049 A 
ATOM     43  N   UNL A   1      41.844  29.501  33.385  1.00  0.00    -0.248 NA
ATOM     44  C   UNL A   1      42.735  27.878  31.960  1.00  0.00     0.031 C 
ATOM     45  C   UNL A   1      38.719  30.435  30.330  1.00  0.00     0.029 A 
ATOM     46  N   UNL A   1      39.509  30.938  32.362  1.00  0.00    -0.354 N 
ATOM     47  C   UNL A   1      42.958  28.923  33.986  1.00  0.00     0.074 A 
ATOM     48  C   UNL A   1      43.446  27.906  33.080  1.00  0.00     0.031 C 
ATOM     49  C   UNL A   1      37.957  31.423  30.828  1.00  0.00     0.029 A 
ATOM     50  C   UNL A   1      38.428  31.764  32.168  1.00  0.00     0.049 A 
ATOM     51  H   UNL A   1      40.060  30.952  33.178  1.00  0.00     0.167 HD
ATOM     52  C   UNL A   1      43.530  29.220  35.178  1.00  0.00     0.031 A 
ATOM     53  C   UNL A   1      37.873  32.684  32.983  1.00  0.00     0.031 A 
ATOM     54  C   UNL A   1      43.038  30.219  36.089  1.00  0.00     0.049 A 
ATOM     55  C   UNL A   1      38.491  32.949  34.331  1.00  0.00     0.074 A 
ATOM     56  C   UNL A   1      43.552  30.588  37.322  1.00  0.00     0.029 A 
ATOM     57  N   UNL A   1      41.921  31.009  35.873  1.00  0.00    -0.354 N 
ATOM     58  N   UNL A   1      39.556  32.407  34.871  1.00  0.00    -0.248 NA
ATOM     59  C   UNL A   1      37.838  33.963  35.173  1.00  0.00     0.031 C 
ATOM     60  C   UNL A   1      42.718  31.567  37.870  1.00  0.00     0.029 A 
ATOM     61  C   UNL A   1      41.717  31.849  36.955  1.00  0.00     0.049 A 
ATOM     62  H   UNL A   1      41.355  30.978  35.067  1.00  0.00     0.167 HD
ATOM     63  C   UNL A   1      39.711  33.029  36.107  1.00  0.00     0.074 A 
ATOM     64  C   UNL A   1      38.646  34.003  36.222  1.00  0.00     0.031 C 
ATOM     65  C   UNL A   1      40.651  32.811  37.061  1.00  0.00     0.031 A 
BRANCH  52  66
ATOM     66  C   UNL A   1      44.759  28.445  35.574  1.00  0.00    -0.014 A 
ATOM     67  C   UNL A   1      44.651  27.241  36.293  1.00  0.00     0.010 A 
ATOM     68  C   UNL A   1      46.030  28.889  35.167  1.00  0.00     0.010 A 
ATOM     69  C   UNL A   1      45.795  26.507  36.618  1.00  0.00     0.020 A 
ATOM     70  C   UNL A   1      47.174  28.145  35.471  1.00  0.00     0.020 A 
ATOM     71  C   UNL A   1      47.050  26.963  36.205  1.00  0.00     0.054 A 
BRANCH  71  72
ATOM     72  S   UNL A   1      48.513  25.968  36.605  1.00  0.00     0.124 S 
ATOM     73  O   UNL A   1      49.592  26.935  36.427  1.00  0.00    -0.237 OA
ATOM     74  O   UNL A   1      48.256  25.560  37.983  1.00  0.00    -0.237 OA
ATOM     75  O   UNL A   1      48.477  24.888  35.622  1.00  0.00    -0.744 OA
ENDBRANCH  71  72
ENDBRANCH  52  66
BRANCH  53  76
ATOM     76  C   UNL A   1      36.640  33.403  32.563  1.00  0.00    -0.014 A 
ATOM     77  C   UNL A   1      36.580  34.808  32.576  1.00  0.00     0.010 A 
ATOM     78  C   UNL A   1      35.503  32.674  32.169  1.00  0.00     0.010 A 
ATOM     79  C   UNL A   1      35.395  35.468  32.234  1.00  0.00     0.020 A 
ATOM     80  C   UNL A   1      34.328  33.330  31.798  1.00  0.00     0.020 A 
ATOM     81  C   UNL A   1      34.275  34.724  31.850  1.00  0.00     0.054 A 
BRANCH  81  82
ATOM     82  S   UNL A   1      32.755  35.598  31.384  1.00  0.00     0.124 S 
ATOM     83  O   UNL A   1      32.491  35.057  30.056  1.00  0.00    -0.237 OA
ATOM     84  O   UNL A   1      31.822  35.190  32.432  1.00  0.00    -0.237 OA
ATOM     85  O   UNL A   1      33.147  37.005  31.424  1.00  0.00    -0.744 OA
ENDBRANCH  81  82
ENDBRANCH  53  76
BRANCH  65  86
ATOM     86  C   UNL A   1      40.583  33.661  38.303  1.00  0.00    -0.014 A 
ATOM     87  C   UNL A   1      39.805  33.274  39.409  1.00  0.00     0.010 A 
ATOM     88  C   UNL A   1      41.336  34.847  38.377  1.00  0.00     0.010 A 
ATOM     89  C   UNL A   1      39.748  34.080  40.549  1.00  0.00     0.020 A 
ATOM     90  C   UNL A   1      41.303  35.642  39.526  1.00  0.00     0.020 A 
ATOM     91  C   UNL A   1      40.493  35.261  40.599  1.00  0.00     0.054 A 
BRANCH  91  92
ATOM     92  S   UNL A   1      40.420  36.280  42.099  1.00  0.00     0.124 S 
ATOM     93  O   UNL A   1      41.765  36.846  42.148  1.00  0.00    -0.237 OA
ATOM     94  O   UNL A   1      39.351  37.227  41.792  1.00  0.00    -0.237 OA
ATOM     95  O   UNL A   1      40.108  35.320  43.155  1.00  0.00    -0.744 OA
ENDBRANCH  91  92
ENDBRANCH  65  86
ENDBRANCH  39  40
ENDBRANCH  32  34
ENDBRANCH  31  32
ENDBRANCH  30  31
ENDBRANCH  29  30
ENDBRANCH   1  29
TORSDOF 21
ENDMDL
MODEL 3
REMARK VINA RESULT:      -9.7      2.044      2.610
REMARK SMILES CNc1nc(C(=O)N2C[C@@H](C(=O)OCCOCCOC(=O)c3ccc(-c4c5nc(c(-c6ccc(S(=O)(=O)[O-])cc6)c6ccc([nH]6)c(-c6ccc(S(=O)(=O)[O-])cc6)c6nc(c(-c7ccc(S(=O)(=O)[O-])cc7)c7ccc4[nH]7)C=C6)C=C5)cc3)[C@H](c3ccccc3C)C2)cs1
REMARK SMILES IDX 16 1 15 2 14 3 13 4 11 5 12 6 10 7 8 8 9 9 90 10 82 11 6 12
REMARK SMILES IDX 7 13 5 14 3 15 4 16 92 17 91 18 2 19 1 20 83 22 84 23 88 24
REMARK SMILES IDX 85 25 87 26 89 27 86 28 17 29 18 30 19 31 20 32 21 33 22 34
REMARK SMILES IDX 23 35 81 36 24 37 80 38 25 39 26 40 27 41 74 42 28 43 79 44
REMARK SMILES IDX 73 45 75 46 29 47 78 48 72 49 71 50 30 52 60 53 41 54 59 55
REMARK SMILES IDX 42 56 45 57 58 58 76 59 43 60 44 61 57 63 77 64 46 65 31 66
REMARK SMILES IDX 32 67 40 68 33 69 39 70 34 71 35 72 36 73 37 74 38 75 61 76
REMARK SMILES IDX 62 77 70 78 63 79 69 80 64 81 65 82 66 83 67 84 68 85 47 86
REMARK SMILES IDX 48 87 56 88 49 89 55 90 50 91 51 92 52 93 53 94 54 95
REMARK H PARENT 2 21 75 51 45 62
REMARK Flexibility Score: inf
ROOT
ATOM      1  O   UNL A   1      33.913  23.004  23.905  1.00  0.00    -0.374 OA
ENDROOT
BRANCH   1   2
ATOM      2  C   UNL A   1      33.212  22.487  25.044  1.00  0.00     0.202 C 
BRANCH   2   3
ATOM      3  C   UNL A   1      31.682  22.522  24.902  1.00  0.00     0.261 C 
BRANCH   3   4
ATOM      4  O   UNL A   1      31.256  23.880  25.112  1.00  0.00    -0.463 OA
BRANCH   4   5
ATOM      5  C   UNL A   1      30.663  24.553  24.099  1.00  0.00     0.311 C 
ATOM      6  O   UNL A   1      30.324  24.052  23.039  1.00  0.00    -0.252 OA
BRANCH   5   7
ATOM      7  C   UNL A   1      30.349  25.971  24.563  1.00  0.00     0.128 C 
ATOM      8  N   UNL A   1      29.013  27.623  23.547  1.00  0.00    -0.336 N 
ATOM      9  C   UNL A   1      28.920  26.319  24.144  1.00  0.00     0.136 C 
ATOM     10  C   UNL A   1      30.350  27.817  23.027  1.00  0.00     0.129 C 
ATOM     11  C   UNL A   1      31.303  27.051  23.994  1.00  0.00     0.055 C 
BRANCH   8  12
ATOM     12  C   UNL A   1      27.934  28.406  23.162  1.00  0.00     0.273 C 
ATOM     13  O   UNL A   1      26.781  27.979  23.213  1.00  0.00    -0.267 OA
BRANCH  12  14
ATOM     14  C   UNL A   1      28.211  29.771  22.676  1.00  0.00     0.141 A 
ATOM     15  C   UNL A   1      28.228  31.438  21.187  1.00  0.00     0.183 A 
ATOM     16  N   UNL A   1      28.067  30.144  21.337  1.00  0.00    -0.215 NA
ATOM     17  S   UNL A   1      28.684  32.275  22.620  1.00  0.00    -0.105 S 
ATOM     18  C   UNL A   1      28.528  30.825  23.515  1.00  0.00     0.102 A 
BRANCH  15  19
ATOM     19  N   UNL A   1      28.036  32.120  20.041  1.00  0.00    -0.365 N 
ATOM     20  C   UNL A   1      27.397  33.412  20.039  1.00  0.00     0.142 C 
ATOM     21  H   UNL A   1      28.337  31.729  19.190  1.00  0.00     0.162 HD
ENDBRANCH  15  19
ENDBRANCH  12  14
ENDBRANCH   8  12
BRANCH  11  22
ATOM     22  C   UNL A   1      32.098  27.894  25.037  1.00  0.00    -0.039 A 
ATOM     23  C   UNL A   1      31.600  28.002  26.357  1.00  0.00     0.004 A 
ATOM     24  C   UNL A   1      33.222  28.719  24.736  1.00  0.00    -0.048 A 
ATOM     25  C   UNL A   1      32.157  28.855  27.319  1.00  0.00     0.000 A 
ATOM     26  C   UNL A   1      33.769  29.576  25.724  1.00  0.00     0.004 A 
ATOM     27  C   UNL A   1      33.895  28.842  23.399  1.00  0.00     0.044 C 
ATOM     28  C   UNL A   1      33.241  29.649  27.001  1.00  0.00     0.000 A 
ENDBRANCH  11  22
ENDBRANCH   5   7
ENDBRANCH   4   5
ENDBRANCH   3   4
ENDBRANCH   2   3
ENDBRANCH   1   2
BRANCH   1  29
ATOM     29  C   UNL A   1      35.132  23.692  24.169  1.00  0.00     0.202 C 
BRANCH  29  30
ATOM     30  C   UNL A   1      36.196  22.887  24.921  1.00  0.00     0.261 C 
BRANCH  30  31
ATOM     31  O   UNL A   1      36.945  23.707  25.834  1.00  0.00    -0.460 OA
BRANCH  31  32
ATOM     32  C   UNL A   1      38.131  23.178  26.208  1.00  0.00     0.338 C 
ATOM     33  O   UNL A   1      38.484  22.009  26.090  1.00  0.00    -0.246 OA
BRANCH  32  34
ATOM     34  C   UNL A   1      39.047  24.231  26.676  1.00  0.00     0.060 A 
ATOM     35  C   UNL A   1      39.097  24.466  28.055  1.00  0.00     0.016 A 
ATOM     36  C   UNL A   1      39.775  25.036  25.794  1.00  0.00     0.016 A 
ATOM     37  C   UNL A   1      39.831  25.540  28.553  1.00  0.00     0.010 A 
ATOM     38  C   UNL A   1      40.513  26.116  26.299  1.00  0.00     0.010 A 
ATOM     39  C   UNL A   1      40.516  26.393  27.677  1.00  0.00    -0.014 A 
BRANCH  39  40
ATOM     40  C   UNL A   1      41.139  27.628  28.217  1.00  0.00     0.031 A 
ATOM     41  C   UNL A   1      42.637  27.788  28.176  1.00  0.00     0.074 A 
ATOM     42  C   UNL A   1      40.369  28.632  28.676  1.00  0.00     0.049 A 
ATOM     43  N   UNL A   1      43.368  28.806  28.552  1.00  0.00    -0.248 NA
ATOM     44  C   UNL A   1      43.410  26.657  27.638  1.00  0.00     0.031 C 
ATOM     45  C   UNL A   1      38.907  28.614  28.741  1.00  0.00     0.029 A 
ATOM     46  N   UNL A   1      40.711  29.867  29.167  1.00  0.00    -0.354 N 
ATOM     47  C   UNL A   1      44.685  28.445  28.286  1.00  0.00     0.074 A 
ATOM     48  C   UNL A   1      44.655  27.099  27.757  1.00  0.00     0.031 C 
ATOM     49  C   UNL A   1      38.478  29.783  29.244  1.00  0.00     0.029 A 
ATOM     50  C   UNL A   1      39.632  30.623  29.558  1.00  0.00     0.049 A 
ATOM     51  H   UNL A   1      41.642  30.181  29.233  1.00  0.00     0.167 HD
ATOM     52  C   UNL A   1      45.816  29.172  28.455  1.00  0.00     0.031 A 
ATOM     53  C   UNL A   1      39.580  31.849  30.117  1.00  0.00     0.031 A 
ATOM     54  C   UNL A   1      45.852  30.506  28.996  1.00  0.00     0.049 A 
ATOM     55  C   UNL A   1      40.857  32.610  30.355  1.00  0.00     0.074 A 
ATOM     56  C   UNL A   1      46.953  31.320  29.206  1.00  0.00     0.029 A 
ATOM     57  N   UNL A   1      44.742  31.222  29.413  1.00  0.00    -0.354 N 
ATOM     58  N   UNL A   1      42.090  32.260  30.077  1.00  0.00    -0.248 NA
ATOM     59  C   UNL A   1      40.733  33.941  30.968  1.00  0.00     0.031 C 
ATOM     60  C   UNL A   1      46.512  32.510  29.794  1.00  0.00     0.029 A 
ATOM     61  C   UNL A   1      45.132  32.460  29.899  1.00  0.00     0.049 A 
ATOM     62  H   UNL A   1      43.813  30.899  29.372  1.00  0.00     0.167 HD
ATOM     63  C   UNL A   1      42.885  33.335  30.464  1.00  0.00     0.074 A 
ATOM     64  C   UNL A   1      41.992  34.355  30.972  1.00  0.00     0.031 C 
ATOM     65  C   UNL A   1      44.234  33.465  30.405  1.00  0.00     0.031 A 
BRANCH  52  66
ATOM     66  C   UNL A   1      47.121  28.536  28.056  1.00  0.00    -0.014 A 
ATOM     67  C   UNL A   1      47.657  28.735  26.771  1.00  0.00     0.010 A 
ATOM     68  C   UNL A   1      47.852  27.787  28.995  1.00  0.00     0.010 A 
ATOM     69  C   UNL A   1      48.890  28.176  26.425  1.00  0.00     0.020 A 
ATOM     70  C   UNL A   1      49.097  27.245  28.660  1.00  0.00     0.020 A 
ATOM     71  C   UNL A   1      49.603  27.435  27.372  1.00  0.00     0.054 A 
BRANCH  71  72
ATOM     72  S   UNL A   1      51.221  26.756  26.908  1.00  0.00     0.124 S 
ATOM     73  O   UNL A   1      51.355  25.638  27.838  1.00  0.00    -0.237 OA
ATOM     74  O   UNL A   1      51.025  26.389  25.508  1.00  0.00    -0.237 OA
ATOM     75  O   UNL A   1      52.141  27.868  27.134  1.00  0.00    -0.744 OA
ENDBRANCH  71  72
ENDBRANCH  52  66
BRANCH  53  76
ATOM     76  C   UNL A   1      38.270  32.425  30.526  1.00  0.00    -0.014 A 
ATOM     77  C   UNL A   1      37.514  33.209  29.638  1.00  0.00     0.010 A 
ATOM     78  C   UNL A   1      37.785  32.208  31.829  1.00  0.00     0.010 A 
ATOM     79  C   UNL A   1      36.313  33.792  30.055  1.00  0.00     0.020 A 
ATOM     80  C   UNL A   1      36.572  32.763  32.240  1.00  0.00     0.020 A 
ATOM     81  C   UNL A   1      35.851  33.568  31.355  1.00  0.00     0.054 A 
BRANCH  81  82
ATOM     82  S   UNL A   1      34.278  34.309  31.871  1.00  0.00     0.124 S 
ATOM     83  O   UNL A   1      33.597  34.491  30.595  1.00  0.00    -0.237 OA
ATOM     84  O   UNL A   1      33.718  33.284  32.750  1.00  0.00    -0.237 OA
ATOM     85  O   UNL A   1      34.687  35.538  32.546  1.00  0.00    -0.744 OA
ENDBRANCH  81  82
ENDBRANCH  53  76
BRANCH  65  86
ATOM     86  C   UNL A   1      44.824  34.768  30.879  1.00  0.00    -0.014 A 
ATOM     87  C   UNL A   1      45.031  35.839  29.991  1.00  0.00     0.010 A 
ATOM     88  C   UNL A   1      45.144  34.934  32.239  1.00  0.00     0.010 A 
ATOM     89  C   UNL A   1      45.588  37.037  30.448  1.00  0.00     0.020 A 
ATOM     90  C   UNL A   1      45.675  36.140  32.704  1.00  0.00     0.020 A 
ATOM     91  C   UNL A   1      45.910  37.178  31.801  1.00  0.00     0.054 A 
BRANCH  91  92
ATOM     92  S   UNL A   1      46.612  38.751  32.374  1.00  0.00     0.124 S 
ATOM     93  O   UNL A   1      47.624  38.303  33.325  1.00  0.00    -0.237 OA
ATOM     94  O   UNL A   1      47.125  39.342  31.141  1.00  0.00    -0.237 OA
ATOM     95  O   UNL A   1      45.468  39.446  32.961  1.00  0.00    -0.744 OA
ENDBRANCH  91  92
ENDBRANCH  65  86
ENDBRANCH  39  40
ENDBRANCH  32  34
ENDBRANCH  31  32
ENDBRANCH  30  31
ENDBRANCH  29  30
ENDBRANCH   1  29
TORSDOF 21
ENDMDL
