MODEL 1
REMARK VINA RESULT:      -9.8      0.000      0.000
REMARK SMILES COc1cc2c(CC(=O)OCCOCCOC(=O)c3ccc(-c4c5nc(c(-c6ccc(S(=O)(=O)[O-])cc6)c6ccc([nH]6)c(-c6ccc(S(=O)(=O)[O-])cc6)c6nc(c(-c7ccc(S(=O)(=O)[O-])cc7)c7ccc4[nH]7)C=C6)C=C5)cc3)c(C)n(C(=O)c3ccc(Cl)cc3)c2cc1Cl
REMARK SMILES IDX 13 1 12 2 11 3 10 4 8 5 9 6 7 7 6 8 3 9 4 10 93 11 5 12
REMARK SMILES IDX 92 13 94 14 91 15 79 16 81 17 80 18 2 19 1 20 82 21 83 22
REMARK SMILES IDX 84 23 85 24 90 25 86 26 89 27 87 28 88 29 14 30 15 31 16 32
REMARK SMILES IDX 17 33 18 34 19 35 20 36 78 37 21 38 77 39 22 40 23 41 24 42
REMARK SMILES IDX 71 43 25 44 76 45 70 46 72 47 26 48 75 49 69 50 68 51 27 53
REMARK SMILES IDX 57 54 38 55 56 56 39 57 42 58 55 59 73 60 40 61 41 62 54 64
REMARK SMILES IDX 74 65 43 66 28 67 29 68 37 69 30 70 36 71 31 72 32 73 33 74
REMARK SMILES IDX 34 75 35 76 58 77 59 78 67 79 60 80 66 81 61 82 62 83 63 84
REMARK SMILES IDX 64 85 65 86 44 87 45 88 53 89 46 90 52 91 47 92 48 93 49 94
REMARK SMILES IDX 50 95 51 96
REMARK H PARENT 72 52 42 63
REMARK Flexibility Score: inf
ROOT
ATOM      1  O   UNL A   1      34.482  21.746  25.557  1.00  0.00    -0.374 OA
ENDROOT
BRANCH   1   2
ATOM      2  C   UNL A   1      33.517  21.855  24.519  1.00  0.00     0.202 C 
BRANCH   2   3
ATOM      3  C   UNL A   1      32.541  23.041  24.493  1.00  0.00     0.261 C 
BRANCH   3   4
ATOM      4  O   UNL A   1      31.567  23.034  25.552  1.00  0.00    -0.463 OA
BRANCH   4   5
ATOM      5  C   UNL A   1      31.761  23.991  26.496  1.00  0.00     0.310 C 
ATOM      6  O   UNL A   1      32.513  23.870  27.462  1.00  0.00    -0.252 OA
BRANCH   5   7
ATOM      7  C   UNL A   1      30.958  25.257  26.312  1.00  0.00     0.160 C 
BRANCH   7   8
ATOM      8  C   UNL A   1      31.668  26.555  26.014  1.00  0.00    -0.008 A 
ATOM      9  C   UNL A   1      33.495  26.683  22.623  1.00  0.00     0.138 A 
ATOM     10  C   UNL A   1      32.764  26.123  23.687  1.00  0.00     0.058 A 
ATOM     11  C   UNL A   1      34.059  27.937  22.812  1.00  0.00     0.085 A 
ATOM     12  C   UNL A   1      32.459  26.845  24.866  1.00  0.00     0.008 A 
ATOM     13  C   UNL A   1      33.859  28.627  24.022  1.00  0.00     0.051 A 
ATOM     14  Cl  UNL A   1      35.061  28.771  21.673  1.00  0.00    -0.080 Cl
ATOM     15  C   UNL A   1      33.018  28.112  25.034  1.00  0.00     0.058 A 
ATOM     16  C   UNL A   1      31.776  27.648  26.871  1.00  0.00     0.028 A 
ATOM     17  N   UNL A   1      32.627  28.606  26.296  1.00  0.00    -0.280 N 
ATOM     18  C   UNL A   1      31.106  27.765  28.209  1.00  0.00     0.065 C 
BRANCH   9  19
ATOM     19  O   UNL A   1      33.510  25.858  21.532  1.00  0.00    -0.495 OA
ATOM     20  C   UNL A   1      32.305  25.534  20.858  1.00  0.00     0.278 C 
ENDBRANCH   9  19
BRANCH  17  21
ATOM     21  C   UNL A   1      33.068  29.829  26.891  1.00  0.00     0.262 C 
ATOM     22  O   UNL A   1      32.256  30.720  27.127  1.00  0.00    -0.268 OA
BRANCH  21  23
ATOM     23  C   UNL A   1      34.441  30.110  27.339  1.00  0.00     0.040 A 
ATOM     24  C   UNL A   1      35.373  29.075  27.478  1.00  0.00     0.015 A 
ATOM     25  C   UNL A   1      34.778  31.430  27.662  1.00  0.00     0.015 A 
ATOM     26  C   UNL A   1      36.626  29.357  28.029  1.00  0.00     0.021 A 
ATOM     27  C   UNL A   1      36.036  31.706  28.202  1.00  0.00     0.021 A 
ATOM     28  C   UNL A   1      36.946  30.666  28.400  1.00  0.00     0.041 A 
ATOM     29  Cl  UNL A   1      38.467  30.999  29.131  1.00  0.00    -0.084 Cl
ENDBRANCH  21  23
ENDBRANCH  17  21
ENDBRANCH   7   8
ENDBRANCH   5   7
ENDBRANCH   4   5
ENDBRANCH   3   4
ENDBRANCH   2   3
ENDBRANCH   1   2
BRANCH   1  30
ATOM     30  C   UNL A   1      35.491  22.748  25.595  1.00  0.00     0.202 C 
BRANCH  30  31
ATOM     31  C   UNL A   1      36.956  22.315  25.425  1.00  0.00     0.261 C 
BRANCH  31  32
ATOM     32  O   UNL A   1      37.852  23.381  25.759  1.00  0.00    -0.460 OA
BRANCH  32  33
ATOM     33  C   UNL A   1      38.978  22.965  26.406  1.00  0.00     0.338 C 
ATOM     34  O   UNL A   1      39.556  21.910  26.280  1.00  0.00    -0.246 OA
BRANCH  33  35
ATOM     35  C   UNL A   1      39.567  24.215  26.920  1.00  0.00     0.060 A 
ATOM     36  C   UNL A   1      40.727  24.178  27.699  1.00  0.00     0.016 A 
ATOM     37  C   UNL A   1      38.713  25.328  26.921  1.00  0.00     0.016 A 
ATOM     38  C   UNL A   1      40.984  25.237  28.558  1.00  0.00     0.010 A 
ATOM     39  C   UNL A   1      38.954  26.365  27.812  1.00  0.00     0.010 A 
ATOM     40  C   UNL A   1      40.069  26.299  28.654  1.00  0.00    -0.014 A 
BRANCH  40  41
ATOM     41  C   UNL A   1      40.426  27.430  29.507  1.00  0.00     0.031 A 
ATOM     42  C   UNL A   1      41.455  28.310  28.895  1.00  0.00     0.074 A 
ATOM     43  C   UNL A   1      39.809  27.792  30.648  1.00  0.00     0.049 A 
ATOM     44  N   UNL A   1      42.634  28.600  29.337  1.00  0.00    -0.248 NA
ATOM     45  C   UNL A   1      41.168  28.821  27.545  1.00  0.00     0.031 C 
ATOM     46  C   UNL A   1      38.572  27.257  31.209  1.00  0.00     0.029 A 
ATOM     47  N   UNL A   1      40.100  28.829  31.488  1.00  0.00    -0.354 N 
ATOM     48  C   UNL A   1      43.181  29.466  28.394  1.00  0.00     0.074 A 
ATOM     49  C   UNL A   1      42.315  29.420  27.244  1.00  0.00     0.031 C 
ATOM     50  C   UNL A   1      38.097  28.104  32.146  1.00  0.00     0.029 A 
ATOM     51  C   UNL A   1      39.049  29.185  32.323  1.00  0.00     0.049 A 
ATOM     52  H   UNL A   1      40.974  29.281  31.501  1.00  0.00     0.167 HD
ATOM     53  C   UNL A   1      44.195  30.325  28.682  1.00  0.00     0.031 A 
ATOM     54  C   UNL A   1      38.913  30.345  33.013  1.00  0.00     0.031 A 
ATOM     55  C   UNL A   1      44.874  29.978  29.899  1.00  0.00     0.049 A 
ATOM     56  C   UNL A   1      40.257  30.962  33.123  1.00  0.00     0.074 A 
ATOM     57  C   UNL A   1      45.591  28.881  30.330  1.00  0.00     0.029 A 
ATOM     58  N   UNL A   1      44.568  30.702  31.026  1.00  0.00    -0.354 N 
ATOM     59  N   UNL A   1      41.237  30.458  33.818  1.00  0.00    -0.248 NA
ATOM     60  C   UNL A   1      40.641  31.953  32.129  1.00  0.00     0.031 C 
ATOM     61  C   UNL A   1      45.293  28.763  31.716  1.00  0.00     0.029 A 
ATOM     62  C   UNL A   1      44.439  29.814  32.062  1.00  0.00     0.049 A 
ATOM     63  H   UNL A   1      44.462  31.680  31.080  1.00  0.00     0.167 HD
ATOM     64  C   UNL A   1      42.378  30.747  33.085  1.00  0.00     0.074 A 
ATOM     65  C   UNL A   1      41.962  31.757  32.118  1.00  0.00     0.031 C 
ATOM     66  C   UNL A   1      43.484  29.947  33.146  1.00  0.00     0.031 A 
BRANCH  53  67
ATOM     67  C   UNL A   1      44.348  31.668  28.016  1.00  0.00    -0.014 A 
ATOM     68  C   UNL A   1      43.680  32.827  28.464  1.00  0.00     0.010 A 
ATOM     69  C   UNL A   1      45.368  31.852  27.062  1.00  0.00     0.010 A 
ATOM     70  C   UNL A   1      43.982  34.098  27.978  1.00  0.00     0.020 A 
ATOM     71  C   UNL A   1      45.720  33.132  26.607  1.00  0.00     0.020 A 
ATOM     72  C   UNL A   1      45.018  34.246  27.066  1.00  0.00     0.054 A 
BRANCH  72  73
ATOM     73  S   UNL A   1      45.485  35.925  26.587  1.00  0.00     0.124 S 
ATOM     74  O   UNL A   1      46.302  35.680  25.401  1.00  0.00    -0.237 OA
ATOM     75  O   UNL A   1      44.189  36.551  26.341  1.00  0.00    -0.237 OA
ATOM     76  O   UNL A   1      46.206  36.424  27.754  1.00  0.00    -0.744 OA
ENDBRANCH  72  73
ENDBRANCH  53  67
BRANCH  54  77
ATOM     77  C   UNL A   1      37.664  31.138  33.166  1.00  0.00    -0.014 A 
ATOM     78  C   UNL A   1      36.674  31.100  32.161  1.00  0.00     0.010 A 
ATOM     79  C   UNL A   1      37.572  32.154  34.136  1.00  0.00     0.010 A 
ATOM     80  C   UNL A   1      35.683  32.080  32.074  1.00  0.00     0.020 A 
ATOM     81  C   UNL A   1      36.583  33.149  34.050  1.00  0.00     0.020 A 
ATOM     82  C   UNL A   1      35.669  33.125  32.995  1.00  0.00     0.054 A 
BRANCH  82  83
ATOM     83  S   UNL A   1      34.507  34.490  32.716  1.00  0.00     0.124 S 
ATOM     84  O   UNL A   1      34.665  34.732  31.284  1.00  0.00    -0.237 OA
ATOM     85  O   UNL A   1      33.230  33.904  33.113  1.00  0.00    -0.237 OA
ATOM     86  O   UNL A   1      35.002  35.551  33.588  1.00  0.00    -0.744 OA
ENDBRANCH  82  83
ENDBRANCH  54  77
BRANCH  66  87
ATOM     87  C   UNL A   1      43.593  28.914  34.247  1.00  0.00    -0.014 A 
ATOM     88  C   UNL A   1      42.849  27.727  34.097  1.00  0.00     0.010 A 
ATOM     89  C   UNL A   1      44.213  29.164  35.487  1.00  0.00     0.010 A 
ATOM     90  C   UNL A   1      42.686  26.841  35.163  1.00  0.00     0.020 A 
ATOM     91  C   UNL A   1      44.075  28.263  36.554  1.00  0.00     0.020 A 
ATOM     92  C   UNL A   1      43.286  27.122  36.392  1.00  0.00     0.054 A 
BRANCH  92  93
ATOM     93  S   UNL A   1      42.978  25.988  37.774  1.00  0.00     0.124 S 
ATOM     94  O   UNL A   1      41.525  26.059  37.913  1.00  0.00    -0.237 OA
ATOM     95  O   UNL A   1      43.493  24.716  37.269  1.00  0.00    -0.237 OA
ATOM     96  O   UNL A   1      43.736  26.564  38.881  1.00  0.00    -0.744 OA
ENDBRANCH  92  93
ENDBRANCH  66  87
ENDBRANCH  40  41
ENDBRANCH  33  35
ENDBRANCH  32  33
ENDBRANCH  31  32
ENDBRANCH  30  31
ENDBRANCH   1  30
TORSDOF 21
ENDMDL
MODEL 2
REMARK VINA RESULT:      -8.9      7.865     14.791
REMARK SMILES COc1cc2c(CC(=O)OCCOCCOC(=O)c3ccc(-c4c5nc(c(-c6ccc(S(=O)(=O)[O-])cc6)c6ccc([nH]6)c(-c6ccc(S(=O)(=O)[O-])cc6)c6nc(c(-c7ccc(S(=O)(=O)[O-])cc7)c7ccc4[nH]7)C=C6)C=C5)cc3)c(C)n(C(=O)c3ccc(Cl)cc3)c2cc1Cl
REMARK SMILES IDX 13 1 12 2 11 3 10 4 8 5 9 6 7 7 6 8 3 9 4 10 93 11 5 12
REMARK SMILES IDX 92 13 94 14 91 15 79 16 81 17 80 18 2 19 1 20 82 21 83 22
REMARK SMILES IDX 84 23 85 24 90 25 86 26 89 27 87 28 88 29 14 30 15 31 16 32
REMARK SMILES IDX 17 33 18 34 19 35 20 36 78 37 21 38 77 39 22 40 23 41 24 42
REMARK SMILES IDX 71 43 25 44 76 45 70 46 72 47 26 48 75 49 69 50 68 51 27 53
REMARK SMILES IDX 57 54 38 55 56 56 39 57 42 58 55 59 73 60 40 61 41 62 54 64
REMARK SMILES IDX 74 65 43 66 28 67 29 68 37 69 30 70 36 71 31 72 32 73 33 74
REMARK SMILES IDX 34 75 35 76 58 77 59 78 67 79 60 80 66 81 61 82 62 83 63 84
REMARK SMILES IDX 64 85 65 86 44 87 45 88 53 89 46 90 52 91 47 92 48 93 49 94
REMARK SMILES IDX 50 95 51 96
REMARK H PARENT 72 52 42 63
REMARK Flexibility Score: inf
ROOT
ATOM      1  O   UNL A   1      45.948  40.121  27.834  1.00  0.00    -0.374 OA
ENDROOT
BRANCH   1   2
ATOM      2  C   UNL A   1      45.351  39.936  26.558  1.00  0.00     0.202 C 
BRANCH   2   3
ATOM      3  C   UNL A   1      45.382  41.068  25.520  1.00  0.00     0.261 C 
BRANCH   3   4
ATOM      4  O   UNL A   1      44.429  42.120  25.758  1.00  0.00    -0.463 OA
BRANCH   4   5
ATOM      5  C   UNL A   1      43.529  42.297  24.755  1.00  0.00     0.310 C 
ATOM      6  O   UNL A   1      42.698  41.456  24.415  1.00  0.00    -0.252 OA
BRANCH   5   7
ATOM      7  C   UNL A   1      43.616  43.619  24.031  1.00  0.00     0.160 C 
BRANCH   7   8
ATOM      8  C   UNL A   1      43.944  43.643  22.558  1.00  0.00    -0.008 A 
ATOM      9  C   UNL A   1      47.584  44.581  21.706  1.00  0.00     0.138 A 
ATOM     10  C   UNL A   1      46.450  44.367  22.511  1.00  0.00     0.058 A 
ATOM     11  C   UNL A   1      47.412  44.585  20.329  1.00  0.00     0.085 A 
ATOM     12  C   UNL A   1      45.190  44.009  21.973  1.00  0.00     0.008 A 
ATOM     13  C   UNL A   1      46.143  44.338  19.774  1.00  0.00     0.051 A 
ATOM     14  Cl  UNL A   1      48.649  44.909  19.162  1.00  0.00    -0.080 Cl
ATOM     15  C   UNL A   1      45.037  43.999  20.586  1.00  0.00     0.058 A 
ATOM     16  C   UNL A   1      43.048  43.433  21.513  1.00  0.00     0.028 A 
ATOM     17  N   UNL A   1      43.696  43.676  20.290  1.00  0.00    -0.280 N 
ATOM     18  C   UNL A   1      41.610  43.037  21.675  1.00  0.00     0.065 C 
BRANCH   9  19
ATOM     19  O   UNL A   1      48.713  44.743  22.460  1.00  0.00    -0.495 OA
ATOM     20  C   UNL A   1      48.632  44.804  23.875  1.00  0.00     0.278 C 
ENDBRANCH   9  19
BRANCH  17  21
ATOM     21  C   UNL A   1      43.106  43.658  18.988  1.00  0.00     0.262 C 
ATOM     22  O   UNL A   1      42.728  42.594  18.503  1.00  0.00    -0.268 OA
BRANCH  21  23
ATOM     23  C   UNL A   1      42.824  44.845  18.166  1.00  0.00     0.040 A 
ATOM     24  C   UNL A   1      43.143  46.126  18.629  1.00  0.00     0.015 A 
ATOM     25  C   UNL A   1      42.191  44.664  16.931  1.00  0.00     0.015 A 
ATOM     26  C   UNL A   1      42.744  47.239  17.883  1.00  0.00     0.021 A 
ATOM     27  C   UNL A   1      41.804  45.779  16.186  1.00  0.00     0.021 A 
ATOM     28  C   UNL A   1      42.066  47.060  16.675  1.00  0.00     0.041 A 
ATOM     29  Cl  UNL A   1      41.525  48.432  15.787  1.00  0.00    -0.084 Cl
ENDBRANCH  21  23
ENDBRANCH  17  21
ENDBRANCH   7   8
ENDBRANCH   5   7
ENDBRANCH   4   5
ENDBRANCH   3   4
ENDBRANCH   2   3
ENDBRANCH   1   2
BRANCH   1  30
ATOM     30  C   UNL A   1      46.966  39.198  28.200  1.00  0.00     0.202 C 
BRANCH  30  31
ATOM     31  C   UNL A   1      46.661  38.175  29.307  1.00  0.00     0.261 C 
BRANCH  31  32
ATOM     32  O   UNL A   1      45.374  38.412  29.888  1.00  0.00    -0.460 OA
BRANCH  32  33
ATOM     33  C   UNL A   1      45.404  38.547  31.245  1.00  0.00     0.338 C 
ATOM     34  O   UNL A   1      45.587  39.558  31.883  1.00  0.00    -0.246 OA
BRANCH  33  35
ATOM     35  C   UNL A   1      44.731  37.329  31.732  1.00  0.00     0.060 A 
ATOM     36  C   UNL A   1      43.865  36.620  30.894  1.00  0.00     0.016 A 
ATOM     37  C   UNL A   1      44.698  37.175  33.126  1.00  0.00     0.016 A 
ATOM     38  C   UNL A   1      42.894  35.814  31.472  1.00  0.00     0.010 A 
ATOM     39  C   UNL A   1      43.699  36.400  33.699  1.00  0.00     0.010 A 
ATOM     40  C   UNL A   1      42.778  35.751  32.871  1.00  0.00    -0.014 A 
BRANCH  40  41
ATOM     41  C   UNL A   1      41.798  34.822  33.431  1.00  0.00     0.031 A 
ATOM     42  C   UNL A   1      42.026  33.418  33.002  1.00  0.00     0.074 A 
ATOM     43  C   UNL A   1      40.877  35.109  34.371  1.00  0.00     0.049 A 
ATOM     44  N   UNL A   1      41.236  32.639  32.341  1.00  0.00    -0.248 NA
ATOM     45  C   UNL A   1      43.371  32.868  33.235  1.00  0.00     0.031 C 
ATOM     46  C   UNL A   1      40.742  36.335  35.151  1.00  0.00     0.029 A 
ATOM     47  N   UNL A   1      39.936  34.290  34.925  1.00  0.00    -0.354 N 
ATOM     48  C   UNL A   1      41.924  31.436  32.212  1.00  0.00     0.074 A 
ATOM     49  C   UNL A   1      43.282  31.694  32.617  1.00  0.00     0.031 C 
ATOM     50  C   UNL A   1      39.947  36.107  36.218  1.00  0.00     0.029 A 
ATOM     51  C   UNL A   1      39.436  34.751  36.137  1.00  0.00     0.049 A 
ATOM     52  H   UNL A   1      39.636  33.452  34.504  1.00  0.00     0.167 HD
ATOM     53  C   UNL A   1      41.300  30.250  31.976  1.00  0.00     0.031 A 
ATOM     54  C   UNL A   1      38.758  34.031  37.065  1.00  0.00     0.031 A 
ATOM     55  C   UNL A   1      39.956  30.427  31.503  1.00  0.00     0.049 A 
ATOM     56  C   UNL A   1      38.218  32.826  36.392  1.00  0.00     0.074 A 
ATOM     57  C   UNL A   1      39.389  31.022  30.395  1.00  0.00     0.029 A 
ATOM     58  N   UNL A   1      38.936  30.248  32.406  1.00  0.00    -0.354 N 
ATOM     59  N   UNL A   1      37.288  32.854  35.480  1.00  0.00    -0.248 NA
ATOM     60  C   UNL A   1      38.997  31.598  36.452  1.00  0.00     0.031 C 
ATOM     61  C   UNL A   1      38.164  31.579  30.859  1.00  0.00     0.029 A 
ATOM     62  C   UNL A   1      38.035  31.262  32.214  1.00  0.00     0.049 A 
ATOM     63  H   UNL A   1      38.864  29.523  33.069  1.00  0.00     0.167 HD
ATOM     64  C   UNL A   1      37.629  31.842  34.594  1.00  0.00     0.074 A 
ATOM     65  C   UNL A   1      38.622  31.039  35.300  1.00  0.00     0.031 C 
ATOM     66  C   UNL A   1      37.282  31.906  33.274  1.00  0.00     0.031 A 
BRANCH  53  67
ATOM     67  C   UNL A   1      41.818  28.933  32.494  1.00  0.00    -0.014 A 
ATOM     68  C   UNL A   1      42.795  28.174  31.817  1.00  0.00     0.010 A 
ATOM     69  C   UNL A   1      41.508  28.539  33.810  1.00  0.00     0.010 A 
ATOM     70  C   UNL A   1      43.417  27.070  32.397  1.00  0.00     0.020 A 
ATOM     71  C   UNL A   1      42.166  27.464  34.426  1.00  0.00     0.020 A 
ATOM     72  C   UNL A   1      43.114  26.733  33.709  1.00  0.00     0.054 A 
BRANCH  72  73
ATOM     73  S   UNL A   1      44.059  25.398  34.477  1.00  0.00     0.124 S 
ATOM     74  O   UNL A   1      45.235  26.110  34.970  1.00  0.00    -0.237 OA
ATOM     75  O   UNL A   1      43.139  24.914  35.503  1.00  0.00    -0.237 OA
ATOM     76  O   UNL A   1      44.301  24.474  33.373  1.00  0.00    -0.744 OA
ENDBRANCH  72  73
ENDBRANCH  53  67
BRANCH  54  77
ATOM     77  C   UNL A   1      38.945  34.098  38.540  1.00  0.00    -0.014 A 
ATOM     78  C   UNL A   1      38.313  33.153  39.377  1.00  0.00     0.010 A 
ATOM     79  C   UNL A   1      39.484  35.249  39.144  1.00  0.00     0.010 A 
ATOM     80  C   UNL A   1      38.150  33.383  40.745  1.00  0.00     0.020 A 
ATOM     81  C   UNL A   1      39.317  35.491  40.518  1.00  0.00     0.020 A 
ATOM     82  C   UNL A   1      38.616  34.572  41.301  1.00  0.00     0.054 A 
BRANCH  82  83
ATOM     83  S   UNL A   1      38.190  34.927  43.028  1.00  0.00     0.124 S 
ATOM     84  O   UNL A   1      36.730  34.950  42.981  1.00  0.00    -0.237 OA
ATOM     85  O   UNL A   1      38.774  33.792  43.737  1.00  0.00    -0.237 OA
ATOM     86  O   UNL A   1      38.827  36.216  43.285  1.00  0.00    -0.744 OA
ENDBRANCH  82  83
ENDBRANCH  54  77
BRANCH  66  87
ATOM     87  C   UNL A   1      36.255  32.923  32.825  1.00  0.00    -0.014 A 
ATOM     88  C   UNL A   1      36.592  34.284  32.957  1.00  0.00     0.010 A 
ATOM     89  C   UNL A   1      34.927  32.591  32.493  1.00  0.00     0.010 A 
ATOM     90  C   UNL A   1      35.627  35.282  32.812  1.00  0.00     0.020 A 
ATOM     91  C   UNL A   1      33.958  33.592  32.319  1.00  0.00     0.020 A 
ATOM     92  C   UNL A   1      34.310  34.929  32.511  1.00  0.00     0.054 A 
BRANCH  92  93
ATOM     93  S   UNL A   1      33.070  36.250  32.416  1.00  0.00     0.124 S 
ATOM     94  O   UNL A   1      31.817  35.499  32.441  1.00  0.00    -0.237 OA
ATOM     95  O   UNL A   1      33.345  37.039  33.615  1.00  0.00    -0.237 OA
ATOM     96  O   UNL A   1      33.364  36.923  31.154  1.00  0.00    -0.744 OA
ENDBRANCH  92  93
ENDBRANCH  66  87
ENDBRANCH  40  41
ENDBRANCH  33  35
ENDBRANCH  32  33
ENDBRANCH  31  32
ENDBRANCH  30  31
ENDBRANCH   1  30
TORSDOF 21
ENDMDL
MODEL 3
REMARK VINA RESULT:      -8.8      7.726     15.211
REMARK SMILES COc1cc2c(CC(=O)OCCOCCOC(=O)c3ccc(-c4c5nc(c(-c6ccc(S(=O)(=O)[O-])cc6)c6ccc([nH]6)c(-c6ccc(S(=O)(=O)[O-])cc6)c6nc(c(-c7ccc(S(=O)(=O)[O-])cc7)c7ccc4[nH]7)C=C6)C=C5)cc3)c(C)n(C(=O)c3ccc(Cl)cc3)c2cc1Cl
REMARK SMILES IDX 13 1 12 2 11 3 10 4 8 5 9 6 7 7 6 8 3 9 4 10 93 11 5 12
REMARK SMILES IDX 92 13 94 14 91 15 79 16 81 17 80 18 2 19 1 20 82 21 83 22
REMARK SMILES IDX 84 23 85 24 90 25 86 26 89 27 87 28 88 29 14 30 15 31 16 32
REMARK SMILES IDX 17 33 18 34 19 35 20 36 78 37 21 38 77 39 22 40 23 41 24 42
REMARK SMILES IDX 71 43 25 44 76 45 70 46 72 47 26 48 75 49 69 50 68 51 27 53
REMARK SMILES IDX 57 54 38 55 56 56 39 57 42 58 55 59 73 60 40 61 41 62 54 64
REMARK SMILES IDX 74 65 43 66 28 67 29 68 37 69 30 70 36 71 31 72 32 73 33 74
REMARK SMILES IDX 34 75 35 76 58 77 59 78 67 79 60 80 66 81 61 82 62 83 63 84
REMARK SMILES IDX 64 85 65 86 44 87 45 88 53 89 46 90 52 91 47 92 48 93 49 94
REMARK SMILES IDX 50 95 51 96
REMARK H PARENT 72 52 42 63
REMARK Flexibility Score: inf
ROOT
ATOM      1  O   UNL A   1      44.357  42.853  30.765  1.00  0.00    -0.374 OA
ENDROOT
BRANCH   1   2
ATOM      2  C   UNL A   1      44.955  42.951  29.479  1.00  0.00     0.202 C 
BRANCH   2   3
ATOM      3  C   UNL A   1      45.259  44.329  28.871  1.00  0.00     0.261 C 
BRANCH   3   4
ATOM      4  O   UNL A   1      46.431  44.365  28.036  1.00  0.00    -0.463 OA
BRANCH   4   5
ATOM      5  C   UNL A   1      46.316  45.169  26.947  1.00  0.00     0.310 C 
ATOM      6  O   UNL A   1      45.629  46.189  26.908  1.00  0.00    -0.252 OA
BRANCH   5   7
ATOM      7  C   UNL A   1      47.083  44.721  25.726  1.00  0.00     0.160 C 
BRANCH   7   8
ATOM      8  C   UNL A   1      46.399  44.697  24.381  1.00  0.00    -0.008 A 
ATOM      9  C   UNL A   1      43.149  42.628  24.233  1.00  0.00     0.138 A 
ATOM     10  C   UNL A   1      44.330  43.159  24.785  1.00  0.00     0.058 A 
ATOM     11  C   UNL A   1      42.940  42.789  22.870  1.00  0.00     0.085 A 
ATOM     12  C   UNL A   1      45.222  43.969  24.041  1.00  0.00     0.008 A 
ATOM     13  C   UNL A   1      43.871  43.500  22.091  1.00  0.00     0.051 A 
ATOM     14  Cl  UNL A   1      41.603  42.148  21.976  1.00  0.00    -0.080 Cl
ATOM     15  C   UNL A   1      44.989  44.137  22.676  1.00  0.00     0.058 A 
ATOM     16  C   UNL A   1      46.870  45.281  23.208  1.00  0.00     0.028 A 
ATOM     17  N   UNL A   1      46.030  44.924  22.141  1.00  0.00    -0.280 N 
ATOM     18  C   UNL A   1      48.100  46.135  23.103  1.00  0.00     0.065 C 
BRANCH   9  19
ATOM     19  O   UNL A   1      42.372  42.031  25.186  1.00  0.00    -0.495 OA
ATOM     20  C   UNL A   1      42.724  40.760  25.710  1.00  0.00     0.278 C 
ENDBRANCH   9  19
BRANCH  17  21
ATOM     21  C   UNL A   1      46.214  45.243  20.760  1.00  0.00     0.262 C 
ATOM     22  O   UNL A   1      47.133  44.723  20.130  1.00  0.00    -0.268 OA
BRANCH  21  23
ATOM     23  C   UNL A   1      45.331  46.108  19.962  1.00  0.00     0.040 A 
ATOM     24  C   UNL A   1      44.423  45.556  19.052  1.00  0.00     0.015 A 
ATOM     25  C   UNL A   1      45.454  47.495  20.104  1.00  0.00     0.015 A 
ATOM     26  C   UNL A   1      43.693  46.407  18.218  1.00  0.00     0.021 A 
ATOM     27  C   UNL A   1      44.714  48.339  19.274  1.00  0.00     0.021 A 
ATOM     28  C   UNL A   1      43.852  47.791  18.323  1.00  0.00     0.041 A 
ATOM     29  Cl  UNL A   1      42.995  48.833  17.254  1.00  0.00    -0.084 Cl
ENDBRANCH  21  23
ENDBRANCH  17  21
ENDBRANCH   7   8
ENDBRANCH   5   7
ENDBRANCH   4   5
ENDBRANCH   3   4
ENDBRANCH   2   3
ENDBRANCH   1   2
BRANCH   1  30
ATOM     30  C   UNL A   1      45.025  42.035  31.717  1.00  0.00     0.202 C 
BRANCH  30  31
ATOM     31  C   UNL A   1      44.176  41.126  32.621  1.00  0.00     0.261 C 
BRANCH  31  32
ATOM     32  O   UNL A   1      44.471  39.745  32.388  1.00  0.00    -0.460 OA
BRANCH  32  33
ATOM     33  C   UNL A   1      45.216  39.171  33.375  1.00  0.00     0.338 C 
ATOM     34  O   UNL A   1      45.965  39.720  34.150  1.00  0.00    -0.246 OA
BRANCH  33  35
ATOM     35  C   UNL A   1      44.577  37.858  33.578  1.00  0.00     0.060 A 
ATOM     36  C   UNL A   1      44.026  37.168  32.494  1.00  0.00     0.016 A 
ATOM     37  C   UNL A   1      44.217  37.561  34.901  1.00  0.00     0.016 A 
ATOM     38  C   UNL A   1      43.035  36.229  32.739  1.00  0.00     0.010 A 
ATOM     39  C   UNL A   1      43.195  36.651  35.136  1.00  0.00     0.010 A 
ATOM     40  C   UNL A   1      42.583  36.014  34.051  1.00  0.00    -0.014 A 
BRANCH  40  41
ATOM     41  C   UNL A   1      41.600  34.955  34.268  1.00  0.00     0.031 A 
ATOM     42  C   UNL A   1      41.984  33.672  33.623  1.00  0.00     0.074 A 
ATOM     43  C   UNL A   1      40.535  35.014  35.091  1.00  0.00     0.049 A 
ATOM     44  N   UNL A   1      41.354  33.008  32.713  1.00  0.00    -0.248 NA
ATOM     45  C   UNL A   1      43.317  33.142  33.953  1.00  0.00     0.031 C 
ATOM     46  C   UNL A   1      40.204  36.056  36.058  1.00  0.00     0.029 A 
ATOM     47  N   UNL A   1      39.583  34.065  35.328  1.00  0.00    -0.354 N 
ATOM     48  C   UNL A   1      42.135  31.882  32.467  1.00  0.00     0.074 A 
ATOM     49  C   UNL A   1      43.399  32.110  33.120  1.00  0.00     0.031 C 
ATOM     50  C   UNL A   1      39.281  35.590  36.927  1.00  0.00     0.029 A 
ATOM     51  C   UNL A   1      38.883  34.257  36.513  1.00  0.00     0.049 A 
ATOM     52  H   UNL A   1      39.406  33.314  34.716  1.00  0.00     0.167 HD
ATOM     53  C   UNL A   1      41.636  30.742  31.919  1.00  0.00     0.031 A 
ATOM     54  C   UNL A   1      38.130  33.342  37.173  1.00  0.00     0.031 A 
ATOM     55  C   UNL A   1      40.365  30.954  31.286  1.00  0.00     0.049 A 
ATOM     56  C   UNL A   1      37.777  32.272  36.209  1.00  0.00     0.074 A 
ATOM     57  C   UNL A   1      39.923  31.732  30.235  1.00  0.00     0.029 A 
ATOM     58  N   UNL A   1      39.240  30.560  31.969  1.00  0.00    -0.354 N 
ATOM     59  N   UNL A   1      36.989  32.442  35.186  1.00  0.00    -0.248 NA
ATOM     60  C   UNL A   1      38.624  31.089  36.157  1.00  0.00     0.031 C 
ATOM     61  C   UNL A   1      38.609  32.137  30.600  1.00  0.00     0.029 A 
ATOM     62  C   UNL A   1      38.308  31.555  31.835  1.00  0.00     0.049 A 
ATOM     63  H   UNL A   1      39.125  29.716  32.464  1.00  0.00     0.167 HD
ATOM     64  C   UNL A   1      37.524  31.638  34.189  1.00  0.00     0.074 A 
ATOM     65  C   UNL A   1      38.458  30.753  34.876  1.00  0.00     0.031 C 
ATOM     66  C   UNL A   1      37.367  31.947  32.868  1.00  0.00     0.031 A 
BRANCH  53  67
ATOM     67  C   UNL A   1      42.164  29.370  32.253  1.00  0.00    -0.014 A 
ATOM     68  C   UNL A   1      43.059  28.670  31.418  1.00  0.00     0.010 A 
ATOM     69  C   UNL A   1      41.960  28.849  33.545  1.00  0.00     0.010 A 
ATOM     70  C   UNL A   1      43.702  27.502  31.826  1.00  0.00     0.020 A 
ATOM     71  C   UNL A   1      42.644  27.707  33.988  1.00  0.00     0.020 A 
ATOM     72  C   UNL A   1      43.506  27.038  33.120  1.00  0.00     0.054 A 
BRANCH  72  73
ATOM     73  S   UNL A   1      44.482  25.617  33.661  1.00  0.00     0.124 S 
ATOM     74  O   UNL A   1      43.815  25.255  34.910  1.00  0.00    -0.237 OA
ATOM     75  O   UNL A   1      44.304  24.678  32.557  1.00  0.00    -0.237 OA
ATOM     76  O   UNL A   1      45.829  26.162  33.803  1.00  0.00    -0.744 OA
ENDBRANCH  72  73
ENDBRANCH  53  67
BRANCH  54  77
ATOM     77  C   UNL A   1      38.097  33.125  38.644  1.00  0.00    -0.014 A 
ATOM     78  C   UNL A   1      39.301  33.067  39.378  1.00  0.00     0.010 A 
ATOM     79  C   UNL A   1      36.923  32.675  39.278  1.00  0.00     0.010 A 
ATOM     80  C   UNL A   1      39.351  32.509  40.658  1.00  0.00     0.020 A 
ATOM     81  C   UNL A   1      36.967  32.104  40.562  1.00  0.00     0.020 A 
ATOM     82  C   UNL A   1      38.190  31.991  41.225  1.00  0.00     0.054 A 
BRANCH  82  83
ATOM     83  S   UNL A   1      38.340  31.080  42.787  1.00  0.00     0.124 S 
ATOM     84  O   UNL A   1      39.533  31.683  43.375  1.00  0.00    -0.237 OA
ATOM     85  O   UNL A   1      37.083  31.398  43.460  1.00  0.00    -0.237 OA
ATOM     86  O   UNL A   1      38.485  29.689  42.366  1.00  0.00    -0.744 OA
ENDBRANCH  82  83
ENDBRANCH  54  77
BRANCH  66  87
ATOM     87  C   UNL A   1      36.348  32.990  32.464  1.00  0.00    -0.014 A 
ATOM     88  C   UNL A   1      36.600  34.323  32.844  1.00  0.00     0.010 A 
ATOM     89  C   UNL A   1      35.082  32.674  31.932  1.00  0.00     0.010 A 
ATOM     90  C   UNL A   1      35.609  35.300  32.744  1.00  0.00     0.020 A 
ATOM     91  C   UNL A   1      34.090  33.659  31.803  1.00  0.00     0.020 A 
ATOM     92  C   UNL A   1      34.352  34.959  32.240  1.00  0.00     0.054 A 
BRANCH  92  93
ATOM     93  S   UNL A   1      33.067  36.239  32.207  1.00  0.00     0.124 S 
ATOM     94  O   UNL A   1      33.245  36.819  30.877  1.00  0.00    -0.237 OA
ATOM     95  O   UNL A   1      31.839  35.469  32.389  1.00  0.00    -0.237 OA
ATOM     96  O   UNL A   1      33.414  37.120  33.318  1.00  0.00    -0.744 OA
ENDBRANCH  92  93
ENDBRANCH  66  87
ENDBRANCH  40  41
ENDBRANCH  33  35
ENDBRANCH  32  33
ENDBRANCH  31  32
ENDBRANCH  30  31
ENDBRANCH   1  30
TORSDOF 21
ENDMDL
