MODEL 1
REMARK VINA RESULT:      -9.9      0.000      0.000
REMARK SMILES C[C@@H](C(=O)OCCOCCOC(=O)c1ccc(-c2c3nc(c(-c4ccc(S(=O)(=O)[O-])cc4)c4ccc([nH]4)c(-c4ccc(S(=O)(=O)[O-])cc4)c4nc(c(-c5ccc(S(=O)(=O)[O-])cc5)c5ccc2[nH]5)C=C4)C=C3)cc1)c1ccc(C(=O)c2cccs2)cc1
REMARK SMILES IDX 8 1 7 2 6 3 5 4 3 5 4 6 2 7 1 8 74 9 75 10 86 11 76 12 85 13
REMARK SMILES IDX 77 14 78 15 79 16 80 17 81 18 84 19 82 20 83 21 9 22 10 23
REMARK SMILES IDX 11 24 12 25 13 26 14 27 15 28 73 29 16 30 72 31 17 32 18 33
REMARK SMILES IDX 19 34 66 35 20 36 71 37 65 38 67 39 21 40 70 41 64 42 63 43
REMARK SMILES IDX 22 45 52 46 33 47 51 48 34 49 37 50 50 51 68 52 35 53 36 54
REMARK SMILES IDX 49 56 69 57 38 58 23 59 24 60 32 61 25 62 31 63 26 64 27 65
REMARK SMILES IDX 28 66 29 67 30 68 53 69 54 70 62 71 55 72 61 73 56 74 57 75
REMARK SMILES IDX 58 76 59 77 60 78 39 79 40 80 48 81 41 82 47 83 42 84 43 85
REMARK SMILES IDX 44 86 45 87 46 88
REMARK H PARENT 67 44 37 55
REMARK Flexibility Score: inf
ROOT
ATOM      1  O   UNL A   1      39.788  21.581  26.913  1.00  0.00    -0.374 OA
ENDROOT
BRANCH   1   2
ATOM      2  C   UNL A   1      38.982  22.121  25.859  1.00  0.00     0.202 C 
BRANCH   2   3
ATOM      3  C   UNL A   1      37.814  21.247  25.382  1.00  0.00     0.261 C 
BRANCH   3   4
ATOM      4  O   UNL A   1      36.553  21.887  25.670  1.00  0.00    -0.463 OA
BRANCH   4   5
ATOM      5  C   UNL A   1      35.465  21.414  25.000  1.00  0.00     0.313 C 
ATOM      6  O   UNL A   1      34.924  20.340  25.241  1.00  0.00    -0.252 OA
BRANCH   5   7
ATOM      7  C   UNL A   1      34.974  22.383  23.910  1.00  0.00     0.126 C 
ATOM      8  C   UNL A   1      36.078  23.068  23.099  1.00  0.00     0.025 C 
BRANCH   7   9
ATOM      9  C   UNL A   1      34.020  23.421  24.503  1.00  0.00    -0.034 A 
ATOM     10  C   UNL A   1      34.452  24.727  24.756  1.00  0.00     0.005 A 
ATOM     11  C   UNL A   1      32.673  23.114  24.742  1.00  0.00     0.005 A 
ATOM     12  C   UNL A   1      33.546  25.702  25.199  1.00  0.00     0.012 A 
ATOM     13  C   UNL A   1      31.762  24.091  25.153  1.00  0.00     0.012 A 
ATOM     14  C   UNL A   1      32.188  25.400  25.383  1.00  0.00     0.023 A 
BRANCH  14  15
ATOM     15  C   UNL A   1      31.243  26.505  25.757  1.00  0.00     0.202 C 
ATOM     16  O   UNL A   1      30.950  26.640  26.944  1.00  0.00    -0.288 OA
BRANCH  15  17
ATOM     17  C   UNL A   1      30.745  27.401  24.726  1.00  0.00     0.075 A 
ATOM     18  C   UNL A   1      31.165  28.671  24.373  1.00  0.00     0.024 A 
ATOM     19  S   UNL A   1      29.456  26.868  23.731  1.00  0.00    -0.140 S 
ATOM     20  C   UNL A   1      30.374  29.230  23.325  1.00  0.00     0.012 A 
ATOM     21  C   UNL A   1      29.406  28.354  22.888  1.00  0.00     0.065 A 
ENDBRANCH  15  17
ENDBRANCH  14  15
ENDBRANCH   7   9
ENDBRANCH   5   7
ENDBRANCH   4   5
ENDBRANCH   3   4
ENDBRANCH   2   3
ENDBRANCH   1   2
BRANCH   1  22
ATOM     22  C   UNL A   1      41.089  21.134  26.552  1.00  0.00     0.202 C 
BRANCH  22  23
ATOM     23  C   UNL A   1      42.124  22.202  26.186  1.00  0.00     0.261 C 
BRANCH  23  24
ATOM     24  O   UNL A   1      42.132  23.286  27.123  1.00  0.00    -0.460 OA
BRANCH  24  25
ATOM     25  C   UNL A   1      42.290  24.501  26.547  1.00  0.00     0.338 C 
ATOM     26  O   UNL A   1      42.656  24.732  25.402  1.00  0.00    -0.246 OA
BRANCH  25  27
ATOM     27  C   UNL A   1      41.777  25.550  27.442  1.00  0.00     0.060 A 
ATOM     28  C   UNL A   1      42.531  26.725  27.540  1.00  0.00     0.016 A 
ATOM     29  C   UNL A   1      40.620  25.376  28.204  1.00  0.00     0.016 A 
ATOM     30  C   UNL A   1      42.167  27.709  28.450  1.00  0.00     0.010 A 
ATOM     31  C   UNL A   1      40.259  26.364  29.124  1.00  0.00     0.010 A 
ATOM     32  C   UNL A   1      41.055  27.515  29.278  1.00  0.00    -0.014 A 
BRANCH  32  33
ATOM     33  C   UNL A   1      40.831  28.440  30.412  1.00  0.00     0.031 A 
ATOM     34  C   UNL A   1      41.707  28.318  31.629  1.00  0.00     0.074 A 
ATOM     35  C   UNL A   1      39.900  29.407  30.335  1.00  0.00     0.049 A 
ATOM     36  N   UNL A   1      41.697  29.025  32.729  1.00  0.00    -0.248 NA
ATOM     37  C   UNL A   1      42.733  27.262  31.600  1.00  0.00     0.031 C 
ATOM     38  C   UNL A   1      39.028  29.653  29.185  1.00  0.00     0.029 A 
ATOM     39  N   UNL A   1      39.535  30.366  31.245  1.00  0.00    -0.354 N 
ATOM     40  C   UNL A   1      42.704  28.492  33.527  1.00  0.00     0.074 A 
ATOM     41  C   UNL A   1      43.286  27.388  32.797  1.00  0.00     0.031 C 
ATOM     42  C   UNL A   1      38.231  30.699  29.460  1.00  0.00     0.029 A 
ATOM     43  C   UNL A   1      38.511  31.174  30.813  1.00  0.00     0.049 A 
ATOM     44  H   UNL A   1      39.968  30.467  32.124  1.00  0.00     0.167 HD
ATOM     45  C   UNL A   1      43.109  28.892  34.756  1.00  0.00     0.031 A 
ATOM     46  C   UNL A   1      37.863  32.171  31.447  1.00  0.00     0.031 A 
ATOM     47  C   UNL A   1      42.519  29.986  35.480  1.00  0.00     0.049 A 
ATOM     48  C   UNL A   1      38.283  32.549  32.844  1.00  0.00     0.074 A 
ATOM     49  C   UNL A   1      42.867  30.482  36.724  1.00  0.00     0.029 A 
ATOM     50  N   UNL A   1      41.450  30.747  35.030  1.00  0.00    -0.354 N 
ATOM     51  N   UNL A   1      39.252  32.052  33.576  1.00  0.00    -0.248 NA
ATOM     52  C   UNL A   1      37.525  33.625  33.497  1.00  0.00     0.031 C 
ATOM     53  C   UNL A   1      41.971  31.504  37.051  1.00  0.00     0.029 A 
ATOM     54  C   UNL A   1      41.105  31.688  35.984  1.00  0.00     0.049 A 
ATOM     55  H   UNL A   1      41.003  30.634  34.160  1.00  0.00     0.167 HD
ATOM     56  C   UNL A   1      39.240  32.777  34.763  1.00  0.00     0.074 A 
ATOM     57  C   UNL A   1      38.174  33.751  34.646  1.00  0.00     0.031 C 
ATOM     58  C   UNL A   1      40.040  32.650  35.851  1.00  0.00     0.031 A 
BRANCH  45  59
ATOM     59  C   UNL A   1      44.217  28.111  35.412  1.00  0.00    -0.014 A 
ATOM     60  C   UNL A   1      43.948  26.988  36.215  1.00  0.00     0.010 A 
ATOM     61  C   UNL A   1      45.555  28.491  35.194  1.00  0.00     0.010 A 
ATOM     62  C   UNL A   1      44.993  26.283  36.818  1.00  0.00     0.020 A 
ATOM     63  C   UNL A   1      46.603  27.772  35.772  1.00  0.00     0.020 A 
ATOM     64  C   UNL A   1      46.315  26.682  36.595  1.00  0.00     0.054 A 
BRANCH  64  65
ATOM     65  S   UNL A   1      47.653  25.737  37.373  1.00  0.00     0.124 S 
ATOM     66  O   UNL A   1      47.421  25.996  38.791  1.00  0.00    -0.237 OA
ATOM     67  O   UNL A   1      47.381  24.372  36.931  1.00  0.00    -0.237 OA
ATOM     68  O   UNL A   1      48.867  26.336  36.823  1.00  0.00    -0.744 OA
ENDBRANCH  64  65
ENDBRANCH  45  59
BRANCH  46  69
ATOM     69  C   UNL A   1      36.738  32.874  30.771  1.00  0.00    -0.014 A 
ATOM     70  C   UNL A   1      35.404  32.532  31.053  1.00  0.00     0.010 A 
ATOM     71  C   UNL A   1      36.999  33.894  29.839  1.00  0.00     0.010 A 
ATOM     72  C   UNL A   1      34.353  33.188  30.405  1.00  0.00     0.020 A 
ATOM     73  C   UNL A   1      35.953  34.572  29.210  1.00  0.00     0.020 A 
ATOM     74  C   UNL A   1      34.634  34.207  29.489  1.00  0.00     0.054 A 
BRANCH  74  75
ATOM     75  S   UNL A   1      33.254  35.081  28.699  1.00  0.00     0.124 S 
ATOM     76  O   UNL A   1      32.606  34.010  27.950  1.00  0.00    -0.237 OA
ATOM     77  O   UNL A   1      32.509  35.592  29.846  1.00  0.00    -0.237 OA
ATOM     78  O   UNL A   1      33.915  36.102  27.891  1.00  0.00    -0.744 OA
ENDBRANCH  74  75
ENDBRANCH  46  69
BRANCH  58  79
ATOM     79  C   UNL A   1      39.821  33.610  36.991  1.00  0.00    -0.014 A 
ATOM     80  C   UNL A   1      39.027  33.263  38.098  1.00  0.00     0.010 A 
ATOM     81  C   UNL A   1      40.470  34.859  36.977  1.00  0.00     0.010 A 
ATOM     82  C   UNL A   1      38.861  34.162  39.156  1.00  0.00     0.020 A 
ATOM     83  C   UNL A   1      40.331  35.747  38.046  1.00  0.00     0.020 A 
ATOM     84  C   UNL A   1      39.514  35.398  39.123  1.00  0.00     0.054 A 
BRANCH  84  85
ATOM     85  S   UNL A   1      39.318  36.527  40.529  1.00  0.00     0.124 S 
ATOM     86  O   UNL A   1      38.323  35.830  41.340  1.00  0.00    -0.237 OA
ATOM     87  O   UNL A   1      40.665  36.577  41.091  1.00  0.00    -0.237 OA
ATOM     88  O   UNL A   1      38.859  37.771  39.913  1.00  0.00    -0.744 OA
ENDBRANCH  84  85
ENDBRANCH  58  79
ENDBRANCH  32  33
ENDBRANCH  25  27
ENDBRANCH  24  25
ENDBRANCH  23  24
ENDBRANCH  22  23
ENDBRANCH   1  22
TORSDOF 20
ENDMDL
MODEL 2
REMARK VINA RESULT:      -9.9      6.501     12.166
REMARK SMILES C[C@@H](C(=O)OCCOCCOC(=O)c1ccc(-c2c3nc(c(-c4ccc(S(=O)(=O)[O-])cc4)c4ccc([nH]4)c(-c4ccc(S(=O)(=O)[O-])cc4)c4nc(c(-c5ccc(S(=O)(=O)[O-])cc5)c5ccc2[nH]5)C=C4)C=C3)cc1)c1ccc(C(=O)c2cccs2)cc1
REMARK SMILES IDX 8 1 7 2 6 3 5 4 3 5 4 6 2 7 1 8 74 9 75 10 86 11 76 12 85 13
REMARK SMILES IDX 77 14 78 15 79 16 80 17 81 18 84 19 82 20 83 21 9 22 10 23
REMARK SMILES IDX 11 24 12 25 13 26 14 27 15 28 73 29 16 30 72 31 17 32 18 33
REMARK SMILES IDX 19 34 66 35 20 36 71 37 65 38 67 39 21 40 70 41 64 42 63 43
REMARK SMILES IDX 22 45 52 46 33 47 51 48 34 49 37 50 50 51 68 52 35 53 36 54
REMARK SMILES IDX 49 56 69 57 38 58 23 59 24 60 32 61 25 62 31 63 26 64 27 65
REMARK SMILES IDX 28 66 29 67 30 68 53 69 54 70 62 71 55 72 61 73 56 74 57 75
REMARK SMILES IDX 58 76 59 77 60 78 39 79 40 80 48 81 41 82 47 83 42 84 43 85
REMARK SMILES IDX 44 86 45 87 46 88
REMARK H PARENT 67 44 37 55
REMARK Flexibility Score: inf
ROOT
ATOM      1  O   UNL A   1      33.105  29.691  26.973  1.00  0.00    -0.374 OA
ENDROOT
BRANCH   1   2
ATOM      2  C   UNL A   1      32.986  29.761  25.548  1.00  0.00     0.202 C 
BRANCH   2   3
ATOM      3  C   UNL A   1      31.578  29.556  24.974  1.00  0.00     0.261 C 
BRANCH   3   4
ATOM      4  O   UNL A   1      31.534  28.373  24.148  1.00  0.00    -0.463 OA
BRANCH   4   5
ATOM      5  C   UNL A   1      31.983  27.218  24.715  1.00  0.00     0.313 C 
ATOM      6  O   UNL A   1      31.510  26.725  25.733  1.00  0.00    -0.252 OA
BRANCH   5   7
ATOM      7  C   UNL A   1      33.145  26.586  23.929  1.00  0.00     0.126 C 
ATOM      8  C   UNL A   1      33.483  27.268  22.599  1.00  0.00     0.025 C 
BRANCH   7   9
ATOM      9  C   UNL A   1      32.901  25.091  23.719  1.00  0.00    -0.034 A 
ATOM     10  C   UNL A   1      31.607  24.597  23.526  1.00  0.00     0.005 A 
ATOM     11  C   UNL A   1      33.969  24.186  23.642  1.00  0.00     0.005 A 
ATOM     12  C   UNL A   1      31.398  23.243  23.227  1.00  0.00     0.012 A 
ATOM     13  C   UNL A   1      33.767  22.843  23.314  1.00  0.00     0.012 A 
ATOM     14  C   UNL A   1      32.478  22.355  23.098  1.00  0.00     0.023 A 
BRANCH  14  15
ATOM     15  C   UNL A   1      32.207  20.940  22.675  1.00  0.00     0.202 C 
ATOM     16  O   UNL A   1      31.862  20.739  21.512  1.00  0.00    -0.288 OA
BRANCH  15  17
ATOM     17  C   UNL A   1      32.402  19.858  23.627  1.00  0.00     0.075 A 
ATOM     18  C   UNL A   1      32.500  19.894  25.006  1.00  0.00     0.024 A 
ATOM     19  S   UNL A   1      32.511  18.255  23.032  1.00  0.00    -0.140 S 
ATOM     20  C   UNL A   1      32.735  18.602  25.565  1.00  0.00     0.012 A 
ATOM     21  C   UNL A   1      32.769  17.621  24.599  1.00  0.00     0.065 A 
ENDBRANCH  15  17
ENDBRANCH  14  15
ENDBRANCH   7   9
ENDBRANCH   5   7
ENDBRANCH   4   5
ENDBRANCH   3   4
ENDBRANCH   2   3
ENDBRANCH   1   2
BRANCH   1  22
ATOM     22  C   UNL A   1      33.582  30.859  27.629  1.00  0.00     0.202 C 
BRANCH  22  23
ATOM     23  C   UNL A   1      35.098  31.004  27.796  1.00  0.00     0.261 C 
BRANCH  23  24
ATOM     24  O   UNL A   1      35.701  29.806  28.300  1.00  0.00    -0.460 OA
BRANCH  24  25
ATOM     25  C   UNL A   1      36.419  29.994  29.432  1.00  0.00     0.338 C 
ATOM     26  O   UNL A   1      35.987  30.080  30.574  1.00  0.00    -0.246 OA
BRANCH  25  27
ATOM     27  C   UNL A   1      37.856  29.901  29.133  1.00  0.00     0.060 A 
ATOM     28  C   UNL A   1      38.212  29.623  27.808  1.00  0.00     0.016 A 
ATOM     29  C   UNL A   1      38.832  30.031  30.124  1.00  0.00     0.016 A 
ATOM     30  C   UNL A   1      39.545  29.410  27.478  1.00  0.00     0.010 A 
ATOM     31  C   UNL A   1      40.171  29.810  29.791  1.00  0.00     0.010 A 
ATOM     32  C   UNL A   1      40.526  29.458  28.476  1.00  0.00    -0.014 A 
BRANCH  32  33
ATOM     33  C   UNL A   1      41.891  28.976  28.166  1.00  0.00     0.031 A 
ATOM     34  C   UNL A   1      43.027  29.963  28.179  1.00  0.00     0.074 A 
ATOM     35  C   UNL A   1      42.122  27.673  27.931  1.00  0.00     0.049 A 
ATOM     36  N   UNL A   1      44.299  29.763  27.950  1.00  0.00    -0.248 NA
ATOM     37  C   UNL A   1      42.684  31.360  28.497  1.00  0.00     0.031 C 
ATOM     38  C   UNL A   1      41.108  26.618  27.943  1.00  0.00     0.029 A 
ATOM     39  N   UNL A   1      43.289  27.014  27.639  1.00  0.00    -0.354 N 
ATOM     40  C   UNL A   1      44.904  31.008  28.083  1.00  0.00     0.074 A 
ATOM     41  C   UNL A   1      43.859  31.959  28.387  1.00  0.00     0.031 C 
ATOM     42  C   UNL A   1      41.700  25.442  27.673  1.00  0.00     0.029 A 
ATOM     43  C   UNL A   1      43.124  25.665  27.436  1.00  0.00     0.049 A 
ATOM     44  H   UNL A   1      44.163  27.465  27.582  1.00  0.00     0.167 HD
ATOM     45  C   UNL A   1      46.215  31.326  27.967  1.00  0.00     0.031 A 
ATOM     46  C   UNL A   1      44.020  24.722  27.082  1.00  0.00     0.031 A 
ATOM     47  C   UNL A   1      47.248  30.376  27.655  1.00  0.00     0.049 A 
ATOM     48  C   UNL A   1      45.461  25.115  26.886  1.00  0.00     0.074 A 
ATOM     49  C   UNL A   1      48.610  30.593  27.533  1.00  0.00     0.029 A 
ATOM     50  N   UNL A   1      47.034  29.028  27.408  1.00  0.00    -0.354 N 
ATOM     51  N   UNL A   1      46.023  26.291  27.039  1.00  0.00    -0.248 NA
ATOM     52  C   UNL A   1      46.389  24.053  26.475  1.00  0.00     0.031 C 
ATOM     53  C   UNL A   1      49.210  29.389  27.152  1.00  0.00     0.029 A 
ATOM     54  C   UNL A   1      48.233  28.407  27.101  1.00  0.00     0.049 A 
ATOM     55  H   UNL A   1      46.159  28.579  27.444  1.00  0.00     0.167 HD
ATOM     56  C   UNL A   1      47.376  26.102  26.774  1.00  0.00     0.074 A 
ATOM     57  C   UNL A   1      47.547  24.698  26.460  1.00  0.00     0.031 C 
ATOM     58  C   UNL A   1      48.385  27.008  26.790  1.00  0.00     0.031 A 
BRANCH  45  59
ATOM     59  C   UNL A   1      46.599  32.774  28.136  1.00  0.00    -0.014 A 
ATOM     60  C   UNL A   1      46.614  33.661  27.044  1.00  0.00     0.010 A 
ATOM     61  C   UNL A   1      46.917  33.260  29.418  1.00  0.00     0.010 A 
ATOM     62  C   UNL A   1      46.979  34.998  27.225  1.00  0.00     0.020 A 
ATOM     63  C   UNL A   1      47.255  34.602  29.607  1.00  0.00     0.020 A 
ATOM     64  C   UNL A   1      47.299  35.460  28.506  1.00  0.00     0.054 A 
BRANCH  64  65
ATOM     65  S   UNL A   1      47.749  37.204  28.716  1.00  0.00     0.124 S 
ATOM     66  O   UNL A   1      49.015  37.279  27.992  1.00  0.00    -0.237 OA
ATOM     67  O   UNL A   1      46.627  37.901  28.092  1.00  0.00    -0.237 OA
ATOM     68  O   UNL A   1      47.850  37.365  30.164  1.00  0.00    -0.744 OA
ENDBRANCH  64  65
ENDBRANCH  45  59
BRANCH  46  69
ATOM     69  C   UNL A   1      43.577  23.317  26.876  1.00  0.00    -0.014 A 
ATOM     70  C   UNL A   1      43.479  22.776  25.582  1.00  0.00     0.010 A 
ATOM     71  C   UNL A   1      43.250  22.508  27.980  1.00  0.00     0.010 A 
ATOM     72  C   UNL A   1      43.050  21.458  25.395  1.00  0.00     0.020 A 
ATOM     73  C   UNL A   1      42.849  21.182  27.801  1.00  0.00     0.020 A 
ATOM     74  C   UNL A   1      42.740  20.669  26.507  1.00  0.00     0.054 A 
BRANCH  74  75
ATOM     75  S   UNL A   1      42.236  18.945  26.244  1.00  0.00     0.124 S 
ATOM     76  O   UNL A   1      42.399  18.375  27.577  1.00  0.00    -0.237 OA
ATOM     77  O   UNL A   1      40.859  19.087  25.780  1.00  0.00    -0.237 OA
ATOM     78  O   UNL A   1      43.178  18.464  25.236  1.00  0.00    -0.744 OA
ENDBRANCH  74  75
ENDBRANCH  46  69
BRANCH  58  79
ATOM     79  C   UNL A   1      49.775  26.506  26.496  1.00  0.00    -0.014 A 
ATOM     80  C   UNL A   1      50.605  26.014  27.518  1.00  0.00     0.010 A 
ATOM     81  C   UNL A   1      50.231  26.473  25.166  1.00  0.00     0.010 A 
ATOM     82  C   UNL A   1      51.881  25.528  27.217  1.00  0.00     0.020 A 
ATOM     83  C   UNL A   1      51.493  25.960  24.857  1.00  0.00     0.020 A 
ATOM     84  C   UNL A   1      52.316  25.504  25.889  1.00  0.00     0.054 A 
BRANCH  84  85
ATOM     85  S   UNL A   1      53.959  24.826  25.520  1.00  0.00     0.124 S 
ATOM     86  O   UNL A   1      53.636  23.470  25.085  1.00  0.00    -0.237 OA
ATOM     87  O   UNL A   1      54.449  25.722  24.476  1.00  0.00    -0.237 OA
ATOM     88  O   UNL A   1      54.666  24.919  26.796  1.00  0.00    -0.744 OA
ENDBRANCH  84  85
ENDBRANCH  58  79
ENDBRANCH  32  33
ENDBRANCH  25  27
ENDBRANCH  24  25
ENDBRANCH  23  24
ENDBRANCH  22  23
ENDBRANCH   1  22
TORSDOF 20
ENDMDL
MODEL 3
REMARK VINA RESULT:      -9.8      1.357      8.344
REMARK SMILES C[C@@H](C(=O)OCCOCCOC(=O)c1ccc(-c2c3nc(c(-c4ccc(S(=O)(=O)[O-])cc4)c4ccc([nH]4)c(-c4ccc(S(=O)(=O)[O-])cc4)c4nc(c(-c5ccc(S(=O)(=O)[O-])cc5)c5ccc2[nH]5)C=C4)C=C3)cc1)c1ccc(C(=O)c2cccs2)cc1
REMARK SMILES IDX 8 1 7 2 6 3 5 4 3 5 4 6 2 7 1 8 74 9 75 10 86 11 76 12 85 13
REMARK SMILES IDX 77 14 78 15 79 16 80 17 81 18 84 19 82 20 83 21 9 22 10 23
REMARK SMILES IDX 11 24 12 25 13 26 14 27 15 28 73 29 16 30 72 31 17 32 18 33
REMARK SMILES IDX 19 34 66 35 20 36 71 37 65 38 67 39 21 40 70 41 64 42 63 43
REMARK SMILES IDX 22 45 52 46 33 47 51 48 34 49 37 50 50 51 68 52 35 53 36 54
REMARK SMILES IDX 49 56 69 57 38 58 23 59 24 60 32 61 25 62 31 63 26 64 27 65
REMARK SMILES IDX 28 66 29 67 30 68 53 69 54 70 62 71 55 72 61 73 56 74 57 75
REMARK SMILES IDX 58 76 59 77 60 78 39 79 40 80 48 81 41 82 47 83 42 84 43 85
REMARK SMILES IDX 44 86 45 87 46 88
REMARK H PARENT 67 44 37 55
REMARK Flexibility Score: inf
ROOT
ATOM      1  O   UNL A   1      42.146  21.005  26.148  1.00  0.00    -0.374 OA
ENDROOT
BRANCH   1   2
ATOM      2  C   UNL A   1      40.787  20.683  26.467  1.00  0.00     0.202 C 
BRANCH   2   3
ATOM      3  C   UNL A   1      39.709  21.382  25.628  1.00  0.00     0.261 C 
BRANCH   3   4
ATOM      4  O   UNL A   1      38.595  21.772  26.458  1.00  0.00    -0.463 OA
BRANCH   4   5
ATOM      5  C   UNL A   1      37.794  22.762  25.975  1.00  0.00     0.313 C 
ATOM      6  O   UNL A   1      38.180  23.900  25.731  1.00  0.00    -0.252 OA
BRANCH   5   7
ATOM      7  C   UNL A   1      36.344  22.295  25.752  1.00  0.00     0.126 C 
ATOM      8  C   UNL A   1      36.192  20.863  25.228  1.00  0.00     0.025 C 
BRANCH   7   9
ATOM      9  C   UNL A   1      35.594  23.279  24.853  1.00  0.00    -0.034 A 
ATOM     10  C   UNL A   1      35.357  22.980  23.508  1.00  0.00     0.005 A 
ATOM     11  C   UNL A   1      35.063  24.470  25.367  1.00  0.00     0.005 A 
ATOM     12  C   UNL A   1      34.576  23.835  22.716  1.00  0.00     0.012 A 
ATOM     13  C   UNL A   1      34.261  25.308  24.589  1.00  0.00     0.012 A 
ATOM     14  C   UNL A   1      34.003  24.999  23.253  1.00  0.00     0.023 A 
BRANCH  14  15
ATOM     15  C   UNL A   1      33.092  25.824  22.391  1.00  0.00     0.202 C 
ATOM     16  O   UNL A   1      33.315  25.860  21.182  1.00  0.00    -0.288 OA
BRANCH  15  17
ATOM     17  C   UNL A   1      31.961  26.508  22.995  1.00  0.00     0.075 A 
ATOM     18  C   UNL A   1      30.758  26.004  23.455  1.00  0.00     0.024 A 
ATOM     19  S   UNL A   1      32.062  28.202  23.233  1.00  0.00    -0.140 S 
ATOM     20  C   UNL A   1      29.892  27.029  23.941  1.00  0.00     0.012 A 
ATOM     21  C   UNL A   1      30.478  28.273  23.873  1.00  0.00     0.065 A 
ENDBRANCH  15  17
ENDBRANCH  14  15
ENDBRANCH   7   9
ENDBRANCH   5   7
ENDBRANCH   4   5
ENDBRANCH   3   4
ENDBRANCH   2   3
ENDBRANCH   1   2
BRANCH   1  22
ATOM     22  C   UNL A   1      42.658  22.214  26.695  1.00  0.00     0.202 C 
BRANCH  22  23
ATOM     23  C   UNL A   1      42.598  23.466  25.815  1.00  0.00     0.261 C 
BRANCH  23  24
ATOM     24  O   UNL A   1      41.512  24.327  26.177  1.00  0.00    -0.460 OA
BRANCH  24  25
ATOM     25  C   UNL A   1      41.777  25.642  25.993  1.00  0.00     0.338 C 
ATOM     26  O   UNL A   1      41.803  26.248  24.929  1.00  0.00    -0.246 OA
BRANCH  25  27
ATOM     27  C   UNL A   1      41.860  26.322  27.295  1.00  0.00     0.060 A 
ATOM     28  C   UNL A   1      40.930  25.943  28.269  1.00  0.00     0.016 A 
ATOM     29  C   UNL A   1      42.786  27.338  27.546  1.00  0.00     0.016 A 
ATOM     30  C   UNL A   1      40.878  26.621  29.481  1.00  0.00     0.010 A 
ATOM     31  C   UNL A   1      42.727  28.024  28.762  1.00  0.00     0.010 A 
ATOM     32  C   UNL A   1      41.746  27.694  29.715  1.00  0.00    -0.014 A 
BRANCH  32  33
ATOM     33  C   UNL A   1      41.510  28.568  30.887  1.00  0.00     0.031 A 
ATOM     34  C   UNL A   1      40.356  29.533  30.850  1.00  0.00     0.074 A 
ATOM     35  C   UNL A   1      42.278  28.464  31.987  1.00  0.00     0.049 A 
ATOM     36  N   UNL A   1      39.958  30.381  31.762  1.00  0.00    -0.248 NA
ATOM     37  C   UNL A   1      39.542  29.539  29.623  1.00  0.00     0.031 C 
ATOM     38  C   UNL A   1      43.390  27.528  32.156  1.00  0.00     0.029 A 
ATOM     39  N   UNL A   1      42.233  29.151  33.172  1.00  0.00    -0.354 N 
ATOM     40  C   UNL A   1      38.857  31.030  31.215  1.00  0.00     0.074 A 
ATOM     41  C   UNL A   1      38.665  30.497  29.885  1.00  0.00     0.031 C 
ATOM     42  C   UNL A   1      43.922  27.701  33.379  1.00  0.00     0.029 A 
ATOM     43  C   UNL A   1      43.210  28.779  34.063  1.00  0.00     0.049 A 
ATOM     44  H   UNL A   1      41.563  29.846  33.367  1.00  0.00     0.167 HD
ATOM     45  C   UNL A   1      38.072  31.981  31.776  1.00  0.00     0.031 A 
ATOM     46  C   UNL A   1      43.506  29.265  35.284  1.00  0.00     0.031 A 
ATOM     47  C   UNL A   1      38.274  32.513  33.096  1.00  0.00     0.049 A 
ATOM     48  C   UNL A   1      42.664  30.376  35.856  1.00  0.00     0.074 A 
ATOM     49  C   UNL A   1      37.525  33.467  33.764  1.00  0.00     0.029 A 
ATOM     50  N   UNL A   1      39.305  32.146  33.948  1.00  0.00    -0.354 N 
ATOM     51  N   UNL A   1      41.611  30.963  35.338  1.00  0.00    -0.248 NA
ATOM     52  C   UNL A   1      43.048  30.886  37.179  1.00  0.00     0.031 C 
ATOM     53  C   UNL A   1      38.139  33.719  34.995  1.00  0.00     0.029 A 
ATOM     54  C   UNL A   1      39.232  32.876  35.122  1.00  0.00     0.049 A 
ATOM     55  H   UNL A   1      39.989  31.466  33.747  1.00  0.00     0.167 HD
ATOM     56  C   UNL A   1      41.188  31.888  36.286  1.00  0.00     0.074 A 
ATOM     57  C   UNL A   1      42.093  31.776  37.411  1.00  0.00     0.031 C 
ATOM     58  C   UNL A   1      40.143  32.752  36.231  1.00  0.00     0.031 A 
BRANCH  45  59
ATOM     59  C   UNL A   1      36.948  32.539  30.941  1.00  0.00    -0.014 A 
ATOM     60  C   UNL A   1      35.646  32.015  31.021  1.00  0.00     0.010 A 
ATOM     61  C   UNL A   1      37.197  33.628  30.086  1.00  0.00     0.010 A 
ATOM     62  C   UNL A   1      34.621  32.545  30.233  1.00  0.00     0.020 A 
ATOM     63  C   UNL A   1      36.168  34.179  29.317  1.00  0.00     0.020 A 
ATOM     64  C   UNL A   1      34.889  33.623  29.383  1.00  0.00     0.054 A 
BRANCH  64  65
ATOM     65  S   UNL A   1      33.537  34.305  28.387  1.00  0.00     0.124 S 
ATOM     66  O   UNL A   1      33.078  33.128  27.654  1.00  0.00    -0.237 OA
ATOM     67  O   UNL A   1      32.615  34.811  29.401  1.00  0.00    -0.237 OA
ATOM     68  O   UNL A   1      34.186  35.330  27.573  1.00  0.00    -0.744 OA
ENDBRANCH  64  65
ENDBRANCH  45  59
BRANCH  46  69
ATOM     69  C   UNL A   1      44.662  28.714  36.043  1.00  0.00    -0.014 A 
ATOM     70  C   UNL A   1      44.494  27.634  36.926  1.00  0.00     0.010 A 
ATOM     71  C   UNL A   1      45.944  29.271  35.883  1.00  0.00     0.010 A 
ATOM     72  C   UNL A   1      45.582  27.129  37.644  1.00  0.00     0.020 A 
ATOM     73  C   UNL A   1      47.040  28.752  36.576  1.00  0.00     0.020 A 
ATOM     74  C   UNL A   1      46.849  27.690  37.463  1.00  0.00     0.054 A 
BRANCH  74  75
ATOM     75  S   UNL A   1      48.258  26.985  38.365  1.00  0.00     0.124 S 
ATOM     76  O   UNL A   1      48.540  25.780  37.593  1.00  0.00    -0.237 OA
ATOM     77  O   UNL A   1      49.255  28.047  38.269  1.00  0.00    -0.237 OA
ATOM     78  O   UNL A   1      47.724  26.762  39.707  1.00  0.00    -0.744 OA
ENDBRANCH  74  75
ENDBRANCH  46  69
BRANCH  58  79
ATOM     79  C   UNL A   1      39.896  33.621  37.437  1.00  0.00    -0.014 A 
ATOM     80  C   UNL A   1      40.479  34.895  37.553  1.00  0.00     0.010 A 
ATOM     81  C   UNL A   1      39.018  33.174  38.443  1.00  0.00     0.010 A 
ATOM     82  C   UNL A   1      40.213  35.693  38.669  1.00  0.00     0.020 A 
ATOM     83  C   UNL A   1      38.727  33.981  39.545  1.00  0.00     0.020 A 
ATOM     84  C   UNL A   1      39.338  35.231  39.657  1.00  0.00     0.054 A 
BRANCH  84  85
ATOM     85  S   UNL A   1      38.975  36.306  41.073  1.00  0.00     0.124 S 
ATOM     86  O   UNL A   1      37.892  35.582  41.732  1.00  0.00    -0.237 OA
ATOM     87  O   UNL A   1      40.246  36.330  41.793  1.00  0.00    -0.237 OA
ATOM     88  O   UNL A   1      38.591  37.574  40.456  1.00  0.00    -0.744 OA
ENDBRANCH  84  85
ENDBRANCH  58  79
ENDBRANCH  32  33
ENDBRANCH  25  27
ENDBRANCH  24  25
ENDBRANCH  23  24
ENDBRANCH  22  23
ENDBRANCH   1  22
TORSDOF 20
ENDMDL
