MODEL 1
REMARK VINA RESULT:     -10.0      0.000      0.000
REMARK SMILES CC1(C)C[C@](CC(=O)OCCOCCOC(=O)c2ccc(-c3c4nc(c(-c5ccc(S(=O)(=O)[O-])cc5)c5ccc([nH]5)c(-c5ccc(S(=O)(=O)[O-])cc5)c5nc(c(-c6ccc(S(=O)(=O)[O-])cc6)c6ccc3[nH]6)C=C5)C=C4)cc2)([NH+]2CCCC2)C(C)(C)O1
REMARK SMILES IDX 13 1 12 2 11 3 10 4 9 5 7 6 8 7 6 8 5 9 1 10 2 11 3 12 4 13
REMARK SMILES IDX 86 14 83 15 84 16 85 17 78 18 79 19 82 20 80 22 81 23 14 24
REMARK SMILES IDX 15 25 16 26 17 27 18 28 19 29 77 30 20 31 76 32 21 33 22 34
REMARK SMILES IDX 23 35 70 36 24 37 75 38 69 39 71 40 25 41 74 42 68 43 67 44
REMARK SMILES IDX 26 46 56 47 37 48 55 49 38 50 41 51 54 52 72 53 39 54 40 55
REMARK SMILES IDX 53 57 73 58 42 59 27 60 28 61 36 62 29 63 35 64 30 65 31 66
REMARK SMILES IDX 32 67 33 68 34 69 57 70 58 71 66 72 59 73 65 74 60 75 61 76
REMARK SMILES IDX 62 77 63 78 64 79 43 80 44 81 52 82 45 83 51 84 46 85 47 86
REMARK SMILES IDX 48 87 49 88 50 89
REMARK H PARENT 78 21 71 45 41 56
REMARK Flexibility Score: inf
ROOT
ATOM      1  C   UNL A   1      31.942  30.348  25.750  1.00  0.00     0.202 C 
ENDROOT
BRANCH   1   2
ATOM      2  O   UNL A   1      32.724  29.553  24.863  1.00  0.00    -0.374 OA
BRANCH   2   3
ATOM      3  C   UNL A   1      32.066  29.075  23.688  1.00  0.00     0.202 C 
BRANCH   3   4
ATOM      4  C   UNL A   1      32.796  27.974  22.908  1.00  0.00     0.261 C 
BRANCH   4   5
ATOM      5  O   UNL A   1      31.939  27.113  22.117  1.00  0.00    -0.463 OA
BRANCH   5   6
ATOM      6  C   UNL A   1      32.426  25.875  21.865  1.00  0.00     0.312 C 
ATOM      7  O   UNL A   1      33.112  25.600  20.883  1.00  0.00    -0.252 OA
BRANCH   6   8
ATOM      8  C   UNL A   1      31.960  24.772  22.798  1.00  0.00     0.194 C 
BRANCH   8   9
ATOM      9  C   UNL A   1      32.708  24.220  24.060  1.00  0.00     0.140 C 
ATOM     10  C   UNL A   1      36.089  22.960  23.326  1.00  0.00     0.042 C 
ATOM     11  C   UNL A   1      35.079  23.457  24.372  1.00  0.00     0.070 C 
ATOM     12  C   UNL A   1      35.898  23.845  25.616  1.00  0.00     0.042 C 
ATOM     13  C   UNL A   1      34.215  24.591  23.812  1.00  0.00     0.107 C 
ATOM     14  O   UNL A   1      34.176  22.389  24.705  1.00  0.00    -0.363 OA
ATOM     15  C   UNL A   1      32.855  22.646  24.140  1.00  0.00     0.118 C 
ATOM     16  C   UNL A   1      32.836  21.935  22.769  1.00  0.00     0.049 C 
ATOM     17  C   UNL A   1      31.843  21.907  25.026  1.00  0.00     0.049 C 
BRANCH   9  18
ATOM     18  N   UNL A   1      32.311  24.983  25.285  1.00  0.00    -0.327 N 
ATOM     19  C   UNL A   1      33.184  26.055  25.724  1.00  0.00     0.263 C 
ATOM     20  C   UNL A   1      30.934  25.456  25.425  1.00  0.00     0.263 C 
ATOM     21  H   UNL A   1      32.419  24.175  25.898  1.00  0.00     0.348 HD
ATOM     22  C   UNL A   1      32.387  26.809  26.774  1.00  0.00     0.067 C 
ATOM     23  C   UNL A   1      30.965  26.712  26.284  1.00  0.00     0.067 C 
ENDBRANCH   9  18
ENDBRANCH   8   9
ENDBRANCH   6   8
ENDBRANCH   5   6
ENDBRANCH   4   5
ENDBRANCH   3   4
ENDBRANCH   2   3
ENDBRANCH   1   2
BRANCH   1  24
ATOM     24  C   UNL A   1      32.579  30.574  27.125  1.00  0.00     0.261 C 
BRANCH  24  25
ATOM     25  O   UNL A   1      33.986  30.843  26.980  1.00  0.00    -0.460 OA
BRANCH  25  26
ATOM     26  C   UNL A   1      34.614  31.166  28.129  1.00  0.00     0.338 C 
ATOM     27  O   UNL A   1      34.160  31.836  29.048  1.00  0.00    -0.246 OA
BRANCH  26  28
ATOM     28  C   UNL A   1      35.865  30.396  28.233  1.00  0.00     0.060 A 
ATOM     29  C   UNL A   1      36.213  29.909  29.497  1.00  0.00     0.016 A 
ATOM     30  C   UNL A   1      36.728  30.226  27.148  1.00  0.00     0.016 A 
ATOM     31  C   UNL A   1      37.461  29.322  29.697  1.00  0.00     0.010 A 
ATOM     32  C   UNL A   1      37.978  29.619  27.351  1.00  0.00     0.010 A 
ATOM     33  C   UNL A   1      38.376  29.213  28.639  1.00  0.00    -0.014 A 
BRANCH  33  34
ATOM     34  C   UNL A   1      39.785  28.836  28.953  1.00  0.00     0.031 A 
ATOM     35  C   UNL A   1      40.649  29.787  29.747  1.00  0.00     0.074 A 
ATOM     36  C   UNL A   1      40.266  27.615  28.643  1.00  0.00     0.049 A 
ATOM     37  N   UNL A   1      41.841  29.593  30.255  1.00  0.00    -0.248 NA
ATOM     38  C   UNL A   1      40.095  31.124  30.011  1.00  0.00     0.031 C 
ATOM     39  C   UNL A   1      39.544  26.582  27.904  1.00  0.00     0.029 A 
ATOM     40  N   UNL A   1      41.475  27.031  28.941  1.00  0.00    -0.354 N 
ATOM     41  C   UNL A   1      42.175  30.777  30.902  1.00  0.00     0.074 A 
ATOM     42  C   UNL A   1      41.081  31.699  30.684  1.00  0.00     0.031 C 
ATOM     43  C   UNL A   1      40.313  25.481  27.826  1.00  0.00     0.029 A 
ATOM     44  C   UNL A   1      41.591  25.736  28.491  1.00  0.00     0.049 A 
ATOM     45  H   UNL A   1      42.192  27.496  29.429  1.00  0.00     0.167 HD
ATOM     46  C   UNL A   1      43.280  31.075  31.629  1.00  0.00     0.031 A 
ATOM     47  C   UNL A   1      42.603  24.852  28.602  1.00  0.00     0.031 A 
ATOM     48  C   UNL A   1      44.379  30.173  31.852  1.00  0.00     0.049 A 
ATOM     49  C   UNL A   1      43.852  25.226  29.360  1.00  0.00     0.074 A 
ATOM     50  C   UNL A   1      45.523  30.384  32.602  1.00  0.00     0.029 A 
ATOM     51  N   UNL A   1      44.481  28.898  31.321  1.00  0.00    -0.354 N 
ATOM     52  N   UNL A   1      44.121  26.332  30.010  1.00  0.00    -0.248 NA
ATOM     53  C   UNL A   1      44.928  24.224  29.407  1.00  0.00     0.031 C 
ATOM     54  C   UNL A   1      46.345  29.260  32.476  1.00  0.00     0.029 A 
ATOM     55  C   UNL A   1      45.684  28.324  31.698  1.00  0.00     0.049 A 
ATOM     56  H   UNL A   1      43.799  28.464  30.759  1.00  0.00     0.167 HD
ATOM     57  C   UNL A   1      45.388  26.148  30.561  1.00  0.00     0.074 A 
ATOM     58  C   UNL A   1      45.822  24.820  30.184  1.00  0.00     0.031 C 
ATOM     59  C   UNL A   1      46.121  27.005  31.314  1.00  0.00     0.031 A 
BRANCH  46  60
ATOM     60  C   UNL A   1      43.366  32.454  32.227  1.00  0.00    -0.014 A 
ATOM     61  C   UNL A   1      42.893  32.715  33.526  1.00  0.00     0.010 A 
ATOM     62  C   UNL A   1      43.967  33.494  31.495  1.00  0.00     0.010 A 
ATOM     63  C   UNL A   1      42.985  34.000  34.067  1.00  0.00     0.020 A 
ATOM     64  C   UNL A   1      44.085  34.774  32.042  1.00  0.00     0.020 A 
ATOM     65  C   UNL A   1      43.578  35.022  33.319  1.00  0.00     0.054 A 
BRANCH  65  66
ATOM     66  S   UNL A   1      43.701  36.677  34.051  1.00  0.00     0.124 S 
ATOM     67  O   UNL A   1      42.409  36.806  34.721  1.00  0.00    -0.237 OA
ATOM     68  O   UNL A   1      44.856  36.552  34.936  1.00  0.00    -0.237 OA
ATOM     69  O   UNL A   1      43.894  37.553  32.899  1.00  0.00    -0.744 OA
ENDBRANCH  65  66
ENDBRANCH  46  60
BRANCH  47  70
ATOM     70  C   UNL A   1      42.487  23.508  27.967  1.00  0.00    -0.014 A 
ATOM     71  C   UNL A   1      41.890  22.434  28.651  1.00  0.00     0.010 A 
ATOM     72  C   UNL A   1      42.990  23.298  26.670  1.00  0.00     0.010 A 
ATOM     73  C   UNL A   1      41.813  21.171  28.055  1.00  0.00     0.020 A 
ATOM     74  C   UNL A   1      42.891  22.045  26.060  1.00  0.00     0.020 A 
ATOM     75  C   UNL A   1      42.313  20.986  26.762  1.00  0.00     0.054 A 
BRANCH  75  76
ATOM     76  S   UNL A   1      42.154  19.354  25.984  1.00  0.00     0.124 S 
ATOM     77  O   UNL A   1      43.001  19.496  24.805  1.00  0.00    -0.237 OA
ATOM     78  O   UNL A   1      42.659  18.459  27.023  1.00  0.00    -0.237 OA
ATOM     79  O   UNL A   1      40.722  19.241  25.718  1.00  0.00    -0.744 OA
ENDBRANCH  75  76
ENDBRANCH  47  70
BRANCH  59  80
ATOM     80  C   UNL A   1      47.468  26.536  31.803  1.00  0.00    -0.014 A 
ATOM     81  C   UNL A   1      47.580  25.625  32.868  1.00  0.00     0.010 A 
ATOM     82  C   UNL A   1      48.637  26.967  31.148  1.00  0.00     0.010 A 
ATOM     83  C   UNL A   1      48.837  25.177  33.288  1.00  0.00     0.020 A 
ATOM     84  C   UNL A   1      49.894  26.501  31.548  1.00  0.00     0.020 A 
ATOM     85  C   UNL A   1      49.986  25.619  32.625  1.00  0.00     0.054 A 
BRANCH  85  86
ATOM     86  S   UNL A   1      51.602  24.990  33.163  1.00  0.00     0.124 S 
ATOM     87  O   UNL A   1      51.230  23.779  33.888  1.00  0.00    -0.237 OA
ATOM     88  O   UNL A   1      52.300  24.775  31.898  1.00  0.00    -0.237 OA
ATOM     89  O   UNL A   1      52.137  26.071  33.988  1.00  0.00    -0.744 OA
ENDBRANCH  85  86
ENDBRANCH  59  80
ENDBRANCH  33  34
ENDBRANCH  26  28
ENDBRANCH  25  26
ENDBRANCH  24  25
ENDBRANCH   1  24
TORSDOF 19
ENDMDL
MODEL 2
REMARK VINA RESULT:      -9.9      2.238      3.207
REMARK SMILES CC1(C)C[C@](CC(=O)OCCOCCOC(=O)c2ccc(-c3c4nc(c(-c5ccc(S(=O)(=O)[O-])cc5)c5ccc([nH]5)c(-c5ccc(S(=O)(=O)[O-])cc5)c5nc(c(-c6ccc(S(=O)(=O)[O-])cc6)c6ccc3[nH]6)C=C5)C=C4)cc2)([NH+]2CCCC2)C(C)(C)O1
REMARK SMILES IDX 13 1 12 2 11 3 10 4 9 5 7 6 8 7 6 8 5 9 1 10 2 11 3 12 4 13
REMARK SMILES IDX 86 14 83 15 84 16 85 17 78 18 79 19 82 20 80 22 81 23 14 24
REMARK SMILES IDX 15 25 16 26 17 27 18 28 19 29 77 30 20 31 76 32 21 33 22 34
REMARK SMILES IDX 23 35 70 36 24 37 75 38 69 39 71 40 25 41 74 42 68 43 67 44
REMARK SMILES IDX 26 46 56 47 37 48 55 49 38 50 41 51 54 52 72 53 39 54 40 55
REMARK SMILES IDX 53 57 73 58 42 59 27 60 28 61 36 62 29 63 35 64 30 65 31 66
REMARK SMILES IDX 32 67 33 68 34 69 57 70 58 71 66 72 59 73 65 74 60 75 61 76
REMARK SMILES IDX 62 77 63 78 64 79 43 80 44 81 52 82 45 83 51 84 46 85 47 86
REMARK SMILES IDX 48 87 49 88 50 89
REMARK H PARENT 78 21 71 45 41 56
REMARK Flexibility Score: inf
ROOT
ATOM      1  C   UNL A   1      31.797  29.723  25.659  1.00  0.00     0.202 C 
ENDROOT
BRANCH   1   2
ATOM      2  O   UNL A   1      32.245  28.381  25.830  1.00  0.00    -0.374 OA
BRANCH   2   3
ATOM      3  C   UNL A   1      31.394  27.516  26.586  1.00  0.00     0.202 C 
BRANCH   3   4
ATOM      4  C   UNL A   1      30.757  26.355  25.813  1.00  0.00     0.261 C 
BRANCH   4   5
ATOM      5  O   UNL A   1      30.521  25.156  26.594  1.00  0.00    -0.463 OA
BRANCH   5   6
ATOM      6  C   UNL A   1      31.588  24.338  26.747  1.00  0.00     0.312 C 
ATOM      7  O   UNL A   1      31.683  23.503  27.644  1.00  0.00    -0.252 OA
BRANCH   6   8
ATOM      8  C   UNL A   1      32.764  24.595  25.823  1.00  0.00     0.194 C 
BRANCH   8   9
ATOM      9  C   UNL A   1      33.111  23.835  24.496  1.00  0.00     0.140 C 
ATOM     10  C   UNL A   1      32.267  20.252  24.597  1.00  0.00     0.042 C 
ATOM     11  C   UNL A   1      32.597  21.493  23.753  1.00  0.00     0.070 C 
ATOM     12  C   UNL A   1      32.121  21.184  22.322  1.00  0.00     0.042 C 
ATOM     13  C   UNL A   1      31.976  22.756  24.359  1.00  0.00     0.107 C 
ATOM     14  O   UNL A   1      34.019  21.703  23.752  1.00  0.00    -0.363 OA
ATOM     15  C   UNL A   1      34.361  22.867  24.564  1.00  0.00     0.118 C 
ATOM     16  C   UNL A   1      34.667  22.321  25.976  1.00  0.00     0.049 C 
ATOM     17  C   UNL A   1      35.685  23.416  24.015  1.00  0.00     0.049 C 
BRANCH   9  18
ATOM     18  N   UNL A   1      32.943  24.735  23.313  1.00  0.00    -0.327 N 
ATOM     19  C   UNL A   1      31.622  24.833  22.722  1.00  0.00     0.263 C 
ATOM     20  C   UNL A   1      33.507  26.084  23.347  1.00  0.00     0.263 C 
ATOM     21  H   UNL A   1      33.548  24.168  22.718  1.00  0.00     0.348 HD
ATOM     22  C   UNL A   1      31.703  26.010  21.767  1.00  0.00     0.067 C 
ATOM     23  C   UNL A   1      32.648  26.964  22.450  1.00  0.00     0.067 C 
ENDBRANCH   9  18
ENDBRANCH   8   9
ENDBRANCH   6   8
ENDBRANCH   5   6
ENDBRANCH   4   5
ENDBRANCH   3   4
ENDBRANCH   2   3
ENDBRANCH   1   2
BRANCH   1  24
ATOM     24  C   UNL A   1      32.227  30.680  26.775  1.00  0.00     0.261 C 
BRANCH  24  25
ATOM     25  O   UNL A   1      33.389  30.163  27.450  1.00  0.00    -0.460 OA
BRANCH  25  26
ATOM     26  C   UNL A   1      34.310  31.096  27.769  1.00  0.00     0.338 C 
ATOM     27  O   UNL A   1      34.111  32.291  27.943  1.00  0.00    -0.246 OA
BRANCH  26  28
ATOM     28  C   UNL A   1      35.578  30.429  28.112  1.00  0.00     0.060 A 
ATOM     29  C   UNL A   1      35.654  29.805  29.361  1.00  0.00     0.016 A 
ATOM     30  C   UNL A   1      36.698  30.485  27.281  1.00  0.00     0.016 A 
ATOM     31  C   UNL A   1      36.873  29.306  29.817  1.00  0.00     0.010 A 
ATOM     32  C   UNL A   1      37.921  29.967  27.737  1.00  0.00     0.010 A 
ATOM     33  C   UNL A   1      38.030  29.423  29.031  1.00  0.00    -0.014 A 
BRANCH  33  34
ATOM     34  C   UNL A   1      39.350  29.129  29.661  1.00  0.00     0.031 A 
ATOM     35  C   UNL A   1      39.753  29.864  30.917  1.00  0.00     0.074 A 
ATOM     36  C   UNL A   1      40.138  28.138  29.199  1.00  0.00     0.049 A 
ATOM     37  N   UNL A   1      40.779  29.655  31.705  1.00  0.00    -0.248 NA
ATOM     38  C   UNL A   1      38.885  30.971  31.346  1.00  0.00     0.031 C 
ATOM     39  C   UNL A   1      39.870  27.323  28.016  1.00  0.00     0.029 A 
ATOM     40  N   UNL A   1      41.317  27.631  29.694  1.00  0.00    -0.354 N 
ATOM     41  C   UNL A   1      40.676  30.597  32.722  1.00  0.00     0.074 A 
ATOM     42  C   UNL A   1      39.514  31.407  32.428  1.00  0.00     0.031 C 
ATOM     43  C   UNL A   1      40.843  26.403  27.889  1.00  0.00     0.029 A 
ATOM     44  C   UNL A   1      41.814  26.574  28.968  1.00  0.00     0.049 A 
ATOM     45  H   UNL A   1      41.765  27.993  30.493  1.00  0.00     0.167 HD
ATOM     46  C   UNL A   1      41.460  30.768  33.815  1.00  0.00     0.031 A 
ATOM     47  C   UNL A   1      42.921  25.823  29.149  1.00  0.00     0.031 A 
ATOM     48  C   UNL A   1      42.621  29.975  34.120  1.00  0.00     0.049 A 
ATOM     49  C   UNL A   1      43.815  26.073  30.337  1.00  0.00     0.074 A 
ATOM     50  C   UNL A   1      43.453  30.062  35.223  1.00  0.00     0.029 A 
ATOM     51  N   UNL A   1      43.123  28.961  33.321  1.00  0.00    -0.354 N 
ATOM     52  N   UNL A   1      43.666  26.933  31.316  1.00  0.00    -0.248 NA
ATOM     53  C   UNL A   1      45.023  25.240  30.448  1.00  0.00     0.031 C 
ATOM     54  C   UNL A   1      44.494  29.141  35.062  1.00  0.00     0.029 A 
ATOM     55  C   UNL A   1      44.274  28.438  33.889  1.00  0.00     0.049 A 
ATOM     56  H   UNL A   1      42.722  28.656  32.476  1.00  0.00     0.167 HD
ATOM     57  C   UNL A   1      44.749  26.728  32.168  1.00  0.00     0.074 A 
ATOM     58  C   UNL A   1      45.534  25.652  31.600  1.00  0.00     0.031 C 
ATOM     59  C   UNL A   1      45.060  27.374  33.319  1.00  0.00     0.031 A 
BRANCH  46  60
ATOM     60  C   UNL A   1      41.095  31.880  34.762  1.00  0.00    -0.014 A 
ATOM     61  C   UNL A   1      40.300  31.638  35.897  1.00  0.00     0.010 A 
ATOM     62  C   UNL A   1      41.590  33.177  34.537  1.00  0.00     0.010 A 
ATOM     63  C   UNL A   1      39.975  32.681  36.768  1.00  0.00     0.020 A 
ATOM     64  C   UNL A   1      41.290  34.218  35.420  1.00  0.00     0.020 A 
ATOM     65  C   UNL A   1      40.470  33.965  36.521  1.00  0.00     0.054 A 
BRANCH  65  66
ATOM     66  S   UNL A   1      40.048  35.298  37.677  1.00  0.00     0.124 S 
ATOM     67  O   UNL A   1      40.022  36.463  36.795  1.00  0.00    -0.237 OA
ATOM     68  O   UNL A   1      38.750  34.874  38.196  1.00  0.00    -0.237 OA
ATOM     69  O   UNL A   1      41.140  35.277  38.646  1.00  0.00    -0.744 OA
ENDBRANCH  65  66
ENDBRANCH  46  60
BRANCH  47  70
ATOM     70  C   UNL A   1      43.259  24.753  28.168  1.00  0.00    -0.014 A 
ATOM     71  C   UNL A   1      42.766  23.446  28.325  1.00  0.00     0.010 A 
ATOM     72  C   UNL A   1      44.094  25.043  27.074  1.00  0.00     0.010 A 
ATOM     73  C   UNL A   1      43.114  22.444  27.413  1.00  0.00     0.020 A 
ATOM     74  C   UNL A   1      44.423  24.051  26.146  1.00  0.00     0.020 A 
ATOM     75  C   UNL A   1      43.940  22.755  26.328  1.00  0.00     0.054 A 
BRANCH  75  76
ATOM     76  S   UNL A   1      44.336  21.454  25.126  1.00  0.00     0.124 S 
ATOM     77  O   UNL A   1      45.695  21.089  25.512  1.00  0.00    -0.237 OA
ATOM     78  O   UNL A   1      43.309  20.451  25.395  1.00  0.00    -0.237 OA
ATOM     79  O   UNL A   1      44.211  22.132  23.837  1.00  0.00    -0.744 OA
ENDBRANCH  75  76
ENDBRANCH  47  70
BRANCH  59  80
ATOM     80  C   UNL A   1      46.295  26.930  34.063  1.00  0.00    -0.014 A 
ATOM     81  C   UNL A   1      47.541  27.542  33.836  1.00  0.00     0.010 A 
ATOM     82  C   UNL A   1      46.195  25.928  35.046  1.00  0.00     0.010 A 
ATOM     83  C   UNL A   1      48.669  27.138  34.557  1.00  0.00     0.020 A 
ATOM     84  C   UNL A   1      47.316  25.540  35.787  1.00  0.00     0.020 A 
ATOM     85  C   UNL A   1      48.549  26.139  35.528  1.00  0.00     0.054 A 
BRANCH  85  86
ATOM     86  S   UNL A   1      50.021  25.663  36.479  1.00  0.00     0.124 S 
ATOM     87  O   UNL A   1      50.038  26.670  37.536  1.00  0.00    -0.237 OA
ATOM     88  O   UNL A   1      49.700  24.305  36.910  1.00  0.00    -0.237 OA
ATOM     89  O   UNL A   1      51.108  25.761  35.507  1.00  0.00    -0.744 OA
ENDBRANCH  85  86
ENDBRANCH  59  80
ENDBRANCH  33  34
ENDBRANCH  26  28
ENDBRANCH  25  26
ENDBRANCH  24  25
ENDBRANCH   1  24
TORSDOF 19
ENDMDL
MODEL 3
REMARK VINA RESULT:      -9.9      3.492      4.520
REMARK SMILES CC1(C)C[C@](CC(=O)OCCOCCOC(=O)c2ccc(-c3c4nc(c(-c5ccc(S(=O)(=O)[O-])cc5)c5ccc([nH]5)c(-c5ccc(S(=O)(=O)[O-])cc5)c5nc(c(-c6ccc(S(=O)(=O)[O-])cc6)c6ccc3[nH]6)C=C5)C=C4)cc2)([NH+]2CCCC2)C(C)(C)O1
REMARK SMILES IDX 13 1 12 2 11 3 10 4 9 5 7 6 8 7 6 8 5 9 1 10 2 11 3 12 4 13
REMARK SMILES IDX 86 14 83 15 84 16 85 17 78 18 79 19 82 20 80 22 81 23 14 24
REMARK SMILES IDX 15 25 16 26 17 27 18 28 19 29 77 30 20 31 76 32 21 33 22 34
REMARK SMILES IDX 23 35 70 36 24 37 75 38 69 39 71 40 25 41 74 42 68 43 67 44
REMARK SMILES IDX 26 46 56 47 37 48 55 49 38 50 41 51 54 52 72 53 39 54 40 55
REMARK SMILES IDX 53 57 73 58 42 59 27 60 28 61 36 62 29 63 35 64 30 65 31 66
REMARK SMILES IDX 32 67 33 68 34 69 57 70 58 71 66 72 59 73 65 74 60 75 61 76
REMARK SMILES IDX 62 77 63 78 64 79 43 80 44 81 52 82 45 83 51 84 46 85 47 86
REMARK SMILES IDX 48 87 49 88 50 89
REMARK H PARENT 78 21 71 45 41 56
REMARK Flexibility Score: inf
ROOT
ATOM      1  C   UNL A   1      34.580  32.318  28.463  1.00  0.00     0.202 C 
ENDROOT
BRANCH   1   2
ATOM      2  O   UNL A   1      33.568  31.441  27.975  1.00  0.00    -0.374 OA
BRANCH   2   3
ATOM      3  C   UNL A   1      34.004  30.361  27.148  1.00  0.00     0.202 C 
BRANCH   3   4
ATOM      4  C   UNL A   1      33.051  29.948  26.020  1.00  0.00     0.261 C 
BRANCH   4   5
ATOM      5  O   UNL A   1      31.807  29.345  26.460  1.00  0.00    -0.463 OA
BRANCH   5   6
ATOM      6  C   UNL A   1      31.903  28.075  26.918  1.00  0.00     0.312 C 
ATOM      7  O   UNL A   1      31.437  27.703  27.993  1.00  0.00    -0.252 OA
BRANCH   6   8
ATOM      8  C   UNL A   1      32.757  27.131  26.094  1.00  0.00     0.194 C 
BRANCH   8   9
ATOM      9  C   UNL A   1      32.287  25.834  25.348  1.00  0.00     0.140 C 
ATOM     10  C   UNL A   1      32.677  22.768  27.350  1.00  0.00     0.042 C 
ATOM     11  C   UNL A   1      32.018  23.472  26.153  1.00  0.00     0.070 C 
ATOM     12  C   UNL A   1      30.796  22.619  25.768  1.00  0.00     0.042 C 
ATOM     13  C   UNL A   1      31.684  24.930  26.483  1.00  0.00     0.107 C 
ATOM     14  O   UNL A   1      32.944  23.509  25.055  1.00  0.00    -0.363 OA
ATOM     15  C   UNL A   1      33.439  24.868  24.853  1.00  0.00     0.118 C 
ATOM     16  C   UNL A   1      34.746  24.968  25.669  1.00  0.00     0.049 C 
ATOM     17  C   UNL A   1      33.840  24.978  23.376  1.00  0.00     0.049 C 
BRANCH   9  18
ATOM     18  N   UNL A   1      31.141  26.137  24.435  1.00  0.00    -0.327 N 
ATOM     19  C   UNL A   1      29.799  26.026  24.977  1.00  0.00     0.263 C 
ATOM     20  C   UNL A   1      31.177  27.340  23.605  1.00  0.00     0.263 C 
ATOM     21  H   UNL A   1      31.335  25.342  23.826  1.00  0.00     0.348 HD
ATOM     22  C   UNL A   1      28.899  26.666  23.936  1.00  0.00     0.067 C 
ATOM     23  C   UNL A   1      29.740  27.780  23.367  1.00  0.00     0.067 C 
ENDBRANCH   9  18
ENDBRANCH   8   9
ENDBRANCH   6   8
ENDBRANCH   5   6
ENDBRANCH   4   5
ENDBRANCH   3   4
ENDBRANCH   2   3
ENDBRANCH   1   2
BRANCH   1  24
ATOM     24  C   UNL A   1      35.112  31.956  29.854  1.00  0.00     0.261 C 
BRANCH  24  25
ATOM     25  O   UNL A   1      35.768  30.675  29.814  1.00  0.00    -0.460 OA
BRANCH  25  26
ATOM     26  C   UNL A   1      36.570  30.426  30.871  1.00  0.00     0.338 C 
ATOM     27  O   UNL A   1      36.215  30.100  31.997  1.00  0.00    -0.246 OA
BRANCH  26  28
ATOM     28  C   UNL A   1      37.970  30.375  30.418  1.00  0.00     0.060 A 
ATOM     29  C   UNL A   1      38.199  30.457  29.041  1.00  0.00     0.016 A 
ATOM     30  C   UNL A   1      39.031  30.159  31.300  1.00  0.00     0.016 A 
ATOM     31  C   UNL A   1      39.480  30.245  28.535  1.00  0.00     0.010 A 
ATOM     32  C   UNL A   1      40.323  29.961  30.786  1.00  0.00     0.010 A 
ATOM     33  C   UNL A   1      40.547  29.948  29.396  1.00  0.00    -0.014 A 
BRANCH  33  34
ATOM     34  C   UNL A   1      41.826  29.461  28.802  1.00  0.00     0.031 A 
ATOM     35  C   UNL A   1      43.015  30.389  28.739  1.00  0.00     0.074 A 
ATOM     36  C   UNL A   1      41.978  28.174  28.429  1.00  0.00     0.049 A 
ATOM     37  N   UNL A   1      44.255  30.125  28.406  1.00  0.00    -0.248 NA
ATOM     38  C   UNL A   1      42.782  31.794  29.107  1.00  0.00     0.031 C 
ATOM     39  C   UNL A   1      40.930  27.155  28.458  1.00  0.00     0.029 A 
ATOM     40  N   UNL A   1      43.088  27.501  27.977  1.00  0.00    -0.354 N 
ATOM     41  C   UNL A   1      44.946  31.324  28.530  1.00  0.00     0.074 A 
ATOM     42  C   UNL A   1      43.982  32.327  28.925  1.00  0.00     0.031 C 
ATOM     43  C   UNL A   1      41.453  25.980  28.064  1.00  0.00     0.029 A 
ATOM     44  C   UNL A   1      42.866  26.165  27.736  1.00  0.00     0.049 A 
ATOM     45  H   UNL A   1      43.961  27.935  27.838  1.00  0.00     0.167 HD
ATOM     46  C   UNL A   1      46.267  31.574  28.352  1.00  0.00     0.031 A 
ATOM     47  C   UNL A   1      43.701  25.197  27.306  1.00  0.00     0.031 A 
ATOM     48  C   UNL A   1      47.239  30.591  27.955  1.00  0.00     0.049 A 
ATOM     49  C   UNL A   1      45.154  25.512  27.051  1.00  0.00     0.074 A 
ATOM     50  C   UNL A   1      48.603  30.754  27.782  1.00  0.00     0.029 A 
ATOM     51  N   UNL A   1      46.956  29.268  27.657  1.00  0.00    -0.354 N 
ATOM     52  N   UNL A   1      45.797  26.641  27.229  1.00  0.00    -0.248 NA
ATOM     53  C   UNL A   1      45.995  24.415  26.547  1.00  0.00     0.031 C 
ATOM     54  C   UNL A   1      49.136  29.545  27.322  1.00  0.00     0.029 A 
ATOM     55  C   UNL A   1      48.113  28.613  27.268  1.00  0.00     0.049 A 
ATOM     56  H   UNL A   1      46.064  28.854  27.715  1.00  0.00     0.167 HD
ATOM     57  C   UNL A   1      47.120  26.382  26.880  1.00  0.00     0.074 A 
ATOM     58  C   UNL A   1      47.190  24.987  26.499  1.00  0.00     0.031 C 
ATOM     59  C   UNL A   1      48.181  27.227  26.880  1.00  0.00     0.031 A 
BRANCH  46  60
ATOM     60  C   UNL A   1      46.740  32.988  28.568  1.00  0.00    -0.014 A 
ATOM     61  C   UNL A   1      47.170  33.425  29.834  1.00  0.00     0.010 A 
ATOM     62  C   UNL A   1      46.795  33.877  27.481  1.00  0.00     0.010 A 
ATOM     63  C   UNL A   1      47.610  34.739  30.016  1.00  0.00     0.020 A 
ATOM     64  C   UNL A   1      47.260  35.184  27.652  1.00  0.00     0.020 A 
ATOM     65  C   UNL A   1      47.648  35.611  28.923  1.00  0.00     0.054 A 
BRANCH  65  66
ATOM     66  S   UNL A   1      48.240  37.305  29.182  1.00  0.00     0.124 S 
ATOM     67  O   UNL A   1      47.766  37.586  30.536  1.00  0.00    -0.237 OA
ATOM     68  O   UNL A   1      49.687  37.166  29.041  1.00  0.00    -0.237 OA
ATOM     69  O   UNL A   1      47.585  38.069  28.124  1.00  0.00    -0.744 OA
ENDBRANCH  65  66
ENDBRANCH  46  60
BRANCH  47  70
ATOM     70  C   UNL A   1      43.182  23.819  27.075  1.00  0.00    -0.014 A 
ATOM     71  C   UNL A   1      43.091  22.894  28.131  1.00  0.00     0.010 A 
ATOM     72  C   UNL A   1      42.788  23.424  25.784  1.00  0.00     0.010 A 
ATOM     73  C   UNL A   1      42.629  21.595  27.895  1.00  0.00     0.020 A 
ATOM     74  C   UNL A   1      42.301  22.135  25.549  1.00  0.00     0.020 A 
ATOM     75  C   UNL A   1      42.235  21.226  26.606  1.00  0.00     0.054 A 
BRANCH  75  76
ATOM     76  S   UNL A   1      41.587  19.553  26.331  1.00  0.00     0.124 S 
ATOM     77  O   UNL A   1      42.418  19.082  25.228  1.00  0.00    -0.237 OA
ATOM     78  O   UNL A   1      41.821  18.908  27.621  1.00  0.00    -0.237 OA
ATOM     79  O   UNL A   1      40.181  19.781  26.004  1.00  0.00    -0.744 OA
ENDBRANCH  75  76
ENDBRANCH  47  70
BRANCH  59  80
ATOM     80  C   UNL A   1      49.522  26.672  26.471  1.00  0.00    -0.014 A 
ATOM     81  C   UNL A   1      50.014  26.844  25.164  1.00  0.00     0.010 A 
ATOM     82  C   UNL A   1      50.328  26.021  27.423  1.00  0.00     0.010 A 
ATOM     83  C   UNL A   1      51.274  26.349  24.812  1.00  0.00     0.020 A 
ATOM     84  C   UNL A   1      51.599  25.547  27.081  1.00  0.00     0.020 A 
ATOM     85  C   UNL A   1      52.058  25.703  25.773  1.00  0.00     0.054 A 
BRANCH  85  86
ATOM     86  S   UNL A   1      53.706  25.107  25.299  1.00  0.00     0.124 S 
ATOM     87  O   UNL A   1      53.854  25.658  23.955  1.00  0.00    -0.237 OA
ATOM     88  O   UNL A   1      54.567  25.700  26.319  1.00  0.00    -0.237 OA
ATOM     89  O   UNL A   1      53.581  23.652  25.367  1.00  0.00    -0.744 OA
ENDBRANCH  85  86
ENDBRANCH  59  80
ENDBRANCH  33  34
ENDBRANCH  26  28
ENDBRANCH  25  26
ENDBRANCH  24  25
ENDBRANCH   1  24
TORSDOF 19
ENDMDL
