MODEL 1
REMARK VINA RESULT:      -8.6      0.000      0.000
REMARK SMILES COc1cccc([C@H]2[NH2+][C@@](CC(C)C)(C(=O)OCCOCCOC(=O)c3ccc(-c4c5nc(c(-c6ccc(S(=O)(=O)[O-])cc6)c6ccc([nH]6)c(-c6ccc(S(=O)(=O)[O-])cc6)c6nc(c(-c7ccc(S(=O)(=O)[O-])cc7)c7ccc4[nH]7)C=C6)C=C5)cc3)[C@H]3C(=O)N(C(C)C)C(=O)[C@H]23)c1O
REMARK SMILES IDX 21 1 20 2 19 3 18 4 17 5 15 6 16 7 10 8 8 9 9 10 95 11 86 14
REMARK SMILES IDX 93 15 87 16 89 17 94 18 88 19 7 20 3 21 4 22 96 23 5 24 6 25
REMARK SMILES IDX 2 26 1 27 97 28 11 30 12 31 13 32 14 33 90 34 91 35 92 36
REMARK SMILES IDX 22 37 23 38 24 39 25 40 26 41 27 42 85 43 28 44 84 45 29 46
REMARK SMILES IDX 30 47 31 48 78 49 32 50 83 51 77 52 79 53 33 54 82 55 76 56
REMARK SMILES IDX 75 57 34 59 64 60 45 61 63 62 46 63 49 64 62 65 80 66 47 67
REMARK SMILES IDX 48 68 61 70 81 71 50 72 35 73 36 74 44 75 37 76 43 77 38 78
REMARK SMILES IDX 39 79 40 80 41 81 42 82 65 83 66 84 74 85 67 86 73 87 68 88
REMARK SMILES IDX 69 89 70 90 71 91 72 92 51 93 52 94 60 95 53 96 59 97 54 98
REMARK SMILES IDX 55 99 56 100 57 101 58 102
REMARK H PARENT 9 12 9 13 97 29 79 58 49 69
REMARK Flexibility Score: inf
ROOT
ATOM      1  C   UNL A   1      34.747  32.342  28.967  1.00  0.00     0.202 C 
ENDROOT
BRANCH   1   2
ATOM      2  O   UNL A   1      35.645  33.437  28.824  1.00  0.00    -0.374 OA
BRANCH   2   3
ATOM      3  C   UNL A   1      37.036  33.210  28.998  1.00  0.00     0.202 C 
BRANCH   3   4
ATOM      4  C   UNL A   1      37.793  33.893  30.146  1.00  0.00     0.261 C 
BRANCH   4   5
ATOM      5  O   UNL A   1      36.971  34.455  31.174  1.00  0.00    -0.459 OA
BRANCH   5   6
ATOM      6  C   UNL A   1      37.474  34.292  32.429  1.00  0.00     0.369 C 
ATOM      7  O   UNL A   1      38.640  34.542  32.721  1.00  0.00    -0.245 OA
BRANCH   6   8
ATOM      8  C   UNL A   1      36.404  33.795  33.456  1.00  0.00     0.207 C 
ATOM      9  C   UNL A   1      37.449  33.301  35.677  1.00  0.00     0.232 C 
ATOM     10  N   UNL A   1      36.734  34.364  34.863  1.00  0.00    -0.324 N 
ATOM     11  C   UNL A   1      37.848  32.354  34.601  1.00  0.00     0.161 C 
ATOM     12  H   UNL A   1      37.335  35.182  34.768  1.00  0.00     0.347 HD
ATOM     13  H   UNL A   1      35.870  34.633  35.334  1.00  0.00     0.347 HD
ATOM     14  C   UNL A   1      36.609  32.312  33.736  1.00  0.00     0.171 C 
ATOM     15  C   UNL A   1      38.199  30.915  34.665  1.00  0.00     0.240 C 
ATOM     16  C   UNL A   1      37.047  31.296  32.722  1.00  0.00     0.240 C 
ATOM     17  N   UNL A   1      37.972  30.493  33.364  1.00  0.00    -0.279 N 
ATOM     18  O   UNL A   1      38.664  30.302  35.607  1.00  0.00    -0.274 OA
ATOM     19  O   UNL A   1      36.561  31.154  31.614  1.00  0.00    -0.274 OA
BRANCH   9  20
ATOM     20  C   UNL A   1      38.533  33.847  36.602  1.00  0.00     0.056 A 
ATOM     21  C   UNL A   1      39.825  33.929  38.705  1.00  0.00     0.161 A 
ATOM     22  C   UNL A   1      40.395  35.137  38.300  1.00  0.00     0.050 A 
ATOM     23  C   UNL A   1      38.925  33.284  37.838  1.00  0.00     0.166 A 
ATOM     24  C   UNL A   1      40.075  35.692  37.064  1.00  0.00     0.005 A 
ATOM     25  C   UNL A   1      39.154  35.056  36.228  1.00  0.00     0.014 A 
BRANCH  21  26
ATOM     26  O   UNL A   1      40.260  33.514  39.936  1.00  0.00    -0.493 OA
ATOM     27  C   UNL A   1      39.557  33.944  41.095  1.00  0.00     0.278 C 
ENDBRANCH  21  26
BRANCH  23  28
ATOM     28  O   UNL A   1      38.455  32.048  38.182  1.00  0.00    -0.504 OA
ATOM     29  H   UNL A   1      37.717  31.686  37.733  1.00  0.00     0.293 HD
ENDBRANCH  23  28
ENDBRANCH   9  20
BRANCH   8  30
ATOM     30  C   UNL A   1      34.923  34.069  33.032  1.00  0.00     0.085 C 
BRANCH  30  31
ATOM     31  C   UNL A   1      34.512  35.449  32.456  1.00  0.00    -0.011 C 
ATOM     32  C   UNL A   1      33.368  35.400  31.439  1.00  0.00     0.007 C 
ATOM     33  C   UNL A   1      34.086  36.389  33.594  1.00  0.00     0.007 C 
ENDBRANCH  30  31
ENDBRANCH   8  30
BRANCH  17  34
ATOM     34  C   UNL A   1      38.713  29.433  32.698  1.00  0.00     0.087 C 
ATOM     35  C   UNL A   1      40.188  29.483  33.119  1.00  0.00     0.031 C 
ATOM     36  C   UNL A   1      38.111  28.059  32.943  1.00  0.00     0.031 C 
ENDBRANCH  17  34
ENDBRANCH   6   8
ENDBRANCH   5   6
ENDBRANCH   4   5
ENDBRANCH   3   4
ENDBRANCH   2   3
ENDBRANCH   1   2
BRANCH   1  37
ATOM     37  C   UNL A   1      34.207  31.586  27.742  1.00  0.00     0.261 C 
BRANCH  37  38
ATOM     38  O   UNL A   1      33.852  30.211  27.966  1.00  0.00    -0.460 OA
BRANCH  38  39
ATOM     39  C   UNL A   1      34.702  29.317  27.400  1.00  0.00     0.338 C 
ATOM     40  O   UNL A   1      34.453  28.532  26.500  1.00  0.00    -0.246 OA
BRANCH  39  41
ATOM     41  C   UNL A   1      36.063  29.485  27.929  1.00  0.00     0.060 A 
ATOM     42  C   UNL A   1      37.063  29.939  27.061  1.00  0.00     0.016 A 
ATOM     43  C   UNL A   1      36.385  29.018  29.205  1.00  0.00     0.016 A 
ATOM     44  C   UNL A   1      38.400  29.884  27.450  1.00  0.00     0.010 A 
ATOM     45  C   UNL A   1      37.728  28.961  29.591  1.00  0.00     0.010 A 
ATOM     46  C   UNL A   1      38.743  29.354  28.701  1.00  0.00    -0.014 A 
BRANCH  46  47
ATOM     47  C   UNL A   1      40.168  29.085  29.018  1.00  0.00     0.031 A 
ATOM     48  C   UNL A   1      40.759  27.744  28.676  1.00  0.00     0.074 A 
ATOM     49  C   UNL A   1      40.931  30.040  29.580  1.00  0.00     0.049 A 
ATOM     50  N   UNL A   1      41.967  27.293  28.893  1.00  0.00    -0.248 NA
ATOM     51  C   UNL A   1      39.872  26.783  28.000  1.00  0.00     0.031 C 
ATOM     52  C   UNL A   1      40.484  31.390  29.916  1.00  0.00     0.029 A 
ATOM     53  N   UNL A   1      42.247  30.012  29.969  1.00  0.00    -0.354 N 
ATOM     54  C   UNL A   1      41.983  25.994  28.395  1.00  0.00     0.074 A 
ATOM     55  C   UNL A   1      40.656  25.720  27.889  1.00  0.00     0.031 C 
ATOM     56  C   UNL A   1      41.508  32.064  30.467  1.00  0.00     0.029 A 
ATOM     57  C   UNL A   1      42.669  31.180  30.558  1.00  0.00     0.049 A 
ATOM     58  H   UNL A   1      42.832  29.232  29.840  1.00  0.00     0.167 HD
ATOM     59  C   UNL A   1      43.011  25.112  28.360  1.00  0.00     0.031 A 
ATOM     60  C   UNL A   1      43.851  31.494  31.126  1.00  0.00     0.031 A 
ATOM     61  C   UNL A   1      44.328  25.387  28.875  1.00  0.00     0.049 A 
ATOM     62  C   UNL A   1      44.957  30.473  31.136  1.00  0.00     0.074 A 
ATOM     63  C   UNL A   1      45.443  24.566  28.868  1.00  0.00     0.029 A 
ATOM     64  N   UNL A   1      44.706  26.569  29.494  1.00  0.00    -0.354 N 
ATOM     65  N   UNL A   1      44.963  29.258  30.641  1.00  0.00    -0.248 NA
ATOM     66  C   UNL A   1      46.220  30.870  31.775  1.00  0.00     0.031 C 
ATOM     67  C   UNL A   1      46.476  25.229  29.539  1.00  0.00     0.029 A 
ATOM     68  C   UNL A   1      46.027  26.489  29.901  1.00  0.00     0.049 A 
ATOM     69  H   UNL A   1      44.121  27.350  29.625  1.00  0.00     0.167 HD
ATOM     70  C   UNL A   1      46.238  28.756  30.882  1.00  0.00     0.074 A 
ATOM     71  C   UNL A   1      46.978  29.804  31.555  1.00  0.00     0.031 C 
ATOM     72  C   UNL A   1      46.751  27.539  30.574  1.00  0.00     0.031 A 
BRANCH  59  73
ATOM     73  C   UNL A   1      42.742  23.748  27.777  1.00  0.00    -0.014 A 
ATOM     74  C   UNL A   1      43.153  23.413  26.474  1.00  0.00     0.010 A 
ATOM     75  C   UNL A   1      42.107  22.770  28.565  1.00  0.00     0.010 A 
ATOM     76  C   UNL A   1      42.898  22.139  25.957  1.00  0.00     0.020 A 
ATOM     77  C   UNL A   1      41.875  21.486  28.061  1.00  0.00     0.020 A 
ATOM     78  C   UNL A   1      42.258  21.185  26.753  1.00  0.00     0.054 A 
BRANCH  78  79
ATOM     79  S   UNL A   1      41.960  19.532  26.064  1.00  0.00     0.124 S 
ATOM     80  O   UNL A   1      42.842  19.529  24.899  1.00  0.00    -0.237 OA
ATOM     81  O   UNL A   1      42.362  18.653  27.158  1.00  0.00    -0.237 OA
ATOM     82  O   UNL A   1      40.531  19.534  25.762  1.00  0.00    -0.744 OA
ENDBRANCH  78  79
ENDBRANCH  59  73
BRANCH  60  83
ATOM     83  C   UNL A   1      44.038  32.832  31.752  1.00  0.00    -0.014 A 
ATOM     84  C   UNL A   1      43.725  33.043  33.106  1.00  0.00     0.010 A 
ATOM     85  C   UNL A   1      44.538  33.905  30.991  1.00  0.00     0.010 A 
ATOM     86  C   UNL A   1      43.893  34.306  33.682  1.00  0.00     0.020 A 
ATOM     87  C   UNL A   1      44.736  35.160  31.571  1.00  0.00     0.020 A 
ATOM     88  C   UNL A   1      44.401  35.356  32.911  1.00  0.00     0.054 A 
BRANCH  88  89
ATOM     89  S   UNL A   1      44.660  36.971  33.695  1.00  0.00     0.124 S 
ATOM     90  O   UNL A   1      45.030  36.594  35.054  1.00  0.00    -0.237 OA
ATOM     91  O   UNL A   1      45.729  37.547  32.883  1.00  0.00    -0.237 OA
ATOM     92  O   UNL A   1      43.362  37.630  33.558  1.00  0.00    -0.744 OA
ENDBRANCH  88  89
ENDBRANCH  60  83
BRANCH  72  93
ATOM     93  C   UNL A   1      48.195  27.284  30.924  1.00  0.00    -0.014 A 
ATOM     94  C   UNL A   1      48.559  26.698  32.149  1.00  0.00     0.010 A 
ATOM     95  C   UNL A   1      49.199  27.592  29.987  1.00  0.00     0.010 A 
ATOM     96  C   UNL A   1      49.905  26.461  32.446  1.00  0.00     0.020 A 
ATOM     97  C   UNL A   1      50.541  27.327  30.268  1.00  0.00     0.020 A 
ATOM     98  C   UNL A   1      50.887  26.778  31.503  1.00  0.00     0.054 A 
BRANCH  98  99
ATOM     99  S   UNL A   1      52.622  26.427  31.899  1.00  0.00     0.124 S 
ATOM    100  O   UNL A   1      52.876  27.350  33.001  1.00  0.00    -0.237 OA
ATOM    101  O   UNL A   1      52.589  25.012  32.259  1.00  0.00    -0.237 OA
ATOM    102  O   UNL A   1      53.331  26.731  30.656  1.00  0.00    -0.744 OA
ENDBRANCH  98  99
ENDBRANCH  72  93
ENDBRANCH  46  47
ENDBRANCH  39  41
ENDBRANCH  38  39
ENDBRANCH  37  38
ENDBRANCH   1  37
TORSDOF 23
ENDMDL
MODEL 2
REMARK VINA RESULT:      -8.4      4.277     10.040
REMARK SMILES COc1cccc([C@H]2[NH2+][C@@](CC(C)C)(C(=O)OCCOCCOC(=O)c3ccc(-c4c5nc(c(-c6ccc(S(=O)(=O)[O-])cc6)c6ccc([nH]6)c(-c6ccc(S(=O)(=O)[O-])cc6)c6nc(c(-c7ccc(S(=O)(=O)[O-])cc7)c7ccc4[nH]7)C=C6)C=C5)cc3)[C@H]3C(=O)N(C(C)C)C(=O)[C@H]23)c1O
REMARK SMILES IDX 21 1 20 2 19 3 18 4 17 5 15 6 16 7 10 8 8 9 9 10 95 11 86 14
REMARK SMILES IDX 93 15 87 16 89 17 94 18 88 19 7 20 3 21 4 22 96 23 5 24 6 25
REMARK SMILES IDX 2 26 1 27 97 28 11 30 12 31 13 32 14 33 90 34 91 35 92 36
REMARK SMILES IDX 22 37 23 38 24 39 25 40 26 41 27 42 85 43 28 44 84 45 29 46
REMARK SMILES IDX 30 47 31 48 78 49 32 50 83 51 77 52 79 53 33 54 82 55 76 56
REMARK SMILES IDX 75 57 34 59 64 60 45 61 63 62 46 63 49 64 62 65 80 66 47 67
REMARK SMILES IDX 48 68 61 70 81 71 50 72 35 73 36 74 44 75 37 76 43 77 38 78
REMARK SMILES IDX 39 79 40 80 41 81 42 82 65 83 66 84 74 85 67 86 73 87 68 88
REMARK SMILES IDX 69 89 70 90 71 91 72 92 51 93 52 94 60 95 53 96 59 97 54 98
REMARK SMILES IDX 55 99 56 100 57 101 58 102
REMARK H PARENT 9 12 9 13 97 29 79 58 49 69
REMARK Flexibility Score: inf
ROOT
ATOM      1  C   UNL A   1      37.914  33.537  38.342  1.00  0.00     0.202 C 
ENDROOT
BRANCH   1   2
ATOM      2  O   UNL A   1      37.147  33.245  37.180  1.00  0.00    -0.374 OA
BRANCH   2   3
ATOM      3  C   UNL A   1      37.633  32.277  36.261  1.00  0.00     0.202 C 
BRANCH   3   4
ATOM      4  C   UNL A   1      37.432  32.474  34.752  1.00  0.00     0.261 C 
BRANCH   4   5
ATOM      5  O   UNL A   1      36.071  32.584  34.324  1.00  0.00    -0.459 OA
BRANCH   5   6
ATOM      6  C   UNL A   1      35.879  32.261  33.015  1.00  0.00     0.369 C 
ATOM      7  O   UNL A   1      36.180  31.167  32.545  1.00  0.00    -0.245 OA
BRANCH   6   8
ATOM      8  C   UNL A   1      35.205  33.409  32.195  1.00  0.00     0.207 C 
ATOM      9  C   UNL A   1      35.234  32.902  29.743  1.00  0.00     0.232 C 
ATOM     10  N   UNL A   1      34.406  32.799  31.011  1.00  0.00    -0.324 N 
ATOM     11  C   UNL A   1      36.580  33.176  30.317  1.00  0.00     0.161 C 
ATOM     12  H   UNL A   1      34.202  31.819  31.207  1.00  0.00     0.347 HD
ATOM     13  H   UNL A   1      33.530  33.308  30.891  1.00  0.00     0.347 HD
ATOM     14  C   UNL A   1      36.264  34.172  31.410  1.00  0.00     0.171 C 
ATOM     15  C   UNL A   1      37.779  33.798  29.705  1.00  0.00     0.240 C 
ATOM     16  C   UNL A   1      37.655  34.459  31.894  1.00  0.00     0.240 C 
ATOM     17  N   UNL A   1      38.488  34.236  30.812  1.00  0.00    -0.279 N 
ATOM     18  O   UNL A   1      38.092  33.816  28.529  1.00  0.00    -0.274 OA
ATOM     19  O   UNL A   1      37.937  34.927  32.983  1.00  0.00    -0.274 OA
BRANCH   9  20
ATOM     20  C   UNL A   1      35.078  31.714  28.798  1.00  0.00     0.056 A 
ATOM     21  C   UNL A   1      33.870  30.340  27.138  1.00  0.00     0.161 A 
ATOM     22  C   UNL A   1      34.816  29.327  27.298  1.00  0.00     0.050 A 
ATOM     23  C   UNL A   1      34.029  31.533  27.866  1.00  0.00     0.166 A 
ATOM     24  C   UNL A   1      35.893  29.493  28.165  1.00  0.00     0.005 A 
ATOM     25  C   UNL A   1      36.020  30.671  28.907  1.00  0.00     0.014 A 
BRANCH  21  26
ATOM     26  O   UNL A   1      32.888  30.023  26.236  1.00  0.00    -0.493 OA
ATOM     27  C   UNL A   1      33.148  29.027  25.256  1.00  0.00     0.278 C 
ENDBRANCH  21  26
BRANCH  23  28
ATOM     28  O   UNL A   1      33.170  32.567  27.625  1.00  0.00    -0.504 OA
ATOM     29  H   UNL A   1      32.744  32.998  28.340  1.00  0.00     0.293 HD
ENDBRANCH  23  28
ENDBRANCH   9  20
BRANCH   8  30
ATOM     30  C   UNL A   1      34.345  34.398  33.050  1.00  0.00     0.085 C 
BRANCH  30  31
ATOM     31  C   UNL A   1      33.979  35.801  32.499  1.00  0.00    -0.011 C 
ATOM     32  C   UNL A   1      32.618  35.877  31.802  1.00  0.00     0.007 C 
ATOM     33  C   UNL A   1      33.980  36.831  33.638  1.00  0.00     0.007 C 
ENDBRANCH  30  31
ENDBRANCH   8  30
BRANCH  17  34
ATOM     34  C   UNL A   1      39.938  34.314  30.888  1.00  0.00     0.087 C 
ATOM     35  C   UNL A   1      40.525  32.917  31.130  1.00  0.00     0.031 C 
ATOM     36  C   UNL A   1      40.550  34.970  29.660  1.00  0.00     0.031 C 
ENDBRANCH  17  34
ENDBRANCH   6   8
ENDBRANCH   5   6
ENDBRANCH   4   5
ENDBRANCH   3   4
ENDBRANCH   2   3
ENDBRANCH   1   2
BRANCH   1  37
ATOM     37  C   UNL A   1      39.170  34.420  38.270  1.00  0.00     0.261 C 
BRANCH  37  38
ATOM     38  O   UNL A   1      38.934  35.823  38.067  1.00  0.00    -0.460 OA
BRANCH  38  39
ATOM     39  C   UNL A   1      40.063  36.572  37.990  1.00  0.00     0.338 C 
ATOM     40  O   UNL A   1      40.475  37.371  38.814  1.00  0.00    -0.246 OA
BRANCH  39  41
ATOM     41  C   UNL A   1      40.846  36.213  36.798  1.00  0.00     0.060 A 
ATOM     42  C   UNL A   1      40.159  35.907  35.618  1.00  0.00     0.016 A 
ATOM     43  C   UNL A   1      42.222  35.996  36.900  1.00  0.00     0.016 A 
ATOM     44  C   UNL A   1      40.841  35.335  34.545  1.00  0.00     0.010 A 
ATOM     45  C   UNL A   1      42.902  35.418  35.823  1.00  0.00     0.010 A 
ATOM     46  C   UNL A   1      42.207  35.048  34.657  1.00  0.00    -0.014 A 
BRANCH  46  47
ATOM     47  C   UNL A   1      42.875  34.236  33.609  1.00  0.00     0.031 A 
ATOM     48  C   UNL A   1      43.402  34.915  32.374  1.00  0.00     0.074 A 
ATOM     49  C   UNL A   1      43.032  32.910  33.774  1.00  0.00     0.049 A 
ATOM     50  N   UNL A   1      43.987  34.392  31.328  1.00  0.00    -0.248 NA
ATOM     51  C   UNL A   1      43.250  36.378  32.308  1.00  0.00     0.031 C 
ATOM     52  C   UNL A   1      42.603  32.147  34.945  1.00  0.00     0.029 A 
ATOM     53  N   UNL A   1      43.594  31.971  32.945  1.00  0.00    -0.354 N 
ATOM     54  C   UNL A   1      44.261  35.455  30.474  1.00  0.00     0.074 A 
ATOM     55  C   UNL A   1      43.753  36.650  31.112  1.00  0.00     0.031 C 
ATOM     56  C   UNL A   1      42.913  30.853  34.759  1.00  0.00     0.029 A 
ATOM     57  C   UNL A   1      43.526  30.691  33.442  1.00  0.00     0.049 A 
ATOM     58  H   UNL A   1      44.005  32.192  32.080  1.00  0.00     0.167 HD
ATOM     59  C   UNL A   1      44.882  35.438  29.270  1.00  0.00     0.031 A 
ATOM     60  C   UNL A   1      43.896  29.519  32.888  1.00  0.00     0.031 A 
ATOM     61  C   UNL A   1      45.377  34.243  28.636  1.00  0.00     0.049 A 
ATOM     62  C   UNL A   1      44.521  29.517  31.519  1.00  0.00     0.074 A 
ATOM     63  C   UNL A   1      46.038  34.122  27.425  1.00  0.00     0.029 A 
ATOM     64  N   UNL A   1      45.259  32.962  29.154  1.00  0.00    -0.354 N 
ATOM     65  N   UNL A   1      44.793  30.534  30.735  1.00  0.00    -0.248 NA
ATOM     66  C   UNL A   1      44.898  28.209  30.964  1.00  0.00     0.031 C 
ATOM     67  C   UNL A   1      46.263  32.764  27.184  1.00  0.00     0.029 A 
ATOM     68  C   UNL A   1      45.806  32.043  28.276  1.00  0.00     0.049 A 
ATOM     69  H   UNL A   1      44.846  32.740  30.020  1.00  0.00     0.167 HD
ATOM     70  C   UNL A   1      45.400  29.990  29.606  1.00  0.00     0.074 A 
ATOM     71  C   UNL A   1      45.466  28.558  29.817  1.00  0.00     0.031 C 
ATOM     72  C   UNL A   1      45.862  30.619  28.496  1.00  0.00     0.031 A 
BRANCH  59  73
ATOM     73  C   UNL A   1      45.028  36.748  28.539  1.00  0.00    -0.014 A 
ATOM     74  C   UNL A   1      46.214  37.501  28.614  1.00  0.00     0.010 A 
ATOM     75  C   UNL A   1      43.976  37.211  27.727  1.00  0.00     0.010 A 
ATOM     76  C   UNL A   1      46.329  38.711  27.922  1.00  0.00     0.020 A 
ATOM     77  C   UNL A   1      44.098  38.406  27.012  1.00  0.00     0.020 A 
ATOM     78  C   UNL A   1      45.269  39.157  27.128  1.00  0.00     0.054 A 
BRANCH  78  79
ATOM     79  S   UNL A   1      45.454  40.720  26.224  1.00  0.00     0.124 S 
ATOM     80  O   UNL A   1      45.218  41.705  27.275  1.00  0.00    -0.237 OA
ATOM     81  O   UNL A   1      46.827  40.643  25.732  1.00  0.00    -0.237 OA
ATOM     82  O   UNL A   1      44.421  40.649  25.193  1.00  0.00    -0.744 OA
ENDBRANCH  78  79
ENDBRANCH  59  73
BRANCH  60  83
ATOM     83  C   UNL A   1      43.662  28.247  33.624  1.00  0.00    -0.014 A 
ATOM     84  C   UNL A   1      42.390  27.647  33.639  1.00  0.00     0.010 A 
ATOM     85  C   UNL A   1      44.718  27.624  34.314  1.00  0.00     0.010 A 
ATOM     86  C   UNL A   1      42.177  26.458  34.344  1.00  0.00     0.020 A 
ATOM     87  C   UNL A   1      44.516  26.420  34.993  1.00  0.00     0.020 A 
ATOM     88  C   UNL A   1      43.242  25.851  35.014  1.00  0.00     0.054 A 
BRANCH  88  89
ATOM     89  S   UNL A   1      42.954  24.281  35.876  1.00  0.00     0.124 S 
ATOM     90  O   UNL A   1      44.025  23.443  35.348  1.00  0.00    -0.237 OA
ATOM     91  O   UNL A   1      43.081  24.665  37.279  1.00  0.00    -0.237 OA
ATOM     92  O   UNL A   1      41.603  23.906  35.461  1.00  0.00    -0.744 OA
ENDBRANCH  88  89
ENDBRANCH  60  83
BRANCH  72  93
ATOM     93  C   UNL A   1      46.517  29.769  27.438  1.00  0.00    -0.014 A 
ATOM     94  C   UNL A   1      45.777  29.218  26.377  1.00  0.00     0.010 A 
ATOM     95  C   UNL A   1      47.909  29.560  27.482  1.00  0.00     0.010 A 
ATOM     96  C   UNL A   1      46.410  28.444  25.401  1.00  0.00     0.020 A 
ATOM     97  C   UNL A   1      48.549  28.813  26.491  1.00  0.00     0.020 A 
ATOM     98  C   UNL A   1      47.793  28.245  25.465  1.00  0.00     0.054 A 
BRANCH  98  99
ATOM     99  S   UNL A   1      48.595  27.265  24.166  1.00  0.00     0.124 S 
ATOM    100  O   UNL A   1      49.902  27.908  24.064  1.00  0.00    -0.237 OA
ATOM    101  O   UNL A   1      48.600  25.920  24.735  1.00  0.00    -0.237 OA
ATOM    102  O   UNL A   1      47.721  27.443  23.007  1.00  0.00    -0.744 OA
ENDBRANCH  98  99
ENDBRANCH  72  93
ENDBRANCH  46  47
ENDBRANCH  39  41
ENDBRANCH  38  39
ENDBRANCH  37  38
ENDBRANCH   1  37
TORSDOF 23
ENDMDL
MODEL 3
REMARK VINA RESULT:      -8.2      5.175     12.317
REMARK SMILES COc1cccc([C@H]2[NH2+][C@@](CC(C)C)(C(=O)OCCOCCOC(=O)c3ccc(-c4c5nc(c(-c6ccc(S(=O)(=O)[O-])cc6)c6ccc([nH]6)c(-c6ccc(S(=O)(=O)[O-])cc6)c6nc(c(-c7ccc(S(=O)(=O)[O-])cc7)c7ccc4[nH]7)C=C6)C=C5)cc3)[C@H]3C(=O)N(C(C)C)C(=O)[C@H]23)c1O
REMARK SMILES IDX 21 1 20 2 19 3 18 4 17 5 15 6 16 7 10 8 8 9 9 10 95 11 86 14
REMARK SMILES IDX 93 15 87 16 89 17 94 18 88 19 7 20 3 21 4 22 96 23 5 24 6 25
REMARK SMILES IDX 2 26 1 27 97 28 11 30 12 31 13 32 14 33 90 34 91 35 92 36
REMARK SMILES IDX 22 37 23 38 24 39 25 40 26 41 27 42 85 43 28 44 84 45 29 46
REMARK SMILES IDX 30 47 31 48 78 49 32 50 83 51 77 52 79 53 33 54 82 55 76 56
REMARK SMILES IDX 75 57 34 59 64 60 45 61 63 62 46 63 49 64 62 65 80 66 47 67
REMARK SMILES IDX 48 68 61 70 81 71 50 72 35 73 36 74 44 75 37 76 43 77 38 78
REMARK SMILES IDX 39 79 40 80 41 81 42 82 65 83 66 84 74 85 67 86 73 87 68 88
REMARK SMILES IDX 69 89 70 90 71 91 72 92 51 93 52 94 60 95 53 96 59 97 54 98
REMARK SMILES IDX 55 99 56 100 57 101 58 102
REMARK H PARENT 9 12 9 13 97 29 79 58 49 69
REMARK Flexibility Score: inf
ROOT
ATOM      1  C   UNL A   1      32.376  30.998  26.601  1.00  0.00     0.202 C 
ENDROOT
BRANCH   1   2
ATOM      2  O   UNL A   1      31.440  29.937  26.758  1.00  0.00    -0.374 OA
BRANCH   2   3
ATOM      3  C   UNL A   1      31.889  28.700  27.293  1.00  0.00     0.202 C 
BRANCH   3   4
ATOM      4  C   UNL A   1      31.079  27.417  27.059  1.00  0.00     0.261 C 
BRANCH   4   5
ATOM      5  O   UNL A   1      30.767  27.129  25.693  1.00  0.00    -0.459 OA
BRANCH   5   6
ATOM      6  C   UNL A   1      30.149  25.930  25.512  1.00  0.00     0.369 C 
ATOM      7  O   UNL A   1      29.795  25.212  26.443  1.00  0.00    -0.245 OA
BRANCH   6   8
ATOM      8  C   UNL A   1      29.906  25.588  24.005  1.00  0.00     0.207 C 
ATOM      9  C   UNL A   1      31.401  23.727  23.250  1.00  0.00     0.232 C 
ATOM     10  N   UNL A   1      30.023  24.054  23.796  1.00  0.00    -0.324 N 
ATOM     11  C   UNL A   1      32.122  24.993  23.553  1.00  0.00     0.161 C 
ATOM     12  H   UNL A   1      29.888  23.578  24.688  1.00  0.00     0.347 HD
ATOM     13  H   UNL A   1      29.310  23.743  23.136  1.00  0.00     0.347 HD
ATOM     14  C   UNL A   1      31.100  26.042  23.175  1.00  0.00     0.171 C 
ATOM     15  C   UNL A   1      33.351  25.567  22.954  1.00  0.00     0.240 C 
ATOM     16  C   UNL A   1      31.907  27.280  23.432  1.00  0.00     0.240 C 
ATOM     17  N   UNL A   1      33.230  26.915  23.255  1.00  0.00    -0.279 N 
ATOM     18  O   UNL A   1      34.272  24.973  22.427  1.00  0.00    -0.274 OA
ATOM     19  O   UNL A   1      31.448  28.393  23.617  1.00  0.00    -0.274 OA
BRANCH   9  20
ATOM     20  C   UNL A   1      31.984  22.417  23.773  1.00  0.00     0.056 A 
ATOM     21  C   UNL A   1      32.420  19.988  23.685  1.00  0.00     0.161 A 
ATOM     22  C   UNL A   1      32.889  20.031  24.998  1.00  0.00     0.050 A 
ATOM     23  C   UNL A   1      32.002  21.185  23.078  1.00  0.00     0.166 A 
ATOM     24  C   UNL A   1      32.938  21.236  25.694  1.00  0.00     0.005 A 
ATOM     25  C   UNL A   1      32.489  22.413  25.089  1.00  0.00     0.014 A 
BRANCH  21  26
ATOM     26  O   UNL A   1      32.454  18.731  23.141  1.00  0.00    -0.493 OA
ATOM     27  C   UNL A   1      32.753  17.624  23.983  1.00  0.00     0.278 C 
ENDBRANCH  21  26
BRANCH  23  28
ATOM     28  O   UNL A   1      31.651  21.165  21.758  1.00  0.00    -0.504 OA
ATOM     29  H   UNL A   1      31.674  20.359  21.280  1.00  0.00     0.293 HD
ENDBRANCH  23  28
ENDBRANCH   9  20
BRANCH   8  30
ATOM     30  C   UNL A   1      28.580  26.173  23.414  1.00  0.00     0.085 C 
BRANCH  30  31
ATOM     31  C   UNL A   1      28.062  27.563  23.869  1.00  0.00    -0.011 C 
ATOM     32  C   UNL A   1      28.326  28.698  22.875  1.00  0.00     0.007 C 
ATOM     33  C   UNL A   1      26.549  27.505  24.122  1.00  0.00     0.007 C 
ENDBRANCH  30  31
ENDBRANCH   8  30
BRANCH  17  34
ATOM     34  C   UNL A   1      34.349  27.811  23.502  1.00  0.00     0.087 C 
ATOM     35  C   UNL A   1      34.425  28.869  22.394  1.00  0.00     0.031 C 
ATOM     36  C   UNL A   1      34.289  28.451  24.881  1.00  0.00     0.031 C 
ENDBRANCH  17  34
ENDBRANCH   6   8
ENDBRANCH   5   6
ENDBRANCH   4   5
ENDBRANCH   3   4
ENDBRANCH   2   3
ENDBRANCH   1   2
BRANCH   1  37
ATOM     37  C   UNL A   1      32.427  32.172  27.592  1.00  0.00     0.261 C 
BRANCH  37  38
ATOM     38  O   UNL A   1      33.678  32.877  27.658  1.00  0.00    -0.460 OA
BRANCH  38  39
ATOM     39  C   UNL A   1      33.723  33.841  28.612  1.00  0.00     0.338 C 
ATOM     40  O   UNL A   1      32.966  34.789  28.739  1.00  0.00    -0.246 OA
BRANCH  39  41
ATOM     41  C   UNL A   1      34.765  33.542  29.606  1.00  0.00     0.060 A 
ATOM     42  C   UNL A   1      36.027  34.127  29.443  1.00  0.00     0.016 A 
ATOM     43  C   UNL A   1      34.555  32.554  30.570  1.00  0.00     0.016 A 
ATOM     44  C   UNL A   1      37.101  33.688  30.215  1.00  0.00     0.010 A 
ATOM     45  C   UNL A   1      35.636  32.114  31.340  1.00  0.00     0.010 A 
ATOM     46  C   UNL A   1      36.921  32.650  31.138  1.00  0.00    -0.014 A 
BRANCH  46  47
ATOM     47  C   UNL A   1      38.104  32.033  31.788  1.00  0.00     0.031 A 
ATOM     48  C   UNL A   1      38.498  32.473  33.173  1.00  0.00     0.074 A 
ATOM     49  C   UNL A   1      38.802  31.071  31.158  1.00  0.00     0.049 A 
ATOM     50  N   UNL A   1      39.510  32.088  33.907  1.00  0.00    -0.248 NA
ATOM     51  C   UNL A   1      37.638  33.480  33.816  1.00  0.00     0.031 C 
ATOM     52  C   UNL A   1      38.492  30.531  29.836  1.00  0.00     0.029 A 
ATOM     53  N   UNL A   1      39.922  30.381  31.551  1.00  0.00    -0.354 N 
ATOM     54  C   UNL A   1      39.418  32.813  35.090  1.00  0.00     0.074 A 
ATOM     55  C   UNL A   1      38.267  33.681  34.965  1.00  0.00     0.031 C 
ATOM     56  C   UNL A   1      39.404  29.595  29.523  1.00  0.00     0.029 A 
ATOM     57  C   UNL A   1      40.382  29.497  30.605  1.00  0.00     0.049 A 
ATOM     58  H   UNL A   1      40.353  30.506  32.427  1.00  0.00     0.167 HD
ATOM     59  C   UNL A   1      40.218  32.758  36.183  1.00  0.00     0.031 A 
ATOM     60  C   UNL A   1      41.480  28.716  30.601  1.00  0.00     0.031 A 
ATOM     61  C   UNL A   1      41.368  31.898  36.297  1.00  0.00     0.049 A 
ATOM     62  C   UNL A   1      42.392  28.722  31.798  1.00  0.00     0.074 A 
ATOM     63  C   UNL A   1      42.232  31.755  37.370  1.00  0.00     0.029 A 
ATOM     64  N   UNL A   1      41.822  31.044  35.304  1.00  0.00    -0.354 N 
ATOM     65  N   UNL A   1      42.279  29.396  32.918  1.00  0.00    -0.248 NA
ATOM     66  C   UNL A   1      43.577  27.854  31.734  1.00  0.00     0.031 C 
ATOM     67  C   UNL A   1      43.241  30.860  37.001  1.00  0.00     0.029 A 
ATOM     68  C   UNL A   1      42.968  30.393  35.726  1.00  0.00     0.049 A 
ATOM     69  H   UNL A   1      41.391  30.919  34.427  1.00  0.00     0.167 HD
ATOM     70  C   UNL A   1      43.361  29.012  33.704  1.00  0.00     0.074 A 
ATOM     71  C   UNL A   1      44.108  28.037  32.935  1.00  0.00     0.031 C 
ATOM     72  C   UNL A   1      43.705  29.427  34.949  1.00  0.00     0.031 A 
BRANCH  59  73
ATOM     73  C   UNL A   1      39.899  33.681  37.330  1.00  0.00    -0.014 A 
ATOM     74  C   UNL A   1      40.403  34.994  37.379  1.00  0.00     0.010 A 
ATOM     75  C   UNL A   1      39.042  33.241  38.357  1.00  0.00     0.010 A 
ATOM     76  C   UNL A   1      40.088  35.834  38.452  1.00  0.00     0.020 A 
ATOM     77  C   UNL A   1      38.702  34.088  39.416  1.00  0.00     0.020 A 
ATOM     78  C   UNL A   1      39.242  35.374  39.465  1.00  0.00     0.054 A 
BRANCH  78  79
ATOM     79  S   UNL A   1      38.832  36.494  40.833  1.00  0.00     0.124 S 
ATOM     80  O   UNL A   1      38.419  37.700  40.121  1.00  0.00    -0.237 OA
ATOM     81  O   UNL A   1      37.765  35.776  41.524  1.00  0.00    -0.237 OA
ATOM     82  O   UNL A   1      40.085  36.608  41.576  1.00  0.00    -0.744 OA
ENDBRANCH  78  79
ENDBRANCH  59  73
BRANCH  60  83
ATOM     83  C   UNL A   1      41.786  27.876  29.410  1.00  0.00    -0.014 A 
ATOM     84  C   UNL A   1      42.651  28.343  28.404  1.00  0.00     0.010 A 
ATOM     85  C   UNL A   1      41.214  26.598  29.280  1.00  0.00     0.010 A 
ATOM     86  C   UNL A   1      42.923  27.552  27.283  1.00  0.00     0.020 A 
ATOM     87  C   UNL A   1      41.508  25.793  28.176  1.00  0.00     0.020 A 
ATOM     88  C   UNL A   1      42.352  26.281  27.178  1.00  0.00     0.054 A 
BRANCH  88  89
ATOM     89  S   UNL A   1      42.762  25.253  25.741  1.00  0.00     0.124 S 
ATOM     90  O   UNL A   1      41.953  24.062  25.978  1.00  0.00    -0.237 OA
ATOM     91  O   UNL A   1      42.343  26.093  24.623  1.00  0.00    -0.237 OA
ATOM     92  O   UNL A   1      44.207  25.062  25.858  1.00  0.00    -0.744 OA
ENDBRANCH  88  89
ENDBRANCH  60  83
BRANCH  72  93
ATOM     93  C   UNL A   1      44.923  28.800  35.578  1.00  0.00    -0.014 A 
ATOM     94  C   UNL A   1      46.185  29.414  35.505  1.00  0.00     0.010 A 
ATOM     95  C   UNL A   1      44.788  27.598  36.299  1.00  0.00     0.010 A 
ATOM     96  C   UNL A   1      47.297  28.819  36.108  1.00  0.00     0.020 A 
ATOM     97  C   UNL A   1      45.890  27.017  36.929  1.00  0.00     0.020 A 
ATOM     98  C   UNL A   1      47.142  27.623  36.815  1.00  0.00     0.054 A 
BRANCH  98  99
ATOM     99  S   UNL A   1      48.594  26.890  37.619  1.00  0.00     0.124 S 
ATOM    100  O   UNL A   1      48.671  27.652  38.861  1.00  0.00    -0.237 OA
ATOM    101  O   UNL A   1      48.207  25.489  37.764  1.00  0.00    -0.237 OA
ATOM    102  O   UNL A   1      49.678  27.136  36.669  1.00  0.00    -0.744 OA
ENDBRANCH  98  99
ENDBRANCH  72  93
ENDBRANCH  46  47
ENDBRANCH  39  41
ENDBRANCH  38  39
ENDBRANCH  37  38
ENDBRANCH   1  37
TORSDOF 23
ENDMDL
