MODEL 1
REMARK VINA RESULT:      -8.9      0.000      0.000
REMARK SMILES CC1=C(CC(=O)OCCOCCOC(=O)c2ccc(-c3c4nc(c(-c5ccc(S(=O)(=O)[O-])cc5)c5ccc([nH]5)c(-c5ccc(S(=O)(=O)[O-])cc5)c5nc(c(-c6ccc(S(=O)(=O)[O-])cc6)c6ccc3[nH]6)C=C5)C=C4)cc2)c2cc(F)ccc2/C1=C\c1ccc([S@@+](C)[O-])cc1
REMARK SMILES IDX 10 1 9 2 8 3 7 4 5 5 6 6 4 7 3 8 1 9 2 10 83 11 76 12 82 13
REMARK SMILES IDX 84 14 77 15 81 16 78 17 80 18 79 19 85 20 86 21 93 22 87 23
REMARK SMILES IDX 92 24 88 25 89 26 90 27 91 28 11 29 12 30 13 31 14 32 15 33
REMARK SMILES IDX 16 34 17 35 75 36 18 37 74 38 19 39 20 40 21 41 68 42 22 43
REMARK SMILES IDX 73 44 67 45 69 46 23 47 72 48 66 49 65 50 24 52 54 53 35 54
REMARK SMILES IDX 53 55 36 56 39 57 52 58 70 59 37 60 38 61 51 63 71 64 40 65
REMARK SMILES IDX 25 66 26 67 34 68 27 69 33 70 28 71 29 72 30 73 31 74 32 75
REMARK SMILES IDX 55 76 56 77 64 78 57 79 63 80 58 81 59 82 60 83 61 84 62 85
REMARK SMILES IDX 41 86 42 87 50 88 43 89 49 90 44 91 45 92 46 93 47 94 48 95
REMARK H PARENT 69 51 39 62
REMARK Flexibility Score: inf
ROOT
ATOM      1  O   UNL A   1      45.396  20.629  24.400  1.00  0.00    -0.374 OA
ENDROOT
BRANCH   1   2
ATOM      2  C   UNL A   1      45.791  21.779  25.141  1.00  0.00     0.202 C 
BRANCH   2   3
ATOM      3  C   UNL A   1      46.485  22.933  24.400  1.00  0.00     0.261 C 
BRANCH   3   4
ATOM      4  O   UNL A   1      45.851  24.221  24.548  1.00  0.00    -0.463 OA
BRANCH   4   5
ATOM      5  C   UNL A   1      46.677  25.230  24.937  1.00  0.00     0.310 C 
ATOM      6  O   UNL A   1      47.531  25.742  24.215  1.00  0.00    -0.252 OA
BRANCH   5   7
ATOM      7  C   UNL A   1      46.485  25.725  26.368  1.00  0.00     0.159 C 
BRANCH   7   8
ATOM      8  C   UNL A   1      45.895  27.073  26.638  1.00  0.00    -0.025 C 
ATOM      9  C   UNL A   1      47.978  28.267  27.411  1.00  0.00     0.045 C 
ATOM     10  C   UNL A   1      46.524  28.189  27.080  1.00  0.00    -0.039 C 
ATOM     11  C   UNL A   1      45.576  29.319  27.124  1.00  0.00    -0.014 C 
ATOM     12  C   UNL A   1      44.515  27.451  26.286  1.00  0.00    -0.011 A 
ATOM     13  C   UNL A   1      44.286  28.800  26.620  1.00  0.00    -0.010 A 
ATOM     14  C   UNL A   1      45.877  30.573  27.523  1.00  0.00     0.017 C 
ATOM     15  C   UNL A   1      43.515  26.694  25.690  1.00  0.00     0.048 A 
ATOM     16  C   UNL A   1      43.032  29.368  26.420  1.00  0.00     0.012 A 
ATOM     17  C   UNL A   1      42.258  27.271  25.515  1.00  0.00     0.123 A 
ATOM     18  C   UNL A   1      42.003  28.588  25.892  1.00  0.00     0.040 A 
ATOM     19  F   UNL A   1      41.259  26.530  25.019  1.00  0.00    -0.207 F 
BRANCH  14  20
ATOM     20  C   UNL A   1      44.945  31.705  27.559  1.00  0.00    -0.025 A 
ATOM     21  C   UNL A   1      44.823  32.550  26.452  1.00  0.00     0.013 A 
ATOM     22  C   UNL A   1      44.261  32.015  28.738  1.00  0.00     0.013 A 
ATOM     23  C   UNL A   1      44.135  33.763  26.564  1.00  0.00     0.061 A 
ATOM     24  C   UNL A   1      43.551  33.216  28.841  1.00  0.00     0.061 A 
ATOM     25  C   UNL A   1      43.521  34.120  27.771  1.00  0.00     0.152 A 
BRANCH  25  26
ATOM     26  S   UNL A   1      42.877  35.793  28.028  1.00  0.00    -0.018 S 
ATOM     27  C   UNL A   1      44.089  36.422  29.205  1.00  0.00     0.346 C 
ATOM     28  O   UNL A   1      43.051  36.572  26.675  1.00  0.00    -0.612 OA
ENDBRANCH  25  26
ENDBRANCH  14  20
ENDBRANCH   7   8
ENDBRANCH   5   7
ENDBRANCH   4   5
ENDBRANCH   3   4
ENDBRANCH   2   3
ENDBRANCH   1   2
BRANCH   1  29
ATOM     29  C   UNL A   1      45.230  19.405  25.108  1.00  0.00     0.202 C 
BRANCH  29  30
ATOM     30  C   UNL A   1      43.807  18.944  25.445  1.00  0.00     0.261 C 
BRANCH  30  31
ATOM     31  O   UNL A   1      42.784  19.837  25.001  1.00  0.00    -0.460 OA
BRANCH  31  32
ATOM     32  C   UNL A   1      41.718  19.915  25.830  1.00  0.00     0.338 C 
ATOM     33  O   UNL A   1      40.916  19.034  26.103  1.00  0.00    -0.246 OA
BRANCH  32  34
ATOM     34  C   UNL A   1      41.749  21.212  26.514  1.00  0.00     0.060 A 
ATOM     35  C   UNL A   1      41.358  21.328  27.847  1.00  0.00     0.016 A 
ATOM     36  C   UNL A   1      42.221  22.317  25.797  1.00  0.00     0.016 A 
ATOM     37  C   UNL A   1      41.472  22.565  28.480  1.00  0.00     0.010 A 
ATOM     38  C   UNL A   1      42.340  23.549  26.432  1.00  0.00     0.010 A 
ATOM     39  C   UNL A   1      41.990  23.672  27.783  1.00  0.00    -0.014 A 
BRANCH  39  40
ATOM     40  C   UNL A   1      42.306  24.924  28.507  1.00  0.00     0.031 A 
ATOM     41  C   UNL A   1      41.309  26.036  28.609  1.00  0.00     0.074 A 
ATOM     42  C   UNL A   1      43.536  25.046  29.041  1.00  0.00     0.049 A 
ATOM     43  N   UNL A   1      41.423  27.173  29.243  1.00  0.00    -0.248 NA
ATOM     44  C   UNL A   1      40.028  25.860  27.908  1.00  0.00     0.031 C 
ATOM     45  C   UNL A   1      44.587  24.029  28.956  1.00  0.00     0.029 A 
ATOM     46  N   UNL A   1      44.111  26.059  29.763  1.00  0.00    -0.354 N 
ATOM     47  C   UNL A   1      40.227  27.845  29.032  1.00  0.00     0.074 A 
ATOM     48  C   UNL A   1      39.418  27.011  28.170  1.00  0.00     0.031 C 
ATOM     49  C   UNL A   1      45.661  24.450  29.638  1.00  0.00     0.029 A 
ATOM     50  C   UNL A   1      45.397  25.786  30.167  1.00  0.00     0.049 A 
ATOM     51  H   UNL A   1      43.649  26.903  29.973  1.00  0.00     0.167 HD
ATOM     52  C   UNL A   1      39.841  29.041  29.536  1.00  0.00     0.031 A 
ATOM     53  C   UNL A   1      46.269  26.521  30.885  1.00  0.00     0.031 A 
ATOM     54  C   UNL A   1      40.673  29.858  30.383  1.00  0.00     0.049 A 
ATOM     55  C   UNL A   1      45.824  27.857  31.406  1.00  0.00     0.074 A 
ATOM     56  C   UNL A   1      40.357  31.066  30.981  1.00  0.00     0.029 A 
ATOM     57  N   UNL A   1      41.979  29.563  30.751  1.00  0.00    -0.354 N 
ATOM     58  N   UNL A   1      44.657  28.442  31.270  1.00  0.00    -0.248 NA
ATOM     59  C   UNL A   1      46.797  28.626  32.190  1.00  0.00     0.031 C 
ATOM     60  C   UNL A   1      41.494  31.540  31.636  1.00  0.00     0.029 A 
ATOM     61  C   UNL A   1      42.494  30.584  31.532  1.00  0.00     0.049 A 
ATOM     62  H   UNL A   1      42.466  28.747  30.495  1.00  0.00     0.167 HD
ATOM     63  C   UNL A   1      44.749  29.642  31.964  1.00  0.00     0.074 A 
ATOM     64  C   UNL A   1      46.077  29.684  32.544  1.00  0.00     0.031 C 
ATOM     65  C   UNL A   1      43.821  30.620  32.102  1.00  0.00     0.031 A 
BRANCH  52  66
ATOM     66  C   UNL A   1      38.457  29.547  29.216  1.00  0.00    -0.014 A 
ATOM     67  C   UNL A   1      38.174  30.066  27.938  1.00  0.00     0.010 A 
ATOM     68  C   UNL A   1      37.481  29.653  30.224  1.00  0.00     0.010 A 
ATOM     69  C   UNL A   1      36.967  30.724  27.687  1.00  0.00     0.020 A 
ATOM     70  C   UNL A   1      36.258  30.282  29.969  1.00  0.00     0.020 A 
ATOM     71  C   UNL A   1      36.022  30.840  28.710  1.00  0.00     0.054 A 
BRANCH  71  72
ATOM     72  S   UNL A   1      34.491  31.758  28.386  1.00  0.00     0.124 S 
ATOM     73  O   UNL A   1      34.942  32.794  27.462  1.00  0.00    -0.237 OA
ATOM     74  O   UNL A   1      33.623  30.733  27.812  1.00  0.00    -0.237 OA
ATOM     75  O   UNL A   1      34.090  32.232  29.710  1.00  0.00    -0.744 OA
ENDBRANCH  71  72
ENDBRANCH  52  66
BRANCH  53  76
ATOM     76  C   UNL A   1      47.615  25.958  31.185  1.00  0.00    -0.014 A 
ATOM     77  C   UNL A   1      47.901  25.433  32.461  1.00  0.00     0.010 A 
ATOM     78  C   UNL A   1      48.650  26.044  30.238  1.00  0.00     0.010 A 
ATOM     79  C   UNL A   1      49.206  25.077  32.807  1.00  0.00     0.020 A 
ATOM     80  C   UNL A   1      49.951  25.652  30.569  1.00  0.00     0.020 A 
ATOM     81  C   UNL A   1      50.227  25.205  31.862  1.00  0.00     0.054 A 
BRANCH  81  82
ATOM     82  S   UNL A   1      51.926  24.817  32.363  1.00  0.00     0.124 S 
ATOM     83  O   UNL A   1      52.009  25.466  33.669  1.00  0.00    -0.237 OA
ATOM     84  O   UNL A   1      51.925  23.357  32.384  1.00  0.00    -0.237 OA
ATOM     85  O   UNL A   1      52.740  25.423  31.312  1.00  0.00    -0.744 OA
ENDBRANCH  81  82
ENDBRANCH  53  76
BRANCH  65  86
ATOM     86  C   UNL A   1      44.192  31.844  32.902  1.00  0.00    -0.014 A 
ATOM     87  C   UNL A   1      44.892  32.898  32.283  1.00  0.00     0.010 A 
ATOM     88  C   UNL A   1      43.974  31.894  34.290  1.00  0.00     0.010 A 
ATOM     89  C   UNL A   1      45.404  33.953  33.041  1.00  0.00     0.020 A 
ATOM     90  C   UNL A   1      44.450  32.967  35.047  1.00  0.00     0.020 A 
ATOM     91  C   UNL A   1      45.188  33.975  34.422  1.00  0.00     0.054 A 
BRANCH  91  92
ATOM     92  S   UNL A   1      45.901  35.329  35.395  1.00  0.00     0.124 S 
ATOM     93  O   UNL A   1      45.140  35.249  36.637  1.00  0.00    -0.237 OA
ATOM     94  O   UNL A   1      47.308  34.947  35.490  1.00  0.00    -0.237 OA
ATOM     95  O   UNL A   1      45.639  36.513  34.579  1.00  0.00    -0.744 OA
ENDBRANCH  91  92
ENDBRANCH  65  86
ENDBRANCH  39  40
ENDBRANCH  32  34
ENDBRANCH  31  32
ENDBRANCH  30  31
ENDBRANCH  29  30
ENDBRANCH   1  29
TORSDOF 20
ENDMDL
MODEL 2
REMARK VINA RESULT:      -8.6      4.900     11.940
REMARK SMILES CC1=C(CC(=O)OCCOCCOC(=O)c2ccc(-c3c4nc(c(-c5ccc(S(=O)(=O)[O-])cc5)c5ccc([nH]5)c(-c5ccc(S(=O)(=O)[O-])cc5)c5nc(c(-c6ccc(S(=O)(=O)[O-])cc6)c6ccc3[nH]6)C=C5)C=C4)cc2)c2cc(F)ccc2/C1=C\c1ccc([S@@+](C)[O-])cc1
REMARK SMILES IDX 10 1 9 2 8 3 7 4 5 5 6 6 4 7 3 8 1 9 2 10 83 11 76 12 82 13
REMARK SMILES IDX 84 14 77 15 81 16 78 17 80 18 79 19 85 20 86 21 93 22 87 23
REMARK SMILES IDX 92 24 88 25 89 26 90 27 91 28 11 29 12 30 13 31 14 32 15 33
REMARK SMILES IDX 16 34 17 35 75 36 18 37 74 38 19 39 20 40 21 41 68 42 22 43
REMARK SMILES IDX 73 44 67 45 69 46 23 47 72 48 66 49 65 50 24 52 54 53 35 54
REMARK SMILES IDX 53 55 36 56 39 57 52 58 70 59 37 60 38 61 51 63 71 64 40 65
REMARK SMILES IDX 25 66 26 67 34 68 27 69 33 70 28 71 29 72 30 73 31 74 32 75
REMARK SMILES IDX 55 76 56 77 64 78 57 79 63 80 58 81 59 82 60 83 61 84 62 85
REMARK SMILES IDX 41 86 42 87 50 88 43 89 49 90 44 91 45 92 46 93 47 94 48 95
REMARK H PARENT 69 51 39 62
REMARK Flexibility Score: inf
ROOT
ATOM      1  O   UNL A   1      31.766  29.592  25.489  1.00  0.00    -0.374 OA
ENDROOT
BRANCH   1   2
ATOM      2  C   UNL A   1      31.217  29.226  24.226  1.00  0.00     0.202 C 
BRANCH   2   3
ATOM      3  C   UNL A   1      32.174  28.959  23.054  1.00  0.00     0.261 C 
BRANCH   3   4
ATOM      4  O   UNL A   1      32.001  27.680  22.407  1.00  0.00    -0.463 OA
BRANCH   4   5
ATOM      5  C   UNL A   1      33.062  26.833  22.508  1.00  0.00     0.310 C 
ATOM      6  O   UNL A   1      33.821  26.562  21.580  1.00  0.00    -0.252 OA
BRANCH   5   7
ATOM      7  C   UNL A   1      33.279  26.210  23.885  1.00  0.00     0.159 C 
BRANCH   7   8
ATOM      8  C   UNL A   1      33.289  24.724  24.059  1.00  0.00    -0.025 C 
ATOM      9  C   UNL A   1      30.991  24.208  23.157  1.00  0.00     0.045 C 
ATOM     10  C   UNL A   1      32.314  23.838  23.742  1.00  0.00    -0.039 C 
ATOM     11  C   UNL A   1      32.778  22.462  24.003  1.00  0.00    -0.014 C 
ATOM     12  C   UNL A   1      34.477  23.952  24.461  1.00  0.00    -0.011 A 
ATOM     13  C   UNL A   1      34.174  22.577  24.481  1.00  0.00    -0.010 A 
ATOM     14  C   UNL A   1      32.052  21.343  23.800  1.00  0.00     0.017 C 
ATOM     15  C   UNL A   1      35.757  24.395  24.769  1.00  0.00     0.048 A 
ATOM     16  C   UNL A   1      35.134  21.653  24.878  1.00  0.00     0.012 A 
ATOM     17  C   UNL A   1      36.703  23.459  25.184  1.00  0.00     0.123 A 
ATOM     18  C   UNL A   1      36.399  22.101  25.261  1.00  0.00     0.040 A 
ATOM     19  F   UNL A   1      37.917  23.877  25.566  1.00  0.00    -0.207 F 
BRANCH  14  20
ATOM     20  C   UNL A   1      32.509  19.971  24.044  1.00  0.00    -0.025 A 
ATOM     21  C   UNL A   1      32.596  19.060  22.986  1.00  0.00     0.013 A 
ATOM     22  C   UNL A   1      32.748  19.532  25.350  1.00  0.00     0.013 A 
ATOM     23  C   UNL A   1      32.786  17.698  23.244  1.00  0.00     0.061 A 
ATOM     24  C   UNL A   1      32.964  18.173  25.603  1.00  0.00     0.061 A 
ATOM     25  C   UNL A   1      32.939  17.241  24.558  1.00  0.00     0.152 A 
BRANCH  25  26
ATOM     26  S   UNL A   1      32.899  15.470  24.937  1.00  0.00    -0.018 S 
ATOM     27  C   UNL A   1      34.650  15.169  25.237  1.00  0.00     0.346 C 
ATOM     28  O   UNL A   1      32.128  15.303  26.296  1.00  0.00    -0.612 OA
ENDBRANCH  25  26
ENDBRANCH  14  20
ENDBRANCH   7   8
ENDBRANCH   5   7
ENDBRANCH   4   5
ENDBRANCH   3   4
ENDBRANCH   2   3
ENDBRANCH   1   2
BRANCH   1  29
ATOM     29  C   UNL A   1      31.546  28.716  26.589  1.00  0.00     0.202 C 
BRANCH  29  30
ATOM     30  C   UNL A   1      32.740  28.346  27.477  1.00  0.00     0.261 C 
BRANCH  30  31
ATOM     31  O   UNL A   1      33.997  28.827  26.996  1.00  0.00    -0.460 OA
BRANCH  31  32
ATOM     32  C   UNL A   1      34.391  29.997  27.548  1.00  0.00     0.338 C 
ATOM     33  O   UNL A   1      33.715  30.996  27.747  1.00  0.00    -0.246 OA
BRANCH  32  34
ATOM     34  C   UNL A   1      35.761  29.843  28.046  1.00  0.00     0.060 A 
ATOM     35  C   UNL A   1      36.005  29.457  29.364  1.00  0.00     0.016 A 
ATOM     36  C   UNL A   1      36.811  30.058  27.147  1.00  0.00     0.016 A 
ATOM     37  C   UNL A   1      37.321  29.252  29.775  1.00  0.00     0.010 A 
ATOM     38  C   UNL A   1      38.123  29.846  27.558  1.00  0.00     0.010 A 
ATOM     39  C   UNL A   1      38.382  29.418  28.866  1.00  0.00    -0.014 A 
BRANCH  39  40
ATOM     40  C   UNL A   1      39.752  29.001  29.240  1.00  0.00     0.031 A 
ATOM     41  C   UNL A   1      40.279  27.647  28.878  1.00  0.00     0.074 A 
ATOM     42  C   UNL A   1      40.500  29.866  29.952  1.00  0.00     0.049 A 
ATOM     43  N   UNL A   1      41.467  27.152  29.098  1.00  0.00    -0.248 NA
ATOM     44  C   UNL A   1      39.358  26.727  28.191  1.00  0.00     0.031 C 
ATOM     45  C   UNL A   1      40.054  31.193  30.385  1.00  0.00     0.029 A 
ATOM     46  N   UNL A   1      41.782  29.773  30.428  1.00  0.00    -0.354 N 
ATOM     47  C   UNL A   1      41.448  25.870  28.567  1.00  0.00     0.074 A 
ATOM     48  C   UNL A   1      40.113  25.643  28.057  1.00  0.00     0.031 C 
ATOM     49  C   UNL A   1      41.061  31.806  31.023  1.00  0.00     0.029 A 
ATOM     50  C   UNL A   1      42.205  30.902  31.089  1.00  0.00     0.049 A 
ATOM     51  H   UNL A   1      42.346  28.975  30.309  1.00  0.00     0.167 HD
ATOM     52  C   UNL A   1      42.465  24.979  28.498  1.00  0.00     0.031 A 
ATOM     53  C   UNL A   1      43.383  31.185  31.682  1.00  0.00     0.031 A 
ATOM     54  C   UNL A   1      43.783  25.227  29.026  1.00  0.00     0.049 A 
ATOM     55  C   UNL A   1      44.484  30.166  31.615  1.00  0.00     0.074 A 
ATOM     56  C   UNL A   1      44.896  24.405  28.966  1.00  0.00     0.029 A 
ATOM     57  N   UNL A   1      44.170  26.371  29.712  1.00  0.00    -0.354 N 
ATOM     58  N   UNL A   1      44.477  28.990  31.032  1.00  0.00    -0.248 NA
ATOM     59  C   UNL A   1      45.755  30.511  32.263  1.00  0.00     0.031 C 
ATOM     60  C   UNL A   1      45.925  25.011  29.687  1.00  0.00     0.029 A 
ATOM     61  C   UNL A   1      45.491  26.256  30.115  1.00  0.00     0.049 A 
ATOM     62  H   UNL A   1      43.592  27.148  29.885  1.00  0.00     0.167 HD
ATOM     63  C   UNL A   1      45.746  28.460  31.230  1.00  0.00     0.074 A 
ATOM     64  C   UNL A   1      46.503  29.458  31.960  1.00  0.00     0.031 C 
ATOM     65  C   UNL A   1      46.235  27.255  30.848  1.00  0.00     0.031 A 
BRANCH  52  66
ATOM     66  C   UNL A   1      42.222  23.658  27.812  1.00  0.00    -0.014 A 
ATOM     67  C   UNL A   1      41.652  22.588  28.527  1.00  0.00     0.010 A 
ATOM     68  C   UNL A   1      42.701  23.427  26.509  1.00  0.00     0.010 A 
ATOM     69  C   UNL A   1      41.610  21.304  27.974  1.00  0.00     0.020 A 
ATOM     70  C   UNL A   1      42.632  22.151  25.940  1.00  0.00     0.020 A 
ATOM     71  C   UNL A   1      42.114  21.092  26.689  1.00  0.00     0.054 A 
BRANCH  71  72
ATOM     72  S   UNL A   1      42.114  19.407  26.016  1.00  0.00     0.124 S 
ATOM     73  O   UNL A   1      42.652  18.632  27.129  1.00  0.00    -0.237 OA
ATOM     74  O   UNL A   1      40.702  19.186  25.716  1.00  0.00    -0.237 OA
ATOM     75  O   UNL A   1      42.983  19.506  24.845  1.00  0.00    -0.744 OA
ENDBRANCH  71  72
ENDBRANCH  52  66
BRANCH  53  76
ATOM     76  C   UNL A   1      43.568  32.515  32.325  1.00  0.00    -0.014 A 
ATOM     77  C   UNL A   1      43.137  32.734  33.648  1.00  0.00     0.010 A 
ATOM     78  C   UNL A   1      44.070  33.600  31.585  1.00  0.00     0.010 A 
ATOM     79  C   UNL A   1      43.136  34.021  34.192  1.00  0.00     0.020 A 
ATOM     80  C   UNL A   1      44.107  34.883  32.139  1.00  0.00     0.020 A 
ATOM     81  C   UNL A   1      43.606  35.091  33.426  1.00  0.00     0.054 A 
BRANCH  81  82
ATOM     82  S   UNL A   1      43.515  36.763  34.123  1.00  0.00     0.124 S 
ATOM     83  O   UNL A   1      43.457  37.586  32.917  1.00  0.00    -0.237 OA
ATOM     84  O   UNL A   1      42.285  36.712  34.910  1.00  0.00    -0.237 OA
ATOM     85  O   UNL A   1      44.746  36.878  34.899  1.00  0.00    -0.744 OA
ENDBRANCH  81  82
ENDBRANCH  53  76
BRANCH  65  86
ATOM     86  C   UNL A   1      47.659  26.918  31.214  1.00  0.00    -0.014 A 
ATOM     87  C   UNL A   1      48.703  27.226  30.319  1.00  0.00     0.010 A 
ATOM     88  C   UNL A   1      47.952  26.177  32.373  1.00  0.00     0.010 A 
ATOM     89  C   UNL A   1      49.999  26.761  30.552  1.00  0.00     0.020 A 
ATOM     90  C   UNL A   1      49.255  25.745  32.630  1.00  0.00     0.020 A 
ATOM     91  C   UNL A   1      50.265  26.014  31.703  1.00  0.00     0.054 A 
BRANCH  91  92
ATOM     92  S   UNL A   1      51.944  25.382  31.963  1.00  0.00     0.124 S 
ATOM     93  O   UNL A   1      52.623  25.797  30.740  1.00  0.00    -0.237 OA
ATOM     94  O   UNL A   1      52.360  26.074  33.182  1.00  0.00    -0.237 OA
ATOM     95  O   UNL A   1      51.749  23.941  32.110  1.00  0.00    -0.744 OA
ENDBRANCH  91  92
ENDBRANCH  65  86
ENDBRANCH  39  40
ENDBRANCH  32  34
ENDBRANCH  31  32
ENDBRANCH  30  31
ENDBRANCH  29  30
ENDBRANCH   1  29
TORSDOF 20
ENDMDL
MODEL 3
REMARK VINA RESULT:      -8.1      5.462      8.717
REMARK SMILES CC1=C(CC(=O)OCCOCCOC(=O)c2ccc(-c3c4nc(c(-c5ccc(S(=O)(=O)[O-])cc5)c5ccc([nH]5)c(-c5ccc(S(=O)(=O)[O-])cc5)c5nc(c(-c6ccc(S(=O)(=O)[O-])cc6)c6ccc3[nH]6)C=C5)C=C4)cc2)c2cc(F)ccc2/C1=C\c1ccc([S@@+](C)[O-])cc1
REMARK SMILES IDX 10 1 9 2 8 3 7 4 5 5 6 6 4 7 3 8 1 9 2 10 83 11 76 12 82 13
REMARK SMILES IDX 84 14 77 15 81 16 78 17 80 18 79 19 85 20 86 21 93 22 87 23
REMARK SMILES IDX 92 24 88 25 89 26 90 27 91 28 11 29 12 30 13 31 14 32 15 33
REMARK SMILES IDX 16 34 17 35 75 36 18 37 74 38 19 39 20 40 21 41 68 42 22 43
REMARK SMILES IDX 73 44 67 45 69 46 23 47 72 48 66 49 65 50 24 52 54 53 35 54
REMARK SMILES IDX 53 55 36 56 39 57 52 58 70 59 37 60 38 61 51 63 71 64 40 65
REMARK SMILES IDX 25 66 26 67 34 68 27 69 33 70 28 71 29 72 30 73 31 74 32 75
REMARK SMILES IDX 55 76 56 77 64 78 57 79 63 80 58 81 59 82 60 83 61 84 62 85
REMARK SMILES IDX 41 86 42 87 50 88 43 89 49 90 44 91 45 92 46 93 47 94 48 95
REMARK H PARENT 69 51 39 62
REMARK Flexibility Score: inf
ROOT
ATOM      1  O   UNL A   1      36.775  22.409  25.530  1.00  0.00    -0.374 OA
ENDROOT
BRANCH   1   2
ATOM      2  C   UNL A   1      35.783  22.350  24.509  1.00  0.00     0.202 C 
BRANCH   2   3
ATOM      3  C   UNL A   1      34.437  21.679  24.825  1.00  0.00     0.261 C 
BRANCH   3   4
ATOM      4  O   UNL A   1      33.402  21.899  23.843  1.00  0.00    -0.463 OA
BRANCH   4   5
ATOM      5  C   UNL A   1      32.130  21.731  24.296  1.00  0.00     0.310 C 
ATOM      6  O   UNL A   1      31.713  20.699  24.820  1.00  0.00    -0.252 OA
BRANCH   5   7
ATOM      7  C   UNL A   1      31.204  22.932  24.123  1.00  0.00     0.159 C 
BRANCH   7   8
ATOM      8  C   UNL A   1      31.632  24.296  24.565  1.00  0.00    -0.025 C 
ATOM      9  C   UNL A   1      31.285  24.032  27.049  1.00  0.00     0.045 C 
ATOM     10  C   UNL A   1      31.684  24.790  25.826  1.00  0.00    -0.039 C 
ATOM     11  C   UNL A   1      32.248  26.153  25.811  1.00  0.00    -0.014 C 
ATOM     12  C   UNL A   1      32.249  25.293  23.672  1.00  0.00    -0.011 A 
ATOM     13  C   UNL A   1      32.585  26.449  24.401  1.00  0.00    -0.010 A 
ATOM     14  C   UNL A   1      32.433  26.932  26.898  1.00  0.00     0.017 C 
ATOM     15  C   UNL A   1      32.531  25.210  22.314  1.00  0.00     0.048 A 
ATOM     16  C   UNL A   1      33.141  27.549  23.756  1.00  0.00     0.012 A 
ATOM     17  C   UNL A   1      33.069  26.327  21.678  1.00  0.00     0.123 A 
ATOM     18  C   UNL A   1      33.356  27.497  22.378  1.00  0.00     0.040 A 
ATOM     19  F   UNL A   1      33.270  26.294  20.354  1.00  0.00    -0.207 F 
BRANCH  14  20
ATOM     20  C   UNL A   1      33.003  28.283  26.895  1.00  0.00    -0.025 A 
ATOM     21  C   UNL A   1      34.388  28.461  26.976  1.00  0.00     0.013 A 
ATOM     22  C   UNL A   1      32.164  29.400  26.929  1.00  0.00     0.013 A 
ATOM     23  C   UNL A   1      34.921  29.731  27.226  1.00  0.00     0.061 A 
ATOM     24  C   UNL A   1      32.700  30.673  27.153  1.00  0.00     0.061 A 
ATOM     25  C   UNL A   1      34.077  30.841  27.348  1.00  0.00     0.152 A 
BRANCH  25  26
ATOM     26  S   UNL A   1      34.710  32.428  27.950  1.00  0.00    -0.018 S 
ATOM     27  C   UNL A   1      34.399  32.246  29.715  1.00  0.00     0.346 C 
ATOM     28  O   UNL A   1      36.264  32.427  27.718  1.00  0.00    -0.612 OA
ENDBRANCH  25  26
ENDBRANCH  14  20
ENDBRANCH   7   8
ENDBRANCH   5   7
ENDBRANCH   4   5
ENDBRANCH   3   4
ENDBRANCH   2   3
ENDBRANCH   1   2
BRANCH   1  29
ATOM     29  C   UNL A   1      37.187  23.693  25.984  1.00  0.00     0.202 C 
BRANCH  29  30
ATOM     30  C   UNL A   1      38.675  23.920  26.279  1.00  0.00     0.261 C 
BRANCH  30  31
ATOM     31  O   UNL A   1      38.926  24.740  27.421  1.00  0.00    -0.460 OA
BRANCH  31  32
ATOM     32  C   UNL A   1      39.773  25.768  27.190  1.00  0.00     0.338 C 
ATOM     33  O   UNL A   1      40.408  26.001  26.171  1.00  0.00    -0.246 OA
BRANCH  32  34
ATOM     34  C   UNL A   1      39.702  26.698  28.322  1.00  0.00     0.060 A 
ATOM     35  C   UNL A   1      38.935  26.399  29.447  1.00  0.00     0.016 A 
ATOM     36  C   UNL A   1      40.459  27.873  28.251  1.00  0.00     0.016 A 
ATOM     37  C   UNL A   1      38.953  27.276  30.530  1.00  0.00     0.010 A 
ATOM     38  C   UNL A   1      40.481  28.743  29.335  1.00  0.00     0.010 A 
ATOM     39  C   UNL A   1      39.748  28.437  30.489  1.00  0.00    -0.014 A 
BRANCH  39  40
ATOM     40  C   UNL A   1      39.931  29.254  31.709  1.00  0.00     0.031 A 
ATOM     41  C   UNL A   1      38.993  30.371  32.045  1.00  0.00     0.074 A 
ATOM     42  C   UNL A   1      40.995  28.986  32.491  1.00  0.00     0.049 A 
ATOM     43  N   UNL A   1      38.997  31.148  33.095  1.00  0.00    -0.248 NA
ATOM     44  C   UNL A   1      37.919  30.662  31.083  1.00  0.00     0.031 C 
ATOM     45  C   UNL A   1      41.986  27.941  32.220  1.00  0.00     0.029 A 
ATOM     46  N   UNL A   1      41.418  29.551  33.666  1.00  0.00    -0.354 N 
ATOM     47  C   UNL A   1      37.923  32.012  32.932  1.00  0.00     0.074 A 
ATOM     48  C   UNL A   1      37.317  31.697  31.657  1.00  0.00     0.031 C 
ATOM     49  C   UNL A   1      42.875  27.911  33.223  1.00  0.00     0.029 A 
ATOM     50  C   UNL A   1      42.550  28.963  34.181  1.00  0.00     0.049 A 
ATOM     51  H   UNL A   1      40.957  30.305  34.100  1.00  0.00     0.167 HD
ATOM     52  C   UNL A   1      37.479  32.964  33.787  1.00  0.00     0.031 A 
ATOM     53  C   UNL A   1      43.249  29.234  35.301  1.00  0.00     0.031 A 
ATOM     54  C   UNL A   1      38.111  33.265  35.047  1.00  0.00     0.049 A 
ATOM     55  C   UNL A   1      42.750  30.315  36.217  1.00  0.00     0.074 A 
ATOM     56  C   UNL A   1      37.712  34.182  36.005  1.00  0.00     0.029 A 
ATOM     57  N   UNL A   1      39.270  32.669  35.526  1.00  0.00    -0.354 N 
ATOM     58  N   UNL A   1      41.681  31.067  36.090  1.00  0.00    -0.248 NA
ATOM     59  C   UNL A   1      43.532  30.577  37.431  1.00  0.00     0.031 C 
ATOM     60  C   UNL A   1      38.672  34.201  37.018  1.00  0.00     0.029 A 
ATOM     61  C   UNL A   1      39.621  33.227  36.745  1.00  0.00     0.049 A 
ATOM     62  H   UNL A   1      39.768  31.954  35.068  1.00  0.00     0.167 HD
ATOM     63  C   UNL A   1      41.653  31.881  37.216  1.00  0.00     0.074 A 
ATOM     64  C   UNL A   1      42.796  31.508  38.026  1.00  0.00     0.031 C 
ATOM     65  C   UNL A   1      40.766  32.852  37.542  1.00  0.00     0.031 A 
BRANCH  52  66
ATOM     66  C   UNL A   1      36.243  33.745  33.419  1.00  0.00    -0.014 A 
ATOM     67  C   UNL A   1      34.968  33.195  33.655  1.00  0.00     0.010 A 
ATOM     68  C   UNL A   1      36.341  34.950  32.700  1.00  0.00     0.010 A 
ATOM     69  C   UNL A   1      33.822  33.807  33.137  1.00  0.00     0.020 A 
ATOM     70  C   UNL A   1      35.196  35.583  32.208  1.00  0.00     0.020 A 
ATOM     71  C   UNL A   1      33.946  34.990  32.405  1.00  0.00     0.054 A 
BRANCH  71  72
ATOM     72  S   UNL A   1      32.456  35.731  31.682  1.00  0.00     0.124 S 
ATOM     73  O   UNL A   1      32.703  37.158  31.864  1.00  0.00    -0.237 OA
ATOM     74  O   UNL A   1      32.501  35.252  30.302  1.00  0.00    -0.237 OA
ATOM     75  O   UNL A   1      31.371  35.176  32.489  1.00  0.00    -0.744 OA
ENDBRANCH  71  72
ENDBRANCH  52  66
BRANCH  53  76
ATOM     76  C   UNL A   1      44.450  28.414  35.620  1.00  0.00    -0.014 A 
ATOM     77  C   UNL A   1      44.326  27.225  36.366  1.00  0.00     0.010 A 
ATOM     78  C   UNL A   1      45.735  28.871  35.280  1.00  0.00     0.010 A 
ATOM     79  C   UNL A   1      45.460  26.553  36.826  1.00  0.00     0.020 A 
ATOM     80  C   UNL A   1      46.873  28.179  35.706  1.00  0.00     0.020 A 
ATOM     81  C   UNL A   1      46.728  27.045  36.507  1.00  0.00     0.054 A 
BRANCH  81  82
ATOM     82  S   UNL A   1      48.183  26.203  37.188  1.00  0.00     0.124 S 
ATOM     83  O   UNL A   1      47.839  26.112  38.605  1.00  0.00    -0.237 OA
ATOM     84  O   UNL A   1      48.188  24.937  36.458  1.00  0.00    -0.237 OA
ATOM     85  O   UNL A   1      49.284  27.108  36.869  1.00  0.00    -0.744 OA
ENDBRANCH  81  82
ENDBRANCH  53  76
BRANCH  65  86
ATOM     86  C   UNL A   1      40.982  33.607  38.830  1.00  0.00    -0.014 A 
ATOM     87  C   UNL A   1      40.354  33.169  40.012  1.00  0.00     0.010 A 
ATOM     88  C   UNL A   1      41.691  34.822  38.845  1.00  0.00     0.010 A 
ATOM     89  C   UNL A   1      40.391  33.952  41.169  1.00  0.00     0.020 A 
ATOM     90  C   UNL A   1      41.764  35.589  40.011  1.00  0.00     0.020 A 
ATOM     91  C   UNL A   1      41.088  35.162  41.157  1.00  0.00     0.054 A 
BRANCH  91  92
ATOM     92  S   UNL A   1      41.085  36.185  42.654  1.00  0.00     0.124 S 
ATOM     93  O   UNL A   1      42.313  36.958  42.502  1.00  0.00    -0.237 OA
ATOM     94  O   UNL A   1      39.841  36.941  42.522  1.00  0.00    -0.237 OA
ATOM     95  O   UNL A   1      41.096  35.205  43.739  1.00  0.00    -0.744 OA
ENDBRANCH  91  92
ENDBRANCH  65  86
ENDBRANCH  39  40
ENDBRANCH  32  34
ENDBRANCH  31  32
ENDBRANCH  30  31
ENDBRANCH  29  30
ENDBRANCH   1  29
TORSDOF 20
ENDMDL
