MODEL 1
REMARK VINA RESULT:      -9.8      0.000      0.000
REMARK SMILES O=C(OCCOCCOC(=O)[C@H]1CC1(c1ccccc1)c1ccccc1)c1ccc(-c2c3nc(c(-c4ccc(S(=O)(=O)[O-])cc4)c4ccc([nH]4)c(-c4ccc(S(=O)(=O)[O-])cc4)c4nc(c(-c5ccc(S(=O)(=O)[O-])cc5)c5ccc2[nH]5)C=C4)C=C3)cc1
REMARK SMILES IDX 5 1 4 2 3 3 2 4 1 5 27 6 28 7 86 8 29 9 85 10 30 11 31 12
REMARK SMILES IDX 32 13 79 14 33 15 84 16 78 17 80 18 34 19 83 20 77 21 76 22
REMARK SMILES IDX 35 24 65 25 46 26 64 27 47 28 50 29 63 30 81 31 48 32 49 33
REMARK SMILES IDX 62 35 82 36 51 37 36 38 37 39 45 40 38 41 44 42 39 43 40 44
REMARK SMILES IDX 41 45 42 46 43 47 66 48 67 49 75 50 68 51 74 52 69 53 70 54
REMARK SMILES IDX 71 55 72 56 73 57 52 58 53 59 61 60 54 61 60 62 55 63 56 64
REMARK SMILES IDX 57 65 58 66 59 67 6 68 7 69 8 70 9 71 10 72 11 73 12 74
REMARK SMILES IDX 13 75 14 76 15 77 16 78 20 79 17 80 19 81 18 82 21 83 22 84
REMARK SMILES IDX 26 85 23 86 25 87 24 88
REMARK H PARENT 80 23 50 34
REMARK Flexibility Score: inf
ROOT
ATOM      1  C   UNL A   1      31.797  29.196  25.725  1.00  0.00     0.202 C 
ENDROOT
BRANCH   1   2
ATOM      2  C   UNL A   1      32.755  28.869  26.880  1.00  0.00     0.261 C 
BRANCH   2   3
ATOM      3  O   UNL A   1      33.993  29.588  26.755  1.00  0.00    -0.460 OA
BRANCH   3   4
ATOM      4  C   UNL A   1      34.479  30.522  27.608  1.00  0.00     0.338 C 
ATOM      5  O   UNL A   1      33.868  31.579  27.748  1.00  0.00    -0.246 OA
BRANCH   4   6
ATOM      6  C   UNL A   1      35.744  30.325  28.376  1.00  0.00     0.060 A 
ATOM      7  C   UNL A   1      35.853  29.507  29.500  1.00  0.00     0.016 A 
ATOM      8  C   UNL A   1      36.914  30.917  27.882  1.00  0.00     0.016 A 
ATOM      9  C   UNL A   1      37.045  29.267  30.129  1.00  0.00     0.010 A 
ATOM     10  C   UNL A   1      38.145  30.664  28.495  1.00  0.00     0.010 A 
ATOM     11  C   UNL A   1      38.199  29.818  29.608  1.00  0.00    -0.014 A 
BRANCH  11  12
ATOM     12  C   UNL A   1      39.421  29.504  30.340  1.00  0.00     0.031 A 
ATOM     13  C   UNL A   1      40.339  28.492  29.753  1.00  0.00     0.074 A 
ATOM     14  C   UNL A   1      39.752  30.283  31.388  1.00  0.00     0.049 A 
ATOM     15  N   UNL A   1      41.444  28.018  30.244  1.00  0.00    -0.248 NA
ATOM     16  C   UNL A   1      39.979  27.956  28.426  1.00  0.00     0.031 C 
ATOM     17  C   UNL A   1      38.972  31.431  31.870  1.00  0.00     0.029 A 
ATOM     18  N   UNL A   1      40.840  30.254  32.211  1.00  0.00    -0.354 N 
ATOM     19  C   UNL A   1      41.882  27.081  29.319  1.00  0.00     0.074 A 
ATOM     20  C   UNL A   1      40.950  27.079  28.218  1.00  0.00     0.031 C 
ATOM     21  C   UNL A   1      39.609  31.989  32.912  1.00  0.00     0.029 A 
ATOM     22  C   UNL A   1      40.783  31.185  33.220  1.00  0.00     0.049 A 
ATOM     23  H   UNL A   1      41.591  29.629  32.093  1.00  0.00     0.167 HD
ATOM     24  C   UNL A   1      42.958  26.276  29.426  1.00  0.00     0.031 A 
ATOM     25  C   UNL A   1      41.562  31.311  34.309  1.00  0.00     0.031 A 
ATOM     26  C   UNL A   1      43.847  26.325  30.554  1.00  0.00     0.049 A 
ATOM     27  C   UNL A   1      42.678  30.313  34.461  1.00  0.00     0.074 A 
ATOM     28  C   UNL A   1      44.949  25.538  30.814  1.00  0.00     0.029 A 
ATOM     29  N   UNL A   1      43.718  27.214  31.613  1.00  0.00    -0.354 N 
ATOM     30  N   UNL A   1      43.070  29.385  33.616  1.00  0.00    -0.248 NA
ATOM     31  C   UNL A   1      43.440  30.353  35.713  1.00  0.00     0.031 C 
ATOM     32  C   UNL A   1      45.444  25.903  32.070  1.00  0.00     0.029 A 
ATOM     33  C   UNL A   1      44.693  26.965  32.557  1.00  0.00     0.049 A 
ATOM     34  H   UNL A   1      43.032  27.918  31.681  1.00  0.00     0.167 HD
ATOM     35  C   UNL A   1      44.128  28.733  34.232  1.00  0.00     0.074 A 
ATOM     36  C   UNL A   1      44.336  29.398  35.505  1.00  0.00     0.031 C 
ATOM     37  C   UNL A   1      44.855  27.672  33.804  1.00  0.00     0.031 A 
BRANCH  24  38
ATOM     38  C   UNL A   1      43.148  25.222  28.379  1.00  0.00    -0.014 A 
ATOM     39  C   UNL A   1      44.002  25.406  27.279  1.00  0.00     0.010 A 
ATOM     40  C   UNL A   1      42.468  23.998  28.526  1.00  0.00     0.010 A 
ATOM     41  C   UNL A   1      44.169  24.383  26.342  1.00  0.00     0.020 A 
ATOM     42  C   UNL A   1      42.650  22.967  27.605  1.00  0.00     0.020 A 
ATOM     43  C   UNL A   1      43.499  23.166  26.517  1.00  0.00     0.054 A 
BRANCH  43  44
ATOM     44  S   UNL A   1      43.798  21.829  25.329  1.00  0.00     0.124 S 
ATOM     45  O   UNL A   1      43.636  22.518  24.051  1.00  0.00    -0.237 OA
ATOM     46  O   UNL A   1      45.162  21.417  25.651  1.00  0.00    -0.237 OA
ATOM     47  O   UNL A   1      42.762  20.848  25.642  1.00  0.00    -0.744 OA
ENDBRANCH  43  44
ENDBRANCH  24  38
BRANCH  25  48
ATOM     48  C   UNL A   1      41.234  32.296  35.378  1.00  0.00    -0.014 A 
ATOM     49  C   UNL A   1      40.318  31.991  36.398  1.00  0.00     0.010 A 
ATOM     50  C   UNL A   1      41.809  33.583  35.347  1.00  0.00     0.010 A 
ATOM     51  C   UNL A   1      39.951  32.964  37.335  1.00  0.00     0.020 A 
ATOM     52  C   UNL A   1      41.474  34.546  36.302  1.00  0.00     0.020 A 
ATOM     53  C   UNL A   1      40.525  34.237  37.276  1.00  0.00     0.054 A 
BRANCH  53  54
ATOM     54  S   UNL A   1      40.016  35.491  38.485  1.00  0.00     0.124 S 
ATOM     55  O   UNL A   1      41.201  35.589  39.333  1.00  0.00    -0.237 OA
ATOM     56  O   UNL A   1      39.744  36.651  37.641  1.00  0.00    -0.237 OA
ATOM     57  O   UNL A   1      38.841  34.900  39.119  1.00  0.00    -0.744 OA
ENDBRANCH  53  54
ENDBRANCH  25  48
BRANCH  37  58
ATOM     58  C   UNL A   1      45.945  27.189  34.714  1.00  0.00    -0.014 A 
ATOM     59  C   UNL A   1      45.704  26.163  35.641  1.00  0.00     0.010 A 
ATOM     60  C   UNL A   1      47.245  27.704  34.565  1.00  0.00     0.010 A 
ATOM     61  C   UNL A   1      46.748  25.667  36.421  1.00  0.00     0.020 A 
ATOM     62  C   UNL A   1      48.297  27.187  35.317  1.00  0.00     0.020 A 
ATOM     63  C   UNL A   1      48.039  26.177  36.246  1.00  0.00     0.054 A 
BRANCH  63  64
ATOM     64  S   UNL A   1      49.392  25.455  37.211  1.00  0.00     0.124 S 
ATOM     65  O   UNL A   1      49.001  25.787  38.578  1.00  0.00    -0.237 OA
ATOM     66  O   UNL A   1      49.313  24.039  36.860  1.00  0.00    -0.237 OA
ATOM     67  O   UNL A   1      50.579  26.149  36.716  1.00  0.00    -0.744 OA
ENDBRANCH  63  64
ENDBRANCH  37  58
ENDBRANCH  11  12
ENDBRANCH   4   6
ENDBRANCH   3   4
ENDBRANCH   2   3
ENDBRANCH   1   2
BRANCH   1  68
ATOM     68  O   UNL A   1      31.960  28.484  24.497  1.00  0.00    -0.374 OA
BRANCH  68  69
ATOM     69  C   UNL A   1      32.962  28.969  23.595  1.00  0.00     0.202 C 
BRANCH  69  70
ATOM     70  C   UNL A   1      33.187  27.946  22.491  1.00  0.00     0.261 C 
BRANCH  70  71
ATOM     71  O   UNL A   1      32.628  26.722  22.976  1.00  0.00    -0.463 OA
BRANCH  71  72
ATOM     72  C   UNL A   1      33.398  25.628  22.766  1.00  0.00     0.310 C 
ATOM     73  O   UNL A   1      33.348  24.886  21.804  1.00  0.00    -0.252 OA
BRANCH  72  74
ATOM     74  C   UNL A   1      34.421  25.424  23.808  1.00  0.00     0.115 C 
ATOM     75  C   UNL A   1      34.315  25.851  25.241  1.00  0.00     0.034 C 
ATOM     76  C   UNL A   1      34.370  24.365  24.912  1.00  0.00     0.034 C 
BRANCH  76  77
ATOM     77  C   UNL A   1      33.109  23.625  25.406  1.00  0.00    -0.037 A 
ATOM     78  C   UNL A   1      32.548  22.589  24.631  1.00  0.00     0.004 A 
ATOM     79  C   UNL A   1      32.410  24.003  26.565  1.00  0.00     0.004 A 
ATOM     80  C   UNL A   1      31.331  21.995  24.970  1.00  0.00     0.000 A 
ATOM     81  C   UNL A   1      31.194  23.410  26.912  1.00  0.00     0.000 A 
ATOM     82  C   UNL A   1      30.646  22.418  26.105  1.00  0.00     0.000 A 
ENDBRANCH  76  77
BRANCH  76  83
ATOM     83  C   UNL A   1      35.672  23.554  24.980  1.00  0.00    -0.037 A 
ATOM     84  C   UNL A   1      36.667  23.897  25.915  1.00  0.00     0.004 A 
ATOM     85  C   UNL A   1      35.900  22.399  24.209  1.00  0.00     0.004 A 
ATOM     86  C   UNL A   1      37.822  23.142  26.076  1.00  0.00     0.000 A 
ATOM     87  C   UNL A   1      37.048  21.624  24.378  1.00  0.00     0.000 A 
ATOM     88  C   UNL A   1      38.009  21.998  25.310  1.00  0.00     0.000 A 
ENDBRANCH  76  83
ENDBRANCH  72  74
ENDBRANCH  71  72
ENDBRANCH  70  71
ENDBRANCH  69  70
ENDBRANCH  68  69
ENDBRANCH   1  68
TORSDOF 19
ENDMDL
MODEL 2
REMARK VINA RESULT:      -9.8      2.477      3.870
REMARK SMILES O=C(OCCOCCOC(=O)[C@H]1CC1(c1ccccc1)c1ccccc1)c1ccc(-c2c3nc(c(-c4ccc(S(=O)(=O)[O-])cc4)c4ccc([nH]4)c(-c4ccc(S(=O)(=O)[O-])cc4)c4nc(c(-c5ccc(S(=O)(=O)[O-])cc5)c5ccc2[nH]5)C=C4)C=C3)cc1
REMARK SMILES IDX 5 1 4 2 3 3 2 4 1 5 27 6 28 7 86 8 29 9 85 10 30 11 31 12
REMARK SMILES IDX 32 13 79 14 33 15 84 16 78 17 80 18 34 19 83 20 77 21 76 22
REMARK SMILES IDX 35 24 65 25 46 26 64 27 47 28 50 29 63 30 81 31 48 32 49 33
REMARK SMILES IDX 62 35 82 36 51 37 36 38 37 39 45 40 38 41 44 42 39 43 40 44
REMARK SMILES IDX 41 45 42 46 43 47 66 48 67 49 75 50 68 51 74 52 69 53 70 54
REMARK SMILES IDX 71 55 72 56 73 57 52 58 53 59 61 60 54 61 60 62 55 63 56 64
REMARK SMILES IDX 57 65 58 66 59 67 6 68 7 69 8 70 9 71 10 72 11 73 12 74
REMARK SMILES IDX 13 75 14 76 15 77 16 78 20 79 17 80 19 81 18 82 21 83 22 84
REMARK SMILES IDX 26 85 23 86 25 87 24 88
REMARK H PARENT 80 23 50 34
REMARK Flexibility Score: inf
ROOT
ATOM      1  C   UNL A   1      32.323  31.039  26.988  1.00  0.00     0.202 C 
ENDROOT
BRANCH   1   2
ATOM      2  C   UNL A   1      33.468  31.982  27.383  1.00  0.00     0.261 C 
BRANCH   2   3
ATOM      3  O   UNL A   1      32.974  33.271  27.782  1.00  0.00    -0.460 OA
BRANCH   3   4
ATOM      4  C   UNL A   1      33.414  34.024  28.818  1.00  0.00     0.338 C 
ATOM      5  O   UNL A   1      32.801  35.047  29.116  1.00  0.00    -0.246 OA
BRANCH   4   6
ATOM      6  C   UNL A   1      34.633  33.671  29.606  1.00  0.00     0.060 A 
ATOM      7  C   UNL A   1      34.642  32.752  30.655  1.00  0.00     0.016 A 
ATOM      8  C   UNL A   1      35.858  34.218  29.205  1.00  0.00     0.016 A 
ATOM      9  C   UNL A   1      35.790  32.373  31.298  1.00  0.00     0.010 A 
ATOM     10  C   UNL A   1      37.044  33.826  29.832  1.00  0.00     0.010 A 
ATOM     11  C   UNL A   1      36.998  32.884  30.866  1.00  0.00    -0.014 A 
BRANCH  11  12
ATOM     12  C   UNL A   1      38.166  32.420  31.606  1.00  0.00     0.031 A 
ATOM     13  C   UNL A   1      39.037  31.403  30.959  1.00  0.00     0.074 A 
ATOM     14  C   UNL A   1      38.508  33.076  32.731  1.00  0.00     0.049 A 
ATOM     15  N   UNL A   1      40.088  30.810  31.439  1.00  0.00    -0.248 NA
ATOM     16  C   UNL A   1      38.694  31.015  29.576  1.00  0.00     0.031 C 
ATOM     17  C   UNL A   1      37.787  34.228  33.291  1.00  0.00     0.029 A 
ATOM     18  N   UNL A   1      39.558  32.897  33.583  1.00  0.00    -0.354 N 
ATOM     19  C   UNL A   1      40.498  29.932  30.447  1.00  0.00     0.074 A 
ATOM     20  C   UNL A   1      39.612  30.094  29.320  1.00  0.00     0.031 C 
ATOM     21  C   UNL A   1      38.419  34.644  34.401  1.00  0.00     0.029 A 
ATOM     22  C   UNL A   1      39.524  33.736  34.672  1.00  0.00     0.049 A 
ATOM     23  H   UNL A   1      40.270  32.234  33.434  1.00  0.00     0.167 HD
ATOM     24  C   UNL A   1      41.513  29.047  30.515  1.00  0.00     0.031 A 
ATOM     25  C   UNL A   1      40.266  33.708  35.793  1.00  0.00     0.031 A 
ATOM     26  C   UNL A   1      42.358  28.932  31.671  1.00  0.00     0.049 A 
ATOM     27  C   UNL A   1      41.306  32.625  35.889  1.00  0.00     0.074 A 
ATOM     28  C   UNL A   1      43.394  28.049  31.894  1.00  0.00     0.029 A 
ATOM     29  N   UNL A   1      42.248  29.729  32.803  1.00  0.00    -0.354 N 
ATOM     30  N   UNL A   1      41.668  31.751  34.975  1.00  0.00    -0.248 NA
ATOM     31  C   UNL A   1      42.019  32.498  37.164  1.00  0.00     0.031 C 
ATOM     32  C   UNL A   1      43.862  28.264  33.193  1.00  0.00     0.029 A 
ATOM     33  C   UNL A   1      43.165  29.328  33.752  1.00  0.00     0.049 A 
ATOM     34  H   UNL A   1      41.608  30.470  32.913  1.00  0.00     0.167 HD
ATOM     35  C   UNL A   1      42.654  30.974  35.563  1.00  0.00     0.074 A 
ATOM     36  C   UNL A   1      42.857  31.505  36.898  1.00  0.00     0.031 C 
ATOM     37  C   UNL A   1      43.325  29.907  35.063  1.00  0.00     0.031 A 
BRANCH  24  38
ATOM     38  C   UNL A   1      41.673  28.081  29.382  1.00  0.00    -0.014 A 
ATOM     39  C   UNL A   1      42.565  28.313  28.321  1.00  0.00     0.010 A 
ATOM     40  C   UNL A   1      40.923  26.890  29.404  1.00  0.00     0.010 A 
ATOM     41  C   UNL A   1      42.701  27.368  27.300  1.00  0.00     0.020 A 
ATOM     42  C   UNL A   1      41.074  25.935  28.398  1.00  0.00     0.020 A 
ATOM     43  C   UNL A   1      41.961  26.181  27.350  1.00  0.00     0.054 A 
BRANCH  43  44
ATOM     44  S   UNL A   1      42.218  24.939  26.054  1.00  0.00     0.124 S 
ATOM     45  O   UNL A   1      43.510  24.371  26.432  1.00  0.00    -0.237 OA
ATOM     46  O   UNL A   1      41.068  24.055  26.229  1.00  0.00    -0.237 OA
ATOM     47  O   UNL A   1      42.219  25.720  24.819  1.00  0.00    -0.744 OA
ENDBRANCH  43  44
ENDBRANCH  24  38
BRANCH  25  48
ATOM     48  C   UNL A   1      39.963  34.614  36.937  1.00  0.00    -0.014 A 
ATOM     49  C   UNL A   1      40.517  35.901  37.017  1.00  0.00     0.010 A 
ATOM     50  C   UNL A   1      39.145  34.162  37.993  1.00  0.00     0.010 A 
ATOM     51  C   UNL A   1      40.297  36.699  38.146  1.00  0.00     0.020 A 
ATOM     52  C   UNL A   1      38.892  34.969  39.105  1.00  0.00     0.020 A 
ATOM     53  C   UNL A   1      39.493  36.224  39.187  1.00  0.00     0.054 A 
BRANCH  53  54
ATOM     54  S   UNL A   1      39.242  37.263  40.652  1.00  0.00     0.124 S 
ATOM     55  O   UNL A   1      38.393  38.327  40.125  1.00  0.00    -0.237 OA
ATOM     56  O   UNL A   1      38.599  36.343  41.585  1.00  0.00    -0.237 OA
ATOM     57  O   UNL A   1      40.596  37.669  41.022  1.00  0.00    -0.744 OA
ENDBRANCH  53  54
ENDBRANCH  25  48
BRANCH  37  58
ATOM     58  C   UNL A   1      44.344  29.269  35.960  1.00  0.00    -0.014 A 
ATOM     59  C   UNL A   1      43.973  28.264  36.868  1.00  0.00     0.010 A 
ATOM     60  C   UNL A   1      45.699  29.614  35.817  1.00  0.00     0.010 A 
ATOM     61  C   UNL A   1      44.943  27.622  37.634  1.00  0.00     0.020 A 
ATOM     62  C   UNL A   1      46.676  28.950  36.556  1.00  0.00     0.020 A 
ATOM     63  C   UNL A   1      46.290  27.964  37.466  1.00  0.00     0.054 A 
BRANCH  63  64
ATOM     64  S   UNL A   1      47.538  27.054  38.412  1.00  0.00     0.124 S 
ATOM     65  O   UNL A   1      47.997  28.065  39.360  1.00  0.00    -0.237 OA
ATOM     66  O   UNL A   1      46.764  25.957  38.988  1.00  0.00    -0.237 OA
ATOM     67  O   UNL A   1      48.517  26.656  37.402  1.00  0.00    -0.744 OA
ENDBRANCH  63  64
ENDBRANCH  37  58
ENDBRANCH  11  12
ENDBRANCH   4   6
ENDBRANCH   3   4
ENDBRANCH   2   3
ENDBRANCH   1   2
BRANCH   1  68
ATOM     68  O   UNL A   1      32.473  30.266  25.795  1.00  0.00    -0.374 OA
BRANCH  68  69
ATOM     69  C   UNL A   1      33.598  29.381  25.735  1.00  0.00     0.202 C 
BRANCH  69  70
ATOM     70  C   UNL A   1      33.658  28.552  27.010  1.00  0.00     0.261 C 
BRANCH  70  71
ATOM     71  O   UNL A   1      33.251  27.233  26.635  1.00  0.00    -0.463 OA
BRANCH  71  72
ATOM     72  C   UNL A   1      31.948  26.954  26.878  1.00  0.00     0.310 C 
ATOM     73  O   UNL A   1      31.175  27.633  27.525  1.00  0.00    -0.252 OA
BRANCH  72  74
ATOM     74  C   UNL A   1      31.475  25.734  26.199  1.00  0.00     0.115 C 
ATOM     75  C   UNL A   1      30.045  25.370  25.939  1.00  0.00     0.034 C 
ATOM     76  C   UNL A   1      30.963  25.656  24.759  1.00  0.00     0.034 C 
BRANCH  76  77
ATOM     77  C   UNL A   1      30.450  26.838  23.910  1.00  0.00    -0.037 A 
ATOM     78  C   UNL A   1      31.361  27.771  23.372  1.00  0.00     0.004 A 
ATOM     79  C   UNL A   1      29.083  27.104  23.724  1.00  0.00     0.004 A 
ATOM     80  C   UNL A   1      30.929  28.929  22.724  1.00  0.00     0.000 A 
ATOM     81  C   UNL A   1      28.645  28.259  23.072  1.00  0.00     0.000 A 
ATOM     82  C   UNL A   1      29.568  29.180  22.588  1.00  0.00     0.000 A 
ENDBRANCH  76  77
BRANCH  76  83
ATOM     83  C   UNL A   1      31.661  24.540  23.969  1.00  0.00    -0.037 A 
ATOM     84  C   UNL A   1      33.063  24.538  23.843  1.00  0.00     0.004 A 
ATOM     85  C   UNL A   1      30.976  23.438  23.425  1.00  0.00     0.004 A 
ATOM     86  C   UNL A   1      33.748  23.504  23.214  1.00  0.00     0.000 A 
ATOM     87  C   UNL A   1      31.656  22.387  22.809  1.00  0.00     0.000 A 
ATOM     88  C   UNL A   1      33.042  22.423  22.702  1.00  0.00     0.000 A 
ENDBRANCH  76  83
ENDBRANCH  72  74
ENDBRANCH  71  72
ENDBRANCH  70  71
ENDBRANCH  69  70
ENDBRANCH  68  69
ENDBRANCH   1  68
TORSDOF 19
ENDMDL
MODEL 3
REMARK VINA RESULT:      -9.8      4.825     10.051
REMARK SMILES O=C(OCCOCCOC(=O)[C@H]1CC1(c1ccccc1)c1ccccc1)c1ccc(-c2c3nc(c(-c4ccc(S(=O)(=O)[O-])cc4)c4ccc([nH]4)c(-c4ccc(S(=O)(=O)[O-])cc4)c4nc(c(-c5ccc(S(=O)(=O)[O-])cc5)c5ccc2[nH]5)C=C4)C=C3)cc1
REMARK SMILES IDX 5 1 4 2 3 3 2 4 1 5 27 6 28 7 86 8 29 9 85 10 30 11 31 12
REMARK SMILES IDX 32 13 79 14 33 15 84 16 78 17 80 18 34 19 83 20 77 21 76 22
REMARK SMILES IDX 35 24 65 25 46 26 64 27 47 28 50 29 63 30 81 31 48 32 49 33
REMARK SMILES IDX 62 35 82 36 51 37 36 38 37 39 45 40 38 41 44 42 39 43 40 44
REMARK SMILES IDX 41 45 42 46 43 47 66 48 67 49 75 50 68 51 74 52 69 53 70 54
REMARK SMILES IDX 71 55 72 56 73 57 52 58 53 59 61 60 54 61 60 62 55 63 56 64
REMARK SMILES IDX 57 65 58 66 59 67 6 68 7 69 8 70 9 71 10 72 11 73 12 74
REMARK SMILES IDX 13 75 14 76 15 77 16 78 20 79 17 80 19 81 18 82 21 83 22 84
REMARK SMILES IDX 26 85 23 86 25 87 24 88
REMARK H PARENT 80 23 50 34
REMARK Flexibility Score: inf
ROOT
ATOM      1  C   UNL A   1      35.495  22.900  25.916  1.00  0.00     0.202 C 
ENDROOT
BRANCH   1   2
ATOM      2  C   UNL A   1      36.814  23.687  25.913  1.00  0.00     0.261 C 
BRANCH   2   3
ATOM      3  O   UNL A   1      37.944  22.816  25.753  1.00  0.00    -0.460 OA
BRANCH   3   4
ATOM      4  C   UNL A   1      39.101  22.850  26.456  1.00  0.00     0.338 C 
ATOM      5  O   UNL A   1      39.650  21.791  26.756  1.00  0.00    -0.246 OA
BRANCH   4   6
ATOM      6  C   UNL A   1      39.732  24.127  26.902  1.00  0.00     0.060 A 
ATOM      7  C   UNL A   1      40.090  24.400  28.222  1.00  0.00     0.016 A 
ATOM      8  C   UNL A   1      40.076  25.069  25.923  1.00  0.00     0.016 A 
ATOM      9  C   UNL A   1      40.755  25.539  28.590  1.00  0.00     0.010 A 
ATOM     10  C   UNL A   1      40.777  26.227  26.275  1.00  0.00     0.010 A 
ATOM     11  C   UNL A   1      41.129  26.439  27.612  1.00  0.00    -0.014 A 
BRANCH  11  12
ATOM     12  C   UNL A   1      41.837  27.619  28.095  1.00  0.00     0.031 A 
ATOM     13  C   UNL A   1      41.034  28.697  28.731  1.00  0.00     0.074 A 
ATOM     14  C   UNL A   1      43.183  27.585  28.128  1.00  0.00     0.049 A 
ATOM     15  N   UNL A   1      41.432  29.848  29.183  1.00  0.00    -0.248 NA
ATOM     16  C   UNL A   1      39.590  28.438  28.904  1.00  0.00     0.031 C 
ATOM     17  C   UNL A   1      44.012  26.448  27.703  1.00  0.00     0.029 A 
ATOM     18  N   UNL A   1      44.088  28.507  28.567  1.00  0.00    -0.354 N 
ATOM     19  C   UNL A   1      40.284  30.481  29.635  1.00  0.00     0.074 A 
ATOM     20  C   UNL A   1      39.177  29.575  29.445  1.00  0.00     0.031 C 
ATOM     21  C   UNL A   1      45.305  26.750  27.896  1.00  0.00     0.029 A 
ATOM     22  C   UNL A   1      45.393  28.124  28.370  1.00  0.00     0.049 A 
ATOM     23  H   UNL A   1      43.832  29.361  28.983  1.00  0.00     0.167 HD
ATOM     24  C   UNL A   1      40.187  31.731  30.130  1.00  0.00     0.031 A 
ATOM     25  C   UNL A   1      46.521  28.846  28.491  1.00  0.00     0.031 A 
ATOM     26  C   UNL A   1      41.329  32.586  30.290  1.00  0.00     0.049 A 
ATOM     27  C   UNL A   1      46.364  30.279  28.923  1.00  0.00     0.074 A 
ATOM     28  C   UNL A   1      41.371  33.890  30.736  1.00  0.00     0.029 A 
ATOM     29  N   UNL A   1      42.634  32.211  29.997  1.00  0.00    -0.354 N 
ATOM     30  N   UNL A   1      45.273  30.906  29.305  1.00  0.00    -0.248 NA
ATOM     31  C   UNL A   1      47.570  31.111  28.919  1.00  0.00     0.031 C 
ATOM     32  C   UNL A   1      42.695  34.329  30.642  1.00  0.00     0.029 A 
ATOM     33  C   UNL A   1      43.488  33.275  30.204  1.00  0.00     0.049 A 
ATOM     34  H   UNL A   1      42.909  31.318  29.685  1.00  0.00     0.167 HD
ATOM     35  C   UNL A   1      45.662  32.206  29.590  1.00  0.00     0.074 A 
ATOM     36  C   UNL A   1      47.096  32.263  29.372  1.00  0.00     0.031 C 
ATOM     37  C   UNL A   1      44.912  33.266  29.979  1.00  0.00     0.031 A 
BRANCH  24  38
ATOM     38  C   UNL A   1      38.816  32.268  30.405  1.00  0.00    -0.014 A 
ATOM     39  C   UNL A   1      38.090  32.992  29.445  1.00  0.00     0.010 A 
ATOM     40  C   UNL A   1      38.232  32.009  31.660  1.00  0.00     0.010 A 
ATOM     41  C   UNL A   1      36.801  33.449  29.738  1.00  0.00     0.020 A 
ATOM     42  C   UNL A   1      36.938  32.444  31.947  1.00  0.00     0.020 A 
ATOM     43  C   UNL A   1      36.231  33.164  30.984  1.00  0.00     0.054 A 
BRANCH  43  44
ATOM     44  S   UNL A   1      34.529  33.700  31.306  1.00  0.00     0.124 S 
ATOM     45  O   UNL A   1      34.051  32.660  32.214  1.00  0.00    -0.237 OA
ATOM     46  O   UNL A   1      34.720  35.018  31.906  1.00  0.00    -0.237 OA
ATOM     47  O   UNL A   1      33.909  33.703  29.983  1.00  0.00    -0.744 OA
ENDBRANCH  43  44
ENDBRANCH  24  38
BRANCH  25  48
ATOM     48  C   UNL A   1      47.838  28.289  28.072  1.00  0.00    -0.014 A 
ATOM     49  C   UNL A   1      48.275  28.368  26.740  1.00  0.00     0.010 A 
ATOM     50  C   UNL A   1      48.649  27.620  29.012  1.00  0.00     0.010 A 
ATOM     51  C   UNL A   1      49.470  27.754  26.347  1.00  0.00     0.020 A 
ATOM     52  C   UNL A   1      49.861  27.037  28.632  1.00  0.00     0.020 A 
ATOM     53  C   UNL A   1      50.251  27.085  27.295  1.00  0.00     0.054 A 
BRANCH  53  54
ATOM     54  S   UNL A   1      51.783  26.274  26.760  1.00  0.00     0.124 S 
ATOM     55  O   UNL A   1      52.729  26.714  27.782  1.00  0.00    -0.237 OA
ATOM     56  O   UNL A   1      51.422  24.860  26.799  1.00  0.00    -0.237 OA
ATOM     57  O   UNL A   1      52.010  26.815  25.423  1.00  0.00    -0.744 OA
ENDBRANCH  53  54
ENDBRANCH  25  48
BRANCH  37  58
ATOM     58  C   UNL A   1      45.637  34.559  30.208  1.00  0.00    -0.014 A 
ATOM     59  C   UNL A   1      45.765  35.503  29.177  1.00  0.00     0.010 A 
ATOM     60  C   UNL A   1      46.106  34.866  31.497  1.00  0.00     0.010 A 
ATOM     61  C   UNL A   1      46.368  36.734  29.428  1.00  0.00     0.020 A 
ATOM     62  C   UNL A   1      46.677  36.109  31.761  1.00  0.00     0.020 A 
ATOM     63  C   UNL A   1      46.811  37.032  30.721  1.00  0.00     0.054 A 
BRANCH  63  64
ATOM     64  S   UNL A   1      47.512  38.672  31.039  1.00  0.00     0.124 S 
ATOM     65  O   UNL A   1      48.890  38.506  30.586  1.00  0.00    -0.237 OA
ATOM     66  O   UNL A   1      46.678  39.541  30.212  1.00  0.00    -0.237 OA
ATOM     67  O   UNL A   1      47.347  38.846  32.480  1.00  0.00    -0.744 OA
ENDBRANCH  63  64
ENDBRANCH  37  58
ENDBRANCH  11  12
ENDBRANCH   4   6
ENDBRANCH   3   4
ENDBRANCH   2   3
ENDBRANCH   1   2
BRANCH   1  68
ATOM     68  O   UNL A   1      34.284  23.623  25.686  1.00  0.00    -0.374 OA
BRANCH  68  69
ATOM     69  C   UNL A   1      34.393  24.860  24.972  1.00  0.00     0.202 C 
BRANCH  69  70
ATOM     70  C   UNL A   1      34.229  24.600  23.481  1.00  0.00     0.261 C 
BRANCH  70  71
ATOM     71  O   UNL A   1      32.835  24.769  23.209  1.00  0.00    -0.463 OA
BRANCH  71  72
ATOM     72  C   UNL A   1      32.516  25.936  22.600  1.00  0.00     0.310 C 
ATOM     73  O   UNL A   1      33.251  26.610  21.904  1.00  0.00    -0.252 OA
BRANCH  72  74
ATOM     74  C   UNL A   1      31.105  26.324  22.781  1.00  0.00     0.115 C 
ATOM     75  C   UNL A   1      30.226  25.934  23.931  1.00  0.00     0.034 C 
ATOM     76  C   UNL A   1      30.592  27.399  23.741  1.00  0.00     0.034 C 
BRANCH  76  77
ATOM     77  C   UNL A   1      31.346  27.962  24.965  1.00  0.00    -0.037 A 
ATOM     78  C   UNL A   1      32.228  29.052  24.814  1.00  0.00     0.004 A 
ATOM     79  C   UNL A   1      31.280  27.368  26.237  1.00  0.00     0.004 A 
ATOM     80  C   UNL A   1      33.035  29.495  25.863  1.00  0.00     0.000 A 
ATOM     81  C   UNL A   1      32.081  27.810  27.292  1.00  0.00     0.000 A 
ATOM     82  C   UNL A   1      32.971  28.862  27.100  1.00  0.00     0.000 A 
ENDBRANCH  76  77
BRANCH  76  83
ATOM     83  C   UNL A   1      29.664  28.396  23.032  1.00  0.00    -0.037 A 
ATOM     84  C   UNL A   1      28.275  28.347  23.258  1.00  0.00     0.004 A 
ATOM     85  C   UNL A   1      30.136  29.445  22.221  1.00  0.00     0.004 A 
ATOM     86  C   UNL A   1      27.403  29.281  22.710  1.00  0.00     0.000 A 
ATOM     87  C   UNL A   1      29.270  30.398  21.684  1.00  0.00     0.000 A 
ATOM     88  C   UNL A   1      27.903  30.313  21.928  1.00  0.00     0.000 A 
ENDBRANCH  76  83
ENDBRANCH  72  74
ENDBRANCH  71  72
ENDBRANCH  70  71
ENDBRANCH  69  70
ENDBRANCH  68  69
ENDBRANCH   1  68
TORSDOF 19
ENDMDL
