MODEL 1
REMARK VINA RESULT:     -10.3      0.000      0.000
REMARK SMILES COc1ncccc1C(=O)N[C@@](C)(C(=O)OCCOCCOC(=O)c1ccc(-c2c3nc(c(-c4ccc(S(=O)(=O)[O-])cc4)c4ccc([nH]4)c(-c4ccc(S(=O)(=O)[O-])cc4)c4nc(c(-c5ccc(S(=O)(=O)[O-])cc5)c5ccc2[nH]5)C=C4)C=C3)cc1)C(F)(F)F
REMARK SMILES IDX 19 1 18 2 17 3 16 4 14 5 15 6 12 7 13 8 11 9 9 10 10 11 8 13
REMARK SMILES IDX 3 14 4 15 5 16 7 17 6 18 2 19 1 20 85 21 86 22 87 23 88 24
REMARK SMILES IDX 20 25 21 26 22 27 23 28 24 29 25 30 26 31 84 32 27 33 83 34
REMARK SMILES IDX 28 35 29 36 30 37 77 38 31 39 82 40 76 41 78 42 32 43 81 44
REMARK SMILES IDX 75 45 74 46 33 48 63 49 44 50 62 51 45 52 48 53 61 54 79 55
REMARK SMILES IDX 46 56 47 57 60 59 80 60 49 61 34 62 35 63 43 64 36 65 42 66
REMARK SMILES IDX 37 67 38 68 39 69 40 70 41 71 64 72 65 73 73 74 66 75 72 76
REMARK SMILES IDX 67 77 68 78 69 79 70 80 71 81 50 82 51 83 59 84 52 85 58 86
REMARK SMILES IDX 53 87 54 88 55 89 56 90 57 91
REMARK H PARENT 11 12 78 47 48 58
REMARK Flexibility Score: inf
ROOT
ATOM      1  O   UNL A   1      38.322  21.739  25.403  1.00  0.00    -0.374 OA
ENDROOT
BRANCH   1   2
ATOM      2  C   UNL A   1      36.953  21.556  25.748  1.00  0.00     0.202 C 
BRANCH   2   3
ATOM      3  C   UNL A   1      35.889  22.158  24.817  1.00  0.00     0.261 C 
BRANCH   3   4
ATOM      4  O   UNL A   1      34.848  22.851  25.522  1.00  0.00    -0.461 OA
BRANCH   4   5
ATOM      5  C   UNL A   1      33.690  23.072  24.823  1.00  0.00     0.341 C 
ATOM      6  O   UNL A   1      33.049  22.183  24.278  1.00  0.00    -0.249 OA
BRANCH   5   7
ATOM      7  C   UNL A   1      33.336  24.571  24.744  1.00  0.00     0.231 C 
ATOM      8  C   UNL A   1      34.376  25.318  25.592  1.00  0.00     0.058 C 
BRANCH   7   9
ATOM      9  N   UNL A   1      31.989  24.796  25.407  1.00  0.00    -0.329 N 
ATOM     10  C   UNL A   1      31.187  25.706  26.036  1.00  0.00     0.257 C 
ATOM     11  O   UNL A   1      30.194  25.193  26.558  1.00  0.00    -0.269 OA
ATOM     12  H   UNL A   1      31.496  23.946  25.368  1.00  0.00     0.165 HD
BRANCH  10  13
ATOM     13  C   UNL A   1      31.332  27.182  26.094  1.00  0.00     0.101 A 
ATOM     14  C   UNL A   1      31.186  27.961  24.938  1.00  0.00     0.226 A 
ATOM     15  N   UNL A   1      31.354  29.312  24.887  1.00  0.00    -0.221 NA
ATOM     16  C   UNL A   1      31.713  29.928  26.027  1.00  0.00     0.115 A 
ATOM     17  C   UNL A   1      31.788  27.861  27.220  1.00  0.00     0.021 A 
ATOM     18  C   UNL A   1      31.950  29.250  27.205  1.00  0.00     0.021 A 
BRANCH  14  19
ATOM     19  O   UNL A   1      31.069  27.369  23.706  1.00  0.00    -0.480 OA
ATOM     20  C   UNL A   1      29.811  27.647  23.112  1.00  0.00     0.280 C 
ENDBRANCH  14  19
ENDBRANCH  10  13
ENDBRANCH   7   9
BRANCH   7  21
ATOM     21  C   UNL A   1      33.547  24.918  23.270  1.00  0.00     0.422 C 
ATOM     22  F   UNL A   1      33.867  26.219  23.087  1.00  0.00    -0.168 F 
ATOM     23  F   UNL A   1      34.546  24.172  22.737  1.00  0.00    -0.168 F 
ATOM     24  F   UNL A   1      32.460  24.668  22.505  1.00  0.00    -0.168 F 
ENDBRANCH   7  21
ENDBRANCH   5   7
ENDBRANCH   4   5
ENDBRANCH   3   4
ENDBRANCH   2   3
ENDBRANCH   1   2
BRANCH   1  25
ATOM     25  C   UNL A   1      39.268  21.853  26.467  1.00  0.00     0.202 C 
BRANCH  25  26
ATOM     26  C   UNL A   1      40.246  23.037  26.466  1.00  0.00     0.261 C 
BRANCH  26  27
ATOM     27  O   UNL A   1      39.589  24.318  26.456  1.00  0.00    -0.460 OA
BRANCH  27  28
ATOM     28  C   UNL A   1      40.426  25.373  26.274  1.00  0.00     0.338 C 
ATOM     29  O   UNL A   1      40.875  25.785  25.219  1.00  0.00    -0.246 OA
BRANCH  28  30
ATOM     30  C   UNL A   1      40.584  26.124  27.532  1.00  0.00     0.060 A 
ATOM     31  C   UNL A   1      39.558  26.019  28.482  1.00  0.00     0.016 A 
ATOM     32  C   UNL A   1      41.647  27.006  27.729  1.00  0.00     0.016 A 
ATOM     33  C   UNL A   1      39.571  26.828  29.615  1.00  0.00     0.010 A 
ATOM     34  C   UNL A   1      41.650  27.828  28.862  1.00  0.00     0.010 A 
ATOM     35  C   UNL A   1      40.595  27.767  29.793  1.00  0.00    -0.014 A 
BRANCH  35  36
ATOM     36  C   UNL A   1      40.477  28.776  30.874  1.00  0.00     0.031 A 
ATOM     37  C   UNL A   1      41.363  28.656  32.086  1.00  0.00     0.074 A 
ATOM     38  C   UNL A   1      39.617  29.806  30.763  1.00  0.00     0.049 A 
ATOM     39  N   UNL A   1      41.413  29.413  33.151  1.00  0.00    -0.248 NA
ATOM     40  C   UNL A   1      42.322  27.536  32.099  1.00  0.00     0.031 C 
ATOM     41  C   UNL A   1      38.738  30.055  29.621  1.00  0.00     0.029 A 
ATOM     42  N   UNL A   1      39.341  30.834  31.630  1.00  0.00    -0.354 N 
ATOM     43  C   UNL A   1      42.392  28.856  33.966  1.00  0.00     0.074 A 
ATOM     44  C   UNL A   1      42.903  27.689  33.281  1.00  0.00     0.031 C 
ATOM     45  C   UNL A   1      38.010  31.160  29.863  1.00  0.00     0.029 A 
ATOM     46  C   UNL A   1      38.348  31.676  31.187  1.00  0.00     0.049 A 
ATOM     47  H   UNL A   1      39.809  30.957  32.487  1.00  0.00     0.167 HD
ATOM     48  C   UNL A   1      42.827  29.280  35.177  1.00  0.00     0.031 A 
ATOM     49  C   UNL A   1      37.762  32.729  31.792  1.00  0.00     0.031 A 
ATOM     50  C   UNL A   1      42.323  30.444  35.855  1.00  0.00     0.049 A 
ATOM     51  C   UNL A   1      38.226  33.143  33.165  1.00  0.00     0.074 A 
ATOM     52  C   UNL A   1      42.727  30.972  37.069  1.00  0.00     0.029 A 
ATOM     53  N   UNL A   1      41.303  31.255  35.385  1.00  0.00    -0.354 N 
ATOM     54  N   UNL A   1      39.183  32.629  33.903  1.00  0.00    -0.248 NA
ATOM     55  C   UNL A   1      37.538  34.284  33.786  1.00  0.00     0.031 C 
ATOM     56  C   UNL A   1      41.911  32.070  37.360  1.00  0.00     0.029 A 
ATOM     57  C   UNL A   1      41.042  32.261  36.299  1.00  0.00     0.049 A 
ATOM     58  H   UNL A   1      40.833  31.135  34.528  1.00  0.00     0.167 HD
ATOM     59  C   UNL A   1      39.230  33.406  35.057  1.00  0.00     0.074 A 
ATOM     60  C   UNL A   1      38.217  34.430  34.915  1.00  0.00     0.031 C 
ATOM     61  C   UNL A   1      40.039  33.282  36.138  1.00  0.00     0.031 A 
BRANCH  48  62
ATOM     62  C   UNL A   1      43.887  28.469  35.872  1.00  0.00    -0.014 A 
ATOM     63  C   UNL A   1      45.250  28.786  35.744  1.00  0.00     0.010 A 
ATOM     64  C   UNL A   1      43.503  27.432  36.741  1.00  0.00     0.010 A 
ATOM     65  C   UNL A   1      46.211  28.071  36.466  1.00  0.00     0.020 A 
ATOM     66  C   UNL A   1      44.458  26.730  37.481  1.00  0.00     0.020 A 
ATOM     67  C   UNL A   1      45.808  27.051  37.334  1.00  0.00     0.054 A 
BRANCH  67  68
ATOM     68  S   UNL A   1      47.070  26.188  38.310  1.00  0.00     0.124 S 
ATOM     69  O   UNL A   1      48.289  26.490  37.564  1.00  0.00    -0.237 OA
ATOM     70  O   UNL A   1      46.958  26.830  39.617  1.00  0.00    -0.237 OA
ATOM     71  O   UNL A   1      46.646  24.790  38.269  1.00  0.00    -0.744 OA
ENDBRANCH  67  68
ENDBRANCH  48  62
BRANCH  49  72
ATOM     72  C   UNL A   1      36.639  33.449  31.131  1.00  0.00    -0.014 A 
ATOM     73  C   UNL A   1      35.368  33.515  31.729  1.00  0.00     0.010 A 
ATOM     74  C   UNL A   1      36.828  34.036  29.865  1.00  0.00     0.010 A 
ATOM     75  C   UNL A   1      34.299  34.119  31.058  1.00  0.00     0.020 A 
ATOM     76  C   UNL A   1      35.770  34.667  29.205  1.00  0.00     0.020 A 
ATOM     77  C   UNL A   1      34.507  34.686  29.798  1.00  0.00     0.054 A 
BRANCH  77  78
ATOM     78  S   UNL A   1      33.111  35.472  28.945  1.00  0.00     0.124 S 
ATOM     79  O   UNL A   1      32.557  34.359  28.181  1.00  0.00    -0.237 OA
ATOM     80  O   UNL A   1      32.290  35.950  30.055  1.00  0.00    -0.237 OA
ATOM     81  O   UNL A   1      33.746  36.523  28.153  1.00  0.00    -0.744 OA
ENDBRANCH  77  78
ENDBRANCH  49  72
BRANCH  61  82
ATOM     82  C   UNL A   1      39.900  34.304  37.233  1.00  0.00    -0.014 A 
ATOM     83  C   UNL A   1      40.545  35.551  37.157  1.00  0.00     0.010 A 
ATOM     84  C   UNL A   1      39.059  34.033  38.329  1.00  0.00     0.010 A 
ATOM     85  C   UNL A   1      40.377  36.496  38.173  1.00  0.00     0.020 A 
ATOM     86  C   UNL A   1      38.867  34.987  39.333  1.00  0.00     0.020 A 
ATOM     87  C   UNL A   1      39.539  36.207  39.255  1.00  0.00     0.054 A 
BRANCH  87  88
ATOM     88  S   UNL A   1      39.305  37.465  40.540  1.00  0.00     0.124 S 
ATOM     89  O   UNL A   1      38.260  38.303  39.959  1.00  0.00    -0.237 OA
ATOM     90  O   UNL A   1      38.901  36.671  41.698  1.00  0.00    -0.237 OA
ATOM     91  O   UNL A   1      40.618  38.096  40.652  1.00  0.00    -0.744 OA
ENDBRANCH  87  88
ENDBRANCH  61  82
ENDBRANCH  35  36
ENDBRANCH  28  30
ENDBRANCH  27  28
ENDBRANCH  26  27
ENDBRANCH  25  26
ENDBRANCH   1  25
TORSDOF 21
ENDMDL
MODEL 2
REMARK VINA RESULT:     -10.0      3.473      8.820
REMARK SMILES COc1ncccc1C(=O)N[C@@](C)(C(=O)OCCOCCOC(=O)c1ccc(-c2c3nc(c(-c4ccc(S(=O)(=O)[O-])cc4)c4ccc([nH]4)c(-c4ccc(S(=O)(=O)[O-])cc4)c4nc(c(-c5ccc(S(=O)(=O)[O-])cc5)c5ccc2[nH]5)C=C4)C=C3)cc1)C(F)(F)F
REMARK SMILES IDX 19 1 18 2 17 3 16 4 14 5 15 6 12 7 13 8 11 9 9 10 10 11 8 13
REMARK SMILES IDX 3 14 4 15 5 16 7 17 6 18 2 19 1 20 85 21 86 22 87 23 88 24
REMARK SMILES IDX 20 25 21 26 22 27 23 28 24 29 25 30 26 31 84 32 27 33 83 34
REMARK SMILES IDX 28 35 29 36 30 37 77 38 31 39 82 40 76 41 78 42 32 43 81 44
REMARK SMILES IDX 75 45 74 46 33 48 63 49 44 50 62 51 45 52 48 53 61 54 79 55
REMARK SMILES IDX 46 56 47 57 60 59 80 60 49 61 34 62 35 63 43 64 36 65 42 66
REMARK SMILES IDX 37 67 38 68 39 69 40 70 41 71 64 72 65 73 73 74 66 75 72 76
REMARK SMILES IDX 67 77 68 78 69 79 70 80 71 81 50 82 51 83 59 84 52 85 58 86
REMARK SMILES IDX 53 87 54 88 55 89 56 90 57 91
REMARK H PARENT 11 12 78 47 48 58
REMARK Flexibility Score: inf
ROOT
ATOM      1  O   UNL A   1      35.466  21.310  26.131  1.00  0.00    -0.374 OA
ENDROOT
BRANCH   1   2
ATOM      2  C   UNL A   1      34.095  21.612  25.896  1.00  0.00     0.202 C 
BRANCH   2   3
ATOM      3  C   UNL A   1      33.520  22.888  26.530  1.00  0.00     0.261 C 
BRANCH   3   4
ATOM      4  O   UNL A   1      32.818  23.719  25.593  1.00  0.00    -0.461 OA
BRANCH   4   5
ATOM      5  C   UNL A   1      33.596  24.481  24.763  1.00  0.00     0.341 C 
ATOM      6  O   UNL A   1      34.682  24.944  25.088  1.00  0.00    -0.249 OA
BRANCH   5   7
ATOM      7  C   UNL A   1      32.911  24.748  23.406  1.00  0.00     0.231 C 
ATOM      8  C   UNL A   1      33.637  25.942  22.770  1.00  0.00     0.058 C 
BRANCH   7   9
ATOM      9  N   UNL A   1      31.480  25.188  23.654  1.00  0.00    -0.329 N 
ATOM     10  C   UNL A   1      30.671  26.015  24.381  1.00  0.00     0.257 C 
ATOM     11  O   UNL A   1      29.472  25.755  24.249  1.00  0.00    -0.269 OA
ATOM     12  H   UNL A   1      30.903  24.672  23.046  1.00  0.00     0.165 HD
BRANCH  10  13
ATOM     13  C   UNL A   1      31.053  27.182  25.215  1.00  0.00     0.101 A 
ATOM     14  C   UNL A   1      31.317  28.426  24.626  1.00  0.00     0.226 A 
ATOM     15  N   UNL A   1      31.724  29.535  25.304  1.00  0.00    -0.221 NA
ATOM     16  C   UNL A   1      31.910  29.407  26.631  1.00  0.00     0.115 A 
ATOM     17  C   UNL A   1      31.346  27.088  26.572  1.00  0.00     0.021 A 
ATOM     18  C   UNL A   1      31.745  28.212  27.301  1.00  0.00     0.021 A 
BRANCH  14  19
ATOM     19  O   UNL A   1      31.389  28.553  23.262  1.00  0.00    -0.480 OA
ATOM     20  C   UNL A   1      30.380  29.418  22.765  1.00  0.00     0.280 C 
ENDBRANCH  14  19
ENDBRANCH  10  13
ENDBRANCH   7   9
BRANCH   7  21
ATOM     21  C   UNL A   1      33.210  23.488  22.594  1.00  0.00     0.422 C 
ATOM     22  F   UNL A   1      33.191  23.718  21.260  1.00  0.00    -0.168 F 
ATOM     23  F   UNL A   1      34.432  22.990  22.905  1.00  0.00    -0.168 F 
ATOM     24  F   UNL A   1      32.337  22.482  22.832  1.00  0.00    -0.168 F 
ENDBRANCH   7  21
ENDBRANCH   5   7
ENDBRANCH   4   5
ENDBRANCH   3   4
ENDBRANCH   2   3
ENDBRANCH   1   2
BRANCH   1  25
ATOM     25  C   UNL A   1      36.287  21.012  25.001  1.00  0.00     0.202 C 
BRANCH  25  26
ATOM     26  C   UNL A   1      37.701  21.608  24.935  1.00  0.00     0.261 C 
BRANCH  26  27
ATOM     27  O   UNL A   1      37.897  22.713  25.838  1.00  0.00    -0.460 OA
BRANCH  27  28
ATOM     28  C   UNL A   1      39.181  22.876  26.249  1.00  0.00     0.338 C 
ATOM     29  O   UNL A   1      40.133  22.155  26.004  1.00  0.00    -0.246 OA
BRANCH  28  30
ATOM     30  C   UNL A   1      39.349  24.191  26.893  1.00  0.00     0.060 A 
ATOM     31  C   UNL A   1      40.125  25.147  26.222  1.00  0.00     0.016 A 
ATOM     32  C   UNL A   1      38.864  24.444  28.177  1.00  0.00     0.016 A 
ATOM     33  C   UNL A   1      40.454  26.344  26.850  1.00  0.00     0.010 A 
ATOM     34  C   UNL A   1      39.208  25.644  28.811  1.00  0.00     0.010 A 
ATOM     35  C   UNL A   1      40.033  26.585  28.164  1.00  0.00    -0.014 A 
BRANCH  35  36
ATOM     36  C   UNL A   1      40.578  27.750  28.902  1.00  0.00     0.031 A 
ATOM     37  C   UNL A   1      39.700  28.954  29.120  1.00  0.00     0.074 A 
ATOM     38  C   UNL A   1      41.828  27.724  29.403  1.00  0.00     0.049 A 
ATOM     39  N   UNL A   1      39.979  30.083  29.718  1.00  0.00    -0.248 NA
ATOM     40  C   UNL A   1      38.324  28.875  28.595  1.00  0.00     0.031 C 
ATOM     41  C   UNL A   1      42.759  26.601  29.296  1.00  0.00     0.029 A 
ATOM     42  N   UNL A   1      42.529  28.676  30.099  1.00  0.00    -0.354 N 
ATOM     43  C   UNL A   1      38.824  30.853  29.630  1.00  0.00     0.074 A 
ATOM     44  C   UNL A   1      37.845  30.071  28.909  1.00  0.00     0.031 C 
ATOM     45  C   UNL A   1      43.915  26.934  29.896  1.00  0.00     0.029 A 
ATOM     46  C   UNL A   1      43.818  28.302  30.400  1.00  0.00     0.049 A 
ATOM     47  H   UNL A   1      42.146  29.545  30.360  1.00  0.00     0.167 HD
ATOM     48  C   UNL A   1      38.601  32.101  30.109  1.00  0.00     0.031 A 
ATOM     49  C   UNL A   1      44.813  28.994  30.992  1.00  0.00     0.031 A 
ATOM     50  C   UNL A   1      39.574  32.875  30.831  1.00  0.00     0.049 A 
ATOM     51  C   UNL A   1      44.553  30.402  31.463  1.00  0.00     0.074 A 
ATOM     52  C   UNL A   1      39.428  34.135  31.386  1.00  0.00     0.029 A 
ATOM     53  N   UNL A   1      40.873  32.470  31.093  1.00  0.00    -0.354 N 
ATOM     54  N   UNL A   1      43.442  31.099  31.408  1.00  0.00    -0.248 NA
ATOM     55  C   UNL A   1      45.679  31.116  32.082  1.00  0.00     0.031 C 
ATOM     56  C   UNL A   1      40.657  34.516  31.934  1.00  0.00     0.029 A 
ATOM     57  C   UNL A   1      41.548  33.468  31.775  1.00  0.00     0.049 A 
ATOM     58  H   UNL A   1      41.259  31.603  30.835  1.00  0.00     0.167 HD
ATOM     59  C   UNL A   1      43.730  32.318  32.015  1.00  0.00     0.074 A 
ATOM     60  C   UNL A   1      45.112  32.259  32.440  1.00  0.00     0.031 C 
ATOM     61  C   UNL A   1      42.921  33.390  32.203  1.00  0.00     0.031 A 
BRANCH  48  62
ATOM     62  C   UNL A   1      37.260  32.730  29.847  1.00  0.00    -0.014 A 
ATOM     63  C   UNL A   1      36.208  32.620  30.773  1.00  0.00     0.010 A 
ATOM     64  C   UNL A   1      37.082  33.522  28.698  1.00  0.00     0.010 A 
ATOM     65  C   UNL A   1      34.998  33.284  30.548  1.00  0.00     0.020 A 
ATOM     66  C   UNL A   1      35.882  34.204  28.480  1.00  0.00     0.020 A 
ATOM     67  C   UNL A   1      34.845  34.075  29.405  1.00  0.00     0.054 A 
BRANCH  67  68
ATOM     68  S   UNL A   1      33.290  34.980  29.174  1.00  0.00     0.124 S 
ATOM     69  O   UNL A   1      32.598  34.148  28.193  1.00  0.00    -0.237 OA
ATOM     70  O   UNL A   1      32.715  34.977  30.518  1.00  0.00    -0.237 OA
ATOM     71  O   UNL A   1      33.718  36.289  28.688  1.00  0.00    -0.744 OA
ENDBRANCH  67  68
ENDBRANCH  48  62
BRANCH  49  72
ATOM     72  C   UNL A   1      46.165  28.389  31.142  1.00  0.00    -0.014 A 
ATOM     73  C   UNL A   1      47.120  28.488  30.115  1.00  0.00     0.010 A 
ATOM     74  C   UNL A   1      46.487  27.664  32.304  1.00  0.00     0.010 A 
ATOM     75  C   UNL A   1      48.355  27.842  30.230  1.00  0.00     0.020 A 
ATOM     76  C   UNL A   1      47.731  27.043  32.437  1.00  0.00     0.020 A 
ATOM     77  C   UNL A   1      48.650  27.119  31.389  1.00  0.00     0.054 A 
BRANCH  77  78
ATOM     78  S   UNL A   1      50.261  26.294  31.527  1.00  0.00     0.124 S 
ATOM     79  O   UNL A   1      51.153  27.265  30.902  1.00  0.00    -0.237 OA
ATOM     80  O   UNL A   1      50.411  26.131  32.971  1.00  0.00    -0.237 OA
ATOM     81  O   UNL A   1      50.069  25.050  30.784  1.00  0.00    -0.744 OA
ENDBRANCH  77  78
ENDBRANCH  49  72
BRANCH  61  82
ATOM     82  C   UNL A   1      43.492  34.572  32.941  1.00  0.00    -0.014 A 
ATOM     83  C   UNL A   1      43.530  34.608  34.346  1.00  0.00     0.010 A 
ATOM     84  C   UNL A   1      44.054  35.636  32.213  1.00  0.00     0.010 A 
ATOM     85  C   UNL A   1      44.091  35.703  35.009  1.00  0.00     0.020 A 
ATOM     86  C   UNL A   1      44.641  36.720  32.872  1.00  0.00     0.020 A 
ATOM     87  C   UNL A   1      44.642  36.752  34.267  1.00  0.00     0.054 A 
BRANCH  87  88
ATOM     88  S   UNL A   1      45.402  38.142  35.150  1.00  0.00     0.124 S 
ATOM     89  O   UNL A   1      44.749  38.070  36.453  1.00  0.00    -0.237 OA
ATOM     90  O   UNL A   1      46.821  37.794  35.138  1.00  0.00    -0.237 OA
ATOM     91  O   UNL A   1      45.046  39.305  34.338  1.00  0.00    -0.744 OA
ENDBRANCH  87  88
ENDBRANCH  61  82
ENDBRANCH  35  36
ENDBRANCH  28  30
ENDBRANCH  27  28
ENDBRANCH  26  27
ENDBRANCH  25  26
ENDBRANCH   1  25
TORSDOF 21
ENDMDL
MODEL 3
REMARK VINA RESULT:      -9.9      2.256      8.709
REMARK SMILES COc1ncccc1C(=O)N[C@@](C)(C(=O)OCCOCCOC(=O)c1ccc(-c2c3nc(c(-c4ccc(S(=O)(=O)[O-])cc4)c4ccc([nH]4)c(-c4ccc(S(=O)(=O)[O-])cc4)c4nc(c(-c5ccc(S(=O)(=O)[O-])cc5)c5ccc2[nH]5)C=C4)C=C3)cc1)C(F)(F)F
REMARK SMILES IDX 19 1 18 2 17 3 16 4 14 5 15 6 12 7 13 8 11 9 9 10 10 11 8 13
REMARK SMILES IDX 3 14 4 15 5 16 7 17 6 18 2 19 1 20 85 21 86 22 87 23 88 24
REMARK SMILES IDX 20 25 21 26 22 27 23 28 24 29 25 30 26 31 84 32 27 33 83 34
REMARK SMILES IDX 28 35 29 36 30 37 77 38 31 39 82 40 76 41 78 42 32 43 81 44
REMARK SMILES IDX 75 45 74 46 33 48 63 49 44 50 62 51 45 52 48 53 61 54 79 55
REMARK SMILES IDX 46 56 47 57 60 59 80 60 49 61 34 62 35 63 43 64 36 65 42 66
REMARK SMILES IDX 37 67 38 68 39 69 40 70 41 71 64 72 65 73 73 74 66 75 72 76
REMARK SMILES IDX 67 77 68 78 69 79 70 80 71 81 50 82 51 83 59 84 52 85 58 86
REMARK SMILES IDX 53 87 54 88 55 89 56 90 57 91
REMARK H PARENT 11 12 78 47 48 58
REMARK Flexibility Score: inf
ROOT
ATOM      1  O   UNL A   1      41.925  21.681  26.658  1.00  0.00    -0.374 OA
ENDROOT
BRANCH   1   2
ATOM      2  C   UNL A   1      40.595  21.454  26.203  1.00  0.00     0.202 C 
BRANCH   2   3
ATOM      3  C   UNL A   1      39.501  22.433  26.655  1.00  0.00     0.261 C 
BRANCH   3   4
ATOM      4  O   UNL A   1      38.295  22.329  25.884  1.00  0.00    -0.461 OA
BRANCH   4   5
ATOM      5  C   UNL A   1      37.487  23.435  25.875  1.00  0.00     0.341 C 
ATOM      6  O   UNL A   1      37.794  24.501  26.390  1.00  0.00    -0.249 OA
BRANCH   5   7
ATOM      7  C   UNL A   1      36.123  23.153  25.210  1.00  0.00     0.231 C 
ATOM      8  C   UNL A   1      35.371  24.491  25.158  1.00  0.00     0.058 C 
BRANCH   7   9
ATOM      9  N   UNL A   1      35.316  22.233  26.108  1.00  0.00    -0.329 N 
ATOM     10  C   UNL A   1      34.297  21.324  26.157  1.00  0.00     0.257 C 
ATOM     11  O   UNL A   1      33.959  21.042  27.309  1.00  0.00    -0.269 OA
ATOM     12  H   UNL A   1      35.669  22.329  27.021  1.00  0.00     0.165 HD
BRANCH  10  13
ATOM     13  C   UNL A   1      33.634  20.618  25.032  1.00  0.00     0.101 A 
ATOM     14  C   UNL A   1      32.856  21.323  24.104  1.00  0.00     0.226 A 
ATOM     15  N   UNL A   1      32.170  20.753  23.075  1.00  0.00    -0.221 NA
ATOM     16  C   UNL A   1      32.227  19.413  22.969  1.00  0.00     0.115 A 
ATOM     17  C   UNL A   1      33.585  19.232  24.924  1.00  0.00     0.021 A 
ATOM     18  C   UNL A   1      32.907  18.616  23.867  1.00  0.00     0.021 A 
BRANCH  14  19
ATOM     19  O   UNL A   1      32.556  22.646  24.305  1.00  0.00    -0.480 OA
ATOM     20  C   UNL A   1      31.789  23.175  23.235  1.00  0.00     0.280 C 
ENDBRANCH  14  19
ENDBRANCH  10  13
ENDBRANCH   7   9
BRANCH   7  21
ATOM     21  C   UNL A   1      36.492  22.729  23.789  1.00  0.00     0.422 C 
ATOM     22  F   UNL A   1      35.427  22.740  22.955  1.00  0.00    -0.168 F 
ATOM     23  F   UNL A   1      37.429  23.557  23.265  1.00  0.00    -0.168 F 
ATOM     24  F   UNL A   1      37.029  21.489  23.726  1.00  0.00    -0.168 F 
ENDBRANCH   7  21
ENDBRANCH   5   7
ENDBRANCH   4   5
ENDBRANCH   3   4
ENDBRANCH   2   3
ENDBRANCH   1   2
BRANCH   1  25
ATOM     25  C   UNL A   1      42.916  22.013  25.685  1.00  0.00     0.202 C 
BRANCH  25  26
ATOM     26  C   UNL A   1      42.912  23.421  25.073  1.00  0.00     0.261 C 
BRANCH  26  27
ATOM     27  O   UNL A   1      42.336  24.417  25.938  1.00  0.00    -0.460 OA
BRANCH  27  28
ATOM     28  C   UNL A   1      43.185  25.420  26.279  1.00  0.00     0.338 C 
ATOM     29  O   UNL A   1      44.244  25.705  25.745  1.00  0.00    -0.246 OA
BRANCH  28  30
ATOM     30  C   UNL A   1      42.566  26.294  27.291  1.00  0.00     0.060 A 
ATOM     31  C   UNL A   1      43.038  27.610  27.386  1.00  0.00     0.016 A 
ATOM     32  C   UNL A   1      41.633  25.806  28.207  1.00  0.00     0.016 A 
ATOM     33  C   UNL A   1      42.610  28.432  28.426  1.00  0.00     0.010 A 
ATOM     34  C   UNL A   1      41.215  26.630  29.258  1.00  0.00     0.010 A 
ATOM     35  C   UNL A   1      41.727  27.934  29.393  1.00  0.00    -0.014 A 
BRANCH  35  36
ATOM     36  C   UNL A   1      41.460  28.733  30.614  1.00  0.00     0.031 A 
ATOM     37  C   UNL A   1      40.292  29.683  30.626  1.00  0.00     0.074 A 
ATOM     38  C   UNL A   1      42.227  28.589  31.711  1.00  0.00     0.049 A 
ATOM     39  N   UNL A   1      39.890  30.487  31.575  1.00  0.00    -0.248 NA
ATOM     40  C   UNL A   1      39.465  29.733  29.407  1.00  0.00     0.031 C 
ATOM     41  C   UNL A   1      43.359  27.671  31.838  1.00  0.00     0.029 A 
ATOM     42  N   UNL A   1      42.169  29.220  32.929  1.00  0.00    -0.354 N 
ATOM     43  C   UNL A   1      38.777  31.148  31.067  1.00  0.00     0.074 A 
ATOM     44  C   UNL A   1      38.573  30.663  29.720  1.00  0.00     0.031 C 
ATOM     45  C   UNL A   1      43.897  27.808  33.063  1.00  0.00     0.029 A 
ATOM     46  C   UNL A   1      43.169  28.843  33.793  1.00  0.00     0.049 A 
ATOM     47  H   UNL A   1      41.477  29.881  33.161  1.00  0.00     0.167 HD
ATOM     48  C   UNL A   1      37.995  32.075  31.670  1.00  0.00     0.031 A 
ATOM     49  C   UNL A   1      43.477  29.299  35.025  1.00  0.00     0.031 A 
ATOM     50  C   UNL A   1      38.195  32.552  33.013  1.00  0.00     0.049 A 
ATOM     51  C   UNL A   1      42.623  30.374  35.648  1.00  0.00     0.074 A 
ATOM     52  C   UNL A   1      37.433  33.465  33.721  1.00  0.00     0.029 A 
ATOM     53  N   UNL A   1      39.232  32.163  33.845  1.00  0.00    -0.354 N 
ATOM     54  N   UNL A   1      41.550  30.956  35.168  1.00  0.00    -0.248 NA
ATOM     55  C   UNL A   1      43.018  30.847  36.983  1.00  0.00     0.031 C 
ATOM     56  C   UNL A   1      38.043  33.671  34.963  1.00  0.00     0.029 A 
ATOM     57  C   UNL A   1      39.147  32.840  35.049  1.00  0.00     0.049 A 
ATOM     58  H   UNL A   1      39.925  31.503  33.616  1.00  0.00     0.167 HD
ATOM     59  C   UNL A   1      41.125  31.840  36.157  1.00  0.00     0.074 A 
ATOM     60  C   UNL A   1      42.047  31.705  37.264  1.00  0.00     0.031 C 
ATOM     61  C   UNL A   1      40.066  32.687  36.148  1.00  0.00     0.031 A 
BRANCH  48  62
ATOM     62  C   UNL A   1      36.859  32.666  30.880  1.00  0.00    -0.014 A 
ATOM     63  C   UNL A   1      35.525  32.303  31.136  1.00  0.00     0.010 A 
ATOM     64  C   UNL A   1      37.128  33.668  29.930  1.00  0.00     0.010 A 
ATOM     65  C   UNL A   1      34.481  32.927  30.446  1.00  0.00     0.020 A 
ATOM     66  C   UNL A   1      36.085  34.309  29.255  1.00  0.00     0.020 A 
ATOM     67  C   UNL A   1      34.768  33.929  29.514  1.00  0.00     0.054 A 
BRANCH  67  68
ATOM     68  S   UNL A   1      33.390  34.770  28.686  1.00  0.00     0.124 S 
ATOM     69  O   UNL A   1      32.882  33.722  27.805  1.00  0.00    -0.237 OA
ATOM     70  O   UNL A   1      32.517  35.129  29.802  1.00  0.00    -0.237 OA
ATOM     71  O   UNL A   1      34.026  35.898  28.010  1.00  0.00    -0.744 OA
ENDBRANCH  67  68
ENDBRANCH  48  62
BRANCH  49  72
ATOM     72  C   UNL A   1      44.672  28.777  35.744  1.00  0.00    -0.014 A 
ATOM     73  C   UNL A   1      44.563  27.704  36.646  1.00  0.00     0.010 A 
ATOM     74  C   UNL A   1      45.926  29.390  35.563  1.00  0.00     0.010 A 
ATOM     75  C   UNL A   1      45.674  27.280  37.381  1.00  0.00     0.020 A 
ATOM     76  C   UNL A   1      47.046  28.949  36.273  1.00  0.00     0.020 A 
ATOM     77  C   UNL A   1      46.908  27.909  37.193  1.00  0.00     0.054 A 
BRANCH  77  78
ATOM     78  S   UNL A   1      48.342  27.340  38.149  1.00  0.00     0.124 S 
ATOM     79  O   UNL A   1      49.340  28.355  37.829  1.00  0.00    -0.237 OA
ATOM     80  O   UNL A   1      47.836  27.358  39.519  1.00  0.00    -0.237 OA
ATOM     81  O   UNL A   1      48.604  26.009  37.607  1.00  0.00    -0.744 OA
ENDBRANCH  77  78
ENDBRANCH  49  72
BRANCH  61  82
ATOM     82  C   UNL A   1      39.815  33.501  37.389  1.00  0.00    -0.014 A 
ATOM     83  C   UNL A   1      40.429  34.750  37.581  1.00  0.00     0.010 A 
ATOM     84  C   UNL A   1      38.899  33.032  38.349  1.00  0.00     0.010 A 
ATOM     85  C   UNL A   1      40.157  35.502  38.728  1.00  0.00     0.020 A 
ATOM     86  C   UNL A   1      38.604  33.793  39.484  1.00  0.00     0.020 A 
ATOM     87  C   UNL A   1      39.247  35.017  39.673  1.00  0.00     0.054 A 
BRANCH  87  88
ATOM     88  S   UNL A   1      38.880  36.029  41.132  1.00  0.00     0.124 S 
ATOM     89  O   UNL A   1      37.717  35.346  41.692  1.00  0.00    -0.237 OA
ATOM     90  O   UNL A   1      40.108  35.923  41.915  1.00  0.00    -0.237 OA
ATOM     91  O   UNL A   1      38.614  37.356  40.577  1.00  0.00    -0.744 OA
ENDBRANCH  87  88
ENDBRANCH  61  82
ENDBRANCH  35  36
ENDBRANCH  28  30
ENDBRANCH  27  28
ENDBRANCH  26  27
ENDBRANCH  25  26
ENDBRANCH   1  25
TORSDOF 21
ENDMDL
