MODEL 1
REMARK VINA RESULT:     -10.5      0.000      0.000
REMARK SMILES CCc1cc(OC(F)(F)F)cc2c1O[C@@H](C(F)(F)F)C(C(=O)OCCOCCOC(=O)c1ccc(-c3c4nc(c(-c5ccc(S(=O)(=O)[O-])cc5)c5ccc([nH]5)c(-c5ccc(S(=O)(=O)[O-])cc5)c5nc(c(-c6ccc(S(=O)(=O)[O-])cc6)c6ccc3[nH]6)C=C5)C=C4)cc1)=C2
REMARK SMILES IDX 27 1 26 2 25 3 24 4 23 5 21 6 22 7 20 8 3 9 4 10 13 11 5 12
REMARK SMILES IDX 12 13 14 14 11 15 92 16 15 17 2 18 1 19 6 20 7 21 8 22 9 23
REMARK SMILES IDX 10 24 16 25 17 26 18 27 19 28 28 29 29 30 30 31 31 32 32 33
REMARK SMILES IDX 33 34 91 35 34 36 90 37 35 38 36 39 37 40 84 41 38 42 89 43
REMARK SMILES IDX 83 44 85 45 39 46 88 47 82 48 81 49 40 51 70 52 51 53 69 54
REMARK SMILES IDX 52 55 55 56 68 57 86 58 53 59 54 60 67 62 87 63 56 64 41 65
REMARK SMILES IDX 42 66 50 67 43 68 49 69 44 70 45 71 46 72 47 73 48 74 71 75
REMARK SMILES IDX 72 76 80 77 73 78 79 79 74 80 75 81 76 82 77 83 78 84 57 85
REMARK SMILES IDX 58 86 66 87 59 88 65 89 60 90 61 91 62 92 63 93 64 94
REMARK H PARENT 85 50 55 61
REMARK Flexibility Score: inf
ROOT
ATOM      1  C   UNL A   1      34.811  31.844  28.609  1.00  0.00     0.202 C 
ENDROOT
BRANCH   1   2
ATOM      2  O   UNL A   1      34.467  30.572  28.061  1.00  0.00    -0.374 OA
BRANCH   2   3
ATOM      3  C   UNL A   1      33.592  30.537  26.936  1.00  0.00     0.202 C 
BRANCH   3   4
ATOM      4  C   UNL A   1      32.198  29.935  27.138  1.00  0.00     0.261 C 
BRANCH   4   5
ATOM      5  O   UNL A   1      31.847  29.024  26.086  1.00  0.00    -0.460 OA
BRANCH   5   6
ATOM      6  C   UNL A   1      31.685  27.740  26.484  1.00  0.00     0.338 C 
ATOM      7  O   UNL A   1      30.979  27.343  27.395  1.00  0.00    -0.246 OA
BRANCH   6   8
ATOM      8  C   UNL A   1      32.384  26.818  25.576  1.00  0.00     0.087 C 
ATOM      9  C   UNL A   1      33.586  23.478  23.395  1.00  0.00    -0.002 A 
ATOM     10  C   UNL A   1      34.896  22.997  23.535  1.00  0.00     0.054 A 
ATOM     11  C   UNL A   1      33.204  24.602  24.136  1.00  0.00     0.131 A 
ATOM     12  C   UNL A   1      35.798  23.616  24.410  1.00  0.00     0.130 A 
ATOM     13  C   UNL A   1      34.092  25.233  25.023  1.00  0.00     0.021 A 
ATOM     14  O   UNL A   1      31.899  25.017  24.018  1.00  0.00    -0.475 OA
ATOM     15  C   UNL A   1      35.393  24.742  25.141  1.00  0.00     0.058 A 
ATOM     16  C   UNL A   1      33.581  26.296  25.896  1.00  0.00     0.027 C 
ATOM     17  C   UNL A   1      31.719  26.431  24.276  1.00  0.00     0.316 C 
BRANCH   9  18
ATOM     18  C   UNL A   1      32.603  22.768  22.492  1.00  0.00     0.036 C 
ATOM     19  C   UNL A   1      32.320  21.334  22.923  1.00  0.00     0.009 C 
ENDBRANCH   9  18
BRANCH  12  20
ATOM     20  O   UNL A   1      37.083  23.215  24.649  1.00  0.00    -0.406 OA
BRANCH  20  21
ATOM     21  C   UNL A   1      37.269  22.004  25.366  1.00  0.00     0.573 C 
ATOM     22  F   UNL A   1      36.290  21.814  26.278  1.00  0.00    -0.132 F 
ATOM     23  F   UNL A   1      37.306  20.947  24.526  1.00  0.00    -0.132 F 
ATOM     24  F   UNL A   1      38.448  22.059  26.021  1.00  0.00    -0.132 F 
ENDBRANCH  20  21
ENDBRANCH  12  20
BRANCH  17  25
ATOM     25  C   UNL A   1      30.243  26.784  24.039  1.00  0.00     0.430 C 
ATOM     26  F   UNL A   1      29.974  28.059  24.405  1.00  0.00    -0.167 F 
ATOM     27  F   UNL A   1      29.966  26.719  22.706  1.00  0.00    -0.167 F 
ATOM     28  F   UNL A   1      29.381  25.954  24.655  1.00  0.00    -0.167 F 
ENDBRANCH  17  25
ENDBRANCH   6   8
ENDBRANCH   5   6
ENDBRANCH   4   5
ENDBRANCH   3   4
ENDBRANCH   2   3
ENDBRANCH   1   2
BRANCH   1  29
ATOM     29  C   UNL A   1      35.018  31.951  30.125  1.00  0.00     0.261 C 
BRANCH  29  30
ATOM     30  O   UNL A   1      36.390  31.773  30.519  1.00  0.00    -0.460 OA
BRANCH  30  31
ATOM     31  C   UNL A   1      36.793  30.479  30.564  1.00  0.00     0.338 C 
ATOM     32  O   UNL A   1      36.100  29.498  30.776  1.00  0.00    -0.246 OA
BRANCH  31  33
ATOM     33  C   UNL A   1      38.196  30.371  30.124  1.00  0.00     0.060 A 
ATOM     34  C   UNL A   1      38.428  30.151  28.760  1.00  0.00     0.016 A 
ATOM     35  C   UNL A   1      39.256  30.390  31.033  1.00  0.00     0.016 A 
ATOM     36  C   UNL A   1      39.719  29.901  28.305  1.00  0.00     0.010 A 
ATOM     37  C   UNL A   1      40.552  30.128  30.573  1.00  0.00     0.010 A 
ATOM     38  C   UNL A   1      40.783  29.845  29.214  1.00  0.00    -0.014 A 
BRANCH  38  39
ATOM     39  C   UNL A   1      42.100  29.344  28.753  1.00  0.00     0.031 A 
ATOM     40  C   UNL A   1      43.264  30.296  28.693  1.00  0.00     0.074 A 
ATOM     41  C   UNL A   1      42.267  28.047  28.440  1.00  0.00     0.049 A 
ATOM     42  N   UNL A   1      44.503  30.065  28.343  1.00  0.00    -0.248 NA
ATOM     43  C   UNL A   1      42.998  31.691  29.081  1.00  0.00     0.031 C 
ATOM     44  C   UNL A   1      41.224  27.023  28.494  1.00  0.00     0.029 A 
ATOM     45  N   UNL A   1      43.383  27.369  28.017  1.00  0.00    -0.354 N 
ATOM     46  C   UNL A   1      45.162  31.284  28.459  1.00  0.00     0.074 A 
ATOM     47  C   UNL A   1      44.180  32.258  28.885  1.00  0.00     0.031 C 
ATOM     48  C   UNL A   1      41.751  25.845  28.116  1.00  0.00     0.029 A 
ATOM     49  C   UNL A   1      43.157  26.037  27.767  1.00  0.00     0.049 A 
ATOM     50  H   UNL A   1      44.262  27.797  27.905  1.00  0.00     0.167 HD
ATOM     51  C   UNL A   1      46.469  31.565  28.240  1.00  0.00     0.031 A 
ATOM     52  C   UNL A   1      43.985  25.084  27.293  1.00  0.00     0.031 A 
ATOM     53  C   UNL A   1      47.442  30.595  27.811  1.00  0.00     0.049 A 
ATOM     54  C   UNL A   1      45.420  25.436  27.000  1.00  0.00     0.074 A 
ATOM     55  C   UNL A   1      48.795  30.777  27.587  1.00  0.00     0.029 A 
ATOM     56  N   UNL A   1      47.165  29.265  27.534  1.00  0.00    -0.354 N 
ATOM     57  N   UNL A   1      46.036  26.584  27.153  1.00  0.00    -0.248 NA
ATOM     58  C   UNL A   1      46.274  24.359  26.479  1.00  0.00     0.031 C 
ATOM     59  C   UNL A   1      49.324  29.571  27.115  1.00  0.00     0.029 A 
ATOM     60  C   UNL A   1      48.314  28.622  27.108  1.00  0.00     0.049 A 
ATOM     61  H   UNL A   1      46.281  28.841  27.624  1.00  0.00     0.167 HD
ATOM     62  C   UNL A   1      47.355  26.361  26.771  1.00  0.00     0.074 A 
ATOM     63  C   UNL A   1      47.451  24.965  26.397  1.00  0.00     0.031 C 
ATOM     64  C   UNL A   1      48.394  27.232  26.734  1.00  0.00     0.031 A 
BRANCH  51  65
ATOM     65  C   UNL A   1      46.918  32.990  28.426  1.00  0.00    -0.014 A 
ATOM     66  C   UNL A   1      46.735  33.953  27.418  1.00  0.00     0.010 A 
ATOM     67  C   UNL A   1      47.489  33.383  29.651  1.00  0.00     0.010 A 
ATOM     68  C   UNL A   1      47.144  35.274  27.620  1.00  0.00     0.020 A 
ATOM     69  C   UNL A   1      47.876  34.709  29.866  1.00  0.00     0.020 A 
ATOM     70  C   UNL A   1      47.713  35.643  28.842  1.00  0.00     0.054 A 
BRANCH  70  71
ATOM     71  S   UNL A   1      48.208  37.372  29.087  1.00  0.00     0.124 S 
ATOM     72  O   UNL A   1      48.602  37.375  30.494  1.00  0.00    -0.237 OA
ATOM     73  O   UNL A   1      49.299  37.531  28.129  1.00  0.00    -0.237 OA
ATOM     74  O   UNL A   1      46.996  38.127  28.779  1.00  0.00    -0.744 OA
ENDBRANCH  70  71
ENDBRANCH  51  65
BRANCH  52  75
ATOM     75  C   UNL A   1      43.471  23.709  27.047  1.00  0.00    -0.014 A 
ATOM     76  C   UNL A   1      43.150  23.278  25.748  1.00  0.00     0.010 A 
ATOM     77  C   UNL A   1      43.296  22.820  28.124  1.00  0.00     0.010 A 
ATOM     78  C   UNL A   1      42.647  21.992  25.532  1.00  0.00     0.020 A 
ATOM     79  C   UNL A   1      42.820  21.525  27.910  1.00  0.00     0.020 A 
ATOM     80  C   UNL A   1      42.487  21.123  26.616  1.00  0.00     0.054 A 
BRANCH  80  81
ATOM     81  S   UNL A   1      41.876  19.441  26.309  1.00  0.00     0.124 S 
ATOM     82  O   UNL A   1      42.679  19.032  25.162  1.00  0.00    -0.237 OA
ATOM     83  O   UNL A   1      42.177  18.764  27.568  1.00  0.00    -0.237 OA
ATOM     84  O   UNL A   1      40.454  19.639  26.041  1.00  0.00    -0.744 OA
ENDBRANCH  80  81
ENDBRANCH  52  75
BRANCH  64  85
ATOM     85  C   UNL A   1      49.734  26.699  26.300  1.00  0.00    -0.014 A 
ATOM     86  C   UNL A   1      50.158  26.788  24.962  1.00  0.00     0.010 A 
ATOM     87  C   UNL A   1      50.605  26.147  27.259  1.00  0.00     0.010 A 
ATOM     88  C   UNL A   1      51.414  26.304  24.585  1.00  0.00     0.020 A 
ATOM     89  C   UNL A   1      51.873  25.691  26.891  1.00  0.00     0.020 A 
ATOM     90  C   UNL A   1      52.263  25.758  25.552  1.00  0.00     0.054 A 
BRANCH  90  91
ATOM     91  S   UNL A   1      53.904  25.173  25.044  1.00  0.00     0.124 S 
ATOM     92  O   UNL A   1      53.667  23.747  24.838  1.00  0.00    -0.237 OA
ATOM     93  O   UNL A   1      54.159  25.949  23.831  1.00  0.00    -0.237 OA
ATOM     94  O   UNL A   1      54.758  25.506  26.180  1.00  0.00    -0.744 OA
ENDBRANCH  90  91
ENDBRANCH  64  85
ENDBRANCH  38  39
ENDBRANCH  31  33
ENDBRANCH  30  31
ENDBRANCH  29  30
ENDBRANCH   1  29
TORSDOF 21
ENDMDL
MODEL 2
REMARK VINA RESULT:     -10.3      5.483      9.968
REMARK SMILES CCc1cc(OC(F)(F)F)cc2c1O[C@@H](C(F)(F)F)C(C(=O)OCCOCCOC(=O)c1ccc(-c3c4nc(c(-c5ccc(S(=O)(=O)[O-])cc5)c5ccc([nH]5)c(-c5ccc(S(=O)(=O)[O-])cc5)c5nc(c(-c6ccc(S(=O)(=O)[O-])cc6)c6ccc3[nH]6)C=C5)C=C4)cc1)=C2
REMARK SMILES IDX 27 1 26 2 25 3 24 4 23 5 21 6 22 7 20 8 3 9 4 10 13 11 5 12
REMARK SMILES IDX 12 13 14 14 11 15 92 16 15 17 2 18 1 19 6 20 7 21 8 22 9 23
REMARK SMILES IDX 10 24 16 25 17 26 18 27 19 28 28 29 29 30 30 31 31 32 32 33
REMARK SMILES IDX 33 34 91 35 34 36 90 37 35 38 36 39 37 40 84 41 38 42 89 43
REMARK SMILES IDX 83 44 85 45 39 46 88 47 82 48 81 49 40 51 70 52 51 53 69 54
REMARK SMILES IDX 52 55 55 56 68 57 86 58 53 59 54 60 67 62 87 63 56 64 41 65
REMARK SMILES IDX 42 66 50 67 43 68 49 69 44 70 45 71 46 72 47 73 48 74 71 75
REMARK SMILES IDX 72 76 80 77 73 78 79 79 74 80 75 81 76 82 77 83 78 84 57 85
REMARK SMILES IDX 58 86 66 87 59 88 65 89 60 90 61 91 62 92 63 93 64 94
REMARK H PARENT 85 50 55 61
REMARK Flexibility Score: inf
ROOT
ATOM      1  C   UNL A   1      33.313  31.413  27.411  1.00  0.00     0.202 C 
ENDROOT
BRANCH   1   2
ATOM      2  O   UNL A   1      33.055  30.539  26.313  1.00  0.00    -0.374 OA
BRANCH   2   3
ATOM      3  C   UNL A   1      31.703  30.357  25.899  1.00  0.00     0.202 C 
BRANCH   3   4
ATOM      4  C   UNL A   1      31.380  29.123  25.051  1.00  0.00     0.261 C 
BRANCH   4   5
ATOM      5  O   UNL A   1      32.374  28.097  25.193  1.00  0.00    -0.460 OA
BRANCH   5   6
ATOM      6  C   UNL A   1      31.997  27.052  25.966  1.00  0.00     0.338 C 
ATOM      7  O   UNL A   1      31.224  27.084  26.908  1.00  0.00    -0.246 OA
BRANCH   6   8
ATOM      8  C   UNL A   1      32.544  25.789  25.444  1.00  0.00     0.087 C 
ATOM      9  C   UNL A   1      33.233  21.777  24.564  1.00  0.00    -0.002 A 
ATOM     10  C   UNL A   1      34.471  21.201  24.891  1.00  0.00     0.054 A 
ATOM     11  C   UNL A   1      33.024  23.127  24.867  1.00  0.00     0.131 A 
ATOM     12  C   UNL A   1      35.468  21.954  25.523  1.00  0.00     0.130 A 
ATOM     13  C   UNL A   1      34.010  23.897  25.507  1.00  0.00     0.021 A 
ATOM     14  O   UNL A   1      31.784  23.648  24.584  1.00  0.00    -0.475 OA
ATOM     15  C   UNL A   1      35.235  23.306  25.816  1.00  0.00     0.058 A 
ATOM     16  C   UNL A   1      33.667  25.253  25.952  1.00  0.00     0.027 C 
ATOM     17  C   UNL A   1      31.803  25.075  24.339  1.00  0.00     0.316 C 
BRANCH   9  18
ATOM     18  C   UNL A   1      32.143  20.939  23.935  1.00  0.00     0.036 C 
ATOM     19  C   UNL A   1      32.096  21.058  22.417  1.00  0.00     0.009 C 
ENDBRANCH   9  18
BRANCH  12  20
ATOM     20  O   UNL A   1      36.692  21.490  25.916  1.00  0.00    -0.406 OA
BRANCH  20  21
ATOM     21  C   UNL A   1      37.666  21.275  24.906  1.00  0.00     0.573 C 
ATOM     22  F   UNL A   1      37.374  21.966  23.782  1.00  0.00    -0.132 F 
ATOM     23  F   UNL A   1      38.897  21.627  25.339  1.00  0.00    -0.132 F 
ATOM     24  F   UNL A   1      37.693  19.961  24.595  1.00  0.00    -0.132 F 
ENDBRANCH  20  21
ENDBRANCH  12  20
BRANCH  17  25
ATOM     25  C   UNL A   1      30.382  25.521  23.961  1.00  0.00     0.430 C 
ATOM     26  F   UNL A   1      30.400  26.648  23.210  1.00  0.00    -0.167 F 
ATOM     27  F   UNL A   1      29.797  24.569  23.181  1.00  0.00    -0.167 F 
ATOM     28  F   UNL A   1      29.571  25.706  25.020  1.00  0.00    -0.167 F 
ENDBRANCH  17  25
ENDBRANCH   6   8
ENDBRANCH   5   6
ENDBRANCH   4   5
ENDBRANCH   3   4
ENDBRANCH   2   3
ENDBRANCH   1   2
BRANCH   1  29
ATOM     29  C   UNL A   1      32.530  32.729  27.493  1.00  0.00     0.261 C 
BRANCH  29  30
ATOM     30  O   UNL A   1      33.373  33.872  27.715  1.00  0.00    -0.460 OA
BRANCH  30  31
ATOM     31  C   UNL A   1      33.585  34.163  29.023  1.00  0.00     0.338 C 
ATOM     32  O   UNL A   1      32.806  34.695  29.795  1.00  0.00    -0.246 OA
BRANCH  31  33
ATOM     33  C   UNL A   1      34.855  33.565  29.474  1.00  0.00     0.060 A 
ATOM     34  C   UNL A   1      34.785  32.565  30.453  1.00  0.00     0.016 A 
ATOM     35  C   UNL A   1      36.091  34.033  29.021  1.00  0.00     0.016 A 
ATOM     36  C   UNL A   1      35.952  32.062  31.020  1.00  0.00     0.010 A 
ATOM     37  C   UNL A   1      37.262  33.533  29.601  1.00  0.00     0.010 A 
ATOM     38  C   UNL A   1      37.196  32.574  30.628  1.00  0.00    -0.014 A 
BRANCH  38  39
ATOM     39  C   UNL A   1      38.404  32.204  31.405  1.00  0.00     0.031 A 
ATOM     40  C   UNL A   1      39.345  31.170  30.848  1.00  0.00     0.074 A 
ATOM     41  C   UNL A   1      38.684  32.819  32.569  1.00  0.00     0.049 A 
ATOM     42  N   UNL A   1      40.465  30.717  31.347  1.00  0.00    -0.248 NA
ATOM     43  C   UNL A   1      38.976  30.570  29.555  1.00  0.00     0.031 C 
ATOM     44  C   UNL A   1      37.868  33.861  33.191  1.00  0.00     0.029 A 
ATOM     45  N   UNL A   1      39.738  32.656  33.431  1.00  0.00    -0.354 N 
ATOM     46  C   UNL A   1      40.930  29.774  30.438  1.00  0.00     0.074 A 
ATOM     47  C   UNL A   1      39.957  29.699  29.370  1.00  0.00     0.031 C 
ATOM     48  C   UNL A   1      38.454  34.243  34.340  1.00  0.00     0.029 A 
ATOM     49  C   UNL A   1      39.666  33.455  34.547  1.00  0.00     0.049 A 
ATOM     50  H   UNL A   1      40.477  32.027  33.266  1.00  0.00     0.167 HD
ATOM     51  C   UNL A   1      42.070  29.043  30.484  1.00  0.00     0.031 A 
ATOM     52  C   UNL A   1      40.477  33.530  35.622  1.00  0.00     0.031 A 
ATOM     53  C   UNL A   1      43.033  29.116  31.551  1.00  0.00     0.049 A 
ATOM     54  C   UNL A   1      41.707  32.662  35.678  1.00  0.00     0.074 A 
ATOM     55  C   UNL A   1      44.230  28.434  31.675  1.00  0.00     0.029 A 
ATOM     56  N   UNL A   1      42.905  29.910  32.680  1.00  0.00    -0.354 N 
ATOM     57  N   UNL A   1      42.153  31.804  34.790  1.00  0.00    -0.248 NA
ATOM     58  C   UNL A   1      42.550  32.781  36.876  1.00  0.00     0.031 C 
ATOM     59  C   UNL A   1      44.797  28.771  32.909  1.00  0.00     0.029 A 
ATOM     60  C   UNL A   1      43.985  29.711  33.523  1.00  0.00     0.049 A 
ATOM     61  H   UNL A   1      42.156  30.524  32.857  1.00  0.00     0.167 HD
ATOM     62  C   UNL A   1      43.339  31.300  35.313  1.00  0.00     0.074 A 
ATOM     63  C   UNL A   1      43.550  31.962  36.584  1.00  0.00     0.031 C 
ATOM     64  C   UNL A   1      44.180  30.373  34.788  1.00  0.00     0.031 A 
BRANCH  51  65
ATOM     65  C   UNL A   1      42.321  28.070  29.362  1.00  0.00    -0.014 A 
ATOM     66  C   UNL A   1      41.781  26.772  29.383  1.00  0.00     0.010 A 
ATOM     67  C   UNL A   1      43.073  28.480  28.245  1.00  0.00     0.010 A 
ATOM     68  C   UNL A   1      42.014  25.892  28.322  1.00  0.00     0.020 A 
ATOM     69  C   UNL A   1      43.286  27.612  27.170  1.00  0.00     0.020 A 
ATOM     70  C   UNL A   1      42.766  26.318  27.223  1.00  0.00     0.054 A 
BRANCH  70  71
ATOM     71  S   UNL A   1      43.027  25.164  25.847  1.00  0.00     0.124 S 
ATOM     72  O   UNL A   1      44.456  24.881  25.959  1.00  0.00    -0.237 OA
ATOM     73  O   UNL A   1      42.139  24.055  26.186  1.00  0.00    -0.237 OA
ATOM     74  O   UNL A   1      42.637  25.935  24.669  1.00  0.00    -0.744 OA
ENDBRANCH  70  71
ENDBRANCH  51  65
BRANCH  52  75
ATOM     75  C   UNL A   1      40.140  34.447  36.744  1.00  0.00    -0.014 A 
ATOM     76  C   UNL A   1      39.356  34.010  37.826  1.00  0.00     0.010 A 
ATOM     77  C   UNL A   1      40.603  35.776  36.730  1.00  0.00     0.010 A 
ATOM     78  C   UNL A   1      39.027  34.888  38.863  1.00  0.00     0.020 A 
ATOM     79  C   UNL A   1      40.300  36.649  37.778  1.00  0.00     0.020 A 
ATOM     80  C   UNL A   1      39.503  36.202  38.832  1.00  0.00     0.054 A 
BRANCH  80  81
ATOM     81  S   UNL A   1      39.104  37.313  40.211  1.00  0.00     0.124 S 
ATOM     82  O   UNL A   1      40.429  37.683  40.696  1.00  0.00    -0.237 OA
ATOM     83  O   UNL A   1      38.351  38.376  39.549  1.00  0.00    -0.237 OA
ATOM     84  O   UNL A   1      38.319  36.471  41.111  1.00  0.00    -0.744 OA
ENDBRANCH  80  81
ENDBRANCH  52  75
BRANCH  64  85
ATOM     85  C   UNL A   1      45.422  30.038  35.571  1.00  0.00    -0.014 A 
ATOM     86  C   UNL A   1      46.578  30.832  35.485  1.00  0.00     0.010 A 
ATOM     87  C   UNL A   1      45.411  28.938  36.450  1.00  0.00     0.010 A 
ATOM     88  C   UNL A   1      47.713  30.514  36.237  1.00  0.00     0.020 A 
ATOM     89  C   UNL A   1      46.533  28.634  37.225  1.00  0.00     0.020 A 
ATOM     90  C   UNL A   1      47.682  29.416  37.102  1.00  0.00     0.054 A 
BRANCH  90  91
ATOM     91  S   UNL A   1      49.155  29.047  38.095  1.00  0.00     0.124 S 
ATOM     92  O   UNL A   1      48.779  29.574  39.404  1.00  0.00    -0.237 OA
ATOM     93  O   UNL A   1      49.245  27.591  38.006  1.00  0.00    -0.237 OA
ATOM     94  O   UNL A   1      50.224  29.774  37.414  1.00  0.00    -0.744 OA
ENDBRANCH  90  91
ENDBRANCH  64  85
ENDBRANCH  38  39
ENDBRANCH  31  33
ENDBRANCH  30  31
ENDBRANCH  29  30
ENDBRANCH   1  29
TORSDOF 21
ENDMDL
MODEL 3
REMARK VINA RESULT:     -10.3      2.134      8.858
REMARK SMILES CCc1cc(OC(F)(F)F)cc2c1O[C@@H](C(F)(F)F)C(C(=O)OCCOCCOC(=O)c1ccc(-c3c4nc(c(-c5ccc(S(=O)(=O)[O-])cc5)c5ccc([nH]5)c(-c5ccc(S(=O)(=O)[O-])cc5)c5nc(c(-c6ccc(S(=O)(=O)[O-])cc6)c6ccc3[nH]6)C=C5)C=C4)cc1)=C2
REMARK SMILES IDX 27 1 26 2 25 3 24 4 23 5 21 6 22 7 20 8 3 9 4 10 13 11 5 12
REMARK SMILES IDX 12 13 14 14 11 15 92 16 15 17 2 18 1 19 6 20 7 21 8 22 9 23
REMARK SMILES IDX 10 24 16 25 17 26 18 27 19 28 28 29 29 30 30 31 31 32 32 33
REMARK SMILES IDX 33 34 91 35 34 36 90 37 35 38 36 39 37 40 84 41 38 42 89 43
REMARK SMILES IDX 83 44 85 45 39 46 88 47 82 48 81 49 40 51 70 52 51 53 69 54
REMARK SMILES IDX 52 55 55 56 68 57 86 58 53 59 54 60 67 62 87 63 56 64 41 65
REMARK SMILES IDX 42 66 50 67 43 68 49 69 44 70 45 71 46 72 47 73 48 74 71 75
REMARK SMILES IDX 72 76 80 77 73 78 79 79 74 80 75 81 76 82 77 83 78 84 57 85
REMARK SMILES IDX 58 86 66 87 59 88 65 89 60 90 61 91 62 92 63 93 64 94
REMARK H PARENT 85 50 55 61
REMARK Flexibility Score: inf
ROOT
ATOM      1  C   UNL A   1      39.292  22.094  26.424  1.00  0.00     0.202 C 
ENDROOT
BRANCH   1   2
ATOM      2  O   UNL A   1      38.544  22.839  25.465  1.00  0.00    -0.374 OA
BRANCH   2   3
ATOM      3  C   UNL A   1      37.141  22.988  25.672  1.00  0.00     0.202 C 
BRANCH   3   4
ATOM      4  C   UNL A   1      36.202  22.116  24.832  1.00  0.00     0.261 C 
BRANCH   4   5
ATOM      5  O   UNL A   1      35.043  22.839  24.394  1.00  0.00    -0.460 OA
BRANCH   5   6
ATOM      6  C   UNL A   1      34.046  22.910  25.306  1.00  0.00     0.338 C 
ATOM      7  O   UNL A   1      33.803  22.100  26.185  1.00  0.00    -0.246 OA
BRANCH   6   8
ATOM      8  C   UNL A   1      33.331  24.192  25.203  1.00  0.00     0.087 C 
ATOM      9  C   UNL A   1      31.625  27.734  23.827  1.00  0.00    -0.002 A 
ATOM     10  C   UNL A   1      32.006  28.954  24.406  1.00  0.00     0.054 A 
ATOM     11  C   UNL A   1      32.209  26.557  24.306  1.00  0.00     0.131 A 
ATOM     12  C   UNL A   1      32.962  28.996  25.428  1.00  0.00     0.130 A 
ATOM     13  C   UNL A   1      33.176  26.578  25.326  1.00  0.00     0.021 A 
ATOM     14  O   UNL A   1      31.857  25.384  23.683  1.00  0.00    -0.475 OA
ATOM     15  C   UNL A   1      33.534  27.803  25.893  1.00  0.00     0.058 A 
ATOM     16  C   UNL A   1      33.874  25.333  25.663  1.00  0.00     0.027 C 
ATOM     17  C   UNL A   1      31.976  24.220  24.537  1.00  0.00     0.316 C 
BRANCH   9  18
ATOM     18  C   UNL A   1      30.635  27.707  22.685  1.00  0.00     0.036 C 
ATOM     19  C   UNL A   1      29.237  28.155  23.091  1.00  0.00     0.009 C 
ENDBRANCH   9  18
BRANCH  12  20
ATOM     20  O   UNL A   1      33.431  30.125  26.040  1.00  0.00    -0.406 OA
BRANCH  20  21
ATOM     21  C   UNL A   1      32.574  30.770  26.970  1.00  0.00     0.573 C 
ATOM     22  F   UNL A   1      33.277  31.475  27.884  1.00  0.00    -0.132 F 
ATOM     23  F   UNL A   1      31.710  31.595  26.339  1.00  0.00    -0.132 F 
ATOM     24  F   UNL A   1      31.854  29.835  27.625  1.00  0.00    -0.132 F 
ENDBRANCH  20  21
ENDBRANCH  12  20
BRANCH  17  25
ATOM     25  C   UNL A   1      31.483  22.992  23.757  1.00  0.00     0.430 C 
ATOM     26  F   UNL A   1      30.312  23.241  23.127  1.00  0.00    -0.167 F 
ATOM     27  F   UNL A   1      32.374  22.691  22.770  1.00  0.00    -0.167 F 
ATOM     28  F   UNL A   1      31.355  21.884  24.513  1.00  0.00    -0.167 F 
ENDBRANCH  17  25
ENDBRANCH   6   8
ENDBRANCH   5   6
ENDBRANCH   4   5
ENDBRANCH   3   4
ENDBRANCH   2   3
ENDBRANCH   1   2
BRANCH   1  29
ATOM     29  C   UNL A   1      39.606  20.624  26.120  1.00  0.00     0.261 C 
BRANCH  29  30
ATOM     30  O   UNL A   1      40.723  20.120  26.871  1.00  0.00    -0.460 OA
BRANCH  30  31
ATOM     31  C   UNL A   1      41.860  19.970  26.145  1.00  0.00     0.338 C 
ATOM     32  O   UNL A   1      42.128  19.062  25.376  1.00  0.00    -0.246 OA
BRANCH  31  33
ATOM     33  C   UNL A   1      42.694  21.180  26.255  1.00  0.00     0.060 A 
ATOM     34  C   UNL A   1      43.005  21.634  27.544  1.00  0.00     0.016 A 
ATOM     35  C   UNL A   1      43.089  21.907  25.130  1.00  0.00     0.016 A 
ATOM     36  C   UNL A   1      43.668  22.845  27.715  1.00  0.00     0.010 A 
ATOM     37  C   UNL A   1      43.747  23.130  25.306  1.00  0.00     0.010 A 
ATOM     38  C   UNL A   1      44.005  23.621  26.599  1.00  0.00    -0.014 A 
BRANCH  38  39
ATOM     39  C   UNL A   1      44.491  25.007  26.805  1.00  0.00     0.031 A 
ATOM     40  C   UNL A   1      43.524  26.058  27.277  1.00  0.00     0.074 A 
ATOM     41  C   UNL A   1      45.789  25.311  26.622  1.00  0.00     0.049 A 
ATOM     42  N   UNL A   1      43.740  27.320  27.543  1.00  0.00    -0.248 NA
ATOM     43  C   UNL A   1      42.129  25.631  27.480  1.00  0.00     0.031 C 
ATOM     44  C   UNL A   1      46.827  24.370  26.202  1.00  0.00     0.029 A 
ATOM     45  N   UNL A   1      46.454  26.502  26.773  1.00  0.00    -0.354 N 
ATOM     46  C   UNL A   1      42.511  27.840  27.934  1.00  0.00     0.074 A 
ATOM     47  C   UNL A   1      41.548  26.764  27.845  1.00  0.00     0.031 C 
ATOM     48  C   UNL A   1      48.000  25.023  26.126  1.00  0.00     0.029 A 
ATOM     49  C   UNL A   1      47.791  26.429  26.464  1.00  0.00     0.049 A 
ATOM     50  H   UNL A   1      46.015  27.329  27.074  1.00  0.00     0.167 HD
ATOM     51  C   UNL A   1      42.214  29.098  28.340  1.00  0.00     0.031 A 
ATOM     52  C   UNL A   1      48.736  27.391  26.440  1.00  0.00     0.031 A 
ATOM     53  C   UNL A   1      43.173  30.167  28.423  1.00  0.00     0.049 A 
ATOM     54  C   UNL A   1      48.367  28.795  26.838  1.00  0.00     0.074 A 
ATOM     55  C   UNL A   1      42.974  31.469  28.847  1.00  0.00     0.029 A 
ATOM     56  N   UNL A   1      44.509  30.062  28.067  1.00  0.00    -0.354 N 
ATOM     57  N   UNL A   1      47.208  29.261  27.243  1.00  0.00    -0.248 NA
ATOM     58  C   UNL A   1      49.435  29.803  26.786  1.00  0.00     0.031 C 
ATOM     59  C   UNL A   1      44.176  32.167  28.690  1.00  0.00     0.029 A 
ATOM     60  C   UNL A   1      45.139  31.284  28.229  1.00  0.00     0.049 A 
ATOM     61  H   UNL A   1      44.945  29.240  27.744  1.00  0.00     0.167 HD
ATOM     62  C   UNL A   1      47.416  30.609  27.517  1.00  0.00     0.074 A 
ATOM     63  C   UNL A   1      48.813  30.879  27.249  1.00  0.00     0.031 C 
ATOM     64  C   UNL A   1      46.530  31.540  27.953  1.00  0.00     0.031 A 
BRANCH  51  65
ATOM     65  C   UNL A   1      40.780  29.397  28.693  1.00  0.00    -0.014 A 
ATOM     66  C   UNL A   1      39.776  29.433  27.710  1.00  0.00     0.010 A 
ATOM     67  C   UNL A   1      40.427  29.599  30.040  1.00  0.00     0.010 A 
ATOM     68  C   UNL A   1      38.450  29.696  28.064  1.00  0.00     0.020 A 
ATOM     69  C   UNL A   1      39.097  29.837  30.401  1.00  0.00     0.020 A 
ATOM     70  C   UNL A   1      38.119  29.898  29.407  1.00  0.00     0.054 A 
BRANCH  70  71
ATOM     71  S   UNL A   1      36.385  30.207  29.841  1.00  0.00     0.124 S 
ATOM     72  O   UNL A   1      36.372  31.659  30.009  1.00  0.00    -0.237 OA
ATOM     73  O   UNL A   1      35.668  29.704  28.672  1.00  0.00    -0.237 OA
ATOM     74  O   UNL A   1      36.190  29.438  31.067  1.00  0.00    -0.744 OA
ENDBRANCH  70  71
ENDBRANCH  51  65
BRANCH  52  75
ATOM     75  C   UNL A   1      50.120  27.061  26.002  1.00  0.00    -0.014 A 
ATOM     76  C   UNL A   1      50.471  27.073  24.641  1.00  0.00     0.010 A 
ATOM     77  C   UNL A   1      51.098  26.727  26.957  1.00  0.00     0.010 A 
ATOM     78  C   UNL A   1      51.768  26.739  24.242  1.00  0.00     0.020 A 
ATOM     79  C   UNL A   1      52.404  26.421  26.565  1.00  0.00     0.020 A 
ATOM     80  C   UNL A   1      52.727  26.417  25.207  1.00  0.00     0.054 A 
BRANCH  80  81
ATOM     81  S   UNL A   1      54.418  26.032  24.671  1.00  0.00     0.124 S 
ATOM     82  O   UNL A   1      55.210  26.944  25.489  1.00  0.00    -0.237 OA
ATOM     83  O   UNL A   1      54.538  24.615  25.004  1.00  0.00    -0.237 OA
ATOM     84  O   UNL A   1      54.398  26.328  23.241  1.00  0.00    -0.744 OA
ENDBRANCH  80  81
ENDBRANCH  52  75
BRANCH  64  85
ATOM     85  C   UNL A   1      47.049  32.933  28.195  1.00  0.00    -0.014 A 
ATOM     86  C   UNL A   1      47.597  33.304  29.435  1.00  0.00     0.010 A 
ATOM     87  C   UNL A   1      47.034  33.870  27.144  1.00  0.00     0.010 A 
ATOM     88  C   UNL A   1      48.091  34.597  29.631  1.00  0.00     0.020 A 
ATOM     89  C   UNL A   1      47.555  35.154  27.328  1.00  0.00     0.020 A 
ATOM     90  C   UNL A   1      48.066  35.514  28.576  1.00  0.00     0.054 A 
BRANCH  90  91
ATOM     91  S   UNL A   1      48.748  37.173  28.844  1.00  0.00     0.124 S 
ATOM     92  O   UNL A   1      47.542  37.994  28.886  1.00  0.00    -0.237 OA
ATOM     93  O   UNL A   1      49.453  37.028  30.117  1.00  0.00    -0.237 OA
ATOM     94  O   UNL A   1      49.609  37.386  27.684  1.00  0.00    -0.744 OA
ENDBRANCH  90  91
ENDBRANCH  64  85
ENDBRANCH  38  39
ENDBRANCH  31  33
ENDBRANCH  30  31
ENDBRANCH  29  30
ENDBRANCH   1  29
TORSDOF 21
ENDMDL
