MODEL 1
REMARK VINA RESULT:      -9.5      0.000      0.000
REMARK SMILES CN(C)Nc1ncnc(Nc2ccc(C(=O)OCCOCCOC(=O)c3ccc(-c4c5nc(c(-c6ccc(S(=O)(=O)[O-])cc6)c6ccc([nH]6)c(-c6ccc(S(=O)(=O)[O-])cc6)c6nc(c(-c7ccc(S(=O)(=O)[O-])cc7)c7ccc4[nH]7)C=C6)C=C5)cc3)cc2)c1[N+](=O)[O-]
REMARK SMILES IDX 19 1 18 2 17 3 15 4 16 5 14 6 11 7 12 8 87 9 13 10 86 11
REMARK SMILES IDX 10 12 9 14 5 15 6 16 88 17 7 18 8 19 4 20 2 22 1 23 3 24
REMARK SMILES IDX 89 25 90 26 91 27 20 28 21 29 22 30 23 31 24 32 25 33 26 34
REMARK SMILES IDX 27 35 85 36 28 37 84 38 29 39 30 40 31 41 78 42 32 43 83 44
REMARK SMILES IDX 77 45 79 46 33 47 82 48 76 49 75 50 34 52 64 53 45 54 63 55
REMARK SMILES IDX 46 56 49 57 62 58 80 59 47 60 48 61 61 63 81 64 50 65 35 66
REMARK SMILES IDX 36 67 44 68 37 69 43 70 38 71 39 72 40 73 41 74 42 75 65 76
REMARK SMILES IDX 66 77 74 78 67 79 73 80 68 81 69 82 70 83 71 84 72 85 51 86
REMARK SMILES IDX 52 87 60 88 53 89 59 90 54 91 55 92 56 93 57 94 58 95
REMARK H PARENT 10 13 4 21 79 51 49 62
REMARK Flexibility Score: inf
ROOT
ATOM      1  C   UNL A   1      39.899  20.324  26.439  1.00  0.00     0.202 C 
ENDROOT
BRANCH   1   2
ATOM      2  C   UNL A   1      39.425  21.503  25.586  1.00  0.00     0.261 C 
BRANCH   2   3
ATOM      3  O   UNL A   1      38.019  21.735  25.763  1.00  0.00    -0.460 OA
BRANCH   3   4
ATOM      4  C   UNL A   1      37.690  23.011  26.064  1.00  0.00     0.338 C 
ATOM      5  O   UNL A   1      38.424  23.868  26.541  1.00  0.00    -0.246 OA
BRANCH   4   6
ATOM      6  C   UNL A   1      36.324  23.317  25.591  1.00  0.00     0.060 A 
ATOM      7  C   UNL A   1      33.843  24.138  24.575  1.00  0.00     0.040 A 
ATOM      8  C   UNL A   1      34.919  23.916  23.709  1.00  0.00     0.027 A 
ATOM      9  C   UNL A   1      34.003  23.853  25.942  1.00  0.00     0.027 A 
ATOM     10  C   UNL A   1      36.155  23.523  24.217  1.00  0.00     0.018 A 
ATOM     11  C   UNL A   1      35.234  23.431  26.454  1.00  0.00     0.018 A 
BRANCH   7  12
ATOM     12  N   UNL A   1      32.715  24.825  24.085  1.00  0.00    -0.334 N 
ATOM     13  H   UNL A   1      32.003  24.286  23.673  1.00  0.00     0.168 HD
BRANCH  12  14
ATOM     14  C   UNL A   1      32.521  26.220  24.133  1.00  0.00     0.215 A 
ATOM     15  C   UNL A   1      31.895  28.313  23.207  1.00  0.00     0.225 A 
ATOM     16  N   UNL A   1      31.984  28.896  24.420  1.00  0.00    -0.212 NA
ATOM     17  C   UNL A   1      32.244  26.990  23.018  1.00  0.00     0.354 A 
ATOM     18  C   UNL A   1      32.327  28.113  25.441  1.00  0.00     0.227 A 
ATOM     19  N   UNL A   1      32.561  26.805  25.352  1.00  0.00    -0.212 NA
BRANCH  15  20
ATOM     20  N   UNL A   1      31.306  29.160  22.264  1.00  0.00    -0.298 N 
ATOM     21  H   UNL A   1      31.889  29.824  21.830  1.00  0.00     0.184 HD
BRANCH  20  22
ATOM     22  N   UNL A   1      29.939  29.147  21.877  1.00  0.00    -0.228 NA
ATOM     23  C   UNL A   1      29.098  28.368  22.804  1.00  0.00     0.130 C 
ATOM     24  C   UNL A   1      29.474  30.547  21.931  1.00  0.00     0.130 C 
ENDBRANCH  20  22
ENDBRANCH  15  20
BRANCH  17  25
ATOM     25  N   UNL A   1      32.481  26.477  21.700  1.00  0.00     0.070 N 
ATOM     26  O   UNL A   1      31.489  26.205  21.004  1.00  0.00    -0.258 OA
ATOM     27  O   UNL A   1      33.650  26.213  21.386  1.00  0.00    -0.258 OA
ENDBRANCH  17  25
ENDBRANCH  12  14
ENDBRANCH   7  12
ENDBRANCH   4   6
ENDBRANCH   3   4
ENDBRANCH   2   3
ENDBRANCH   1   2
BRANCH   1  28
ATOM     28  O   UNL A   1      40.721  19.361  25.776  1.00  0.00    -0.374 OA
BRANCH  28  29
ATOM     29  C   UNL A   1      42.101  19.330  26.148  1.00  0.00     0.202 C 
BRANCH  29  30
ATOM     30  C   UNL A   1      43.024  20.312  25.416  1.00  0.00     0.261 C 
BRANCH  30  31
ATOM     31  O   UNL A   1      43.281  21.488  26.205  1.00  0.00    -0.460 OA
BRANCH  31  32
ATOM     32  C   UNL A   1      43.092  22.661  25.558  1.00  0.00     0.338 C 
ATOM     33  O   UNL A   1      43.073  22.840  24.346  1.00  0.00    -0.246 OA
BRANCH  32  34
ATOM     34  C   UNL A   1      42.712  23.711  26.521  1.00  0.00     0.060 A 
ATOM     35  C   UNL A   1      43.106  25.024  26.235  1.00  0.00     0.016 A 
ATOM     36  C   UNL A   1      42.035  23.417  27.707  1.00  0.00     0.016 A 
ATOM     37  C   UNL A   1      42.869  26.041  27.156  1.00  0.00     0.010 A 
ATOM     38  C   UNL A   1      41.807  24.438  28.635  1.00  0.00     0.010 A 
ATOM     39  C   UNL A   1      42.254  25.747  28.379  1.00  0.00    -0.014 A 
BRANCH  39  40
ATOM     40  C   UNL A   1      42.210  26.779  29.444  1.00  0.00     0.031 A 
ATOM     41  C   UNL A   1      43.249  26.748  30.532  1.00  0.00     0.074 A 
ATOM     42  C   UNL A   1      41.274  27.746  29.428  1.00  0.00     0.049 A 
ATOM     43  N   UNL A   1      43.385  27.534  31.569  1.00  0.00    -0.248 NA
ATOM     44  C   UNL A   1      44.270  25.692  30.438  1.00  0.00     0.031 C 
ATOM     45  C   UNL A   1      40.242  27.907  28.405  1.00  0.00     0.029 A 
ATOM     46  N   UNL A   1      41.042  28.775  30.306  1.00  0.00    -0.354 N 
ATOM     47  C   UNL A   1      44.498  27.064  32.255  1.00  0.00     0.074 A 
ATOM     48  C   UNL A   1      44.984  25.909  31.533  1.00  0.00     0.031 C 
ATOM     49  C   UNL A   1      39.481  28.970  28.719  1.00  0.00     0.029 A 
ATOM     50  C   UNL A   1      39.952  29.544  29.978  1.00  0.00     0.049 A 
ATOM     51  H   UNL A   1      41.605  28.945  31.096  1.00  0.00     0.167 HD
ATOM     52  C   UNL A   1      45.067  27.552  33.383  1.00  0.00     0.031 A 
ATOM     53  C   UNL A   1      39.386  30.579  30.630  1.00  0.00     0.031 A 
ATOM     54  C   UNL A   1      44.574  28.694  34.107  1.00  0.00     0.049 A 
ATOM     55  C   UNL A   1      39.995  31.060  31.922  1.00  0.00     0.074 A 
ATOM     56  C   UNL A   1      45.091  29.276  35.252  1.00  0.00     0.029 A 
ATOM     57  N   UNL A   1      43.447  29.423  33.762  1.00  0.00    -0.354 N 
ATOM     58  N   UNL A   1      41.061  30.619  32.545  1.00  0.00    -0.248 NA
ATOM     59  C   UNL A   1      39.326  32.184  32.591  1.00  0.00     0.031 C 
ATOM     60  C   UNL A   1      44.244  30.322  35.630  1.00  0.00     0.029 A 
ATOM     61  C   UNL A   1      43.234  30.431  34.686  1.00  0.00     0.049 A 
ATOM     62  H   UNL A   1      42.881  29.250  32.975  1.00  0.00     0.167 HD
ATOM     63  C   UNL A   1      41.208  31.430  33.667  1.00  0.00     0.074 A 
ATOM     64  C   UNL A   1      40.126  32.393  33.629  1.00  0.00     0.031 C 
ATOM     65  C   UNL A   1      42.153  31.382  34.637  1.00  0.00     0.031 A 
BRANCH  52  66
ATOM     66  C   UNL A   1      46.271  26.826  33.924  1.00  0.00    -0.014 A 
ATOM     67  C   UNL A   1      47.577  27.237  33.601  1.00  0.00     0.010 A 
ATOM     68  C   UNL A   1      46.092  25.738  34.796  1.00  0.00     0.010 A 
ATOM     69  C   UNL A   1      48.681  26.547  34.110  1.00  0.00     0.020 A 
ATOM     70  C   UNL A   1      47.193  25.061  35.328  1.00  0.00     0.020 A 
ATOM     71  C   UNL A   1      48.482  25.461  34.967  1.00  0.00     0.054 A 
BRANCH  71  72
ATOM     72  S   UNL A   1      49.932  24.595  35.629  1.00  0.00     0.124 S 
ATOM     73  O   UNL A   1      50.605  25.659  36.370  1.00  0.00    -0.237 OA
ATOM     74  O   UNL A   1      49.332  23.544  36.447  1.00  0.00    -0.237 OA
ATOM     75  O   UNL A   1      50.633  24.128  34.435  1.00  0.00    -0.744 OA
ENDBRANCH  71  72
ENDBRANCH  52  66
BRANCH  53  76
ATOM     76  C   UNL A   1      38.160  31.219  30.081  1.00  0.00    -0.014 A 
ATOM     77  C   UNL A   1      38.251  32.232  29.111  1.00  0.00     0.010 A 
ATOM     78  C   UNL A   1      36.889  30.812  30.529  1.00  0.00     0.010 A 
ATOM     79  C   UNL A   1      37.093  32.836  28.608  1.00  0.00     0.020 A 
ATOM     80  C   UNL A   1      35.730  31.395  30.010  1.00  0.00     0.020 A 
ATOM     81  C   UNL A   1      35.840  32.411  29.059  1.00  0.00     0.054 A 
BRANCH  81  82
ATOM     82  S   UNL A   1      34.350  33.169  28.354  1.00  0.00     0.124 S 
ATOM     83  O   UNL A   1      33.779  32.065  27.591  1.00  0.00    -0.237 OA
ATOM     84  O   UNL A   1      33.605  33.568  29.547  1.00  0.00    -0.237 OA
ATOM     85  O   UNL A   1      34.875  34.277  27.559  1.00  0.00    -0.744 OA
ENDBRANCH  81  82
ENDBRANCH  53  76
BRANCH  65  86
ATOM     86  C   UNL A   1      42.086  32.422  35.726  1.00  0.00    -0.014 A 
ATOM     87  C   UNL A   1      41.416  32.170  36.936  1.00  0.00     0.010 A 
ATOM     88  C   UNL A   1      42.756  33.648  35.555  1.00  0.00     0.010 A 
ATOM     89  C   UNL A   1      41.394  33.138  37.944  1.00  0.00     0.020 A 
ATOM     90  C   UNL A   1      42.759  34.607  36.571  1.00  0.00     0.020 A 
ATOM     91  C   UNL A   1      42.065  34.351  37.756  1.00  0.00     0.054 A 
BRANCH  91  92
ATOM     92  S   UNL A   1      42.059  35.572  39.096  1.00  0.00     0.124 S 
ATOM     93  O   UNL A   1      41.339  36.687  38.488  1.00  0.00    -0.237 OA
ATOM     94  O   UNL A   1      41.350  34.873  40.165  1.00  0.00    -0.237 OA
ATOM     95  O   UNL A   1      43.478  35.812  39.352  1.00  0.00    -0.744 OA
ENDBRANCH  91  92
ENDBRANCH  65  86
ENDBRANCH  39  40
ENDBRANCH  32  34
ENDBRANCH  31  32
ENDBRANCH  30  31
ENDBRANCH  29  30
ENDBRANCH  28  29
ENDBRANCH   1  28
TORSDOF 22
ENDMDL
MODEL 2
REMARK VINA RESULT:      -9.3      1.920      2.461
REMARK SMILES CN(C)Nc1ncnc(Nc2ccc(C(=O)OCCOCCOC(=O)c3ccc(-c4c5nc(c(-c6ccc(S(=O)(=O)[O-])cc6)c6ccc([nH]6)c(-c6ccc(S(=O)(=O)[O-])cc6)c6nc(c(-c7ccc(S(=O)(=O)[O-])cc7)c7ccc4[nH]7)C=C6)C=C5)cc3)cc2)c1[N+](=O)[O-]
REMARK SMILES IDX 19 1 18 2 17 3 15 4 16 5 14 6 11 7 12 8 87 9 13 10 86 11
REMARK SMILES IDX 10 12 9 14 5 15 6 16 88 17 7 18 8 19 4 20 2 22 1 23 3 24
REMARK SMILES IDX 89 25 90 26 91 27 20 28 21 29 22 30 23 31 24 32 25 33 26 34
REMARK SMILES IDX 27 35 85 36 28 37 84 38 29 39 30 40 31 41 78 42 32 43 83 44
REMARK SMILES IDX 77 45 79 46 33 47 82 48 76 49 75 50 34 52 64 53 45 54 63 55
REMARK SMILES IDX 46 56 49 57 62 58 80 59 47 60 48 61 61 63 81 64 50 65 35 66
REMARK SMILES IDX 36 67 44 68 37 69 43 70 38 71 39 72 40 73 41 74 42 75 65 76
REMARK SMILES IDX 66 77 74 78 67 79 73 80 68 81 69 82 70 83 71 84 72 85 51 86
REMARK SMILES IDX 52 87 60 88 53 89 59 90 54 91 55 92 56 93 57 94 58 95
REMARK H PARENT 10 13 4 21 79 51 49 62
REMARK Flexibility Score: inf
ROOT
ATOM      1  C   UNL A   1      40.506  20.613  26.597  1.00  0.00     0.202 C 
ENDROOT
BRANCH   1   2
ATOM      2  C   UNL A   1      39.941  21.765  25.761  1.00  0.00     0.261 C 
BRANCH   2   3
ATOM      3  O   UNL A   1      38.507  21.792  25.823  1.00  0.00    -0.460 OA
BRANCH   3   4
ATOM      4  C   UNL A   1      37.979  22.980  26.193  1.00  0.00     0.338 C 
ATOM      5  O   UNL A   1      38.530  23.859  26.846  1.00  0.00    -0.246 OA
BRANCH   4   6
ATOM      6  C   UNL A   1      36.656  23.176  25.565  1.00  0.00     0.060 A 
ATOM      7  C   UNL A   1      34.256  23.786  24.251  1.00  0.00     0.040 A 
ATOM      8  C   UNL A   1      35.428  23.583  23.516  1.00  0.00     0.027 A 
ATOM      9  C   UNL A   1      34.286  23.587  25.642  1.00  0.00     0.027 A 
ATOM     10  C   UNL A   1      36.623  23.295  24.170  1.00  0.00     0.018 A 
ATOM     11  C   UNL A   1      35.477  23.271  26.303  1.00  0.00     0.018 A 
BRANCH   7  12
ATOM     12  N   UNL A   1      33.150  24.375  23.607  1.00  0.00    -0.334 N 
ATOM     13  H   UNL A   1      32.777  23.902  22.830  1.00  0.00     0.168 HD
BRANCH  12  14
ATOM     14  C   UNL A   1      32.534  25.586  23.981  1.00  0.00     0.215 A 
ATOM     15  C   UNL A   1      31.644  27.742  23.546  1.00  0.00     0.225 A 
ATOM     16  N   UNL A   1      31.138  27.805  24.795  1.00  0.00    -0.212 NA
ATOM     17  C   UNL A   1      32.424  26.678  23.139  1.00  0.00     0.354 A 
ATOM     18  C   UNL A   1      31.343  26.749  25.581  1.00  0.00     0.227 A 
ATOM     19  N   UNL A   1      31.982  25.639  25.215  1.00  0.00    -0.212 NA
BRANCH  15  20
ATOM     20  N   UNL A   1      31.174  28.784  22.742  1.00  0.00    -0.298 N 
ATOM     21  H   UNL A   1      31.736  29.590  22.678  1.00  0.00     0.184 HD
BRANCH  20  22
ATOM     22  N   UNL A   1      29.958  28.783  22.008  1.00  0.00    -0.228 NA
ATOM     23  C   UNL A   1      28.813  28.321  22.816  1.00  0.00     0.130 C 
ATOM     24  C   UNL A   1      29.693  30.186  21.631  1.00  0.00     0.130 C 
ENDBRANCH  20  22
ENDBRANCH  15  20
BRANCH  17  25
ATOM     25  N   UNL A   1      33.233  26.772  21.958  1.00  0.00     0.070 N 
ATOM     26  O   UNL A   1      33.197  25.822  21.160  1.00  0.00    -0.258 OA
ATOM     27  O   UNL A   1      34.014  27.731  21.871  1.00  0.00    -0.258 OA
ENDBRANCH  17  25
ENDBRANCH  12  14
ENDBRANCH   7  12
ENDBRANCH   4   6
ENDBRANCH   3   4
ENDBRANCH   2   3
ENDBRANCH   1   2
BRANCH   1  28
ATOM     28  O   UNL A   1      40.916  19.453  25.869  1.00  0.00    -0.374 OA
BRANCH  28  29
ATOM     29  C   UNL A   1      42.193  18.903  26.204  1.00  0.00     0.202 C 
BRANCH  29  30
ATOM     30  C   UNL A   1      43.351  19.255  25.264  1.00  0.00     0.261 C 
BRANCH  30  31
ATOM     31  O   UNL A   1      44.191  20.285  25.818  1.00  0.00    -0.460 OA
BRANCH  31  32
ATOM     32  C   UNL A   1      44.257  21.422  25.089  1.00  0.00     0.338 C 
ATOM     33  O   UNL A   1      44.545  21.520  23.902  1.00  0.00    -0.246 OA
BRANCH  32  34
ATOM     34  C   UNL A   1      43.742  22.556  25.877  1.00  0.00     0.060 A 
ATOM     35  C   UNL A   1      43.685  23.807  25.250  1.00  0.00     0.016 A 
ATOM     36  C   UNL A   1      43.374  22.419  27.218  1.00  0.00     0.016 A 
ATOM     37  C   UNL A   1      43.308  24.936  25.973  1.00  0.00     0.010 A 
ATOM     38  C   UNL A   1      43.004  23.555  27.945  1.00  0.00     0.010 A 
ATOM     39  C   UNL A   1      43.003  24.823  27.335  1.00  0.00    -0.014 A 
BRANCH  39  40
ATOM     40  C   UNL A   1      42.826  26.049  28.150  1.00  0.00     0.031 A 
ATOM     41  C   UNL A   1      43.964  26.521  29.015  1.00  0.00     0.074 A 
ATOM     42  C   UNL A   1      41.678  26.749  28.101  1.00  0.00     0.049 A 
ATOM     43  N   UNL A   1      44.019  27.548  29.822  1.00  0.00    -0.248 NA
ATOM     44  C   UNL A   1      45.204  25.728  28.962  1.00  0.00     0.031 C 
ATOM     45  C   UNL A   1      40.521  26.419  27.270  1.00  0.00     0.029 A 
ATOM     46  N   UNL A   1      41.299  27.885  28.771  1.00  0.00    -0.354 N 
ATOM     47  C   UNL A   1      45.292  27.522  30.380  1.00  0.00     0.074 A 
ATOM     48  C   UNL A   1      45.967  26.363  29.841  1.00  0.00     0.031 C 
ATOM     49  C   UNL A   1      39.557  27.330  27.485  1.00  0.00     0.029 A 
ATOM     50  C   UNL A   1      40.015  28.287  28.490  1.00  0.00     0.049 A 
ATOM     51  H   UNL A   1      41.891  28.366  29.393  1.00  0.00     0.167 HD
ATOM     52  C   UNL A   1      45.850  28.389  31.259  1.00  0.00     0.031 A 
ATOM     53  C   UNL A   1      39.286  29.298  29.002  1.00  0.00     0.031 A 
ATOM     54  C   UNL A   1      45.172  29.535  31.804  1.00  0.00     0.049 A 
ATOM     55  C   UNL A   1      39.903  30.208  30.032  1.00  0.00     0.074 A 
ATOM     56  C   UNL A   1      45.658  30.481  32.690  1.00  0.00     0.029 A 
ATOM     57  N   UNL A   1      43.861  29.886  31.523  1.00  0.00    -0.354 N 
ATOM     58  N   UNL A   1      41.116  30.183  30.532  1.00  0.00    -0.248 NA
ATOM     59  C   UNL A   1      39.055  31.284  30.561  1.00  0.00     0.031 C 
ATOM     60  C   UNL A   1      44.623  31.374  32.986  1.00  0.00     0.029 A 
ATOM     61  C   UNL A   1      43.510  31.018  32.238  1.00  0.00     0.049 A 
ATOM     62  H   UNL A   1      43.266  29.402  30.905  1.00  0.00     0.167 HD
ATOM     63  C   UNL A   1      41.185  31.258  31.414  1.00  0.00     0.074 A 
ATOM     64  C   UNL A   1      39.896  31.916  31.370  1.00  0.00     0.031 C 
ATOM     65  C   UNL A   1      42.223  31.663  32.186  1.00  0.00     0.031 A 
BRANCH  52  66
ATOM     66  C   UNL A   1      47.258  28.105  31.714  1.00  0.00    -0.014 A 
ATOM     67  C   UNL A   1      47.540  27.052  32.603  1.00  0.00     0.010 A 
ATOM     68  C   UNL A   1      48.318  28.885  31.218  1.00  0.00     0.010 A 
ATOM     69  C   UNL A   1      48.852  26.809  33.016  1.00  0.00     0.020 A 
ATOM     70  C   UNL A   1      49.635  28.629  31.609  1.00  0.00     0.020 A 
ATOM     71  C   UNL A   1      49.891  27.601  32.520  1.00  0.00     0.054 A 
BRANCH  71  72
ATOM     72  S   UNL A   1      51.588  27.252  33.059  1.00  0.00     0.124 S 
ATOM     73  O   UNL A   1      51.742  25.851  32.674  1.00  0.00    -0.237 OA
ATOM     74  O   UNL A   1      52.374  28.207  32.282  1.00  0.00    -0.237 OA
ATOM     75  O   UNL A   1      51.554  27.501  34.498  1.00  0.00    -0.744 OA
ENDBRANCH  71  72
ENDBRANCH  52  66
BRANCH  53  76
ATOM     76  C   UNL A   1      37.878  29.494  28.560  1.00  0.00    -0.014 A 
ATOM     77  C   UNL A   1      37.585  29.888  27.244  1.00  0.00     0.010 A 
ATOM     78  C   UNL A   1      36.819  29.283  29.464  1.00  0.00     0.010 A 
ATOM     79  C   UNL A   1      36.260  30.080  26.841  1.00  0.00     0.020 A 
ATOM     80  C   UNL A   1      35.492  29.448  29.057  1.00  0.00     0.020 A 
ATOM     81  C   UNL A   1      35.221  29.856  27.749  1.00  0.00     0.054 A 
BRANCH  81  82
ATOM     82  S   UNL A   1      33.507  30.058  27.191  1.00  0.00     0.124 S 
ATOM     83  O   UNL A   1      33.639  29.916  25.745  1.00  0.00    -0.237 OA
ATOM     84  O   UNL A   1      32.822  28.963  27.875  1.00  0.00    -0.237 OA
ATOM     85  O   UNL A   1      33.150  31.394  27.661  1.00  0.00    -0.744 OA
ENDBRANCH  81  82
ENDBRANCH  53  76
BRANCH  65  86
ATOM     86  C   UNL A   1      42.025  32.898  33.026  1.00  0.00    -0.014 A 
ATOM     87  C   UNL A   1      41.574  32.812  34.355  1.00  0.00     0.010 A 
ATOM     88  C   UNL A   1      42.353  34.158  32.493  1.00  0.00     0.010 A 
ATOM     89  C   UNL A   1      41.427  33.969  35.126  1.00  0.00     0.020 A 
ATOM     90  C   UNL A   1      42.233  35.314  33.270  1.00  0.00     0.020 A 
ATOM     91  C   UNL A   1      41.757  35.213  34.578  1.00  0.00     0.054 A 
BRANCH  91  92
ATOM     92  S   UNL A   1      41.601  36.694  35.613  1.00  0.00     0.124 S 
ATOM     93  O   UNL A   1      40.156  36.778  35.807  1.00  0.00    -0.237 OA
ATOM     94  O   UNL A   1      42.375  36.340  36.801  1.00  0.00    -0.237 OA
ATOM     95  O   UNL A   1      42.182  37.754  34.791  1.00  0.00    -0.744 OA
ENDBRANCH  91  92
ENDBRANCH  65  86
ENDBRANCH  39  40
ENDBRANCH  32  34
ENDBRANCH  31  32
ENDBRANCH  30  31
ENDBRANCH  29  30
ENDBRANCH  28  29
ENDBRANCH   1  28
TORSDOF 22
ENDMDL
MODEL 3
REMARK VINA RESULT:      -9.0      3.093      8.930
REMARK SMILES CN(C)Nc1ncnc(Nc2ccc(C(=O)OCCOCCOC(=O)c3ccc(-c4c5nc(c(-c6ccc(S(=O)(=O)[O-])cc6)c6ccc([nH]6)c(-c6ccc(S(=O)(=O)[O-])cc6)c6nc(c(-c7ccc(S(=O)(=O)[O-])cc7)c7ccc4[nH]7)C=C6)C=C5)cc3)cc2)c1[N+](=O)[O-]
REMARK SMILES IDX 19 1 18 2 17 3 15 4 16 5 14 6 11 7 12 8 87 9 13 10 86 11
REMARK SMILES IDX 10 12 9 14 5 15 6 16 88 17 7 18 8 19 4 20 2 22 1 23 3 24
REMARK SMILES IDX 89 25 90 26 91 27 20 28 21 29 22 30 23 31 24 32 25 33 26 34
REMARK SMILES IDX 27 35 85 36 28 37 84 38 29 39 30 40 31 41 78 42 32 43 83 44
REMARK SMILES IDX 77 45 79 46 33 47 82 48 76 49 75 50 34 52 64 53 45 54 63 55
REMARK SMILES IDX 46 56 49 57 62 58 80 59 47 60 48 61 61 63 81 64 50 65 35 66
REMARK SMILES IDX 36 67 44 68 37 69 43 70 38 71 39 72 40 73 41 74 42 75 65 76
REMARK SMILES IDX 66 77 74 78 67 79 73 80 68 81 69 82 70 83 71 84 72 85 51 86
REMARK SMILES IDX 52 87 60 88 53 89 59 90 54 91 55 92 56 93 57 94 58 95
REMARK H PARENT 10 13 4 21 79 51 49 62
REMARK Flexibility Score: inf
ROOT
ATOM      1  C   UNL A   1      43.353  21.661  26.060  1.00  0.00     0.202 C 
ENDROOT
BRANCH   1   2
ATOM      2  C   UNL A   1      43.158  22.193  27.483  1.00  0.00     0.261 C 
BRANCH   2   3
ATOM      3  O   UNL A   1      41.848  22.758  27.646  1.00  0.00    -0.460 OA
BRANCH   3   4
ATOM      4  C   UNL A   1      40.832  21.873  27.536  1.00  0.00     0.338 C 
ATOM      5  O   UNL A   1      40.752  20.774  28.072  1.00  0.00    -0.246 OA
BRANCH   4   6
ATOM      6  C   UNL A   1      39.707  22.469  26.785  1.00  0.00     0.060 A 
ATOM      7  C   UNL A   1      37.452  23.657  25.618  1.00  0.00     0.040 A 
ATOM      8  C   UNL A   1      38.259  24.390  26.493  1.00  0.00     0.027 A 
ATOM      9  C   UNL A   1      37.844  22.354  25.266  1.00  0.00     0.027 A 
ATOM     10  C   UNL A   1      39.371  23.795  27.085  1.00  0.00     0.018 A 
ATOM     11  C   UNL A   1      38.974  21.759  25.835  1.00  0.00     0.018 A 
BRANCH   7  12
ATOM     12  N   UNL A   1      36.182  24.168  25.285  1.00  0.00    -0.334 N 
ATOM     13  H   UNL A   1      35.974  25.083  25.580  1.00  0.00     0.168 HD
BRANCH  12  14
ATOM     14  C   UNL A   1      35.185  23.480  24.566  1.00  0.00     0.215 A 
ATOM     15  C   UNL A   1      33.301  22.049  24.382  1.00  0.00     0.225 A 
ATOM     16  N   UNL A   1      33.167  22.364  23.077  1.00  0.00    -0.212 NA
ATOM     17  C   UNL A   1      34.358  22.526  25.132  1.00  0.00     0.354 A 
ATOM     18  C   UNL A   1      34.042  23.234  22.575  1.00  0.00     0.227 A 
ATOM     19  N   UNL A   1      35.012  23.826  23.269  1.00  0.00    -0.212 NA
BRANCH  15  20
ATOM     20  N   UNL A   1      32.205  21.324  24.858  1.00  0.00    -0.298 N 
ATOM     21  H   UNL A   1      31.567  21.802  25.435  1.00  0.00     0.184 HD
BRANCH  20  22
ATOM     22  N   UNL A   1      31.931  19.958  24.582  1.00  0.00    -0.228 NA
ATOM     23  C   UNL A   1      32.368  19.557  23.232  1.00  0.00     0.130 C 
ATOM     24  C   UNL A   1      32.716  19.168  25.552  1.00  0.00     0.130 C 
ENDBRANCH  20  22
ENDBRANCH  15  20
BRANCH  17  25
ATOM     25  N   UNL A   1      34.692  21.927  26.392  1.00  0.00     0.070 N 
ATOM     26  O   UNL A   1      35.101  20.755  26.380  1.00  0.00    -0.258 OA
ATOM     27  O   UNL A   1      34.429  22.567  27.421  1.00  0.00    -0.258 OA
ENDBRANCH  17  25
ENDBRANCH  12  14
ENDBRANCH   7  12
ENDBRANCH   4   6
ENDBRANCH   3   4
ENDBRANCH   2   3
ENDBRANCH   1   2
BRANCH   1  28
ATOM     28  O   UNL A   1      42.815  22.468  25.010  1.00  0.00    -0.374 OA
BRANCH  28  29
ATOM     29  C   UNL A   1      43.533  23.660  24.684  1.00  0.00     0.202 C 
BRANCH  29  30
ATOM     30  C   UNL A   1      42.865  24.983  25.078  1.00  0.00     0.261 C 
BRANCH  30  31
ATOM     31  O   UNL A   1      43.829  25.954  25.522  1.00  0.00    -0.460 OA
BRANCH  31  32
ATOM     32  C   UNL A   1      44.355  25.719  26.745  1.00  0.00     0.338 C 
ATOM     33  O   UNL A   1      45.351  25.054  27.005  1.00  0.00    -0.246 OA
BRANCH  32  34
ATOM     34  C   UNL A   1      43.667  26.544  27.755  1.00  0.00     0.060 A 
ATOM     35  C   UNL A   1      44.060  27.883  27.874  1.00  0.00     0.016 A 
ATOM     36  C   UNL A   1      42.697  26.012  28.609  1.00  0.00     0.016 A 
ATOM     37  C   UNL A   1      43.522  28.683  28.879  1.00  0.00     0.010 A 
ATOM     38  C   UNL A   1      42.165  26.814  29.624  1.00  0.00     0.010 A 
ATOM     39  C   UNL A   1      42.601  28.142  29.785  1.00  0.00    -0.014 A 
BRANCH  39  40
ATOM     40  C   UNL A   1      42.207  28.923  30.983  1.00  0.00     0.031 A 
ATOM     41  C   UNL A   1      40.973  29.782  30.920  1.00  0.00     0.074 A 
ATOM     42  C   UNL A   1      42.923  28.849  32.120  1.00  0.00     0.049 A 
ATOM     43  N   UNL A   1      40.460  30.562  31.836  1.00  0.00    -0.248 NA
ATOM     44  C   UNL A   1      40.217  29.758  29.656  1.00  0.00     0.031 C 
ATOM     45  C   UNL A   1      44.111  28.020  32.318  1.00  0.00     0.029 A 
ATOM     46  N   UNL A   1      42.751  29.486  33.323  1.00  0.00    -0.354 N 
ATOM     47  C   UNL A   1      39.329  31.127  31.259  1.00  0.00     0.074 A 
ATOM     48  C   UNL A   1      39.245  30.623  29.906  1.00  0.00     0.031 C 
ATOM     49  C   UNL A   1      44.567  28.206  33.569  1.00  0.00     0.029 A 
ATOM     50  C   UNL A   1      43.723  29.188  34.247  1.00  0.00     0.049 A 
ATOM     51  H   UNL A   1      42.003  30.099  33.505  1.00  0.00     0.167 HD
ATOM     52  C   UNL A   1      38.437  31.987  31.808  1.00  0.00     0.031 A 
ATOM     53  C   UNL A   1      43.921  29.668  35.491  1.00  0.00     0.031 A 
ATOM     54  C   UNL A   1      38.529  32.498  33.151  1.00  0.00     0.049 A 
ATOM     55  C   UNL A   1      42.956  30.678  36.056  1.00  0.00     0.074 A 
ATOM     56  C   UNL A   1      37.666  33.360  33.804  1.00  0.00     0.029 A 
ATOM     57  N   UNL A   1      39.547  32.199  34.042  1.00  0.00    -0.354 N 
ATOM     58  N   UNL A   1      41.878  31.185  35.506  1.00  0.00    -0.248 NA
ATOM     59  C   UNL A   1      43.231  31.173  37.411  1.00  0.00     0.031 C 
ATOM     60  C   UNL A   1      38.193  33.627  35.072  1.00  0.00     0.029 A 
ATOM     61  C   UNL A   1      39.352  32.883  35.230  1.00  0.00     0.049 A 
ATOM     62  H   UNL A   1      40.300  31.591  33.858  1.00  0.00     0.167 HD
ATOM     63  C   UNL A   1      41.331  32.038  36.460  1.00  0.00     0.074 A 
ATOM     64  C   UNL A   1      42.192  31.970  37.623  1.00  0.00     0.031 C 
ATOM     65  C   UNL A   1      40.217  32.806  36.380  1.00  0.00     0.031 A 
BRANCH  52  66
ATOM     66  C   UNL A   1      37.301  32.458  30.939  1.00  0.00    -0.014 A 
ATOM     67  C   UNL A   1      37.505  33.405  29.920  1.00  0.00     0.010 A 
ATOM     68  C   UNL A   1      36.015  31.918  31.124  1.00  0.00     0.010 A 
ATOM     69  C   UNL A   1      36.437  33.832  29.127  1.00  0.00     0.020 A 
ATOM     70  C   UNL A   1      34.948  32.323  30.317  1.00  0.00     0.020 A 
ATOM     71  C   UNL A   1      35.164  33.291  29.333  1.00  0.00     0.054 A 
BRANCH  71  72
ATOM     72  S   UNL A   1      33.798  33.850  28.278  1.00  0.00     0.124 S 
ATOM     73  O   UNL A   1      34.476  34.779  27.377  1.00  0.00    -0.237 OA
ATOM     74  O   UNL A   1      33.336  32.606  27.667  1.00  0.00    -0.237 OA
ATOM     75  O   UNL A   1      32.862  34.465  29.217  1.00  0.00    -0.744 OA
ENDBRANCH  71  72
ENDBRANCH  52  66
BRANCH  53  76
ATOM     76  C   UNL A   1      45.097  29.213  36.282  1.00  0.00    -0.014 A 
ATOM     77  C   UNL A   1      46.331  29.878  36.184  1.00  0.00     0.010 A 
ATOM     78  C   UNL A   1      44.981  28.106  37.145  1.00  0.00     0.010 A 
ATOM     79  C   UNL A   1      47.433  29.436  36.923  1.00  0.00     0.020 A 
ATOM     80  C   UNL A   1      46.074  27.679  37.905  1.00  0.00     0.020 A 
ATOM     81  C   UNL A   1      47.297  28.341  37.781  1.00  0.00     0.054 A 
BRANCH  81  82
ATOM     82  S   UNL A   1      48.724  27.818  38.772  1.00  0.00     0.124 S 
ATOM     83  O   UNL A   1      49.726  28.813  38.410  1.00  0.00    -0.237 OA
ATOM     84  O   UNL A   1      48.208  27.905  40.137  1.00  0.00    -0.237 OA
ATOM     85  O   UNL A   1      48.987  26.461  38.301  1.00  0.00    -0.744 OA
ENDBRANCH  81  82
ENDBRANCH  53  76
BRANCH  65  86
ATOM     86  C   UNL A   1      39.838  33.612  37.595  1.00  0.00    -0.014 A 
ATOM     87  C   UNL A   1      39.033  33.067  38.610  1.00  0.00     0.010 A 
ATOM     88  C   UNL A   1      40.346  34.915  37.748  1.00  0.00     0.010 A 
ATOM     89  C   UNL A   1      38.720  33.822  39.744  1.00  0.00     0.020 A 
ATOM     90  C   UNL A   1      40.057  35.664  38.892  1.00  0.00     0.020 A 
ATOM     91  C   UNL A   1      39.233  35.117  39.878  1.00  0.00     0.054 A 
BRANCH  91  92
ATOM     92  S   UNL A   1      38.849  36.060  41.378  1.00  0.00     0.124 S 
ATOM     93  O   UNL A   1      40.026  35.807  42.205  1.00  0.00    -0.237 OA
ATOM     94  O   UNL A   1      38.715  37.425  40.876  1.00  0.00    -0.237 OA
ATOM     95  O   UNL A   1      37.608  35.455  41.859  1.00  0.00    -0.744 OA
ENDBRANCH  91  92
ENDBRANCH  65  86
ENDBRANCH  39  40
ENDBRANCH  32  34
ENDBRANCH  31  32
ENDBRANCH  30  31
ENDBRANCH  29  30
ENDBRANCH  28  29
ENDBRANCH   1  28
TORSDOF 22
ENDMDL
