MODEL 1
REMARK VINA RESULT:     -10.4      0.000      0.000
REMARK SMILES C[C@@H](C(=O)OCCOCCOC(=O)c1ccc(-c2c3nc(c(-c4ccc(S(=O)(=O)[O-])cc4)c4ccc([nH]4)c(-c4ccc(S(=O)(=O)[O-])cc4)c4nc(c(-c5ccc(S(=O)(=O)[O-])cc5)c5ccc2[nH]5)C=C4)C=C3)cc1)N1C(=O)/C(=C\c2ccc(OCc3ccccc3Cl)cc2)SC1=S
REMARK SMILES IDX 7 1 6 2 5 3 3 4 4 5 2 6 1 7 74 8 75 9 95 10 76 11 77 12
REMARK SMILES IDX 94 13 96 14 78 15 79 16 80 17 93 18 81 19 92 20 82 21 83 22
REMARK SMILES IDX 84 23 85 24 86 25 90 26 87 27 89 28 91 29 88 30 8 31 9 32
REMARK SMILES IDX 10 33 11 34 12 35 13 36 14 37 15 38 73 39 16 40 72 41 17 42
REMARK SMILES IDX 18 43 19 44 66 45 20 46 71 47 65 48 67 49 21 50 70 51 64 52
REMARK SMILES IDX 63 53 22 55 52 56 33 57 51 58 34 59 37 60 50 61 68 62 35 63
REMARK SMILES IDX 36 64 49 66 69 67 38 68 23 69 24 70 32 71 25 72 31 73 26 74
REMARK SMILES IDX 27 75 28 76 29 77 30 78 53 79 54 80 62 81 55 82 61 83 56 84
REMARK SMILES IDX 57 85 58 86 59 87 60 88 39 89 40 90 48 91 41 92 47 93 42 94
REMARK SMILES IDX 43 95 44 96 45 97 46 98
REMARK H PARENT 67 54 37 65
REMARK Flexibility Score: inf
ROOT
ATOM      1  C   UNL A   1      31.493  29.589  25.229  1.00  0.00     0.202 C 
ENDROOT
BRANCH   1   2
ATOM      2  C   UNL A   1      31.084  29.415  23.759  1.00  0.00     0.261 C 
BRANCH   2   3
ATOM      3  O   UNL A   1      32.028  28.547  23.112  1.00  0.00    -0.462 OA
BRANCH   3   4
ATOM      4  C   UNL A   1      33.075  28.106  23.859  1.00  0.00     0.329 C 
ATOM      5  O   UNL A   1      34.233  28.484  23.742  1.00  0.00    -0.250 OA
BRANCH   4   6
ATOM      6  C   UNL A   1      32.593  27.146  24.959  1.00  0.00     0.199 C 
ATOM      7  C   UNL A   1      33.533  27.019  26.172  1.00  0.00     0.044 C 
BRANCH   6   8
ATOM      8  N   UNL A   1      32.089  25.814  24.510  1.00  0.00    -0.279 N 
ATOM      9  C   UNL A   1      33.061  24.879  24.181  1.00  0.00     0.266 C 
ATOM     10  C   UNL A   1      30.793  25.448  24.198  1.00  0.00     0.149 C 
ATOM     11  O   UNL A   1      34.266  25.067  24.273  1.00  0.00    -0.268 OA
ATOM     12  C   UNL A   1      32.446  23.638  23.622  1.00  0.00     0.081 C 
ATOM     13  S   UNL A   1      30.776  23.902  23.350  1.00  0.00    -0.054 SA
ATOM     14  S   UNL A   1      29.335  26.171  24.540  1.00  0.00    -0.052 S 
ATOM     15  C   UNL A   1      33.036  22.461  23.364  1.00  0.00     0.029 C 
BRANCH  15  16
ATOM     16  C   UNL A   1      34.438  22.188  23.661  1.00  0.00    -0.024 A 
ATOM     17  C   UNL A   1      35.442  22.835  22.941  1.00  0.00     0.012 A 
ATOM     18  C   UNL A   1      34.776  21.353  24.733  1.00  0.00     0.012 A 
ATOM     19  C   UNL A   1      36.764  22.743  23.373  1.00  0.00     0.047 A 
ATOM     20  C   UNL A   1      36.099  21.267  25.165  1.00  0.00     0.047 A 
ATOM     21  C   UNL A   1      37.082  22.020  24.526  1.00  0.00     0.119 A 
BRANCH  21  22
ATOM     22  O   UNL A   1      38.351  22.228  24.984  1.00  0.00    -0.489 OA
BRANCH  22  23
ATOM     23  C   UNL A   1      38.869  21.372  26.013  1.00  0.00     0.267 C 
BRANCH  23  24
ATOM     24  C   UNL A   1      40.116  21.843  26.753  1.00  0.00     0.008 A 
ATOM     25  C   UNL A   1      40.167  23.076  27.430  1.00  0.00     0.009 A 
ATOM     26  C   UNL A   1      41.241  21.003  26.870  1.00  0.00     0.047 A 
ATOM     27  C   UNL A   1      41.274  23.450  28.198  1.00  0.00     0.001 A 
ATOM     28  C   UNL A   1      42.360  21.388  27.622  1.00  0.00     0.021 A 
ATOM     29  Cl  UNL A   1      41.306  19.446  26.117  1.00  0.00    -0.084 Cl
ATOM     30  C   UNL A   1      42.372  22.607  28.294  1.00  0.00     0.002 A 
ENDBRANCH  23  24
ENDBRANCH  22  23
ENDBRANCH  21  22
ENDBRANCH  15  16
ENDBRANCH   6   8
ENDBRANCH   4   6
ENDBRANCH   3   4
ENDBRANCH   2   3
ENDBRANCH   1   2
BRANCH   1  31
ATOM     31  O   UNL A   1      31.379  30.908  25.776  1.00  0.00    -0.374 OA
BRANCH  31  32
ATOM     32  C   UNL A   1      32.194  31.227  26.902  1.00  0.00     0.202 C 
BRANCH  32  33
ATOM     33  C   UNL A   1      32.372  32.707  27.248  1.00  0.00     0.261 C 
BRANCH  33  34
ATOM     34  O   UNL A   1      33.646  32.977  27.840  1.00  0.00    -0.460 OA
BRANCH  34  35
ATOM     35  C   UNL A   1      33.597  33.886  28.842  1.00  0.00     0.338 C 
ATOM     36  O   UNL A   1      32.742  34.742  29.023  1.00  0.00    -0.246 OA
BRANCH  35  37
ATOM     37  C   UNL A   1      34.652  33.597  29.824  1.00  0.00     0.060 A 
ATOM     38  C   UNL A   1      35.846  34.320  29.711  1.00  0.00     0.016 A 
ATOM     39  C   UNL A   1      34.501  32.609  30.800  1.00  0.00     0.016 A 
ATOM     40  C   UNL A   1      36.922  34.012  30.535  1.00  0.00     0.010 A 
ATOM     41  C   UNL A   1      35.586  32.297  31.623  1.00  0.00     0.010 A 
ATOM     42  C   UNL A   1      36.811  32.970  31.463  1.00  0.00    -0.014 A 
BRANCH  42  43
ATOM     43  C   UNL A   1      38.029  32.475  32.142  1.00  0.00     0.031 A 
ATOM     44  C   UNL A   1      38.979  31.601  31.369  1.00  0.00     0.074 A 
ATOM     45  C   UNL A   1      38.300  32.833  33.408  1.00  0.00     0.049 A 
ATOM     46  N   UNL A   1      40.097  31.048  31.761  1.00  0.00    -0.248 NA
ATOM     47  C   UNL A   1      38.621  31.312  29.970  1.00  0.00     0.031 C 
ATOM     48  C   UNL A   1      37.475  33.716  34.234  1.00  0.00     0.029 A 
ATOM     49  N   UNL A   1      39.353  32.498  34.221  1.00  0.00    -0.354 N 
ATOM     50  C   UNL A   1      40.570  30.337  30.663  1.00  0.00     0.074 A 
ATOM     51  C   UNL A   1      39.605  30.506  29.599  1.00  0.00     0.031 C 
ATOM     52  C   UNL A   1      38.054  33.850  35.440  1.00  0.00     0.029 A 
ATOM     53  C   UNL A   1      39.269  33.038  35.481  1.00  0.00     0.049 A 
ATOM     54  H   UNL A   1      40.098  31.923  33.929  1.00  0.00     0.167 HD
ATOM     55  C   UNL A   1      41.707  29.613  30.552  1.00  0.00     0.031 A 
ATOM     56  C   UNL A   1      40.073  32.880  36.550  1.00  0.00     0.031 A 
ATOM     57  C   UNL A   1      42.657  29.444  31.619  1.00  0.00     0.049 A 
ATOM     58  C   UNL A   1      41.298  32.011  36.422  1.00  0.00     0.074 A 
ATOM     59  C   UNL A   1      43.851  28.746  31.604  1.00  0.00     0.029 A 
ATOM     60  N   UNL A   1      42.516  29.974  32.893  1.00  0.00    -0.354 N 
ATOM     61  N   UNL A   1      41.744  31.365  35.371  1.00  0.00    -0.248 NA
ATOM     62  C   UNL A   1      42.129  31.857  37.623  1.00  0.00     0.031 C 
ATOM     63  C   UNL A   1      44.404  28.804  32.889  1.00  0.00     0.029 A 
ATOM     64  C   UNL A   1      43.587  29.592  33.683  1.00  0.00     0.049 A 
ATOM     65  H   UNL A   1      41.766  30.536  33.191  1.00  0.00     0.167 HD
ATOM     66  C   UNL A   1      42.925  30.752  35.777  1.00  0.00     0.074 A 
ATOM     67  C   UNL A   1      43.129  31.115  37.165  1.00  0.00     0.031 C 
ATOM     68  C   UNL A   1      43.769  29.964  35.064  1.00  0.00     0.031 A 
BRANCH  55  69
ATOM     69  C   UNL A   1      41.966  28.915  29.243  1.00  0.00    -0.014 A 
ATOM     70  C   UNL A   1      42.747  29.512  28.236  1.00  0.00     0.010 A 
ATOM     71  C   UNL A   1      41.449  27.624  29.032  1.00  0.00     0.010 A 
ATOM     72  C   UNL A   1      42.977  28.844  27.030  1.00  0.00     0.020 A 
ATOM     73  C   UNL A   1      41.699  26.942  27.839  1.00  0.00     0.020 A 
ATOM     74  C   UNL A   1      42.449  27.563  26.839  1.00  0.00     0.054 A 
BRANCH  74  75
ATOM     75  S   UNL A   1      42.786  26.708  25.275  1.00  0.00     0.124 S 
ATOM     76  O   UNL A   1      42.800  27.816  24.323  1.00  0.00    -0.237 OA
ATOM     77  O   UNL A   1      44.080  26.078  25.525  1.00  0.00    -0.237 OA
ATOM     78  O   UNL A   1      41.663  25.784  25.136  1.00  0.00    -0.744 OA
ENDBRANCH  74  75
ENDBRANCH  55  69
BRANCH  56  79
ATOM     79  C   UNL A   1      39.739  33.545  37.839  1.00  0.00    -0.014 A 
ATOM     80  C   UNL A   1      40.198  34.844  38.118  1.00  0.00     0.010 A 
ATOM     81  C   UNL A   1      38.955  32.876  38.797  1.00  0.00     0.010 A 
ATOM     82  C   UNL A   1      39.895  35.454  39.339  1.00  0.00     0.020 A 
ATOM     83  C   UNL A   1      38.626  33.494  40.007  1.00  0.00     0.020 A 
ATOM     84  C   UNL A   1      39.109  34.776  40.275  1.00  0.00     0.054 A 
BRANCH  84  85
ATOM     85  S   UNL A   1      38.688  35.607  41.833  1.00  0.00     0.124 S 
ATOM     86  O   UNL A   1      37.273  35.278  41.977  1.00  0.00    -0.237 OA
ATOM     87  O   UNL A   1      39.589  34.964  42.786  1.00  0.00    -0.237 OA
ATOM     88  O   UNL A   1      38.980  37.012  41.560  1.00  0.00    -0.744 OA
ENDBRANCH  84  85
ENDBRANCH  56  79
BRANCH  68  89
ATOM     89  C   UNL A   1      45.009  29.469  35.760  1.00  0.00    -0.014 A 
ATOM     90  C   UNL A   1      44.981  28.328  36.580  1.00  0.00     0.010 A 
ATOM     91  C   UNL A   1      46.234  30.126  35.540  1.00  0.00     0.010 A 
ATOM     92  C   UNL A   1      46.151  27.871  37.193  1.00  0.00     0.020 A 
ATOM     93  C   UNL A   1      47.410  29.655  36.127  1.00  0.00     0.020 A 
ATOM     94  C   UNL A   1      47.358  28.539  36.963  1.00  0.00     0.054 A 
BRANCH  94  95
ATOM     95  S   UNL A   1      48.870  27.900  37.735  1.00  0.00     0.124 S 
ATOM     96  O   UNL A   1      48.374  27.420  39.022  1.00  0.00    -0.237 OA
ATOM     97  O   UNL A   1      49.295  26.862  36.799  1.00  0.00    -0.237 OA
ATOM     98  O   UNL A   1      49.746  29.068  37.801  1.00  0.00    -0.744 OA
ENDBRANCH  94  95
ENDBRANCH  68  89
ENDBRANCH  42  43
ENDBRANCH  35  37
ENDBRANCH  34  35
ENDBRANCH  33  34
ENDBRANCH  32  33
ENDBRANCH  31  32
ENDBRANCH   1  31
TORSDOF 22
ENDMDL
MODEL 2
REMARK VINA RESULT:     -10.3      4.555     10.044
REMARK SMILES C[C@@H](C(=O)OCCOCCOC(=O)c1ccc(-c2c3nc(c(-c4ccc(S(=O)(=O)[O-])cc4)c4ccc([nH]4)c(-c4ccc(S(=O)(=O)[O-])cc4)c4nc(c(-c5ccc(S(=O)(=O)[O-])cc5)c5ccc2[nH]5)C=C4)C=C3)cc1)N1C(=O)/C(=C\c2ccc(OCc3ccccc3Cl)cc2)SC1=S
REMARK SMILES IDX 7 1 6 2 5 3 3 4 4 5 2 6 1 7 74 8 75 9 95 10 76 11 77 12
REMARK SMILES IDX 94 13 96 14 78 15 79 16 80 17 93 18 81 19 92 20 82 21 83 22
REMARK SMILES IDX 84 23 85 24 86 25 90 26 87 27 89 28 91 29 88 30 8 31 9 32
REMARK SMILES IDX 10 33 11 34 12 35 13 36 14 37 15 38 73 39 16 40 72 41 17 42
REMARK SMILES IDX 18 43 19 44 66 45 20 46 71 47 65 48 67 49 21 50 70 51 64 52
REMARK SMILES IDX 63 53 22 55 52 56 33 57 51 58 34 59 37 60 50 61 68 62 35 63
REMARK SMILES IDX 36 64 49 66 69 67 38 68 23 69 24 70 32 71 25 72 31 73 26 74
REMARK SMILES IDX 27 75 28 76 29 77 30 78 53 79 54 80 62 81 55 82 61 83 56 84
REMARK SMILES IDX 57 85 58 86 59 87 60 88 39 89 40 90 48 91 41 92 47 93 42 94
REMARK SMILES IDX 43 95 44 96 45 97 46 98
REMARK H PARENT 67 54 37 65
REMARK Flexibility Score: inf
ROOT
ATOM      1  C   UNL A   1      35.347  25.259  25.468  1.00  0.00     0.202 C 
ENDROOT
BRANCH   1   2
ATOM      2  C   UNL A   1      36.325  24.314  26.181  1.00  0.00     0.261 C 
BRANCH   2   3
ATOM      3  O   UNL A   1      37.100  23.614  25.195  1.00  0.00    -0.462 OA
BRANCH   3   4
ATOM      4  C   UNL A   1      37.020  22.257  25.195  1.00  0.00     0.329 C 
ATOM      5  O   UNL A   1      37.512  21.521  26.039  1.00  0.00    -0.250 OA
BRANCH   4   6
ATOM      6  C   UNL A   1      36.121  21.765  24.048  1.00  0.00     0.199 C 
ATOM      7  C   UNL A   1      35.994  22.734  22.857  1.00  0.00     0.044 C 
BRANCH   6   8
ATOM      8  N   UNL A   1      34.799  21.190  24.434  1.00  0.00    -0.279 N 
ATOM      9  C   UNL A   1      33.777  22.107  24.640  1.00  0.00     0.266 C 
ATOM     10  C   UNL A   1      34.503  19.890  24.798  1.00  0.00     0.149 C 
ATOM     11  O   UNL A   1      33.887  23.316  24.489  1.00  0.00    -0.268 OA
ATOM     12  C   UNL A   1      32.544  21.434  25.149  1.00  0.00     0.081 C 
ATOM     13  S   UNL A   1      32.904  19.805  25.539  1.00  0.00    -0.054 SA
ATOM     14  S   UNL A   1      35.349  18.473  24.595  1.00  0.00    -0.052 S 
ATOM     15  C   UNL A   1      31.314  21.948  25.291  1.00  0.00     0.029 C 
BRANCH  15  16
ATOM     16  C   UNL A   1      30.966  23.308  24.892  1.00  0.00    -0.024 A 
ATOM     17  C   UNL A   1      30.719  23.600  23.551  1.00  0.00     0.012 A 
ATOM     18  C   UNL A   1      30.785  24.297  25.866  1.00  0.00     0.012 A 
ATOM     19  C   UNL A   1      30.175  24.836  23.207  1.00  0.00     0.047 A 
ATOM     20  C   UNL A   1      30.236  25.531  25.520  1.00  0.00     0.047 A 
ATOM     21  C   UNL A   1      29.865  25.772  24.198  1.00  0.00     0.119 A 
BRANCH  21  22
ATOM     22  O   UNL A   1      29.101  26.816  23.762  1.00  0.00    -0.489 OA
BRANCH  22  23
ATOM     23  C   UNL A   1      29.678  27.774  22.863  1.00  0.00     0.267 C 
BRANCH  23  24
ATOM     24  C   UNL A   1      29.165  29.207  22.943  1.00  0.00     0.008 A 
ATOM     25  C   UNL A   1      28.021  29.636  22.244  1.00  0.00     0.009 A 
ATOM     26  C   UNL A   1      29.769  30.138  23.810  1.00  0.00     0.047 A 
ATOM     27  C   UNL A   1      27.494  30.921  22.409  1.00  0.00     0.001 A 
ATOM     28  C   UNL A   1      29.254  31.434  23.959  1.00  0.00     0.021 A 
ATOM     29  Cl  UNL A   1      31.164  29.741  24.756  1.00  0.00    -0.084 Cl
ATOM     30  C   UNL A   1      28.111  31.822  23.266  1.00  0.00     0.002 A 
ENDBRANCH  23  24
ENDBRANCH  22  23
ENDBRANCH  21  22
ENDBRANCH  15  16
ENDBRANCH   6   8
ENDBRANCH   4   6
ENDBRANCH   3   4
ENDBRANCH   2   3
ENDBRANCH   1   2
BRANCH   1  31
ATOM     31  O   UNL A   1      34.197  25.675  26.214  1.00  0.00    -0.374 OA
BRANCH  31  32
ATOM     32  C   UNL A   1      33.557  26.887  25.817  1.00  0.00     0.202 C 
BRANCH  32  33
ATOM     33  C   UNL A   1      33.504  28.024  26.839  1.00  0.00     0.261 C 
BRANCH  33  34
ATOM     34  O   UNL A   1      34.432  29.070  26.535  1.00  0.00    -0.460 OA
BRANCH  34  35
ATOM     35  C   UNL A   1      34.595  29.960  27.542  1.00  0.00     0.338 C 
ATOM     36  O   UNL A   1      33.731  30.654  28.063  1.00  0.00    -0.246 OA
BRANCH  35  37
ATOM     37  C   UNL A   1      35.963  29.865  28.071  1.00  0.00     0.060 A 
ATOM     38  C   UNL A   1      37.012  30.153  27.189  1.00  0.00     0.016 A 
ATOM     39  C   UNL A   1      36.220  29.454  29.381  1.00  0.00     0.016 A 
ATOM     40  C   UNL A   1      38.327  29.969  27.595  1.00  0.00     0.010 A 
ATOM     41  C   UNL A   1      37.544  29.263  29.785  1.00  0.00     0.010 A 
ATOM     42  C   UNL A   1      38.597  29.480  28.878  1.00  0.00    -0.014 A 
BRANCH  42  43
ATOM     43  C   UNL A   1      39.970  29.036  29.208  1.00  0.00     0.031 A 
ATOM     44  C   UNL A   1      40.882  29.991  29.929  1.00  0.00     0.074 A 
ATOM     45  C   UNL A   1      40.378  27.793  28.905  1.00  0.00     0.049 A 
ATOM     46  N   UNL A   1      42.121  29.823  30.308  1.00  0.00    -0.248 NA
ATOM     47  C   UNL A   1      40.322  31.311  30.266  1.00  0.00     0.031 C 
ATOM     48  C   UNL A   1      39.562  26.768  28.252  1.00  0.00     0.029 A 
ATOM     49  N   UNL A   1      41.587  27.178  29.113  1.00  0.00    -0.354 N 
ATOM     50  C   UNL A   1      42.493  31.016  30.918  1.00  0.00     0.074 A 
ATOM     51  C   UNL A   1      41.359  31.909  30.833  1.00  0.00     0.031 C 
ATOM     52  C   UNL A   1      40.297  25.652  28.111  1.00  0.00     0.029 A 
ATOM     53  C   UNL A   1      41.641  25.893  28.631  1.00  0.00     0.049 A 
ATOM     54  H   UNL A   1      42.345  27.618  29.563  1.00  0.00     0.167 HD
ATOM     55  C   UNL A   1      43.674  31.336  31.498  1.00  0.00     0.031 A 
ATOM     56  C   UNL A   1      42.665  25.019  28.599  1.00  0.00     0.031 A 
ATOM     57  C   UNL A   1      44.799  30.443  31.570  1.00  0.00     0.049 A 
ATOM     58  C   UNL A   1      43.991  25.424  29.190  1.00  0.00     0.074 A 
ATOM     59  C   UNL A   1      46.034  30.662  32.154  1.00  0.00     0.029 A 
ATOM     60  N   UNL A   1      44.828  29.164  31.034  1.00  0.00    -0.354 N 
ATOM     61  N   UNL A   1      44.321  26.547  29.784  1.00  0.00    -0.248 NA
ATOM     62  C   UNL A   1      45.080  24.441  29.112  1.00  0.00     0.031 C 
ATOM     63  C   UNL A   1      46.831  29.536  31.919  1.00  0.00     0.029 A 
ATOM     64  C   UNL A   1      46.070  28.592  31.247  1.00  0.00     0.049 A 
ATOM     65  H   UNL A   1      44.077  28.728  30.572  1.00  0.00     0.167 HD
ATOM     66  C   UNL A   1      45.646  26.392  30.177  1.00  0.00     0.074 A 
ATOM     67  C   UNL A   1      46.052  25.064  29.763  1.00  0.00     0.031 C 
ATOM     68  C   UNL A   1      46.454  27.268  30.826  1.00  0.00     0.031 A 
BRANCH  55  69
ATOM     69  C   UNL A   1      43.820  32.723  32.066  1.00  0.00    -0.014 A 
ATOM     70  C   UNL A   1      43.539  32.995  33.417  1.00  0.00     0.010 A 
ATOM     71  C   UNL A   1      44.281  33.764  31.240  1.00  0.00     0.010 A 
ATOM     72  C   UNL A   1      43.686  34.290  33.923  1.00  0.00     0.020 A 
ATOM     73  C   UNL A   1      44.454  35.054  31.748  1.00  0.00     0.020 A 
ATOM     74  C   UNL A   1      44.140  35.312  33.084  1.00  0.00     0.054 A 
BRANCH  74  75
ATOM     75  S   UNL A   1      44.346  36.977  33.772  1.00  0.00     0.124 S 
ATOM     76  O   UNL A   1      43.150  37.657  33.282  1.00  0.00    -0.237 OA
ATOM     77  O   UNL A   1      44.382  36.727  35.211  1.00  0.00    -0.237 OA
ATOM     78  O   UNL A   1      45.605  37.440  33.192  1.00  0.00    -0.744 OA
ENDBRANCH  74  75
ENDBRANCH  55  69
BRANCH  56  79
ATOM     79  C   UNL A   1      42.484  23.681  27.973  1.00  0.00    -0.014 A 
ATOM     80  C   UNL A   1      42.459  22.517  28.760  1.00  0.00     0.010 A 
ATOM     81  C   UNL A   1      42.336  23.567  26.579  1.00  0.00     0.010 A 
ATOM     82  C   UNL A   1      42.306  21.262  28.162  1.00  0.00     0.020 A 
ATOM     83  C   UNL A   1      42.155  22.318  25.980  1.00  0.00     0.020 A 
ATOM     84  C   UNL A   1      42.153  21.171  26.775  1.00  0.00     0.054 A 
BRANCH  84  85
ATOM     85  S   UNL A   1      41.909  19.536  26.025  1.00  0.00     0.124 S 
ATOM     86  O   UNL A   1      40.489  19.568  25.688  1.00  0.00    -0.237 OA
ATOM     87  O   UNL A   1      42.831  19.568  24.893  1.00  0.00    -0.237 OA
ATOM     88  O   UNL A   1      42.279  18.612  27.095  1.00  0.00    -0.744 OA
ENDBRANCH  84  85
ENDBRANCH  56  79
BRANCH  68  89
ATOM     89  C   UNL A   1      47.847  26.808  31.162  1.00  0.00    -0.014 A 
ATOM     90  C   UNL A   1      48.901  26.930  30.240  1.00  0.00     0.010 A 
ATOM     91  C   UNL A   1      48.115  26.297  32.446  1.00  0.00     0.010 A 
ATOM     92  C   UNL A   1      50.192  26.521  30.585  1.00  0.00     0.020 A 
ATOM     93  C   UNL A   1      49.410  25.915  32.805  1.00  0.00     0.020 A 
ATOM     94  C   UNL A   1      50.438  26.016  31.866  1.00  0.00     0.054 A 
BRANCH  94  95
ATOM     95  S   UNL A   1      52.130  25.532  32.304  1.00  0.00     0.124 S 
ATOM     96  O   UNL A   1      52.287  26.138  33.624  1.00  0.00    -0.237 OA
ATOM     97  O   UNL A   1      52.062  24.073  32.286  1.00  0.00    -0.237 OA
ATOM     98  O   UNL A   1      52.945  26.124  31.246  1.00  0.00    -0.744 OA
ENDBRANCH  94  95
ENDBRANCH  68  89
ENDBRANCH  42  43
ENDBRANCH  35  37
ENDBRANCH  34  35
ENDBRANCH  33  34
ENDBRANCH  32  33
ENDBRANCH  31  32
ENDBRANCH   1  31
TORSDOF 22
ENDMDL
MODEL 3
REMARK VINA RESULT:      -9.9      4.796     10.258
REMARK SMILES C[C@@H](C(=O)OCCOCCOC(=O)c1ccc(-c2c3nc(c(-c4ccc(S(=O)(=O)[O-])cc4)c4ccc([nH]4)c(-c4ccc(S(=O)(=O)[O-])cc4)c4nc(c(-c5ccc(S(=O)(=O)[O-])cc5)c5ccc2[nH]5)C=C4)C=C3)cc1)N1C(=O)/C(=C\c2ccc(OCc3ccccc3Cl)cc2)SC1=S
REMARK SMILES IDX 7 1 6 2 5 3 3 4 4 5 2 6 1 7 74 8 75 9 95 10 76 11 77 12
REMARK SMILES IDX 94 13 96 14 78 15 79 16 80 17 93 18 81 19 92 20 82 21 83 22
REMARK SMILES IDX 84 23 85 24 86 25 90 26 87 27 89 28 91 29 88 30 8 31 9 32
REMARK SMILES IDX 10 33 11 34 12 35 13 36 14 37 15 38 73 39 16 40 72 41 17 42
REMARK SMILES IDX 18 43 19 44 66 45 20 46 71 47 65 48 67 49 21 50 70 51 64 52
REMARK SMILES IDX 63 53 22 55 52 56 33 57 51 58 34 59 37 60 50 61 68 62 35 63
REMARK SMILES IDX 36 64 49 66 69 67 38 68 23 69 24 70 32 71 25 72 31 73 26 74
REMARK SMILES IDX 27 75 28 76 29 77 30 78 53 79 54 80 62 81 55 82 61 83 56 84
REMARK SMILES IDX 57 85 58 86 59 87 60 88 39 89 40 90 48 91 41 92 47 93 42 94
REMARK SMILES IDX 43 95 44 96 45 97 46 98
REMARK H PARENT 67 54 37 65
REMARK Flexibility Score: inf
ROOT
ATOM      1  C   UNL A   1      45.520  26.363  25.167  1.00  0.00     0.202 C 
ENDROOT
BRANCH   1   2
ATOM      2  C   UNL A   1      44.419  25.292  25.176  1.00  0.00     0.261 C 
BRANCH   2   3
ATOM      3  O   UNL A   1      43.504  25.573  26.247  1.00  0.00    -0.462 OA
BRANCH   3   4
ATOM      4  C   UNL A   1      42.190  25.694  25.922  1.00  0.00     0.329 C 
ATOM      5  O   UNL A   1      41.760  26.242  24.916  1.00  0.00    -0.250 OA
BRANCH   4   6
ATOM      6  C   UNL A   1      41.307  24.942  26.932  1.00  0.00     0.199 C 
ATOM      7  C   UNL A   1      41.768  25.037  28.399  1.00  0.00     0.044 C 
BRANCH   6   8
ATOM      8  N   UNL A   1      40.912  23.549  26.567  1.00  0.00    -0.279 N 
ATOM      9  C   UNL A   1      39.562  23.351  26.312  1.00  0.00     0.266 C 
ATOM     10  C   UNL A   1      41.671  22.396  26.633  1.00  0.00     0.149 C 
ATOM     11  O   UNL A   1      38.714  24.233  26.331  1.00  0.00    -0.268 OA
ATOM     12  C   UNL A   1      39.262  21.904  26.091  1.00  0.00     0.081 C 
ATOM     13  S   UNL A   1      40.644  20.971  26.477  1.00  0.00    -0.054 SA
ATOM     14  S   UNL A   1      43.314  22.170  26.763  1.00  0.00    -0.052 S 
ATOM     15  C   UNL A   1      38.126  21.349  25.646  1.00  0.00     0.029 C 
BRANCH  15  16
ATOM     16  C   UNL A   1      36.962  22.129  25.236  1.00  0.00    -0.024 A 
ATOM     17  C   UNL A   1      36.706  22.340  23.881  1.00  0.00     0.012 A 
ATOM     18  C   UNL A   1      36.051  22.583  26.198  1.00  0.00     0.012 A 
ATOM     19  C   UNL A   1      35.486  22.889  23.492  1.00  0.00     0.047 A 
ATOM     20  C   UNL A   1      34.829  23.127  25.804  1.00  0.00     0.047 A 
ATOM     21  C   UNL A   1      34.519  23.213  24.448  1.00  0.00     0.119 A 
BRANCH  21  22
ATOM     22  O   UNL A   1      33.287  23.486  23.928  1.00  0.00    -0.489 OA
BRANCH  22  23
ATOM     23  C   UNL A   1      32.177  22.653  24.291  1.00  0.00     0.267 C 
BRANCH  23  24
ATOM     24  C   UNL A   1      32.399  21.145  24.276  1.00  0.00     0.008 A 
ATOM     25  C   UNL A   1      32.645  20.411  25.452  1.00  0.00     0.009 A 
ATOM     26  C   UNL A   1      32.266  20.411  23.082  1.00  0.00     0.047 A 
ATOM     27  C   UNL A   1      32.738  19.015  25.444  1.00  0.00     0.001 A 
ATOM     28  C   UNL A   1      32.381  19.014  23.070  1.00  0.00     0.021 A 
ATOM     29  Cl  UNL A   1      31.933  21.178  21.566  1.00  0.00    -0.084 Cl
ATOM     30  C   UNL A   1      32.607  18.315  24.253  1.00  0.00     0.002 A 
ENDBRANCH  23  24
ENDBRANCH  22  23
ENDBRANCH  21  22
ENDBRANCH  15  16
ENDBRANCH   6   8
ENDBRANCH   4   6
ENDBRANCH   3   4
ENDBRANCH   2   3
ENDBRANCH   1   2
BRANCH   1  31
ATOM     31  O   UNL A   1      46.793  25.979  25.701  1.00  0.00    -0.374 OA
BRANCH  31  32
ATOM     32  C   UNL A   1      47.825  25.651  24.772  1.00  0.00     0.202 C 
BRANCH  32  33
ATOM     33  C   UNL A   1      49.268  25.939  25.190  1.00  0.00     0.261 C 
BRANCH  33  34
ATOM     34  O   UNL A   1      49.733  27.201  24.701  1.00  0.00    -0.460 OA
BRANCH  34  35
ATOM     35  C   UNL A   1      50.378  27.940  25.634  1.00  0.00     0.338 C 
ATOM     36  O   UNL A   1      51.583  28.141  25.715  1.00  0.00    -0.246 OA
BRANCH  35  37
ATOM     37  C   UNL A   1      49.398  28.642  26.475  1.00  0.00     0.060 A 
ATOM     38  C   UNL A   1      49.760  28.896  27.803  1.00  0.00     0.016 A 
ATOM     39  C   UNL A   1      48.134  28.996  25.996  1.00  0.00     0.016 A 
ATOM     40  C   UNL A   1      48.835  29.450  28.679  1.00  0.00     0.010 A 
ATOM     41  C   UNL A   1      47.204  29.547  26.880  1.00  0.00     0.010 A 
ATOM     42  C   UNL A   1      47.539  29.736  28.233  1.00  0.00    -0.014 A 
BRANCH  42  43
ATOM     43  C   UNL A   1      46.492  30.070  29.223  1.00  0.00     0.031 A 
ATOM     44  C   UNL A   1      46.165  29.064  30.293  1.00  0.00     0.074 A 
ATOM     45  C   UNL A   1      45.876  31.264  29.191  1.00  0.00     0.049 A 
ATOM     46  N   UNL A   1      45.282  29.137  31.253  1.00  0.00    -0.248 NA
ATOM     47  C   UNL A   1      46.935  27.809  30.275  1.00  0.00     0.031 C 
ATOM     48  C   UNL A   1      46.150  32.333  28.230  1.00  0.00     0.029 A 
ATOM     49  N   UNL A   1      44.891  31.778  29.996  1.00  0.00    -0.354 N 
ATOM     50  C   UNL A   1      45.381  27.936  31.948  1.00  0.00     0.074 A 
ATOM     51  C   UNL A   1      46.390  27.142  31.283  1.00  0.00     0.031 C 
ATOM     52  C   UNL A   1      45.348  33.377  28.502  1.00  0.00     0.029 A 
ATOM     53  C   UNL A   1      44.484  33.038  29.630  1.00  0.00     0.049 A 
ATOM     54  H   UNL A   1      44.512  31.289  30.763  1.00  0.00     0.167 HD
ATOM     55  C   UNL A   1      44.696  27.535  33.044  1.00  0.00     0.031 A 
ATOM     56  C   UNL A   1      43.512  33.818  30.139  1.00  0.00     0.031 A 
ATOM     57  C   UNL A   1      43.688  28.329  33.694  1.00  0.00     0.049 A 
ATOM     58  C   UNL A   1      42.714  33.320  31.317  1.00  0.00     0.074 A 
ATOM     59  C   UNL A   1      42.948  28.023  34.821  1.00  0.00     0.029 A 
ATOM     60  N   UNL A   1      43.275  29.583  33.268  1.00  0.00    -0.354 N 
ATOM     61  N   UNL A   1      42.836  32.193  31.977  1.00  0.00    -0.248 NA
ATOM     62  C   UNL A   1      41.653  34.203  31.820  1.00  0.00     0.031 C 
ATOM     63  C   UNL A   1      42.044  29.068  35.044  1.00  0.00     0.029 A 
ATOM     64  C   UNL A   1      42.268  30.052  34.094  1.00  0.00     0.049 A 
ATOM     65  H   UNL A   1      43.643  30.067  32.495  1.00  0.00     0.167 HD
ATOM     66  C   UNL A   1      41.887  32.245  32.994  1.00  0.00     0.074 A 
ATOM     67  C   UNL A   1      41.209  33.519  32.867  1.00  0.00     0.031 C 
ATOM     68  C   UNL A   1      41.606  31.324  33.949  1.00  0.00     0.031 A 
BRANCH  55  69
ATOM     69  C   UNL A   1      44.985  26.159  33.583  1.00  0.00    -0.014 A 
ATOM     70  C   UNL A   1      46.017  25.939  34.514  1.00  0.00     0.010 A 
ATOM     71  C   UNL A   1      44.186  25.075  33.180  1.00  0.00     0.010 A 
ATOM     72  C   UNL A   1      46.265  24.654  35.004  1.00  0.00     0.020 A 
ATOM     73  C   UNL A   1      44.413  23.793  33.688  1.00  0.00     0.020 A 
ATOM     74  C   UNL A   1      45.462  23.588  34.586  1.00  0.00     0.054 A 
BRANCH  74  75
ATOM     75  S   UNL A   1      45.789  21.936  35.258  1.00  0.00     0.124 S 
ATOM     76  O   UNL A   1      44.736  21.141  34.630  1.00  0.00    -0.237 OA
ATOM     77  O   UNL A   1      47.146  21.662  34.792  1.00  0.00    -0.237 OA
ATOM     78  O   UNL A   1      45.654  22.115  36.702  1.00  0.00    -0.744 OA
ENDBRANCH  74  75
ENDBRANCH  55  69
BRANCH  56  79
ATOM     79  C   UNL A   1      43.226  35.147  29.530  1.00  0.00    -0.014 A 
ATOM     80  C   UNL A   1      42.433  35.252  28.375  1.00  0.00     0.010 A 
ATOM     81  C   UNL A   1      43.751  36.316  30.109  1.00  0.00     0.010 A 
ATOM     82  C   UNL A   1      42.185  36.502  27.799  1.00  0.00     0.020 A 
ATOM     83  C   UNL A   1      43.481  37.570  29.553  1.00  0.00     0.020 A 
ATOM     84  C   UNL A   1      42.709  37.653  28.393  1.00  0.00     0.054 A 
BRANCH  84  85
ATOM     85  S   UNL A   1      42.335  39.269  27.656  1.00  0.00     0.124 S 
ATOM     86  O   UNL A   1      41.410  38.906  26.587  1.00  0.00    -0.237 OA
ATOM     87  O   UNL A   1      41.752  39.999  28.779  1.00  0.00    -0.237 OA
ATOM     88  O   UNL A   1      43.641  39.755  27.217  1.00  0.00    -0.744 OA
ENDBRANCH  84  85
ENDBRANCH  56  79
BRANCH  68  89
ATOM     89  C   UNL A   1      40.542  31.673  34.956  1.00  0.00    -0.014 A 
ATOM     90  C   UNL A   1      39.218  31.225  34.808  1.00  0.00     0.010 A 
ATOM     91  C   UNL A   1      40.891  32.415  36.100  1.00  0.00     0.010 A 
ATOM     92  C   UNL A   1      38.255  31.539  35.770  1.00  0.00     0.020 A 
ATOM     93  C   UNL A   1      39.938  32.705  37.079  1.00  0.00     0.020 A 
ATOM     94  C   UNL A   1      38.621  32.278  36.900  1.00  0.00     0.054 A 
BRANCH  94  95
ATOM     95  S   UNL A   1      37.363  32.635  38.156  1.00  0.00     0.124 S 
ATOM     96  O   UNL A   1      38.061  33.578  39.026  1.00  0.00    -0.237 OA
ATOM     97  O   UNL A   1      36.271  33.199  37.365  1.00  0.00    -0.237 OA
ATOM     98  O   UNL A   1      37.084  31.329  38.749  1.00  0.00    -0.744 OA
ENDBRANCH  94  95
ENDBRANCH  68  89
ENDBRANCH  42  43
ENDBRANCH  35  37
ENDBRANCH  34  35
ENDBRANCH  33  34
ENDBRANCH  32  33
ENDBRANCH  31  32
ENDBRANCH   1  31
TORSDOF 22
ENDMDL
