MODEL 1
REMARK VINA RESULT:     -10.8      0.000      0.000
REMARK SMILES Cc1cc(Cl)c(C)c2c1O[C@H](C(F)(F)F)C(C(=O)OCCOCCOC(=O)c1ccc(-c3c4nc(c(-c5ccc(S(=O)(=O)[O-])cc5)c5ccc([nH]5)c(-c5ccc(S(=O)(=O)[O-])cc5)c5nc(c(-c6ccc(S(=O)(=O)[O-])cc6)c6ccc3[nH]6)C=C5)C=C4)cc1)=C2
REMARK SMILES IDX 23 1 22 2 21 3 20 4 19 5 17 6 18 7 16 8 1 9 2 10 3 11 9 12
REMARK SMILES IDX 4 13 8 14 10 15 5 16 6 17 88 18 11 19 7 20 12 21 13 22 14 23
REMARK SMILES IDX 15 24 24 25 25 26 26 27 27 28 28 29 29 30 87 31 30 32 86 33
REMARK SMILES IDX 31 34 32 35 33 36 80 37 34 38 85 39 79 40 81 41 35 42 84 43
REMARK SMILES IDX 78 44 77 45 36 47 66 48 47 49 65 50 48 51 51 52 64 53 82 54
REMARK SMILES IDX 49 55 50 56 63 58 83 59 52 60 37 61 38 62 46 63 39 64 45 65
REMARK SMILES IDX 40 66 41 67 42 68 43 69 44 70 67 71 68 72 76 73 69 74 75 75
REMARK SMILES IDX 70 76 71 77 72 78 73 79 74 80 53 81 54 82 62 83 55 84 61 85
REMARK SMILES IDX 56 86 57 87 58 88 59 89 60 90
REMARK H PARENT 81 46 51 57
REMARK Flexibility Score: inf
ROOT
ATOM      1  C   UNL A   1      34.292  31.219  27.806  1.00  0.00     0.202 C 
ENDROOT
BRANCH   1   2
ATOM      2  O   UNL A   1      33.848  30.093  27.048  1.00  0.00    -0.374 OA
BRANCH   2   3
ATOM      3  C   UNL A   1      32.485  29.694  27.186  1.00  0.00     0.202 C 
BRANCH   3   4
ATOM      4  C   UNL A   1      32.024  28.501  26.343  1.00  0.00     0.261 C 
BRANCH   4   5
ATOM      5  O   UNL A   1      32.911  27.379  26.475  1.00  0.00    -0.460 OA
BRANCH   5   6
ATOM      6  C   UNL A   1      33.375  26.890  25.302  1.00  0.00     0.338 C 
ATOM      7  O   UNL A   1      33.832  27.531  24.368  1.00  0.00    -0.246 OA
BRANCH   6   8
ATOM      8  C   UNL A   1      33.390  25.416  25.343  1.00  0.00     0.087 C 
ATOM      9  C   UNL A   1      32.373  20.440  24.722  1.00  0.00     0.048 C 
ATOM     10  C   UNL A   1      33.604  21.270  24.955  1.00  0.00    -0.007 A 
ATOM     11  C   UNL A   1      34.858  20.655  24.850  1.00  0.00     0.028 A 
ATOM     12  C   UNL A   1      33.546  22.652  25.179  1.00  0.00     0.131 A 
ATOM     13  C   UNL A   1      36.036  21.389  25.012  1.00  0.00     0.045 A 
ATOM     14  C   UNL A   1      34.727  23.407  25.298  1.00  0.00     0.022 A 
ATOM     15  O   UNL A   1      32.293  23.194  25.285  1.00  0.00    -0.475 OA
ATOM     16  Cl  UNL A   1      37.521  20.510  24.871  1.00  0.00    -0.084 Cl
ATOM     17  C   UNL A   1      35.995  22.773  25.253  1.00  0.00    -0.021 A 
ATOM     18  C   UNL A   1      34.606  24.858  25.389  1.00  0.00     0.027 C 
ATOM     19  C   UNL A   1      32.114  24.634  25.306  1.00  0.00     0.316 C 
ATOM     20  C   UNL A   1      37.255  23.580  25.452  1.00  0.00     0.047 C 
BRANCH  19  21
ATOM     21  C   UNL A   1      31.208  25.016  24.126  1.00  0.00     0.430 C 
ATOM     22  F   UNL A   1      30.349  26.004  24.473  1.00  0.00    -0.167 F 
ATOM     23  F   UNL A   1      31.919  25.467  23.069  1.00  0.00    -0.167 F 
ATOM     24  F   UNL A   1      30.469  23.965  23.703  1.00  0.00    -0.167 F 
ENDBRANCH  19  21
ENDBRANCH   6   8
ENDBRANCH   5   6
ENDBRANCH   4   5
ENDBRANCH   3   4
ENDBRANCH   2   3
ENDBRANCH   1   2
BRANCH   1  25
ATOM     25  C   UNL A   1      35.541  31.040  28.679  1.00  0.00     0.261 C 
BRANCH  25  26
ATOM     26  O   UNL A   1      36.055  29.697  28.627  1.00  0.00    -0.460 OA
BRANCH  26  27
ATOM     27  C   UNL A   1      36.894  29.372  29.640  1.00  0.00     0.338 C 
ATOM     28  O   UNL A   1      36.612  29.267  30.827  1.00  0.00    -0.246 OA
BRANCH  27  29
ATOM     29  C   UNL A   1      38.200  28.958  29.100  1.00  0.00     0.060 A 
ATOM     30  C   UNL A   1      39.096  28.330  29.975  1.00  0.00     0.016 A 
ATOM     31  C   UNL A   1      38.575  29.260  27.790  1.00  0.00     0.016 A 
ATOM     32  C   UNL A   1      40.391  28.039  29.553  1.00  0.00     0.010 A 
ATOM     33  C   UNL A   1      39.881  28.978  27.373  1.00  0.00     0.010 A 
ATOM     34  C   UNL A   1      40.803  28.399  28.264  1.00  0.00    -0.014 A 
BRANCH  34  35
ATOM     35  C   UNL A   1      42.240  28.308  27.911  1.00  0.00     0.031 A 
ATOM     36  C   UNL A   1      43.133  29.486  28.191  1.00  0.00     0.074 A 
ATOM     37  C   UNL A   1      42.753  27.174  27.402  1.00  0.00     0.049 A 
ATOM     38  N   UNL A   1      44.415  29.621  27.974  1.00  0.00    -0.248 NA
ATOM     39  C   UNL A   1      42.497  30.665  28.805  1.00  0.00     0.031 C 
ATOM     40  C   UNL A   1      42.001  25.946  27.144  1.00  0.00     0.029 A 
ATOM     41  N   UNL A   1      44.036  26.870  27.020  1.00  0.00    -0.354 N 
ATOM     42  C   UNL A   1      44.743  30.894  28.427  1.00  0.00     0.074 A 
ATOM     43  C   UNL A   1      43.519  31.504  28.899  1.00  0.00     0.031 C 
ATOM     44  C   UNL A   1      42.840  25.018  26.652  1.00  0.00     0.029 A 
ATOM     45  C   UNL A   1      44.178  25.595  26.530  1.00  0.00     0.049 A 
ATOM     46  H   UNL A   1      44.784  27.506  27.091  1.00  0.00     0.167 HD
ATOM     47  C   UNL A   1      45.954  31.496  28.458  1.00  0.00     0.031 A 
ATOM     48  C   UNL A   1      45.261  24.966  26.030  1.00  0.00     0.031 A 
ATOM     49  C   UNL A   1      47.166  30.896  27.970  1.00  0.00     0.049 A 
ATOM     50  C   UNL A   1      46.578  25.696  25.978  1.00  0.00     0.074 A 
ATOM     51  C   UNL A   1      48.444  31.430  27.951  1.00  0.00     0.029 A 
ATOM     52  N   UNL A   1      47.253  29.631  27.410  1.00  0.00    -0.354 N 
ATOM     53  N   UNL A   1      46.871  26.899  26.411  1.00  0.00    -0.248 NA
ATOM     54  C   UNL A   1      47.710  24.982  25.370  1.00  0.00     0.031 C 
ATOM     55  C   UNL A   1      49.292  30.508  27.330  1.00  0.00     0.029 A 
ATOM     56  C   UNL A   1      48.555  29.376  27.017  1.00  0.00     0.049 A 
ATOM     57  H   UNL A   1      46.500  29.005  27.309  1.00  0.00     0.167 HD
ATOM     58  C   UNL A   1      48.225  27.078  26.147  1.00  0.00     0.074 A 
ATOM     59  C   UNL A   1      48.697  25.856  25.528  1.00  0.00     0.031 C 
ATOM     60  C   UNL A   1      49.007  28.157  26.394  1.00  0.00     0.031 A 
BRANCH  47  61
ATOM     61  C   UNL A   1      46.023  32.891  29.019  1.00  0.00    -0.014 A 
ATOM     62  C   UNL A   1      46.288  33.110  30.383  1.00  0.00     0.010 A 
ATOM     63  C   UNL A   1      45.868  33.998  28.164  1.00  0.00     0.010 A 
ATOM     64  C   UNL A   1      46.367  34.411  30.888  1.00  0.00     0.020 A 
ATOM     65  C   UNL A   1      45.970  35.301  28.661  1.00  0.00     0.020 A 
ATOM     66  C   UNL A   1      46.206  35.498  30.022  1.00  0.00     0.054 A 
BRANCH  66  67
ATOM     67  S   UNL A   1      46.340  37.175  30.702  1.00  0.00     0.124 S 
ATOM     68  O   UNL A   1      45.023  37.728  30.401  1.00  0.00    -0.237 OA
ATOM     69  O   UNL A   1      46.609  36.925  32.116  1.00  0.00    -0.237 OA
ATOM     70  O   UNL A   1      47.449  37.765  29.955  1.00  0.00    -0.744 OA
ENDBRANCH  66  67
ENDBRANCH  47  61
BRANCH  48  71
ATOM     71  C   UNL A   1      45.143  23.571  25.529  1.00  0.00    -0.014 A 
ATOM     72  C   UNL A   1      45.422  22.482  26.373  1.00  0.00     0.010 A 
ATOM     73  C   UNL A   1      44.735  23.322  24.206  1.00  0.00     0.010 A 
ATOM     74  C   UNL A   1      45.300  21.171  25.903  1.00  0.00     0.020 A 
ATOM     75  C   UNL A   1      44.587  22.013  23.738  1.00  0.00     0.020 A 
ATOM     76  C   UNL A   1      44.877  20.945  24.589  1.00  0.00     0.054 A 
BRANCH  76  77
ATOM     77  S   UNL A   1      44.666  19.234  24.023  1.00  0.00     0.124 S 
ATOM     78  O   UNL A   1      43.418  18.851  24.675  1.00  0.00    -0.237 OA
ATOM     79  O   UNL A   1      44.602  19.390  22.573  1.00  0.00    -0.237 OA
ATOM     80  O   UNL A   1      45.864  18.560  24.518  1.00  0.00    -0.744 OA
ENDBRANCH  76  77
ENDBRANCH  48  71
BRANCH  60  81
ATOM     81  C   UNL A   1      50.461  28.071  26.012  1.00  0.00    -0.014 A 
ATOM     82  C   UNL A   1      51.422  27.592  26.918  1.00  0.00     0.010 A 
ATOM     83  C   UNL A   1      50.857  28.397  24.701  1.00  0.00     0.010 A 
ATOM     84  C   UNL A   1      52.756  27.456  26.528  1.00  0.00     0.020 A 
ATOM     85  C   UNL A   1      52.186  28.237  24.298  1.00  0.00     0.020 A 
ATOM     86  C   UNL A   1      53.130  27.776  25.218  1.00  0.00     0.054 A 
BRANCH  86  87
ATOM     87  S   UNL A   1      54.857  27.532  24.722  1.00  0.00     0.124 S 
ATOM     88  O   UNL A   1      54.927  26.082  24.564  1.00  0.00    -0.237 OA
ATOM     89  O   UNL A   1      54.945  28.304  23.484  1.00  0.00    -0.237 OA
ATOM     90  O   UNL A   1      55.622  28.075  25.843  1.00  0.00    -0.744 OA
ENDBRANCH  86  87
ENDBRANCH  60  81
ENDBRANCH  34  35
ENDBRANCH  27  29
ENDBRANCH  26  27
ENDBRANCH  25  26
ENDBRANCH   1  25
TORSDOF 18
ENDMDL
MODEL 2
REMARK VINA RESULT:     -10.8      3.157      4.032
REMARK SMILES Cc1cc(Cl)c(C)c2c1O[C@H](C(F)(F)F)C(C(=O)OCCOCCOC(=O)c1ccc(-c3c4nc(c(-c5ccc(S(=O)(=O)[O-])cc5)c5ccc([nH]5)c(-c5ccc(S(=O)(=O)[O-])cc5)c5nc(c(-c6ccc(S(=O)(=O)[O-])cc6)c6ccc3[nH]6)C=C5)C=C4)cc1)=C2
REMARK SMILES IDX 23 1 22 2 21 3 20 4 19 5 17 6 18 7 16 8 1 9 2 10 3 11 9 12
REMARK SMILES IDX 4 13 8 14 10 15 5 16 6 17 88 18 11 19 7 20 12 21 13 22 14 23
REMARK SMILES IDX 15 24 24 25 25 26 26 27 27 28 28 29 29 30 87 31 30 32 86 33
REMARK SMILES IDX 31 34 32 35 33 36 80 37 34 38 85 39 79 40 81 41 35 42 84 43
REMARK SMILES IDX 78 44 77 45 36 47 66 48 47 49 65 50 48 51 51 52 64 53 82 54
REMARK SMILES IDX 49 55 50 56 63 58 83 59 52 60 37 61 38 62 46 63 39 64 45 65
REMARK SMILES IDX 40 66 41 67 42 68 43 69 44 70 67 71 68 72 76 73 69 74 75 75
REMARK SMILES IDX 70 76 71 77 72 78 73 79 74 80 53 81 54 82 62 83 55 84 61 85
REMARK SMILES IDX 56 86 57 87 58 88 59 89 60 90
REMARK H PARENT 81 46 51 57
REMARK Flexibility Score: inf
ROOT
ATOM      1  C   UNL A   1      31.813  29.833  26.097  1.00  0.00     0.202 C 
ENDROOT
BRANCH   1   2
ATOM      2  O   UNL A   1      31.664  29.383  24.749  1.00  0.00    -0.374 OA
BRANCH   2   3
ATOM      3  C   UNL A   1      32.847  29.053  24.024  1.00  0.00     0.202 C 
BRANCH   3   4
ATOM      4  C   UNL A   1      32.659  28.508  22.605  1.00  0.00     0.261 C 
BRANCH   4   5
ATOM      5  O   UNL A   1      33.486  27.359  22.360  1.00  0.00    -0.460 OA
BRANCH   5   6
ATOM      6  C   UNL A   1      32.816  26.184  22.321  1.00  0.00     0.338 C 
ATOM      7  O   UNL A   1      32.098  25.777  21.421  1.00  0.00    -0.246 OA
BRANCH   6   8
ATOM      8  C   UNL A   1      33.182  25.359  23.488  1.00  0.00     0.087 C 
ATOM      9  C   UNL A   1      33.144  22.449  27.696  1.00  0.00     0.048 C 
ATOM     10  C   UNL A   1      34.044  22.610  26.502  1.00  0.00    -0.007 A 
ATOM     11  C   UNL A   1      35.081  21.689  26.314  1.00  0.00     0.028 A 
ATOM     12  C   UNL A   1      33.823  23.590  25.524  1.00  0.00     0.131 A 
ATOM     13  C   UNL A   1      35.919  21.766  25.198  1.00  0.00     0.045 A 
ATOM     14  C   UNL A   1      34.632  23.646  24.375  1.00  0.00     0.022 A 
ATOM     15  O   UNL A   1      32.803  24.468  25.770  1.00  0.00    -0.475 OA
ATOM     16  Cl  UNL A   1      37.172  20.576  25.087  1.00  0.00    -0.084 Cl
ATOM     17  C   UNL A   1      35.722  22.750  24.216  1.00  0.00    -0.021 A 
ATOM     18  C   UNL A   1      34.269  24.594  23.327  1.00  0.00     0.027 C 
ATOM     19  C   UNL A   1      32.355  25.383  24.735  1.00  0.00     0.316 C 
ATOM     20  C   UNL A   1      36.627  22.864  23.014  1.00  0.00     0.047 C 
BRANCH  19  21
ATOM     21  C   UNL A   1      30.866  25.112  24.476  1.00  0.00     0.430 C 
ATOM     22  F   UNL A   1      30.249  26.215  23.989  1.00  0.00    -0.167 F 
ATOM     23  F   UNL A   1      30.683  24.127  23.568  1.00  0.00    -0.167 F 
ATOM     24  F   UNL A   1      30.219  24.750  25.607  1.00  0.00    -0.167 F 
ENDBRANCH  19  21
ENDBRANCH   6   8
ENDBRANCH   5   6
ENDBRANCH   4   5
ENDBRANCH   3   4
ENDBRANCH   2   3
ENDBRANCH   1   2
BRANCH   1  25
ATOM     25  C   UNL A   1      33.130  30.522  26.475  1.00  0.00     0.261 C 
BRANCH  25  26
ATOM     26  O   UNL A   1      33.632  30.079  27.749  1.00  0.00    -0.460 OA
BRANCH  26  27
ATOM     27  C   UNL A   1      34.537  30.910  28.320  1.00  0.00     0.338 C 
ATOM     28  O   UNL A   1      34.320  32.002  28.829  1.00  0.00    -0.246 OA
BRANCH  27  29
ATOM     29  C   UNL A   1      35.841  30.234  28.433  1.00  0.00     0.060 A 
ATOM     30  C   UNL A   1      36.191  29.699  29.679  1.00  0.00     0.016 A 
ATOM     31  C   UNL A   1      36.740  30.203  27.365  1.00  0.00     0.016 A 
ATOM     32  C   UNL A   1      37.464  29.168  29.875  1.00  0.00     0.010 A 
ATOM     33  C   UNL A   1      38.022  29.682  27.569  1.00  0.00     0.010 A 
ATOM     34  C   UNL A   1      38.399  29.194  28.834  1.00  0.00    -0.014 A 
BRANCH  34  35
ATOM     35  C   UNL A   1      39.813  28.855  29.122  1.00  0.00     0.031 A 
ATOM     36  C   UNL A   1      40.667  29.856  29.852  1.00  0.00     0.074 A 
ATOM     37  C   UNL A   1      40.314  27.651  28.789  1.00  0.00     0.049 A 
ATOM     38  N   UNL A   1      41.920  29.765  30.215  1.00  0.00    -0.248 NA
ATOM     39  C   UNL A   1      40.020  31.124  30.230  1.00  0.00     0.031 C 
ATOM     40  C   UNL A   1      39.568  26.577  28.136  1.00  0.00     0.029 A 
ATOM     41  N   UNL A   1      41.571  27.129  28.968  1.00  0.00    -0.354 N 
ATOM     42  C   UNL A   1      42.211  30.958  30.867  1.00  0.00     0.074 A 
ATOM     43  C   UNL A   1      41.015  31.770  30.821  1.00  0.00     0.031 C 
ATOM     44  C   UNL A   1      40.382  25.519  27.974  1.00  0.00     0.029 A 
ATOM     45  C   UNL A   1      41.711  25.852  28.483  1.00  0.00     0.049 A 
ATOM     46  H   UNL A   1      42.302  27.624  29.403  1.00  0.00     0.167 HD
ATOM     47  C   UNL A   1      43.366  31.337  31.462  1.00  0.00     0.031 A 
ATOM     48  C   UNL A   1      42.792  25.047  28.443  1.00  0.00     0.031 A 
ATOM     49  C   UNL A   1      44.560  30.537  31.491  1.00  0.00     0.049 A 
ATOM     50  C   UNL A   1      44.096  25.534  29.018  1.00  0.00     0.074 A 
ATOM     51  C   UNL A   1      45.784  30.838  32.063  1.00  0.00     0.029 A 
ATOM     52  N   UNL A   1      44.684  29.279  30.920  1.00  0.00    -0.354 N 
ATOM     53  N   UNL A   1      44.355  26.664  29.632  1.00  0.00    -0.248 NA
ATOM     54  C   UNL A   1      45.254  24.636  28.895  1.00  0.00     0.031 C 
ATOM     55  C   UNL A   1      46.664  29.785  31.790  1.00  0.00     0.029 A 
ATOM     56  C   UNL A   1      45.971  28.803  31.100  1.00  0.00     0.049 A 
ATOM     57  H   UNL A   1      43.963  28.796  30.455  1.00  0.00     0.167 HD
ATOM     58  C   UNL A   1      45.699  26.604  29.987  1.00  0.00     0.074 A 
ATOM     59  C   UNL A   1      46.195  25.322  29.531  1.00  0.00     0.031 C 
ATOM     60  C   UNL A   1      46.452  27.527  30.632  1.00  0.00     0.031 A 
BRANCH  47  61
ATOM     61  C   UNL A   1      43.401  32.694  32.111  1.00  0.00    -0.014 A 
ATOM     62  C   UNL A   1      43.737  33.842  31.371  1.00  0.00     0.010 A 
ATOM     63  C   UNL A   1      43.049  32.831  33.466  1.00  0.00     0.010 A 
ATOM     64  C   UNL A   1      43.748  35.100  31.982  1.00  0.00     0.020 A 
ATOM     65  C   UNL A   1      43.036  34.090  34.075  1.00  0.00     0.020 A 
ATOM     66  C   UNL A   1      43.398  35.214  33.331  1.00  0.00     0.054 A 
BRANCH  66  67
ATOM     67  S   UNL A   1      43.397  36.863  34.088  1.00  0.00     0.124 S 
ATOM     68  O   UNL A   1      43.564  37.729  32.925  1.00  0.00    -0.237 OA
ATOM     69  O   UNL A   1      42.086  36.918  34.729  1.00  0.00    -0.237 OA
ATOM     70  O   UNL A   1      44.534  36.825  35.005  1.00  0.00    -0.744 OA
ENDBRANCH  66  67
ENDBRANCH  47  61
BRANCH  48  71
ATOM     71  C   UNL A   1      42.687  23.697  27.826  1.00  0.00    -0.014 A 
ATOM     72  C   UNL A   1      42.974  23.510  26.463  1.00  0.00     0.010 A 
ATOM     73  C   UNL A   1      42.313  22.586  28.605  1.00  0.00     0.010 A 
ATOM     74  C   UNL A   1      42.884  22.238  25.888  1.00  0.00     0.020 A 
ATOM     75  C   UNL A   1      42.247  21.309  28.041  1.00  0.00     0.020 A 
ATOM     76  C   UNL A   1      42.526  21.144  26.683  1.00  0.00     0.054 A 
BRANCH  76  77
ATOM     77  S   UNL A   1      42.479  19.495  25.927  1.00  0.00     0.124 S 
ATOM     78  O   UNL A   1      43.533  19.592  24.923  1.00  0.00    -0.237 OA
ATOM     79  O   UNL A   1      42.763  18.622  27.063  1.00  0.00    -0.237 OA
ATOM     80  O   UNL A   1      41.119  19.399  25.401  1.00  0.00    -0.744 OA
ENDBRANCH  76  77
ENDBRANCH  48  71
BRANCH  60  81
ATOM     81  C   UNL A   1      47.895  27.190  30.901  1.00  0.00    -0.014 A 
ATOM     82  C   UNL A   1      48.256  26.351  31.970  1.00  0.00     0.010 A 
ATOM     83  C   UNL A   1      48.894  27.651  30.024  1.00  0.00     0.010 A 
ATOM     84  C   UNL A   1      49.592  25.994  32.167  1.00  0.00     0.020 A 
ATOM     85  C   UNL A   1      50.228  27.274  30.203  1.00  0.00     0.020 A 
ATOM     86  C   UNL A   1      50.570  26.455  31.280  1.00  0.00     0.054 A 
BRANCH  86  87
ATOM     87  S   UNL A   1      52.288  25.925  31.526  1.00  0.00     0.124 S 
ATOM     88  O   UNL A   1      52.757  26.873  32.532  1.00  0.00    -0.237 OA
ATOM     89  O   UNL A   1      52.134  24.547  31.984  1.00  0.00    -0.237 OA
ATOM     90  O   UNL A   1      52.890  26.072  30.202  1.00  0.00    -0.744 OA
ENDBRANCH  86  87
ENDBRANCH  60  81
ENDBRANCH  34  35
ENDBRANCH  27  29
ENDBRANCH  26  27
ENDBRANCH  25  26
ENDBRANCH   1  25
TORSDOF 18
ENDMDL
MODEL 3
REMARK VINA RESULT:     -10.7      6.906     12.160
REMARK SMILES Cc1cc(Cl)c(C)c2c1O[C@H](C(F)(F)F)C(C(=O)OCCOCCOC(=O)c1ccc(-c3c4nc(c(-c5ccc(S(=O)(=O)[O-])cc5)c5ccc([nH]5)c(-c5ccc(S(=O)(=O)[O-])cc5)c5nc(c(-c6ccc(S(=O)(=O)[O-])cc6)c6ccc3[nH]6)C=C5)C=C4)cc1)=C2
REMARK SMILES IDX 23 1 22 2 21 3 20 4 19 5 17 6 18 7 16 8 1 9 2 10 3 11 9 12
REMARK SMILES IDX 4 13 8 14 10 15 5 16 6 17 88 18 11 19 7 20 12 21 13 22 14 23
REMARK SMILES IDX 15 24 24 25 25 26 26 27 27 28 28 29 29 30 87 31 30 32 86 33
REMARK SMILES IDX 31 34 32 35 33 36 80 37 34 38 85 39 79 40 81 41 35 42 84 43
REMARK SMILES IDX 78 44 77 45 36 47 66 48 47 49 65 50 48 51 51 52 64 53 82 54
REMARK SMILES IDX 49 55 50 56 63 58 83 59 52 60 37 61 38 62 46 63 39 64 45 65
REMARK SMILES IDX 40 66 41 67 42 68 43 69 44 70 67 71 68 72 76 73 69 74 75 75
REMARK SMILES IDX 70 76 71 77 72 78 73 79 74 80 53 81 54 82 62 83 55 84 61 85
REMARK SMILES IDX 56 86 57 87 58 88 59 89 60 90
REMARK H PARENT 81 46 51 57
REMARK Flexibility Score: inf
ROOT
ATOM      1  C   UNL A   1      38.567  22.101  26.048  1.00  0.00     0.202 C 
ENDROOT
BRANCH   1   2
ATOM      2  O   UNL A   1      37.254  22.619  25.825  1.00  0.00    -0.374 OA
BRANCH   2   3
ATOM      3  C   UNL A   1      36.175  21.688  25.757  1.00  0.00     0.202 C 
BRANCH   3   4
ATOM      4  C   UNL A   1      34.781  22.264  25.493  1.00  0.00     0.261 C 
BRANCH   4   5
ATOM      5  O   UNL A   1      34.821  23.682  25.268  1.00  0.00    -0.460 OA
BRANCH   5   6
ATOM      6  C   UNL A   1      34.719  24.047  23.969  1.00  0.00     0.338 C 
ATOM      7  O   UNL A   1      35.245  23.504  23.009  1.00  0.00    -0.246 OA
BRANCH   6   8
ATOM      8  C   UNL A   1      33.743  25.145  23.831  1.00  0.00     0.087 C 
ATOM      9  C   UNL A   1      29.517  27.954  23.181  1.00  0.00     0.048 C 
ATOM     10  C   UNL A   1      30.812  28.109  23.927  1.00  0.00    -0.007 A 
ATOM     11  C   UNL A   1      30.950  29.182  24.816  1.00  0.00     0.028 A 
ATOM     12  C   UNL A   1      31.848  27.168  23.836  1.00  0.00     0.131 A 
ATOM     13  C   UNL A   1      32.117  29.347  25.570  1.00  0.00     0.045 A 
ATOM     14  C   UNL A   1      33.005  27.302  24.624  1.00  0.00     0.022 A 
ATOM     15  O   UNL A   1      31.660  26.150  22.941  1.00  0.00    -0.475 OA
ATOM     16  Cl  UNL A   1      32.169  30.720  26.623  1.00  0.00    -0.084 Cl
ATOM     17  C   UNL A   1      33.170  28.422  25.479  1.00  0.00    -0.021 A 
ATOM     18  C   UNL A   1      33.984  26.220  24.591  1.00  0.00     0.027 C 
ATOM     19  C   UNL A   1      32.565  25.015  22.918  1.00  0.00     0.316 C 
ATOM     20  C   UNL A   1      34.446  28.594  26.267  1.00  0.00     0.047 C 
BRANCH  19  21
ATOM     21  C   UNL A   1      31.740  23.746  23.175  1.00  0.00     0.430 C 
ATOM     22  F   UNL A   1      31.765  23.407  24.486  1.00  0.00    -0.167 F 
ATOM     23  F   UNL A   1      30.442  23.911  22.836  1.00  0.00    -0.167 F 
ATOM     24  F   UNL A   1      32.214  22.690  22.474  1.00  0.00    -0.167 F 
ENDBRANCH  19  21
ENDBRANCH   6   8
ENDBRANCH   5   6
ENDBRANCH   4   5
ENDBRANCH   3   4
ENDBRANCH   2   3
ENDBRANCH   1   2
BRANCH   1  25
ATOM     25  C   UNL A   1      39.625  23.063  26.604  1.00  0.00     0.261 C 
BRANCH  25  26
ATOM     26  O   UNL A   1      39.196  24.436  26.553  1.00  0.00    -0.460 OA
BRANCH  26  27
ATOM     27  C   UNL A   1      40.195  25.336  26.393  1.00  0.00     0.338 C 
ATOM     28  O   UNL A   1      40.787  25.606  25.356  1.00  0.00    -0.246 OA
BRANCH  27  29
ATOM     29  C   UNL A   1      40.367  26.122  27.627  1.00  0.00     0.060 A 
ATOM     30  C   UNL A   1      39.385  25.999  28.619  1.00  0.00     0.016 A 
ATOM     31  C   UNL A   1      41.418  27.030  27.772  1.00  0.00     0.016 A 
ATOM     32  C   UNL A   1      39.428  26.817  29.745  1.00  0.00     0.010 A 
ATOM     33  C   UNL A   1      41.450  27.860  28.898  1.00  0.00     0.010 A 
ATOM     34  C   UNL A   1      40.437  27.780  29.871  1.00  0.00    -0.014 A 
BRANCH  34  35
ATOM     35  C   UNL A   1      40.335  28.800  30.941  1.00  0.00     0.031 A 
ATOM     36  C   UNL A   1      41.284  28.729  32.106  1.00  0.00     0.074 A 
ATOM     37  C   UNL A   1      39.450  29.809  30.848  1.00  0.00     0.049 A 
ATOM     38  N   UNL A   1      41.379  29.520  33.143  1.00  0.00    -0.248 NA
ATOM     39  C   UNL A   1      42.259  27.626  32.097  1.00  0.00     0.031 C 
ATOM     40  C   UNL A   1      38.521  30.019  29.737  1.00  0.00     0.029 A 
ATOM     41  N   UNL A   1      39.197  30.854  31.701  1.00  0.00    -0.354 N 
ATOM     42  C   UNL A   1      42.425  29.015  33.908  1.00  0.00     0.074 A 
ATOM     43  C   UNL A   1      42.911  27.831  33.233  1.00  0.00     0.031 C 
ATOM     44  C   UNL A   1      37.803  31.131  29.976  1.00  0.00     0.029 A 
ATOM     45  C   UNL A   1      38.198  31.691  31.267  1.00  0.00     0.049 A 
ATOM     46  H   UNL A   1      39.685  30.989  32.545  1.00  0.00     0.167 HD
ATOM     47  C   UNL A   1      42.943  29.500  35.060  1.00  0.00     0.031 A 
ATOM     48  C   UNL A   1      37.655  32.779  31.850  1.00  0.00     0.031 A 
ATOM     49  C   UNL A   1      42.446  30.666  35.740  1.00  0.00     0.049 A 
ATOM     50  C   UNL A   1      38.179  33.238  33.185  1.00  0.00     0.074 A 
ATOM     51  C   UNL A   1      42.900  31.232  36.919  1.00  0.00     0.029 A 
ATOM     52  N   UNL A   1      41.383  31.442  35.306  1.00  0.00    -0.354 N 
ATOM     53  N   UNL A   1      39.169  32.751  33.894  1.00  0.00    -0.248 NA
ATOM     54  C   UNL A   1      37.512  34.396  33.799  1.00  0.00     0.031 C 
ATOM     55  C   UNL A   1      42.075  32.319  37.226  1.00  0.00     0.029 A 
ATOM     56  C   UNL A   1      41.146  32.465  36.208  1.00  0.00     0.049 A 
ATOM     57  H   UNL A   1      40.872  31.289  34.479  1.00  0.00     0.167 HD
ATOM     58  C   UNL A   1      39.257  33.554  35.027  1.00  0.00     0.074 A 
ATOM     59  C   UNL A   1      38.229  34.567  34.903  1.00  0.00     0.031 C 
ATOM     60  C   UNL A   1      40.112  33.461  36.074  1.00  0.00     0.031 A 
BRANCH  47  61
ATOM     61  C   UNL A   1      44.095  28.752  35.674  1.00  0.00    -0.014 A 
ATOM     62  C   UNL A   1      45.425  29.088  35.362  1.00  0.00     0.010 A 
ATOM     63  C   UNL A   1      43.847  27.730  36.609  1.00  0.00     0.010 A 
ATOM     64  C   UNL A   1      46.486  28.396  35.953  1.00  0.00     0.020 A 
ATOM     65  C   UNL A   1      44.907  27.052  37.220  1.00  0.00     0.020 A 
ATOM     66  C   UNL A   1      46.220  27.382  36.877  1.00  0.00     0.054 A 
BRANCH  66  67
ATOM     67  S   UNL A   1      47.619  26.520  37.647  1.00  0.00     0.124 S 
ATOM     68  O   UNL A   1      48.758  27.129  36.965  1.00  0.00    -0.237 OA
ATOM     69  O   UNL A   1      47.471  26.869  39.057  1.00  0.00    -0.237 OA
ATOM     70  O   UNL A   1      47.380  25.115  37.327  1.00  0.00    -0.744 OA
ENDBRANCH  66  67
ENDBRANCH  47  61
BRANCH  48  71
ATOM     71  C   UNL A   1      36.546  33.505  31.175  1.00  0.00    -0.014 A 
ATOM     72  C   UNL A   1      36.599  33.769  29.795  1.00  0.00     0.010 A 
ATOM     73  C   UNL A   1      35.421  33.926  31.908  1.00  0.00     0.010 A 
ATOM     74  C   UNL A   1      35.551  34.443  29.162  1.00  0.00     0.020 A 
ATOM     75  C   UNL A   1      34.359  34.577  31.275  1.00  0.00     0.020 A 
ATOM     76  C   UNL A   1      34.434  34.838  29.905  1.00  0.00     0.054 A 
BRANCH  76  77
ATOM     77  S   UNL A   1      33.060  35.654  29.048  1.00  0.00     0.124 S 
ATOM     78  O   UNL A   1      33.742  36.731  28.338  1.00  0.00    -0.237 OA
ATOM     79  O   UNL A   1      32.530  34.580  28.212  1.00  0.00    -0.237 OA
ATOM     80  O   UNL A   1      32.181  36.079  30.135  1.00  0.00    -0.744 OA
ENDBRANCH  76  77
ENDBRANCH  48  71
BRANCH  60  81
ATOM     81  C   UNL A   1      39.990  34.485  37.171  1.00  0.00    -0.014 A 
ATOM     82  C   UNL A   1      40.707  35.693  37.118  1.00  0.00     0.010 A 
ATOM     83  C   UNL A   1      39.083  34.271  38.227  1.00  0.00     0.010 A 
ATOM     84  C   UNL A   1      40.533  36.661  38.110  1.00  0.00     0.020 A 
ATOM     85  C   UNL A   1      38.888  35.249  39.207  1.00  0.00     0.020 A 
ATOM     86  C   UNL A   1      39.622  36.435  39.146  1.00  0.00     0.054 A 
BRANCH  86  87
ATOM     87  S   UNL A   1      39.372  37.736  40.386  1.00  0.00     0.124 S 
ATOM     88  O   UNL A   1      40.587  38.532  40.240  1.00  0.00    -0.237 OA
ATOM     89  O   UNL A   1      38.142  38.378  39.932  1.00  0.00    -0.237 OA
ATOM     90  O   UNL A   1      39.257  37.000  41.644  1.00  0.00    -0.744 OA
ENDBRANCH  86  87
ENDBRANCH  60  81
ENDBRANCH  34  35
ENDBRANCH  27  29
ENDBRANCH  26  27
ENDBRANCH  25  26
ENDBRANCH   1  25
TORSDOF 18
ENDMDL
