MODEL 1
REMARK VINA RESULT:      -9.9      0.000      0.000
REMARK SMILES C[C@H](CC(=O)OCCOCCOC(=O)c1ccc(-c2c3nc(c(-c4ccc(S(=O)(=O)[O-])cc4)c4ccc([nH]4)c(-c4ccc(S(=O)(=O)[O-])cc4)c4nc(c(-c5ccc(S(=O)(=O)[O-])cc5)c5ccc2[nH]5)C=C4)C=C3)cc1)NC(=O)[C@@H]1Cc2ccccc2O1
REMARK SMILES IDX 9 1 8 2 7 3 6 4 4 5 5 6 3 7 2 8 1 9 75 10 76 11 77 13 78 14
REMARK SMILES IDX 79 15 86 16 80 17 85 18 81 19 84 20 82 21 83 22 10 23 11 24
REMARK SMILES IDX 12 25 13 26 14 27 15 28 16 29 74 30 17 31 73 32 18 33 19 34
REMARK SMILES IDX 20 35 67 36 21 37 72 38 66 39 68 40 22 41 71 42 65 43 64 44
REMARK SMILES IDX 23 46 53 47 34 48 52 49 35 50 38 51 51 52 69 53 36 54 37 55
REMARK SMILES IDX 50 57 70 58 39 59 24 60 25 61 33 62 26 63 32 64 27 65 28 66
REMARK SMILES IDX 29 67 30 68 31 69 54 70 55 71 63 72 56 73 62 74 57 75 58 76
REMARK SMILES IDX 59 77 60 78 61 79 40 80 41 81 49 82 42 83 48 84 43 85 44 86
REMARK SMILES IDX 45 87 46 88 47 89
REMARK H PARENT 75 12 68 45 38 56
REMARK Flexibility Score: inf
ROOT
ATOM      1  O   UNL A   1      33.093  29.958  27.565  1.00  0.00    -0.374 OA
ENDROOT
BRANCH   1   2
ATOM      2  C   UNL A   1      32.759  29.024  26.538  1.00  0.00     0.202 C 
BRANCH   2   3
ATOM      3  C   UNL A   1      32.392  27.612  27.003  1.00  0.00     0.261 C 
BRANCH   3   4
ATOM      4  O   UNL A   1      31.029  27.302  26.647  1.00  0.00    -0.463 OA
BRANCH   4   5
ATOM      5  C   UNL A   1      30.787  26.037  26.227  1.00  0.00     0.307 C 
ATOM      6  O   UNL A   1      31.102  25.021  26.833  1.00  0.00    -0.252 OA
BRANCH   5   7
ATOM      7  C   UNL A   1      30.093  26.009  24.887  1.00  0.00     0.147 C 
BRANCH   7   8
ATOM      8  C   UNL A   1      30.935  26.152  23.595  1.00  0.00     0.090 C 
ATOM      9  C   UNL A   1      30.789  27.530  22.946  1.00  0.00     0.031 C 
BRANCH   8  10
ATOM     10  N   UNL A   1      32.338  25.991  24.004  1.00  0.00    -0.350 N 
ATOM     11  C   UNL A   1      33.346  25.111  23.913  1.00  0.00     0.261 C 
ATOM     12  H   UNL A   1      32.631  26.785  24.507  1.00  0.00     0.163 HD
ATOM     13  O   UNL A   1      34.409  25.584  24.361  1.00  0.00    -0.271 OA
BRANCH  11  14
ATOM     14  C   UNL A   1      33.367  23.681  23.372  1.00  0.00     0.266 C 
ATOM     15  C   UNL A   1      32.208  22.901  22.751  1.00  0.00     0.095 C 
ATOM     16  O   UNL A   1      33.806  22.933  24.559  1.00  0.00    -0.480 OA
ATOM     17  C   UNL A   1      32.563  21.528  23.234  1.00  0.00    -0.002 A 
ATOM     18  C   UNL A   1      33.434  21.648  24.305  1.00  0.00     0.123 A 
ATOM     19  C   UNL A   1      32.153  20.268  22.830  1.00  0.00     0.008 A 
ATOM     20  C   UNL A   1      33.880  20.571  25.044  1.00  0.00     0.047 A 
ATOM     21  C   UNL A   1      32.619  19.150  23.544  1.00  0.00     0.001 A 
ATOM     22  C   UNL A   1      33.464  19.301  24.656  1.00  0.00     0.004 A 
ENDBRANCH  11  14
ENDBRANCH   8  10
ENDBRANCH   7   8
ENDBRANCH   5   7
ENDBRANCH   4   5
ENDBRANCH   3   4
ENDBRANCH   2   3
ENDBRANCH   1   2
BRANCH   1  23
ATOM     23  C   UNL A   1      34.052  30.965  27.253  1.00  0.00     0.202 C 
BRANCH  23  24
ATOM     24  C   UNL A   1      35.313  31.013  28.123  1.00  0.00     0.261 C 
BRANCH  24  25
ATOM     25  O   UNL A   1      35.927  29.719  28.262  1.00  0.00    -0.460 OA
BRANCH  25  26
ATOM     26  C   UNL A   1      36.776  29.612  29.312  1.00  0.00     0.338 C 
ATOM     27  O   UNL A   1      36.499  29.761  30.495  1.00  0.00    -0.246 OA
BRANCH  26  28
ATOM     28  C   UNL A   1      38.084  29.091  28.865  1.00  0.00     0.060 A 
ATOM     29  C   UNL A   1      38.861  28.400  29.805  1.00  0.00     0.016 A 
ATOM     30  C   UNL A   1      38.575  29.330  27.580  1.00  0.00     0.016 A 
ATOM     31  C   UNL A   1      40.159  28.004  29.490  1.00  0.00     0.010 A 
ATOM     32  C   UNL A   1      39.881  28.938  27.268  1.00  0.00     0.010 A 
ATOM     33  C   UNL A   1      40.695  28.317  28.235  1.00  0.00    -0.014 A 
BRANCH  33  34
ATOM     34  C   UNL A   1      42.152  28.181  27.992  1.00  0.00     0.031 A 
ATOM     35  C   UNL A   1      43.037  29.367  28.275  1.00  0.00     0.074 A 
ATOM     36  C   UNL A   1      42.687  27.035  27.534  1.00  0.00     0.049 A 
ATOM     37  N   UNL A   1      44.310  29.529  28.030  1.00  0.00    -0.248 NA
ATOM     38  C   UNL A   1      42.394  30.528  28.915  1.00  0.00     0.031 C 
ATOM     39  C   UNL A   1      41.952  25.795  27.289  1.00  0.00     0.029 A 
ATOM     40  N   UNL A   1      43.980  26.736  27.181  1.00  0.00    -0.354 N 
ATOM     41  C   UNL A   1      44.616  30.817  28.460  1.00  0.00     0.074 A 
ATOM     42  C   UNL A   1      43.391  31.399  28.960  1.00  0.00     0.031 C 
ATOM     43  C   UNL A   1      42.804  24.874  26.806  1.00  0.00     0.029 A 
ATOM     44  C   UNL A   1      44.132  25.471  26.665  1.00  0.00     0.049 A 
ATOM     45  H   UNL A   1      44.727  27.368  27.287  1.00  0.00     0.167 HD
ATOM     46  C   UNL A   1      45.809  31.456  28.439  1.00  0.00     0.031 A 
ATOM     47  C   UNL A   1      45.208  24.876  26.112  1.00  0.00     0.031 A 
ATOM     48  C   UNL A   1      47.023  30.872  27.935  1.00  0.00     0.049 A 
ATOM     49  C   UNL A   1      46.508  25.634  26.020  1.00  0.00     0.074 A 
ATOM     50  C   UNL A   1      48.287  31.434  27.879  1.00  0.00     0.029 A 
ATOM     51  N   UNL A   1      47.127  29.598  27.399  1.00  0.00    -0.354 N 
ATOM     52  N   UNL A   1      46.783  26.850  26.430  1.00  0.00    -0.248 NA
ATOM     53  C   UNL A   1      47.645  24.940  25.396  1.00  0.00     0.031 C 
ATOM     54  C   UNL A   1      49.140  30.522  27.251  1.00  0.00     0.029 A 
ATOM     55  C   UNL A   1      48.426  29.364  26.989  1.00  0.00     0.049 A 
ATOM     56  H   UNL A   1      46.385  28.955  27.323  1.00  0.00     0.167 HD
ATOM     57  C   UNL A   1      48.134  27.047  26.155  1.00  0.00     0.074 A 
ATOM     58  C   UNL A   1      48.619  25.829  25.541  1.00  0.00     0.031 C 
ATOM     59  C   UNL A   1      48.903  28.136  26.403  1.00  0.00     0.031 A 
BRANCH  46  60
ATOM     60  C   UNL A   1      45.852  32.876  28.938  1.00  0.00    -0.014 A 
ATOM     61  C   UNL A   1      45.604  33.963  28.081  1.00  0.00     0.010 A 
ATOM     62  C   UNL A   1      46.104  33.123  30.301  1.00  0.00     0.010 A 
ATOM     63  C   UNL A   1      45.647  35.272  28.569  1.00  0.00     0.020 A 
ATOM     64  C   UNL A   1      46.117  34.428  30.799  1.00  0.00     0.020 A 
ATOM     65  C   UNL A   1      45.905  35.496  29.926  1.00  0.00     0.054 A 
BRANCH  65  66
ATOM     66  S   UNL A   1      45.934  37.204  30.534  1.00  0.00     0.124 S 
ATOM     67  O   UNL A   1      46.848  37.103  31.670  1.00  0.00    -0.237 OA
ATOM     68  O   UNL A   1      46.442  37.944  29.383  1.00  0.00    -0.237 OA
ATOM     69  O   UNL A   1      44.541  37.473  30.881  1.00  0.00    -0.744 OA
ENDBRANCH  65  66
ENDBRANCH  46  60
BRANCH  47  70
ATOM     70  C   UNL A   1      45.097  23.490  25.575  1.00  0.00    -0.014 A 
ATOM     71  C   UNL A   1      45.409  22.380  26.380  1.00  0.00     0.010 A 
ATOM     72  C   UNL A   1      44.681  23.273  24.249  1.00  0.00     0.010 A 
ATOM     73  C   UNL A   1      45.322  21.084  25.865  1.00  0.00     0.020 A 
ATOM     74  C   UNL A   1      44.563  21.978  23.739  1.00  0.00     0.020 A 
ATOM     75  C   UNL A   1      44.895  20.891  24.548  1.00  0.00     0.054 A 
BRANCH  75  76
ATOM     76  S   UNL A   1      44.742  19.196  23.919  1.00  0.00     0.124 S 
ATOM     77  O   UNL A   1      44.528  19.420  22.493  1.00  0.00    -0.237 OA
ATOM     78  O   UNL A   1      46.028  18.609  24.283  1.00  0.00    -0.237 OA
ATOM     79  O   UNL A   1      43.593  18.663  24.649  1.00  0.00    -0.744 OA
ENDBRANCH  75  76
ENDBRANCH  47  70
BRANCH  59  80
ATOM     80  C   UNL A   1      50.375  28.055  26.088  1.00  0.00    -0.014 A 
ATOM     81  C   UNL A   1      51.301  27.542  27.012  1.00  0.00     0.010 A 
ATOM     82  C   UNL A   1      50.812  28.393  24.793  1.00  0.00     0.010 A 
ATOM     83  C   UNL A   1      52.640  27.373  26.646  1.00  0.00     0.020 A 
ATOM     84  C   UNL A   1      52.143  28.200  24.416  1.00  0.00     0.020 A 
ATOM     85  C   UNL A   1      53.050  27.694  25.347  1.00  0.00     0.054 A 
BRANCH  85  86
ATOM     86  S   UNL A   1      54.772  27.377  24.870  1.00  0.00     0.124 S 
ATOM     87  O   UNL A   1      54.979  28.354  23.805  1.00  0.00    -0.237 OA
ATOM     88  O   UNL A   1      55.499  27.635  26.111  1.00  0.00    -0.237 OA
ATOM     89  O   UNL A   1      54.762  25.980  24.440  1.00  0.00    -0.744 OA
ENDBRANCH  85  86
ENDBRANCH  59  80
ENDBRANCH  33  34
ENDBRANCH  26  28
ENDBRANCH  25  26
ENDBRANCH  24  25
ENDBRANCH  23  24
ENDBRANCH   1  23
TORSDOF 20
ENDMDL
MODEL 2
REMARK VINA RESULT:      -9.8      5.113      6.516
REMARK SMILES C[C@H](CC(=O)OCCOCCOC(=O)c1ccc(-c2c3nc(c(-c4ccc(S(=O)(=O)[O-])cc4)c4ccc([nH]4)c(-c4ccc(S(=O)(=O)[O-])cc4)c4nc(c(-c5ccc(S(=O)(=O)[O-])cc5)c5ccc2[nH]5)C=C4)C=C3)cc1)NC(=O)[C@@H]1Cc2ccccc2O1
REMARK SMILES IDX 9 1 8 2 7 3 6 4 4 5 5 6 3 7 2 8 1 9 75 10 76 11 77 13 78 14
REMARK SMILES IDX 79 15 86 16 80 17 85 18 81 19 84 20 82 21 83 22 10 23 11 24
REMARK SMILES IDX 12 25 13 26 14 27 15 28 16 29 74 30 17 31 73 32 18 33 19 34
REMARK SMILES IDX 20 35 67 36 21 37 72 38 66 39 68 40 22 41 71 42 65 43 64 44
REMARK SMILES IDX 23 46 53 47 34 48 52 49 35 50 38 51 51 52 69 53 36 54 37 55
REMARK SMILES IDX 50 57 70 58 39 59 24 60 25 61 33 62 26 63 32 64 27 65 28 66
REMARK SMILES IDX 29 67 30 68 31 69 54 70 55 71 63 72 56 73 62 74 57 75 58 76
REMARK SMILES IDX 59 77 60 78 61 79 40 80 41 81 49 82 42 83 48 84 43 85 44 86
REMARK SMILES IDX 45 87 46 88 47 89
REMARK H PARENT 75 12 68 45 38 56
REMARK Flexibility Score: inf
ROOT
ATOM      1  O   UNL A   1      32.530  28.479  25.723  1.00  0.00    -0.374 OA
ENDROOT
BRANCH   1   2
ATOM      2  C   UNL A   1      33.670  27.633  25.874  1.00  0.00     0.202 C 
BRANCH   2   3
ATOM      3  C   UNL A   1      33.434  26.135  25.663  1.00  0.00     0.261 C 
BRANCH   3   4
ATOM      4  O   UNL A   1      33.972  25.713  24.394  1.00  0.00    -0.463 OA
BRANCH   4   5
ATOM      5  C   UNL A   1      34.615  24.521  24.376  1.00  0.00     0.307 C 
ATOM      6  O   UNL A   1      35.517  24.196  25.138  1.00  0.00    -0.252 OA
BRANCH   5   7
ATOM      7  C   UNL A   1      34.112  23.623  23.273  1.00  0.00     0.147 C 
BRANCH   7   8
ATOM      8  C   UNL A   1      32.618  23.216  23.249  1.00  0.00     0.090 C 
ATOM      9  C   UNL A   1      32.376  21.907  22.495  1.00  0.00     0.031 C 
BRANCH   8  10
ATOM     10  N   UNL A   1      32.231  23.009  24.652  1.00  0.00    -0.350 N 
ATOM     11  C   UNL A   1      32.465  22.173  25.675  1.00  0.00     0.261 C 
ATOM     12  H   UNL A   1      31.595  23.706  24.929  1.00  0.00     0.163 HD
ATOM     13  O   UNL A   1      31.932  22.577  26.727  1.00  0.00    -0.271 OA
BRANCH  11  14
ATOM     14  C   UNL A   1      33.246  20.860  25.723  1.00  0.00     0.266 C 
ATOM     15  C   UNL A   1      34.516  20.500  24.951  1.00  0.00     0.095 C 
ATOM     16  O   UNL A   1      32.210  19.896  25.326  1.00  0.00    -0.480 OA
ATOM     17  C   UNL A   1      34.260  19.039  24.745  1.00  0.00    -0.002 A 
ATOM     18  C   UNL A   1      32.907  18.798  24.923  1.00  0.00     0.123 A 
ATOM     19  C   UNL A   1      35.096  17.992  24.393  1.00  0.00     0.008 A 
ATOM     20  C   UNL A   1      32.321  17.566  24.710  1.00  0.00     0.047 A 
ATOM     21  C   UNL A   1      34.531  16.718  24.203  1.00  0.00     0.001 A 
ATOM     22  C   UNL A   1      33.149  16.510  24.343  1.00  0.00     0.004 A 
ENDBRANCH  11  14
ENDBRANCH   8  10
ENDBRANCH   7   8
ENDBRANCH   5   7
ENDBRANCH   4   5
ENDBRANCH   3   4
ENDBRANCH   2   3
ENDBRANCH   1   2
BRANCH   1  23
ATOM     23  C   UNL A   1      32.763  29.874  25.554  1.00  0.00     0.202 C 
BRANCH  23  24
ATOM     24  C   UNL A   1      32.450  30.779  26.752  1.00  0.00     0.261 C 
BRANCH  24  25
ATOM     25  O   UNL A   1      33.438  30.663  27.792  1.00  0.00    -0.460 OA
BRANCH  25  26
ATOM     26  C   UNL A   1      34.382  31.635  27.779  1.00  0.00     0.338 C 
ATOM     27  O   UNL A   1      34.190  32.839  27.667  1.00  0.00    -0.246 OA
BRANCH  26  28
ATOM     28  C   UNL A   1      35.705  31.071  28.114  1.00  0.00     0.060 A 
ATOM     29  C   UNL A   1      35.774  29.695  28.377  1.00  0.00     0.016 A 
ATOM     30  C   UNL A   1      36.840  31.872  28.239  1.00  0.00     0.016 A 
ATOM     31  C   UNL A   1      36.961  29.125  28.834  1.00  0.00     0.010 A 
ATOM     32  C   UNL A   1      38.029  31.300  28.704  1.00  0.00     0.010 A 
ATOM     33  C   UNL A   1      38.082  29.935  29.049  1.00  0.00    -0.014 A 
BRANCH  33  34
ATOM     34  C   UNL A   1      39.242  29.414  29.813  1.00  0.00     0.031 A 
ATOM     35  C   UNL A   1      39.604  30.090  31.110  1.00  0.00     0.074 A 
ATOM     36  C   UNL A   1      39.960  28.364  29.376  1.00  0.00     0.049 A 
ATOM     37  N   UNL A   1      40.638  29.896  31.886  1.00  0.00    -0.248 NA
ATOM     38  C   UNL A   1      38.678  31.131  31.589  1.00  0.00     0.031 C 
ATOM     39  C   UNL A   1      39.672  27.580  28.177  1.00  0.00     0.029 A 
ATOM     40  N   UNL A   1      41.095  27.788  29.891  1.00  0.00    -0.354 N 
ATOM     41  C   UNL A   1      40.501  30.805  32.930  1.00  0.00     0.074 A 
ATOM     42  C   UNL A   1      39.298  31.565  32.676  1.00  0.00     0.031 C 
ATOM     43  C   UNL A   1      40.617  26.634  28.038  1.00  0.00     0.029 A 
ATOM     44  C   UNL A   1      41.602  26.776  29.111  1.00  0.00     0.049 A 
ATOM     45  H   UNL A   1      41.506  28.072  30.739  1.00  0.00     0.167 HD
ATOM     46  C   UNL A   1      41.305  30.989  34.003  1.00  0.00     0.031 A 
ATOM     47  C   UNL A   1      42.744  26.069  29.228  1.00  0.00     0.031 A 
ATOM     48  C   UNL A   1      42.504  30.232  34.247  1.00  0.00     0.049 A 
ATOM     49  C   UNL A   1      43.671  26.348  30.385  1.00  0.00     0.074 A 
ATOM     50  C   UNL A   1      43.383  30.336  35.310  1.00  0.00     0.029 A 
ATOM     51  N   UNL A   1      42.993  29.235  33.418  1.00  0.00    -0.354 N 
ATOM     52  N   UNL A   1      43.530  27.210  31.364  1.00  0.00    -0.248 NA
ATOM     53  C   UNL A   1      44.908  25.555  30.457  1.00  0.00     0.031 C 
ATOM     54  C   UNL A   1      44.437  29.445  35.092  1.00  0.00     0.029 A 
ATOM     55  C   UNL A   1      44.173  28.731  33.934  1.00  0.00     0.049 A 
ATOM     56  H   UNL A   1      42.563  28.930  32.587  1.00  0.00     0.167 HD
ATOM     57  C   UNL A   1      44.636  27.030  32.191  1.00  0.00     0.074 A 
ATOM     58  C   UNL A   1      45.438  25.982  31.596  1.00  0.00     0.031 C 
ATOM     59  C   UNL A   1      44.949  27.669  33.345  1.00  0.00     0.031 A 
BRANCH  46  60
ATOM     60  C   UNL A   1      40.939  32.080  34.974  1.00  0.00    -0.014 A 
ATOM     61  C   UNL A   1      40.268  31.798  36.177  1.00  0.00     0.010 A 
ATOM     62  C   UNL A   1      41.313  33.409  34.694  1.00  0.00     0.010 A 
ATOM     63  C   UNL A   1      39.942  32.830  37.062  1.00  0.00     0.020 A 
ATOM     64  C   UNL A   1      41.016  34.438  35.592  1.00  0.00     0.020 A 
ATOM     65  C   UNL A   1      40.317  34.143  36.763  1.00  0.00     0.054 A 
BRANCH  65  66
ATOM     66  S   UNL A   1      39.898  35.457  37.941  1.00  0.00     0.124 S 
ATOM     67  O   UNL A   1      38.635  34.972  38.494  1.00  0.00    -0.237 OA
ATOM     68  O   UNL A   1      41.034  35.438  38.857  1.00  0.00    -0.237 OA
ATOM     69  O   UNL A   1      39.792  36.651  37.106  1.00  0.00    -0.744 OA
ENDBRANCH  65  66
ENDBRANCH  46  60
BRANCH  47  70
ATOM     70  C   UNL A   1      43.093  25.042  28.206  1.00  0.00    -0.014 A 
ATOM     71  C   UNL A   1      42.714  23.699  28.378  1.00  0.00     0.010 A 
ATOM     72  C   UNL A   1      43.811  25.405  27.052  1.00  0.00     0.010 A 
ATOM     73  C   UNL A   1      43.060  22.738  27.425  1.00  0.00     0.020 A 
ATOM     74  C   UNL A   1      44.133  24.453  26.082  1.00  0.00     0.020 A 
ATOM     75  C   UNL A   1      43.765  23.122  26.280  1.00  0.00     0.054 A 
BRANCH  75  76
ATOM     76  S   UNL A   1      44.158  21.864  25.033  1.00  0.00     0.124 S 
ATOM     77  O   UNL A   1      45.537  21.524  25.369  1.00  0.00    -0.237 OA
ATOM     78  O   UNL A   1      43.166  20.829  25.308  1.00  0.00    -0.237 OA
ATOM     79  O   UNL A   1      43.977  22.569  23.766  1.00  0.00    -0.744 OA
ENDBRANCH  75  76
ENDBRANCH  47  70
BRANCH  59  80
ATOM     80  C   UNL A   1      46.171  27.214  34.102  1.00  0.00    -0.014 A 
ATOM     81  C   UNL A   1      47.362  27.960  34.098  1.00  0.00     0.010 A 
ATOM     82  C   UNL A   1      46.076  26.077  34.926  1.00  0.00     0.010 A 
ATOM     83  C   UNL A   1      48.438  27.572  34.902  1.00  0.00     0.020 A 
ATOM     84  C   UNL A   1      47.139  25.702  35.751  1.00  0.00     0.020 A 
ATOM     85  C   UNL A   1      48.316  26.450  35.731  1.00  0.00     0.054 A 
BRANCH  85  86
ATOM     86  S   UNL A   1      49.692  26.023  36.834  1.00  0.00     0.124 S 
ATOM     87  O   UNL A   1      49.060  25.095  37.767  1.00  0.00    -0.237 OA
ATOM     88  O   UNL A   1      50.663  25.430  35.917  1.00  0.00    -0.237 OA
ATOM     89  O   UNL A   1      50.090  27.307  37.407  1.00  0.00    -0.744 OA
ENDBRANCH  85  86
ENDBRANCH  59  80
ENDBRANCH  33  34
ENDBRANCH  26  28
ENDBRANCH  25  26
ENDBRANCH  24  25
ENDBRANCH  23  24
ENDBRANCH   1  23
TORSDOF 20
ENDMDL
MODEL 3
REMARK VINA RESULT:      -9.6      4.822      6.471
REMARK SMILES C[C@H](CC(=O)OCCOCCOC(=O)c1ccc(-c2c3nc(c(-c4ccc(S(=O)(=O)[O-])cc4)c4ccc([nH]4)c(-c4ccc(S(=O)(=O)[O-])cc4)c4nc(c(-c5ccc(S(=O)(=O)[O-])cc5)c5ccc2[nH]5)C=C4)C=C3)cc1)NC(=O)[C@@H]1Cc2ccccc2O1
REMARK SMILES IDX 9 1 8 2 7 3 6 4 4 5 5 6 3 7 2 8 1 9 75 10 76 11 77 13 78 14
REMARK SMILES IDX 79 15 86 16 80 17 85 18 81 19 84 20 82 21 83 22 10 23 11 24
REMARK SMILES IDX 12 25 13 26 14 27 15 28 16 29 74 30 17 31 73 32 18 33 19 34
REMARK SMILES IDX 20 35 67 36 21 37 72 38 66 39 68 40 22 41 71 42 65 43 64 44
REMARK SMILES IDX 23 46 53 47 34 48 52 49 35 50 38 51 51 52 69 53 36 54 37 55
REMARK SMILES IDX 50 57 70 58 39 59 24 60 25 61 33 62 26 63 32 64 27 65 28 66
REMARK SMILES IDX 29 67 30 68 31 69 54 70 55 71 63 72 56 73 62 74 57 75 58 76
REMARK SMILES IDX 59 77 60 78 61 79 40 80 41 81 49 82 42 83 48 84 43 85 44 86
REMARK SMILES IDX 45 87 46 88 47 89
REMARK H PARENT 75 12 68 45 38 56
REMARK Flexibility Score: inf
ROOT
ATOM      1  O   UNL A   1      32.719  28.466  25.885  1.00  0.00    -0.374 OA
ENDROOT
BRANCH   1   2
ATOM      2  C   UNL A   1      33.953  27.778  26.091  1.00  0.00     0.202 C 
BRANCH   2   3
ATOM      3  C   UNL A   1      33.978  26.300  25.691  1.00  0.00     0.261 C 
BRANCH   3   4
ATOM      4  O   UNL A   1      34.033  26.165  24.257  1.00  0.00    -0.463 OA
BRANCH   4   5
ATOM      5  C   UNL A   1      33.966  24.905  23.764  1.00  0.00     0.307 C 
ATOM      6  O   UNL A   1      34.699  23.981  24.092  1.00  0.00    -0.252 OA
BRANCH   5   7
ATOM      7  C   UNL A   1      32.882  24.762  22.724  1.00  0.00     0.147 C 
BRANCH   7   8
ATOM      8  C   UNL A   1      31.604  23.958  23.067  1.00  0.00     0.090 C 
ATOM      9  C   UNL A   1      31.794  22.449  22.902  1.00  0.00     0.031 C 
BRANCH   8  10
ATOM     10  N   UNL A   1      31.324  24.225  24.486  1.00  0.00    -0.350 N 
ATOM     11  C   UNL A   1      30.618  25.064  25.259  1.00  0.00     0.261 C 
ATOM     12  H   UNL A   1      31.811  23.582  25.048  1.00  0.00     0.163 HD
ATOM     13  O   UNL A   1      30.657  24.724  26.457  1.00  0.00    -0.271 OA
BRANCH  11  14
ATOM     14  C   UNL A   1      29.823  26.317  24.893  1.00  0.00     0.266 C 
ATOM     15  C   UNL A   1      28.499  26.393  24.130  1.00  0.00     0.095 C 
ATOM     16  O   UNL A   1      30.816  27.067  24.111  1.00  0.00    -0.480 OA
ATOM     17  C   UNL A   1      28.720  27.685  23.405  1.00  0.00    -0.002 A 
ATOM     18  C   UNL A   1      30.078  27.959  23.394  1.00  0.00     0.123 A 
ATOM     19  C   UNL A   1      27.848  28.548  22.763  1.00  0.00     0.008 A 
ATOM     20  C   UNL A   1      30.631  29.030  22.720  1.00  0.00     0.047 A 
ATOM     21  C   UNL A   1      28.380  29.666  22.096  1.00  0.00     0.001 A 
ATOM     22  C   UNL A   1      29.765  29.897  22.060  1.00  0.00     0.004 A 
ENDBRANCH  11  14
ENDBRANCH   8  10
ENDBRANCH   7   8
ENDBRANCH   5   7
ENDBRANCH   4   5
ENDBRANCH   3   4
ENDBRANCH   2   3
ENDBRANCH   1   2
BRANCH   1  23
ATOM     23  C   UNL A   1      32.783  29.864  25.614  1.00  0.00     0.202 C 
BRANCH  23  24
ATOM     24  C   UNL A   1      32.492  30.810  26.785  1.00  0.00     0.261 C 
BRANCH  24  25
ATOM     25  O   UNL A   1      33.430  30.645  27.863  1.00  0.00    -0.460 OA
BRANCH  25  26
ATOM     26  C   UNL A   1      34.549  31.401  27.753  1.00  0.00     0.338 C 
ATOM     27  O   UNL A   1      34.600  32.598  27.499  1.00  0.00    -0.246 OA
BRANCH  26  28
ATOM     28  C   UNL A   1      35.735  30.629  28.175  1.00  0.00     0.060 A 
ATOM     29  C   UNL A   1      35.660  29.943  29.396  1.00  0.00     0.016 A 
ATOM     30  C   UNL A   1      36.918  30.629  27.435  1.00  0.00     0.016 A 
ATOM     31  C   UNL A   1      36.787  29.312  29.918  1.00  0.00     0.010 A 
ATOM     32  C   UNL A   1      38.051  30.000  27.964  1.00  0.00     0.010 A 
ATOM     33  C   UNL A   1      38.003  29.381  29.228  1.00  0.00    -0.014 A 
BRANCH  33  34
ATOM     34  C   UNL A   1      39.265  28.987  29.902  1.00  0.00     0.031 A 
ATOM     35  C   UNL A   1      39.691  29.756  31.126  1.00  0.00     0.074 A 
ATOM     36  C   UNL A   1      40.020  27.971  29.447  1.00  0.00     0.049 A 
ATOM     37  N   UNL A   1      40.803  29.679  31.809  1.00  0.00    -0.248 NA
ATOM     38  C   UNL A   1      38.733  30.749  31.643  1.00  0.00     0.031 C 
ATOM     39  C   UNL A   1      39.686  27.105  28.318  1.00  0.00     0.029 A 
ATOM     40  N   UNL A   1      41.239  27.507  29.878  1.00  0.00    -0.354 N 
ATOM     41  C   UNL A   1      40.691  30.629  32.818  1.00  0.00     0.074 A 
ATOM     42  C   UNL A   1      39.415  31.284  32.645  1.00  0.00     0.031 C 
ATOM     43  C   UNL A   1      40.686  26.226  28.133  1.00  0.00     0.029 A 
ATOM     44  C   UNL A   1      41.749  26.495  29.101  1.00  0.00     0.049 A 
ATOM     45  H   UNL A   1      41.702  27.865  30.669  1.00  0.00     0.167 HD
ATOM     46  C   UNL A   1      41.573  30.929  33.801  1.00  0.00     0.031 A 
ATOM     47  C   UNL A   1      42.950  25.882  29.141  1.00  0.00     0.031 A 
ATOM     48  C   UNL A   1      42.844  30.276  33.965  1.00  0.00     0.049 A 
ATOM     49  C   UNL A   1      43.954  26.288  30.191  1.00  0.00     0.074 A 
ATOM     50  C   UNL A   1      43.806  30.500  34.933  1.00  0.00     0.029 A 
ATOM     51  N   UNL A   1      43.332  29.274  33.139  1.00  0.00    -0.354 N 
ATOM     52  N   UNL A   1      43.836  27.188  31.139  1.00  0.00    -0.248 NA
ATOM     53  C   UNL A   1      45.250  25.594  30.181  1.00  0.00     0.031 C 
ATOM     54  C   UNL A   1      44.902  29.678  34.657  1.00  0.00     0.029 A 
ATOM     55  C   UNL A   1      44.590  28.886  33.563  1.00  0.00     0.049 A 
ATOM     56  H   UNL A   1      42.853  28.895  32.367  1.00  0.00     0.167 HD
ATOM     57  C   UNL A   1      45.023  27.134  31.864  1.00  0.00     0.074 A 
ATOM     58  C   UNL A   1      45.847  26.118  31.244  1.00  0.00     0.031 C 
ATOM     59  C   UNL A   1      45.389  27.854  32.953  1.00  0.00     0.031 A 
BRANCH  46  60
ATOM     60  C   UNL A   1      41.213  32.040  34.751  1.00  0.00    -0.014 A 
ATOM     61  C   UNL A   1      40.589  31.779  35.984  1.00  0.00     0.010 A 
ATOM     62  C   UNL A   1      41.544  33.368  34.419  1.00  0.00     0.010 A 
ATOM     63  C   UNL A   1      40.268  32.828  36.849  1.00  0.00     0.020 A 
ATOM     64  C   UNL A   1      41.253  34.416  35.296  1.00  0.00     0.020 A 
ATOM     65  C   UNL A   1      40.601  34.141  36.499  1.00  0.00     0.054 A 
BRANCH  65  66
ATOM     66  S   UNL A   1      40.189  35.479  37.651  1.00  0.00     0.124 S 
ATOM     67  O   UNL A   1      39.998  36.609  36.743  1.00  0.00    -0.237 OA
ATOM     68  O   UNL A   1      38.979  34.982  38.299  1.00  0.00    -0.237 OA
ATOM     69  O   UNL A   1      41.365  35.569  38.514  1.00  0.00    -0.744 OA
ENDBRANCH  65  66
ENDBRANCH  46  60
BRANCH  47  70
ATOM     70  C   UNL A   1      43.282  24.831  28.139  1.00  0.00    -0.014 A 
ATOM     71  C   UNL A   1      43.980  25.154  26.962  1.00  0.00     0.010 A 
ATOM     72  C   UNL A   1      42.899  23.495  28.358  1.00  0.00     0.010 A 
ATOM     73  C   UNL A   1      44.272  24.168  26.017  1.00  0.00     0.020 A 
ATOM     74  C   UNL A   1      43.215  22.499  27.430  1.00  0.00     0.020 A 
ATOM     75  C   UNL A   1      43.891  22.844  26.259  1.00  0.00     0.054 A 
BRANCH  75  76
ATOM     76  S   UNL A   1      44.327  21.572  25.040  1.00  0.00     0.124 S 
ATOM     77  O   UNL A   1      45.665  21.184  25.472  1.00  0.00    -0.237 OA
ATOM     78  O   UNL A   1      43.280  20.574  25.242  1.00  0.00    -0.237 OA
ATOM     79  O   UNL A   1      44.261  22.284  23.765  1.00  0.00    -0.744 OA
ENDBRANCH  75  76
ENDBRANCH  47  70
BRANCH  59  80
ATOM     80  C   UNL A   1      46.707  27.531  33.610  1.00  0.00    -0.014 A 
ATOM     81  C   UNL A   1      46.819  26.530  34.589  1.00  0.00     0.010 A 
ATOM     82  C   UNL A   1      47.873  28.170  33.145  1.00  0.00     0.010 A 
ATOM     83  C   UNL A   1      48.074  26.176  35.094  1.00  0.00     0.020 A 
ATOM     84  C   UNL A   1      49.130  27.800  33.627  1.00  0.00     0.020 A 
ATOM     85  C   UNL A   1      49.223  26.807  34.602  1.00  0.00     0.054 A 
BRANCH  85  86
ATOM     86  S   UNL A   1      50.845  26.264  35.206  1.00  0.00     0.124 S 
ATOM     87  O   UNL A   1      51.151  27.276  36.212  1.00  0.00    -0.237 OA
ATOM     88  O   UNL A   1      50.561  24.928  35.724  1.00  0.00    -0.237 OA
ATOM     89  O   UNL A   1      51.689  26.297  34.014  1.00  0.00    -0.744 OA
ENDBRANCH  85  86
ENDBRANCH  59  80
ENDBRANCH  33  34
ENDBRANCH  26  28
ENDBRANCH  25  26
ENDBRANCH  24  25
ENDBRANCH  23  24
ENDBRANCH   1  23
TORSDOF 20
ENDMDL
