MODEL 1
REMARK VINA RESULT:     -10.0      0.000      0.000
REMARK SMILES CC(C)CC[C@@]1(CC(=O)OCCOCCOC(=O)c2ccc(-c3c4nc(c(-c5ccc(S(=O)(=O)[O-])cc5)c5ccc([nH]5)c(-c5ccc(S(=O)(=O)[O-])cc5)c5nc(c(-c6ccc(S(=O)(=O)[O-])cc6)c6ccc3[nH]6)C=C5)C=C4)cc2)CCOC(C)(C)C1
REMARK SMILES IDX 12 1 11 2 10 3 8 4 9 5 7 6 6 7 79 8 85 9 80 10 82 11 81 12
REMARK SMILES IDX 83 13 84 14 5 15 4 16 2 17 1 18 3 19 13 20 14 21 15 22 16 23
REMARK SMILES IDX 17 24 18 25 19 26 20 27 78 28 21 29 77 30 22 31 23 32 24 33
REMARK SMILES IDX 71 34 25 35 76 36 70 37 72 38 26 39 75 40 69 41 68 42 27 44
REMARK SMILES IDX 57 45 38 46 56 47 39 48 42 49 55 50 73 51 40 52 41 53 54 55
REMARK SMILES IDX 74 56 43 57 28 58 29 59 37 60 30 61 36 62 31 63 32 64 33 65
REMARK SMILES IDX 34 66 35 67 58 68 59 69 67 70 60 71 66 72 61 73 62 74 63 75
REMARK SMILES IDX 64 76 65 77 44 78 45 79 53 80 46 81 52 82 47 83 48 84 49 85
REMARK SMILES IDX 50 86 51 87
REMARK H PARENT 72 43 42 54
REMARK Flexibility Score: inf
ROOT
ATOM      1  C   UNL A   1      32.315  28.930  24.249  1.00  0.00     0.202 C 
ENDROOT
BRANCH   1   2
ATOM      2  C   UNL A   1      32.593  28.025  23.007  1.00  0.00     0.261 C 
BRANCH   2   3
ATOM      3  O   UNL A   1      32.633  26.578  23.233  1.00  0.00    -0.463 OA
BRANCH   3   4
ATOM      4  C   UNL A   1      32.981  25.725  22.218  1.00  0.00     0.306 C 
ATOM      5  O   UNL A   1      33.603  26.069  21.219  1.00  0.00    -0.252 OA
BRANCH   4   6
ATOM      6  C   UNL A   1      32.429  24.285  22.427  1.00  0.00     0.130 C 
BRANCH   6   7
ATOM      7  C   UNL A   1      32.617  23.471  23.792  1.00  0.00    -0.014 C 
ATOM      8  C   UNL A   1      32.545  21.928  23.483  1.00  0.00     0.036 C 
ATOM      9  C   UNL A   1      31.365  23.628  24.724  1.00  0.00     0.042 C 
ATOM     10  C   UNL A   1      32.273  21.009  24.697  1.00  0.00     0.161 C 
ATOM     11  C   UNL A   1      31.321  22.766  26.013  1.00  0.00     0.063 C 
ATOM     12  O   UNL A   1      31.180  21.420  25.536  1.00  0.00    -0.376 OA
ATOM     13  C   UNL A   1      32.436  22.762  27.078  1.00  0.00     0.042 C 
ATOM     14  C   UNL A   1      30.059  23.218  26.782  1.00  0.00     0.042 C 
BRANCH   7  15
ATOM     15  C   UNL A   1      33.990  23.801  24.443  1.00  0.00     0.008 C 
BRANCH  15  16
ATOM     16  C   UNL A   1      35.288  23.212  23.857  1.00  0.00     0.003 C 
BRANCH  16  17
ATOM     17  C   UNL A   1      35.902  22.000  24.568  1.00  0.00    -0.017 C 
ATOM     18  C   UNL A   1      37.296  21.648  24.104  1.00  0.00     0.007 C 
ATOM     19  C   UNL A   1      35.802  22.011  26.069  1.00  0.00     0.007 C 
ENDBRANCH  16  17
ENDBRANCH  15  16
ENDBRANCH   7  15
ENDBRANCH   6   7
ENDBRANCH   4   6
ENDBRANCH   3   4
ENDBRANCH   2   3
ENDBRANCH   1   2
BRANCH   1  20
ATOM     20  O   UNL A   1      32.656  28.385  25.535  1.00  0.00    -0.374 OA
BRANCH  20  21
ATOM     21  C   UNL A   1      32.045  28.959  26.690  1.00  0.00     0.202 C 
BRANCH  21  22
ATOM     22  C   UNL A   1      32.391  30.444  26.963  1.00  0.00     0.261 C 
BRANCH  22  23
ATOM     23  O   UNL A   1      33.796  30.737  26.825  1.00  0.00    -0.460 OA
BRANCH  23  24
ATOM     24  C   UNL A   1      34.341  31.646  27.673  1.00  0.00     0.338 C 
ATOM     25  O   UNL A   1      33.802  32.645  28.118  1.00  0.00    -0.246 OA
BRANCH  24  26
ATOM     26  C   UNL A   1      35.675  31.174  28.121  1.00  0.00     0.060 A 
ATOM     27  C   UNL A   1      35.872  29.800  28.271  1.00  0.00     0.016 A 
ATOM     28  C   UNL A   1      36.740  32.048  28.368  1.00  0.00     0.016 A 
ATOM     29  C   UNL A   1      37.110  29.305  28.705  1.00  0.00     0.010 A 
ATOM     30  C   UNL A   1      38.007  31.539  28.715  1.00  0.00     0.010 A 
ATOM     31  C   UNL A   1      38.189  30.167  28.963  1.00  0.00    -0.014 A 
BRANCH  31  32
ATOM     32  C   UNL A   1      39.381  29.646  29.713  1.00  0.00     0.031 A 
ATOM     33  C   UNL A   1      39.530  30.006  31.178  1.00  0.00     0.074 A 
ATOM     34  C   UNL A   1      40.263  28.776  29.171  1.00  0.00     0.049 A 
ATOM     35  N   UNL A   1      40.383  29.552  32.064  1.00  0.00    -0.248 NA
ATOM     36  C   UNL A   1      38.599  31.010  31.718  1.00  0.00     0.031 C 
ATOM     37  C   UNL A   1      40.281  28.333  27.777  1.00  0.00     0.029 A 
ATOM     38  N   UNL A   1      41.306  28.082  29.748  1.00  0.00    -0.354 N 
ATOM     39  C   UNL A   1      40.081  30.209  33.253  1.00  0.00     0.074 A 
ATOM     40  C   UNL A   1      39.027  31.149  32.961  1.00  0.00     0.031 C 
ATOM     41  C   UNL A   1      41.256  27.418  27.617  1.00  0.00     0.029 A 
ATOM     42  C   UNL A   1      41.945  27.213  28.891  1.00  0.00     0.049 A 
ATOM     43  H   UNL A   1      41.570  28.198  30.690  1.00  0.00     0.167 HD
ATOM     44  C   UNL A   1      40.588  30.027  34.495  1.00  0.00     0.031 A 
ATOM     45  C   UNL A   1      42.954  26.339  29.103  1.00  0.00     0.031 A 
ATOM     46  C   UNL A   1      41.622  29.089  34.825  1.00  0.00     0.049 A 
ATOM     47  C   UNL A   1      43.531  26.171  30.491  1.00  0.00     0.074 A 
ATOM     48  C   UNL A   1      42.182  28.830  36.064  1.00  0.00     0.029 A 
ATOM     49  N   UNL A   1      42.250  28.255  33.916  1.00  0.00    -0.354 N 
ATOM     50  N   UNL A   1      43.182  26.763  31.608  1.00  0.00    -0.248 NA
ATOM     51  C   UNL A   1      44.626  25.199  30.649  1.00  0.00     0.031 C 
ATOM     52  C   UNL A   1      43.181  27.867  35.897  1.00  0.00     0.029 A 
ATOM     53  C   UNL A   1      43.203  27.490  34.564  1.00  0.00     0.049 A 
ATOM     54  H   UNL A   1      42.049  28.213  32.954  1.00  0.00     0.167 HD
ATOM     55  C   UNL A   1      43.995  26.217  32.599  1.00  0.00     0.074 A 
ATOM     56  C   UNL A   1      44.840  25.234  31.958  1.00  0.00     0.031 C 
ATOM     57  C   UNL A   1      44.035  26.505  33.925  1.00  0.00     0.031 A 
BRANCH  44  58
ATOM     58  C   UNL A   1      40.008  30.871  35.599  1.00  0.00    -0.014 A 
ATOM     59  C   UNL A   1      38.689  30.665  36.044  1.00  0.00     0.010 A 
ATOM     60  C   UNL A   1      40.790  31.872  36.200  1.00  0.00     0.010 A 
ATOM     61  C   UNL A   1      38.145  31.480  37.039  1.00  0.00     0.020 A 
ATOM     62  C   UNL A   1      40.259  32.669  37.217  1.00  0.00     0.020 A 
ATOM     63  C   UNL A   1      38.933  32.481  37.616  1.00  0.00     0.054 A 
BRANCH  63  64
ATOM     64  S   UNL A   1      38.206  33.518  38.913  1.00  0.00     0.124 S 
ATOM     65  O   UNL A   1      38.518  34.862  38.432  1.00  0.00    -0.237 OA
ATOM     66  O   UNL A   1      36.794  33.147  38.867  1.00  0.00    -0.237 OA
ATOM     67  O   UNL A   1      38.916  33.109  40.122  1.00  0.00    -0.744 OA
ENDBRANCH  63  64
ENDBRANCH  44  58
BRANCH  45  68
ATOM     68  C   UNL A   1      43.505  25.531  27.974  1.00  0.00    -0.014 A 
ATOM     69  C   UNL A   1      43.003  24.248  27.682  1.00  0.00     0.010 A 
ATOM     70  C   UNL A   1      44.575  26.028  27.208  1.00  0.00     0.010 A 
ATOM     71  C   UNL A   1      43.574  23.472  26.666  1.00  0.00     0.020 A 
ATOM     72  C   UNL A   1      45.132  25.269  26.174  1.00  0.00     0.020 A 
ATOM     73  C   UNL A   1      44.637  23.989  25.918  1.00  0.00     0.054 A 
BRANCH  73  74
ATOM     74  S   UNL A   1      45.339  22.987  24.576  1.00  0.00     0.124 S 
ATOM     75  O   UNL A   1      44.145  22.577  23.845  1.00  0.00    -0.237 OA
ATOM     76  O   UNL A   1      46.204  23.943  23.888  1.00  0.00    -0.237 OA
ATOM     77  O   UNL A   1      46.042  21.918  25.281  1.00  0.00    -0.744 OA
ENDBRANCH  73  74
ENDBRANCH  45  68
BRANCH  57  78
ATOM     78  C   UNL A   1      44.997  25.735  34.792  1.00  0.00    -0.014 A 
ATOM     79  C   UNL A   1      44.583  24.603  35.515  1.00  0.00     0.010 A 
ATOM     80  C   UNL A   1      46.356  26.101  34.815  1.00  0.00     0.010 A 
ATOM     81  C   UNL A   1      45.505  23.866  36.263  1.00  0.00     0.020 A 
ATOM     82  C   UNL A   1      47.286  25.352  35.542  1.00  0.00     0.020 A 
ATOM     83  C   UNL A   1      46.851  24.245  36.273  1.00  0.00     0.054 A 
BRANCH  83  84
ATOM     84  S   UNL A   1      48.037  23.241  37.211  1.00  0.00     0.124 S 
ATOM     85  O   UNL A   1      47.442  23.236  38.544  1.00  0.00    -0.237 OA
ATOM     86  O   UNL A   1      48.006  21.963  36.504  1.00  0.00    -0.237 OA
ATOM     87  O   UNL A   1      49.290  23.982  37.089  1.00  0.00    -0.744 OA
ENDBRANCH  83  84
ENDBRANCH  57  78
ENDBRANCH  31  32
ENDBRANCH  24  26
ENDBRANCH  23  24
ENDBRANCH  22  23
ENDBRANCH  21  22
ENDBRANCH  20  21
ENDBRANCH   1  20
TORSDOF 21
ENDMDL
MODEL 2
REMARK VINA RESULT:      -9.5      5.108      7.529
REMARK SMILES CC(C)CC[C@@]1(CC(=O)OCCOCCOC(=O)c2ccc(-c3c4nc(c(-c5ccc(S(=O)(=O)[O-])cc5)c5ccc([nH]5)c(-c5ccc(S(=O)(=O)[O-])cc5)c5nc(c(-c6ccc(S(=O)(=O)[O-])cc6)c6ccc3[nH]6)C=C5)C=C4)cc2)CCOC(C)(C)C1
REMARK SMILES IDX 12 1 11 2 10 3 8 4 9 5 7 6 6 7 79 8 85 9 80 10 82 11 81 12
REMARK SMILES IDX 83 13 84 14 5 15 4 16 2 17 1 18 3 19 13 20 14 21 15 22 16 23
REMARK SMILES IDX 17 24 18 25 19 26 20 27 78 28 21 29 77 30 22 31 23 32 24 33
REMARK SMILES IDX 71 34 25 35 76 36 70 37 72 38 26 39 75 40 69 41 68 42 27 44
REMARK SMILES IDX 57 45 38 46 56 47 39 48 42 49 55 50 73 51 40 52 41 53 54 55
REMARK SMILES IDX 74 56 43 57 28 58 29 59 37 60 30 61 36 62 31 63 32 64 33 65
REMARK SMILES IDX 34 66 35 67 58 68 59 69 67 70 60 71 66 72 61 73 62 74 63 75
REMARK SMILES IDX 64 76 65 77 44 78 45 79 53 80 46 81 52 82 47 83 48 84 49 85
REMARK SMILES IDX 50 86 51 87
REMARK H PARENT 72 43 42 54
REMARK Flexibility Score: inf
ROOT
ATOM      1  C   UNL A   1      34.193  32.451  28.093  1.00  0.00     0.202 C 
ENDROOT
BRANCH   1   2
ATOM      2  C   UNL A   1      34.462  30.930  27.864  1.00  0.00     0.261 C 
BRANCH   2   3
ATOM      3  O   UNL A   1      33.755  30.289  26.752  1.00  0.00    -0.463 OA
BRANCH   3   4
ATOM      4  C   UNL A   1      33.088  29.107  26.940  1.00  0.00     0.306 C 
ATOM      5  O   UNL A   1      32.080  28.993  27.628  1.00  0.00    -0.252 OA
BRANCH   4   6
ATOM      6  C   UNL A   1      33.795  27.903  26.254  1.00  0.00     0.130 C 
BRANCH   6   7
ATOM      7  C   UNL A   1      33.020  26.851  25.329  1.00  0.00    -0.014 C 
ATOM      8  C   UNL A   1      33.775  26.726  23.952  1.00  0.00     0.036 C 
ATOM      9  C   UNL A   1      31.645  27.426  24.843  1.00  0.00     0.042 C 
ATOM     10  C   UNL A   1      32.961  26.107  22.791  1.00  0.00     0.161 C 
ATOM     11  C   UNL A   1      30.848  26.593  23.804  1.00  0.00     0.063 C 
ATOM     12  O   UNL A   1      31.644  26.657  22.612  1.00  0.00    -0.376 OA
ATOM     13  C   UNL A   1      30.451  25.119  24.014  1.00  0.00     0.042 C 
ATOM     14  C   UNL A   1      29.502  27.329  23.614  1.00  0.00     0.042 C 
BRANCH   7  15
ATOM     15  C   UNL A   1      32.966  25.455  26.014  1.00  0.00     0.008 C 
BRANCH  15  16
ATOM     16  C   UNL A   1      34.175  24.504  25.932  1.00  0.00     0.003 C 
BRANCH  16  17
ATOM     17  C   UNL A   1      33.897  23.026  25.630  1.00  0.00    -0.017 C 
ATOM     18  C   UNL A   1      32.600  22.508  26.207  1.00  0.00     0.007 C 
ATOM     19  C   UNL A   1      34.070  22.615  24.193  1.00  0.00     0.007 C 
ENDBRANCH  16  17
ENDBRANCH  15  16
ENDBRANCH   7  15
ENDBRANCH   6   7
ENDBRANCH   4   6
ENDBRANCH   3   4
ENDBRANCH   2   3
ENDBRANCH   1   2
BRANCH   1  20
ATOM     20  O   UNL A   1      35.194  33.183  28.822  1.00  0.00    -0.374 OA
BRANCH  20  21
ATOM     21  C   UNL A   1      34.809  33.813  30.042  1.00  0.00     0.202 C 
BRANCH  21  22
ATOM     22  C   UNL A   1      35.388  33.183  31.334  1.00  0.00     0.261 C 
BRANCH  22  23
ATOM     23  O   UNL A   1      36.793  32.872  31.237  1.00  0.00    -0.460 OA
BRANCH  23  24
ATOM     24  C   UNL A   1      37.253  31.794  31.919  1.00  0.00     0.338 C 
ATOM     25  O   UNL A   1      36.815  31.351  32.968  1.00  0.00    -0.246 OA
BRANCH  24  26
ATOM     26  C   UNL A   1      38.301  31.108  31.123  1.00  0.00     0.060 A 
ATOM     27  C   UNL A   1      39.324  30.451  31.808  1.00  0.00     0.016 A 
ATOM     28  C   UNL A   1      38.282  31.071  29.724  1.00  0.00     0.016 A 
ATOM     29  C   UNL A   1      40.346  29.799  31.101  1.00  0.00     0.010 A 
ATOM     30  C   UNL A   1      39.259  30.338  29.021  1.00  0.00     0.010 A 
ATOM     31  C   UNL A   1      40.347  29.757  29.697  1.00  0.00    -0.014 A 
BRANCH  31  32
ATOM     32  C   UNL A   1      41.593  29.331  28.976  1.00  0.00     0.031 A 
ATOM     33  C   UNL A   1      42.736  30.321  28.856  1.00  0.00     0.074 A 
ATOM     34  C   UNL A   1      41.787  28.067  28.535  1.00  0.00     0.049 A 
ATOM     35  N   UNL A   1      43.957  30.132  28.420  1.00  0.00    -0.248 NA
ATOM     36  C   UNL A   1      42.468  31.705  29.279  1.00  0.00     0.031 C 
ATOM     37  C   UNL A   1      40.795  26.993  28.555  1.00  0.00     0.029 A 
ATOM     38  N   UNL A   1      42.909  27.467  28.004  1.00  0.00    -0.354 N 
ATOM     39  C   UNL A   1      44.592  31.366  28.527  1.00  0.00     0.074 A 
ATOM     40  C   UNL A   1      43.605  32.311  28.988  1.00  0.00     0.031 C 
ATOM     41  C   UNL A   1      41.362  25.860  28.097  1.00  0.00     0.029 A 
ATOM     42  C   UNL A   1      42.756  26.124  27.738  1.00  0.00     0.049 A 
ATOM     43  H   UNL A   1      43.747  27.955  27.831  1.00  0.00     0.167 HD
ATOM     44  C   UNL A   1      45.888  31.693  28.313  1.00  0.00     0.031 A 
ATOM     45  C   UNL A   1      43.632  25.204  27.276  1.00  0.00     0.031 A 
ATOM     46  C   UNL A   1      46.900  30.776  27.873  1.00  0.00     0.049 A 
ATOM     47  C   UNL A   1      45.070  25.595  27.012  1.00  0.00     0.074 A 
ATOM     48  C   UNL A   1      48.243  31.023  27.647  1.00  0.00     0.029 A 
ATOM     49  N   UNL A   1      46.683  29.438  27.594  1.00  0.00    -0.354 N 
ATOM     50  N   UNL A   1      45.654  26.756  27.182  1.00  0.00    -0.248 NA
ATOM     51  C   UNL A   1      45.969  24.540  26.514  1.00  0.00     0.031 C 
ATOM     52  C   UNL A   1      48.832  29.842  27.190  1.00  0.00     0.029 A 
ATOM     53  C   UNL A   1      47.866  28.848  27.184  1.00  0.00     0.049 A 
ATOM     54  H   UNL A   1      45.819  28.975  27.674  1.00  0.00     0.167 HD
ATOM     55  C   UNL A   1      46.991  26.563  26.835  1.00  0.00     0.074 A 
ATOM     56  C   UNL A   1      47.135  25.173  26.466  1.00  0.00     0.031 C 
ATOM     57  C   UNL A   1      48.008  27.461  26.827  1.00  0.00     0.031 A 
BRANCH  44  58
ATOM     58  C   UNL A   1      46.281  33.124  28.568  1.00  0.00    -0.014 A 
ATOM     59  C   UNL A   1      46.776  33.521  29.825  1.00  0.00     0.010 A 
ATOM     60  C   UNL A   1      46.163  34.078  27.542  1.00  0.00     0.010 A 
ATOM     61  C   UNL A   1      47.098  34.858  30.066  1.00  0.00     0.020 A 
ATOM     62  C   UNL A   1      46.513  35.410  27.771  1.00  0.00     0.020 A 
ATOM     63  C   UNL A   1      46.960  35.795  29.038  1.00  0.00     0.054 A 
BRANCH  63  64
ATOM     64  S   UNL A   1      47.396  37.523  29.374  1.00  0.00     0.124 S 
ATOM     65  O   UNL A   1      48.499  37.374  30.321  1.00  0.00    -0.237 OA
ATOM     66  O   UNL A   1      47.767  38.023  28.053  1.00  0.00    -0.237 OA
ATOM     67  O   UNL A   1      46.170  38.088  29.930  1.00  0.00    -0.744 OA
ENDBRANCH  63  64
ENDBRANCH  44  58
BRANCH  45  68
ATOM     68  C   UNL A   1      43.192  23.799  27.027  1.00  0.00    -0.014 A 
ATOM     69  C   UNL A   1      42.776  23.381  25.748  1.00  0.00     0.010 A 
ATOM     70  C   UNL A   1      43.144  22.877  28.089  1.00  0.00     0.010 A 
ATOM     71  C   UNL A   1      42.299  22.080  25.543  1.00  0.00     0.020 A 
ATOM     72  C   UNL A   1      42.695  21.569  27.884  1.00  0.00     0.020 A 
ATOM     73  C   UNL A   1      42.262  21.182  26.614  1.00  0.00     0.054 A 
BRANCH  73  74
ATOM     74  S   UNL A   1      41.681  19.486  26.322  1.00  0.00     0.124 S 
ATOM     75  O   UNL A   1      42.471  19.089  25.162  1.00  0.00    -0.237 OA
ATOM     76  O   UNL A   1      42.018  18.816  27.576  1.00  0.00    -0.237 OA
ATOM     77  O   UNL A   1      40.250  19.653  26.079  1.00  0.00    -0.744 OA
ENDBRANCH  73  74
ENDBRANCH  45  68
BRANCH  57  78
ATOM     78  C   UNL A   1      49.381  26.978  26.438  1.00  0.00    -0.014 A 
ATOM     79  C   UNL A   1      50.190  26.271  27.344  1.00  0.00     0.010 A 
ATOM     80  C   UNL A   1      49.832  27.161  25.117  1.00  0.00     0.010 A 
ATOM     81  C   UNL A   1      51.435  25.777  26.943  1.00  0.00     0.020 A 
ATOM     82  C   UNL A   1      51.066  26.647  24.705  1.00  0.00     0.020 A 
ATOM     83  C   UNL A   1      51.866  25.969  25.626  1.00  0.00     0.054 A 
BRANCH  83  84
ATOM     84  S   UNL A   1      53.463  25.272  25.117  1.00  0.00     0.124 S 
ATOM     85  O   UNL A   1      54.388  25.934  26.033  1.00  0.00    -0.237 OA
ATOM     86  O   UNL A   1      53.275  23.841  25.338  1.00  0.00    -0.237 OA
ATOM     87  O   UNL A   1      53.582  25.669  23.716  1.00  0.00    -0.744 OA
ENDBRANCH  83  84
ENDBRANCH  57  78
ENDBRANCH  31  32
ENDBRANCH  24  26
ENDBRANCH  23  24
ENDBRANCH  22  23
ENDBRANCH  21  22
ENDBRANCH  20  21
ENDBRANCH   1  20
TORSDOF 21
ENDMDL
MODEL 3
REMARK VINA RESULT:      -9.4      1.609      2.607
REMARK SMILES CC(C)CC[C@@]1(CC(=O)OCCOCCOC(=O)c2ccc(-c3c4nc(c(-c5ccc(S(=O)(=O)[O-])cc5)c5ccc([nH]5)c(-c5ccc(S(=O)(=O)[O-])cc5)c5nc(c(-c6ccc(S(=O)(=O)[O-])cc6)c6ccc3[nH]6)C=C5)C=C4)cc2)CCOC(C)(C)C1
REMARK SMILES IDX 12 1 11 2 10 3 8 4 9 5 7 6 6 7 79 8 85 9 80 10 82 11 81 12
REMARK SMILES IDX 83 13 84 14 5 15 4 16 2 17 1 18 3 19 13 20 14 21 15 22 16 23
REMARK SMILES IDX 17 24 18 25 19 26 20 27 78 28 21 29 77 30 22 31 23 32 24 33
REMARK SMILES IDX 71 34 25 35 76 36 70 37 72 38 26 39 75 40 69 41 68 42 27 44
REMARK SMILES IDX 57 45 38 46 56 47 39 48 42 49 55 50 73 51 40 52 41 53 54 55
REMARK SMILES IDX 74 56 43 57 28 58 29 59 37 60 30 61 36 62 31 63 32 64 33 65
REMARK SMILES IDX 34 66 35 67 58 68 59 69 67 70 60 71 66 72 61 73 62 74 63 75
REMARK SMILES IDX 64 76 65 77 44 78 45 79 53 80 46 81 52 82 47 83 48 84 49 85
REMARK SMILES IDX 50 86 51 87
REMARK H PARENT 72 43 42 54
REMARK Flexibility Score: inf
ROOT
ATOM      1  C   UNL A   1      31.701  27.335  24.699  1.00  0.00     0.202 C 
ENDROOT
BRANCH   1   2
ATOM      2  C   UNL A   1      33.017  27.453  23.866  1.00  0.00     0.261 C 
BRANCH   2   3
ATOM      3  O   UNL A   1      33.772  26.219  23.636  1.00  0.00    -0.463 OA
BRANCH   3   4
ATOM      4  C   UNL A   1      33.531  25.453  22.525  1.00  0.00     0.306 C 
ATOM      5  O   UNL A   1      33.612  25.873  21.376  1.00  0.00    -0.252 OA
BRANCH   4   6
ATOM      6  C   UNL A   1      33.061  24.013  22.877  1.00  0.00     0.130 C 
BRANCH   6   7
ATOM      7  C   UNL A   1      33.749  23.129  24.021  1.00  0.00    -0.014 C 
ATOM      8  C   UNL A   1      32.971  23.348  25.374  1.00  0.00     0.036 C 
ATOM      9  C   UNL A   1      35.155  23.701  24.413  1.00  0.00     0.042 C 
ATOM     10  C   UNL A   1      33.725  22.933  26.660  1.00  0.00     0.161 C 
ATOM     11  C   UNL A   1      35.879  23.054  25.623  1.00  0.00     0.063 C 
ATOM     12  O   UNL A   1      35.075  23.420  26.755  1.00  0.00    -0.376 OA
ATOM     13  C   UNL A   1      36.172  21.545  25.737  1.00  0.00     0.042 C 
ATOM     14  C   UNL A   1      37.271  23.721  25.691  1.00  0.00     0.042 C 
BRANCH   7  15
ATOM     15  C   UNL A   1      33.711  21.621  23.646  1.00  0.00     0.008 C 
BRANCH  15  16
ATOM     16  C   UNL A   1      32.677  20.684  24.299  1.00  0.00     0.003 C 
BRANCH  16  17
ATOM     17  C   UNL A   1      32.952  19.176  24.246  1.00  0.00    -0.017 C 
ATOM     18  C   UNL A   1      32.710  18.454  25.552  1.00  0.00     0.007 C 
ATOM     19  C   UNL A   1      32.334  18.446  23.084  1.00  0.00     0.007 C 
ENDBRANCH  16  17
ENDBRANCH  15  16
ENDBRANCH   7  15
ENDBRANCH   6   7
ENDBRANCH   4   6
ENDBRANCH   3   4
ENDBRANCH   2   3
ENDBRANCH   1   2
BRANCH   1  20
ATOM     20  O   UNL A   1      31.167  28.555  25.242  1.00  0.00    -0.374 OA
BRANCH  20  21
ATOM     21  C   UNL A   1      31.420  28.846  26.615  1.00  0.00     0.202 C 
BRANCH  21  22
ATOM     22  C   UNL A   1      32.265  30.115  26.887  1.00  0.00     0.261 C 
BRANCH  22  23
ATOM     23  O   UNL A   1      33.622  29.825  27.281  1.00  0.00    -0.460 OA
BRANCH  23  24
ATOM     24  C   UNL A   1      34.396  30.857  27.700  1.00  0.00     0.338 C 
ATOM     25  O   UNL A   1      34.043  32.012  27.872  1.00  0.00    -0.246 OA
BRANCH  24  26
ATOM     26  C   UNL A   1      35.740  30.353  28.079  1.00  0.00     0.060 A 
ATOM     27  C   UNL A   1      35.856  29.609  29.254  1.00  0.00     0.016 A 
ATOM     28  C   UNL A   1      36.875  30.569  27.291  1.00  0.00     0.016 A 
ATOM     29  C   UNL A   1      37.106  29.121  29.663  1.00  0.00     0.010 A 
ATOM     30  C   UNL A   1      38.111  30.000  27.658  1.00  0.00     0.010 A 
ATOM     31  C   UNL A   1      38.259  29.334  28.888  1.00  0.00    -0.014 A 
BRANCH  31  32
ATOM     32  C   UNL A   1      39.609  29.076  29.494  1.00  0.00     0.031 A 
ATOM     33  C   UNL A   1      40.015  29.867  30.723  1.00  0.00     0.074 A 
ATOM     34  C   UNL A   1      40.427  28.089  29.064  1.00  0.00     0.049 A 
ATOM     35  N   UNL A   1      41.054  29.711  31.506  1.00  0.00    -0.248 NA
ATOM     36  C   UNL A   1      39.138  30.980  31.121  1.00  0.00     0.031 C 
ATOM     37  C   UNL A   1      40.204  27.243  27.893  1.00  0.00     0.029 A 
ATOM     38  N   UNL A   1      41.609  27.613  29.592  1.00  0.00    -0.354 N 
ATOM     39  C   UNL A   1      40.944  30.697  32.482  1.00  0.00     0.074 A 
ATOM     40  C   UNL A   1      39.789  31.495  32.149  1.00  0.00     0.031 C 
ATOM     41  C   UNL A   1      41.192  26.331  27.812  1.00  0.00     0.029 A 
ATOM     42  C   UNL A   1      42.129  26.529  28.919  1.00  0.00     0.049 A 
ATOM     43  H   UNL A   1      42.043  28.012  30.381  1.00  0.00     0.167 HD
ATOM     44  C   UNL A   1      41.695  30.907  33.589  1.00  0.00     0.031 A 
ATOM     45  C   UNL A   1      43.219  25.770  29.166  1.00  0.00     0.031 A 
ATOM     46  C   UNL A   1      42.837  30.123  33.961  1.00  0.00     0.049 A 
ATOM     47  C   UNL A   1      44.066  26.038  30.391  1.00  0.00     0.074 A 
ATOM     48  C   UNL A   1      43.645  30.259  35.076  1.00  0.00     0.029 A 
ATOM     49  N   UNL A   1      43.333  29.057  33.231  1.00  0.00    -0.354 N 
ATOM     50  N   UNL A   1      43.900  26.939  31.328  1.00  0.00    -0.248 NA
ATOM     51  C   UNL A   1      45.236  25.169  30.599  1.00  0.00     0.031 C 
ATOM     52  C   UNL A   1      44.657  29.299  34.999  1.00  0.00     0.029 A 
ATOM     53  C   UNL A   1      44.446  28.533  33.864  1.00  0.00     0.049 A 
ATOM     54  H   UNL A   1      42.952  28.722  32.388  1.00  0.00     0.167 HD
ATOM     55  C   UNL A   1      44.928  26.728  32.246  1.00  0.00     0.074 A 
ATOM     56  C   UNL A   1      45.699  25.604  31.764  1.00  0.00     0.031 C 
ATOM     57  C   UNL A   1      45.205  27.407  33.388  1.00  0.00     0.031 A 
BRANCH  44  58
ATOM     58  C   UNL A   1      41.283  32.043  34.487  1.00  0.00    -0.014 A 
ATOM     59  C   UNL A   1      41.777  33.344  34.275  1.00  0.00     0.010 A 
ATOM     60  C   UNL A   1      40.389  31.810  35.547  1.00  0.00     0.010 A 
ATOM     61  C   UNL A   1      41.423  34.382  35.138  1.00  0.00     0.020 A 
ATOM     62  C   UNL A   1      40.009  32.853  36.394  1.00  0.00     0.020 A 
ATOM     63  C   UNL A   1      40.544  34.129  36.196  1.00  0.00     0.054 A 
BRANCH  63  64
ATOM     64  S   UNL A   1      40.092  35.497  37.296  1.00  0.00     0.124 S 
ATOM     65  O   UNL A   1      41.345  35.733  38.010  1.00  0.00    -0.237 OA
ATOM     66  O   UNL A   1      39.697  36.545  36.358  1.00  0.00    -0.237 OA
ATOM     67  O   UNL A   1      39.007  34.948  38.105  1.00  0.00    -0.744 OA
ENDBRANCH  63  64
ENDBRANCH  44  58
BRANCH  45  68
ATOM     68  C   UNL A   1      43.594  24.660  28.239  1.00  0.00    -0.014 A 
ATOM     69  C   UNL A   1      44.513  24.865  27.191  1.00  0.00     0.010 A 
ATOM     70  C   UNL A   1      42.993  23.396  28.374  1.00  0.00     0.010 A 
ATOM     71  C   UNL A   1      44.803  23.837  26.286  1.00  0.00     0.020 A 
ATOM     72  C   UNL A   1      43.300  22.357  27.489  1.00  0.00     0.020 A 
ATOM     73  C   UNL A   1      44.194  22.588  26.442  1.00  0.00     0.054 A 
BRANCH  73  74
ATOM     74  S   UNL A   1      44.613  21.252  25.285  1.00  0.00     0.124 S 
ATOM     75  O   UNL A   1      46.012  20.995  25.610  1.00  0.00    -0.237 OA
ATOM     76  O   UNL A   1      43.672  20.200  25.663  1.00  0.00    -0.237 OA
ATOM     77  O   UNL A   1      44.373  21.850  23.973  1.00  0.00    -0.744 OA
ENDBRANCH  73  74
ENDBRANCH  45  68
BRANCH  57  78
ATOM     78  C   UNL A   1      46.369  26.945  34.225  1.00  0.00    -0.014 A 
ATOM     79  C   UNL A   1      46.219  25.937  35.193  1.00  0.00     0.010 A 
ATOM     80  C   UNL A   1      47.652  27.471  33.979  1.00  0.00     0.010 A 
ATOM     81  C   UNL A   1      47.325  25.480  35.915  1.00  0.00     0.020 A 
ATOM     82  C   UNL A   1      48.765  26.999  34.682  1.00  0.00     0.020 A 
ATOM     83  C   UNL A   1      48.591  26.014  35.656  1.00  0.00     0.054 A 
BRANCH  83  84
ATOM     84  S   UNL A   1      50.019  25.366  36.570  1.00  0.00     0.124 S 
ATOM     85  O   UNL A   1      50.631  24.477  35.586  1.00  0.00    -0.237 OA
ATOM     86  O   UNL A   1      50.778  26.574  36.882  1.00  0.00    -0.237 OA
ATOM     87  O   UNL A   1      49.418  24.700  37.723  1.00  0.00    -0.744 OA
ENDBRANCH  83  84
ENDBRANCH  57  78
ENDBRANCH  31  32
ENDBRANCH  24  26
ENDBRANCH  23  24
ENDBRANCH  22  23
ENDBRANCH  21  22
ENDBRANCH  20  21
ENDBRANCH   1  20
TORSDOF 21
ENDMDL
