MODEL 1
REMARK VINA RESULT:     -11.7      0.000      0.000
REMARK SMILES COc1ccc(S(=O)(=O)N2CCCC[C@@H]2C(=O)OCCOCCOC(=O)c2ccc(-c3c4nc(c(-c5ccc(S(=O)(=O)[O-])cc5)c5ccc([nH]5)c(-c5ccc(S(=O)(=O)[O-])cc5)c5nc(c(-c6ccc(S(=O)(=O)[O-])cc6)c6ccc3[nH]6)C=C5)C=C4)cc2)cc1C
REMARK SMILES IDX 21 1 20 2 19 3 18 4 16 5 17 6 15 7 10 8 11 9 12 10 14 11
REMARK SMILES IDX 13 12 7 13 8 14 9 15 6 16 3 17 4 18 88 19 5 20 87 21 89 22
REMARK SMILES IDX 2 23 1 24 22 25 23 26 24 27 25 28 26 29 27 30 28 31 86 32
REMARK SMILES IDX 29 33 85 34 30 35 31 36 32 37 79 38 33 39 84 40 78 41 80 42
REMARK SMILES IDX 34 43 83 44 77 45 76 46 35 48 65 49 46 50 64 51 47 52 50 53
REMARK SMILES IDX 63 54 81 55 48 56 49 57 62 59 82 60 51 61 36 62 37 63 45 64
REMARK SMILES IDX 38 65 44 66 39 67 40 68 41 69 42 70 43 71 66 72 67 73 75 74
REMARK SMILES IDX 68 75 74 76 69 77 70 78 71 79 72 80 73 81 52 82 53 83 61 84
REMARK SMILES IDX 54 85 60 86 55 87 56 88 57 89 58 90 59 91
REMARK H PARENT 80 47 50 58
REMARK Flexibility Score: inf
ROOT
ATOM      1  O   UNL A   1      36.214  22.903  24.732  1.00  0.00    -0.374 OA
ENDROOT
BRANCH   1   2
ATOM      2  C   UNL A   1      35.489  23.544  23.681  1.00  0.00     0.202 C 
BRANCH   2   3
ATOM      3  C   UNL A   1      34.676  24.673  24.298  1.00  0.00     0.261 C 
BRANCH   3   4
ATOM      4  O   UNL A   1      33.628  25.158  23.431  1.00  0.00    -0.462 OA
BRANCH   4   5
ATOM      5  C   UNL A   1      33.090  26.388  23.677  1.00  0.00     0.324 C 
ATOM      6  O   UNL A   1      32.633  27.154  22.841  1.00  0.00    -0.250 OA
BRANCH   5   7
ATOM      7  C   UNL A   1      32.972  26.618  25.187  1.00  0.00     0.183 C 
ATOM      8  N   UNL A   1      31.590  26.747  25.763  1.00  0.00    -0.184 NA
ATOM      9  C   UNL A   1      31.403  27.461  27.043  1.00  0.00     0.103 C 
ATOM     10  C   UNL A   1      32.261  28.707  27.139  1.00  0.00     0.017 C 
ATOM     11  C   UNL A   1      33.885  27.819  25.536  1.00  0.00     0.032 C 
ATOM     12  C   UNL A   1      33.717  28.336  26.946  1.00  0.00     0.004 C 
BRANCH   8  13
ATOM     13  S   UNL A   1      30.499  25.447  25.526  1.00  0.00     0.243 S 
ATOM     14  O   UNL A   1      30.155  25.449  24.127  1.00  0.00    -0.207 OA
ATOM     15  O   UNL A   1      29.494  25.515  26.558  1.00  0.00    -0.207 OA
BRANCH  13  16
ATOM     16  C   UNL A   1      31.352  23.906  25.757  1.00  0.00     0.083 A 
ATOM     17  C   UNL A   1      32.886  21.584  25.812  1.00  0.00     0.121 A 
ATOM     18  C   UNL A   1      31.999  21.798  24.757  1.00  0.00     0.048 A 
ATOM     19  C   UNL A   1      33.045  22.543  26.823  1.00  0.00    -0.008 A 
ATOM     20  C   UNL A   1      31.241  22.965  24.721  1.00  0.00     0.025 A 
ATOM     21  C   UNL A   1      32.218  23.675  26.822  1.00  0.00     0.029 A 
ATOM     22  C   UNL A   1      34.098  22.424  27.883  1.00  0.00     0.048 C 
BRANCH  17  23
ATOM     23  O   UNL A   1      33.651  20.450  25.755  1.00  0.00    -0.496 OA
ATOM     24  C   UNL A   1      33.536  19.806  24.487  1.00  0.00     0.278 C 
ENDBRANCH  17  23
ENDBRANCH  13  16
ENDBRANCH   8  13
ENDBRANCH   5   7
ENDBRANCH   4   5
ENDBRANCH   3   4
ENDBRANCH   2   3
ENDBRANCH   1   2
BRANCH   1  25
ATOM     25  C   UNL A   1      36.721  21.608  24.449  1.00  0.00     0.202 C 
BRANCH  25  26
ATOM     26  C   UNL A   1      37.761  21.087  25.451  1.00  0.00     0.261 C 
BRANCH  26  27
ATOM     27  O   UNL A   1      38.858  22.009  25.552  1.00  0.00    -0.460 OA
BRANCH  27  28
ATOM     28  C   UNL A   1      39.701  21.761  26.594  1.00  0.00     0.338 C 
ATOM     29  O   UNL A   1      40.118  20.656  26.887  1.00  0.00    -0.246 OA
BRANCH  28  30
ATOM     30  C   UNL A   1      40.005  23.032  27.304  1.00  0.00     0.060 A 
ATOM     31  C   UNL A   1      39.135  24.131  27.214  1.00  0.00     0.016 A 
ATOM     32  C   UNL A   1      41.238  23.174  27.938  1.00  0.00     0.016 A 
ATOM     33  C   UNL A   1      39.528  25.386  27.712  1.00  0.00     0.010 A 
ATOM     34  C   UNL A   1      41.647  24.424  28.359  1.00  0.00     0.010 A 
ATOM     35  C   UNL A   1      40.800  25.541  28.267  1.00  0.00    -0.014 A 
BRANCH  35  36
ATOM     36  C   UNL A   1      41.410  26.807  28.690  1.00  0.00     0.031 A 
ATOM     37  C   UNL A   1      40.584  27.846  29.373  1.00  0.00     0.074 A 
ATOM     38  C   UNL A   1      42.755  26.934  28.760  1.00  0.00     0.049 A 
ATOM     39  N   UNL A   1      40.970  29.058  29.610  1.00  0.00    -0.248 NA
ATOM     40  C   UNL A   1      39.230  27.592  29.863  1.00  0.00     0.031 C 
ATOM     41  C   UNL A   1      43.483  27.851  29.630  1.00  0.00     0.029 A 
ATOM     42  N   UNL A   1      43.773  26.275  28.060  1.00  0.00    -0.354 N 
ATOM     43  C   UNL A   1      40.156  29.557  30.601  1.00  0.00     0.074 A 
ATOM     44  C   UNL A   1      39.026  28.659  30.640  1.00  0.00     0.031 C 
ATOM     45  C   UNL A   1      44.777  27.871  29.287  1.00  0.00     0.029 A 
ATOM     46  C   UNL A   1      44.901  27.117  28.061  1.00  0.00     0.049 A 
ATOM     47  H   UNL A   1      43.711  25.385  27.644  1.00  0.00     0.167 HD
ATOM     48  C   UNL A   1      40.594  30.571  31.405  1.00  0.00     0.031 A 
ATOM     49  C   UNL A   1      45.466  27.588  26.917  1.00  0.00     0.031 A 
ATOM     50  C   UNL A   1      41.961  31.003  31.072  1.00  0.00     0.049 A 
ATOM     51  C   UNL A   1      45.407  29.092  26.887  1.00  0.00     0.074 A 
ATOM     52  C   UNL A   1      43.177  30.907  31.734  1.00  0.00     0.029 A 
ATOM     53  N   UNL A   1      42.268  31.404  29.769  1.00  0.00    -0.354 N 
ATOM     54  N   UNL A   1      44.544  29.771  27.596  1.00  0.00    -0.248 NA
ATOM     55  C   UNL A   1      46.329  29.961  26.166  1.00  0.00     0.031 C 
ATOM     56  C   UNL A   1      44.213  31.216  30.812  1.00  0.00     0.029 A 
ATOM     57  C   UNL A   1      43.634  31.517  29.589  1.00  0.00     0.049 A 
ATOM     58  H   UNL A   1      41.599  31.581  29.069  1.00  0.00     0.167 HD
ATOM     59  C   UNL A   1      44.844  31.097  27.548  1.00  0.00     0.074 A 
ATOM     60  C   UNL A   1      45.929  31.179  26.585  1.00  0.00     0.031 C 
ATOM     61  C   UNL A   1      44.204  32.009  28.334  1.00  0.00     0.031 A 
BRANCH  48  62
ATOM     62  C   UNL A   1      39.864  30.979  32.679  1.00  0.00    -0.014 A 
ATOM     63  C   UNL A   1      39.380  32.294  32.849  1.00  0.00     0.010 A 
ATOM     64  C   UNL A   1      39.625  30.101  33.755  1.00  0.00     0.010 A 
ATOM     65  C   UNL A   1      38.782  32.726  34.048  1.00  0.00     0.020 A 
ATOM     66  C   UNL A   1      39.075  30.525  34.975  1.00  0.00     0.020 A 
ATOM     67  C   UNL A   1      38.655  31.842  35.117  1.00  0.00     0.054 A 
BRANCH  67  68
ATOM     68  S   UNL A   1      37.924  32.417  36.674  1.00  0.00     0.124 S 
ATOM     69  O   UNL A   1      36.754  33.166  36.221  1.00  0.00    -0.237 OA
ATOM     70  O   UNL A   1      37.640  31.164  37.368  1.00  0.00    -0.237 OA
ATOM     71  O   UNL A   1      38.980  33.233  37.273  1.00  0.00    -0.744 OA
ENDBRANCH  67  68
ENDBRANCH  48  62
BRANCH  49  72
ATOM     72  C   UNL A   1      45.436  26.602  25.802  1.00  0.00    -0.014 A 
ATOM     73  C   UNL A   1      46.579  25.778  25.665  1.00  0.00     0.010 A 
ATOM     74  C   UNL A   1      44.210  26.132  25.298  1.00  0.00     0.010 A 
ATOM     75  C   UNL A   1      46.468  24.462  25.198  1.00  0.00     0.020 A 
ATOM     76  C   UNL A   1      44.094  24.809  24.837  1.00  0.00     0.020 A 
ATOM     77  C   UNL A   1      45.213  23.967  24.841  1.00  0.00     0.054 A 
BRANCH  77  78
ATOM     78  S   UNL A   1      45.001  22.162  24.672  1.00  0.00     0.124 S 
ATOM     79  O   UNL A   1      46.355  21.665  24.885  1.00  0.00    -0.237 OA
ATOM     80  O   UNL A   1      44.040  21.839  25.730  1.00  0.00    -0.237 OA
ATOM     81  O   UNL A   1      44.469  22.011  23.320  1.00  0.00    -0.744 OA
ENDBRANCH  77  78
ENDBRANCH  49  72
BRANCH  61  82
ATOM     82  C   UNL A   1      44.136  33.484  28.047  1.00  0.00    -0.014 A 
ATOM     83  C   UNL A   1      43.746  34.005  26.805  1.00  0.00     0.010 A 
ATOM     84  C   UNL A   1      44.276  34.400  29.117  1.00  0.00     0.010 A 
ATOM     85  C   UNL A   1      43.538  35.376  26.627  1.00  0.00     0.020 A 
ATOM     86  C   UNL A   1      44.025  35.764  28.962  1.00  0.00     0.020 A 
ATOM     87  C   UNL A   1      43.671  36.246  27.708  1.00  0.00     0.054 A 
BRANCH  87  88
ATOM     88  S   UNL A   1      43.280  37.997  27.484  1.00  0.00     0.124 S 
ATOM     89  O   UNL A   1      44.506  38.501  26.871  1.00  0.00    -0.237 OA
ATOM     90  O   UNL A   1      42.112  37.960  26.606  1.00  0.00    -0.237 OA
ATOM     91  O   UNL A   1      43.015  38.469  28.841  1.00  0.00    -0.744 OA
ENDBRANCH  87  88
ENDBRANCH  61  82
ENDBRANCH  35  36
ENDBRANCH  28  30
ENDBRANCH  27  28
ENDBRANCH  26  27
ENDBRANCH  25  26
ENDBRANCH   1  25
TORSDOF 20
ENDMDL
MODEL 2
REMARK VINA RESULT:     -11.3      3.682      9.458
REMARK SMILES COc1ccc(S(=O)(=O)N2CCCC[C@@H]2C(=O)OCCOCCOC(=O)c2ccc(-c3c4nc(c(-c5ccc(S(=O)(=O)[O-])cc5)c5ccc([nH]5)c(-c5ccc(S(=O)(=O)[O-])cc5)c5nc(c(-c6ccc(S(=O)(=O)[O-])cc6)c6ccc3[nH]6)C=C5)C=C4)cc2)cc1C
REMARK SMILES IDX 21 1 20 2 19 3 18 4 16 5 17 6 15 7 10 8 11 9 12 10 14 11
REMARK SMILES IDX 13 12 7 13 8 14 9 15 6 16 3 17 4 18 88 19 5 20 87 21 89 22
REMARK SMILES IDX 2 23 1 24 22 25 23 26 24 27 25 28 26 29 27 30 28 31 86 32
REMARK SMILES IDX 29 33 85 34 30 35 31 36 32 37 79 38 33 39 84 40 78 41 80 42
REMARK SMILES IDX 34 43 83 44 77 45 76 46 35 48 65 49 46 50 64 51 47 52 50 53
REMARK SMILES IDX 63 54 81 55 48 56 49 57 62 59 82 60 51 61 36 62 37 63 45 64
REMARK SMILES IDX 38 65 44 66 39 67 40 68 41 69 42 70 43 71 66 72 67 73 75 74
REMARK SMILES IDX 68 75 74 76 69 77 70 78 71 79 72 80 73 81 52 82 53 83 61 84
REMARK SMILES IDX 54 85 60 86 55 87 56 88 57 89 58 90 59 91
REMARK H PARENT 80 47 50 58
REMARK Flexibility Score: inf
ROOT
ATOM      1  O   UNL A   1      33.489  27.844  26.760  1.00  0.00    -0.374 OA
ENDROOT
BRANCH   1   2
ATOM      2  C   UNL A   1      32.457  28.418  27.564  1.00  0.00     0.202 C 
BRANCH   2   3
ATOM      3  C   UNL A   1      31.119  27.962  26.998  1.00  0.00     0.261 C 
BRANCH   3   4
ATOM      4  O   UNL A   1      31.251  27.166  25.801  1.00  0.00    -0.462 OA
BRANCH   4   5
ATOM      5  C   UNL A   1      30.623  25.955  25.747  1.00  0.00     0.324 C 
ATOM      6  O   UNL A   1      29.766  25.554  26.522  1.00  0.00    -0.250 OA
BRANCH   5   7
ATOM      7  C   UNL A   1      31.013  25.215  24.464  1.00  0.00     0.183 C 
ATOM      8  N   UNL A   1      32.234  24.340  24.512  1.00  0.00    -0.184 NA
ATOM      9  C   UNL A   1      32.950  24.029  23.258  1.00  0.00     0.103 C 
ATOM     10  C   UNL A   1      33.052  25.229  22.338  1.00  0.00     0.017 C 
ATOM     11  C   UNL A   1      31.070  26.268  23.331  1.00  0.00     0.032 C 
ATOM     12  C   UNL A   1      31.665  25.757  22.039  1.00  0.00     0.004 C 
BRANCH   8  13
ATOM     13  S   UNL A   1      32.267  23.074  25.665  1.00  0.00     0.243 S 
ATOM     14  O   UNL A   1      31.057  22.314  25.477  1.00  0.00    -0.207 OA
ATOM     15  O   UNL A   1      32.618  23.643  26.943  1.00  0.00    -0.207 OA
BRANCH  13  16
ATOM     16  C   UNL A   1      33.561  21.928  25.254  1.00  0.00     0.083 A 
ATOM     17  C   UNL A   1      35.654  20.113  24.980  1.00  0.00     0.121 A 
ATOM     18  C   UNL A   1      35.915  21.398  25.456  1.00  0.00     0.048 A 
ATOM     19  C   UNL A   1      34.344  19.711  24.677  1.00  0.00    -0.008 A 
ATOM     20  C   UNL A   1      34.867  22.303  25.607  1.00  0.00     0.025 A 
ATOM     21  C   UNL A   1      33.310  20.654  24.753  1.00  0.00     0.029 A 
ATOM     22  C   UNL A   1      34.003  18.297  24.317  1.00  0.00     0.048 C 
BRANCH  17  23
ATOM     23  O   UNL A   1      36.715  19.250  24.918  1.00  0.00    -0.496 OA
ATOM     24  C   UNL A   1      37.957  19.951  24.907  1.00  0.00     0.278 C 
ENDBRANCH  17  23
ENDBRANCH  13  16
ENDBRANCH   8  13
ENDBRANCH   5   7
ENDBRANCH   4   5
ENDBRANCH   3   4
ENDBRANCH   2   3
ENDBRANCH   1   2
BRANCH   1  25
ATOM     25  C   UNL A   1      34.591  28.684  26.455  1.00  0.00     0.202 C 
BRANCH  25  26
ATOM     26  C   UNL A   1      34.657  29.985  27.267  1.00  0.00     0.261 C 
BRANCH  26  27
ATOM     27  O   UNL A   1      36.025  30.387  27.451  1.00  0.00    -0.460 OA
BRANCH  27  28
ATOM     28  C   UNL A   1      36.483  30.239  28.725  1.00  0.00     0.338 C 
ATOM     29  O   UNL A   1      35.932  30.702  29.708  1.00  0.00    -0.246 OA
BRANCH  28  30
ATOM     30  C   UNL A   1      37.745  29.452  28.715  1.00  0.00     0.060 A 
ATOM     31  C   UNL A   1      38.222  28.843  29.886  1.00  0.00     0.016 A 
ATOM     32  C   UNL A   1      38.532  29.452  27.564  1.00  0.00     0.016 A 
ATOM     33  C   UNL A   1      39.511  28.282  29.917  1.00  0.00     0.010 A 
ATOM     34  C   UNL A   1      39.822  28.965  27.622  1.00  0.00     0.010 A 
ATOM     35  C   UNL A   1      40.326  28.364  28.786  1.00  0.00    -0.014 A 
BRANCH  35  36
ATOM     36  C   UNL A   1      41.736  27.964  28.707  1.00  0.00     0.031 A 
ATOM     37  C   UNL A   1      42.102  26.521  28.601  1.00  0.00     0.074 A 
ATOM     38  C   UNL A   1      42.695  28.874  28.418  1.00  0.00     0.049 A 
ATOM     39  N   UNL A   1      43.302  26.053  28.719  1.00  0.00    -0.248 NA
ATOM     40  C   UNL A   1      41.123  25.468  28.335  1.00  0.00     0.031 C 
ATOM     41  C   UNL A   1      43.978  28.591  27.785  1.00  0.00     0.029 A 
ATOM     42  N   UNL A   1      42.737  30.257  28.631  1.00  0.00    -0.354 N 
ATOM     43  C   UNL A   1      43.310  24.804  28.142  1.00  0.00     0.074 A 
ATOM     44  C   UNL A   1      41.917  24.440  28.025  1.00  0.00     0.031 C 
ATOM     45  C   UNL A   1      44.764  29.674  27.848  1.00  0.00     0.029 A 
ATOM     46  C   UNL A   1      44.092  30.634  28.692  1.00  0.00     0.049 A 
ATOM     47  H   UNL A   1      41.960  30.856  28.722  1.00  0.00     0.167 HD
ATOM     48  C   UNL A   1      44.474  24.275  27.661  1.00  0.00     0.031 A 
ATOM     49  C   UNL A   1      44.642  31.219  29.790  1.00  0.00     0.031 A 
ATOM     50  C   UNL A   1      45.620  25.180  27.841  1.00  0.00     0.049 A 
ATOM     51  C   UNL A   1      45.744  30.355  30.342  1.00  0.00     0.074 A 
ATOM     52  C   UNL A   1      46.412  25.899  26.957  1.00  0.00     0.029 A 
ATOM     53  N   UNL A   1      45.931  25.669  29.113  1.00  0.00    -0.354 N 
ATOM     54  N   UNL A   1      45.816  29.073  30.096  1.00  0.00    -0.248 NA
ATOM     55  C   UNL A   1      46.884  30.829  31.117  1.00  0.00     0.031 C 
ATOM     56  C   UNL A   1      47.170  26.843  27.702  1.00  0.00     0.029 A 
ATOM     57  C   UNL A   1      46.856  26.694  29.043  1.00  0.00     0.049 A 
ATOM     58  H   UNL A   1      45.541  25.328  29.950  1.00  0.00     0.167 HD
ATOM     59  C   UNL A   1      47.007  28.582  30.532  1.00  0.00     0.074 A 
ATOM     60  C   UNL A   1      47.618  29.703  31.227  1.00  0.00     0.031 C 
ATOM     61  C   UNL A   1      47.409  27.310  30.250  1.00  0.00     0.031 A 
BRANCH  48  62
ATOM     62  C   UNL A   1      44.507  23.034  26.778  1.00  0.00    -0.014 A 
ATOM     63  C   UNL A   1      43.358  22.233  26.606  1.00  0.00     0.010 A 
ATOM     64  C   UNL A   1      45.656  22.602  26.084  1.00  0.00     0.010 A 
ATOM     65  C   UNL A   1      43.380  21.034  25.869  1.00  0.00     0.020 A 
ATOM     66  C   UNL A   1      45.710  21.385  25.386  1.00  0.00     0.020 A 
ATOM     67  C   UNL A   1      44.567  20.603  25.282  1.00  0.00     0.054 A 
BRANCH  67  68
ATOM     68  S   UNL A   1      44.599  19.035  24.372  1.00  0.00     0.124 S 
ATOM     69  O   UNL A   1      44.425  19.465  22.986  1.00  0.00    -0.237 OA
ATOM     70  O   UNL A   1      45.919  18.506  24.705  1.00  0.00    -0.237 OA
ATOM     71  O   UNL A   1      43.473  18.286  24.928  1.00  0.00    -0.744 OA
ENDBRANCH  67  68
ENDBRANCH  48  62
BRANCH  49  72
ATOM     72  C   UNL A   1      43.712  32.152  30.483  1.00  0.00    -0.014 A 
ATOM     73  C   UNL A   1      43.410  33.354  29.802  1.00  0.00     0.010 A 
ATOM     74  C   UNL A   1      42.787  31.667  31.425  1.00  0.00     0.010 A 
ATOM     75  C   UNL A   1      42.153  33.959  29.929  1.00  0.00     0.020 A 
ATOM     76  C   UNL A   1      41.522  32.267  31.549  1.00  0.00     0.020 A 
ATOM     77  C   UNL A   1      41.195  33.377  30.760  1.00  0.00     0.054 A 
BRANCH  77  78
ATOM     78  S   UNL A   1      39.452  33.891  30.580  1.00  0.00     0.124 S 
ATOM     79  O   UNL A   1      39.147  34.434  31.898  1.00  0.00    -0.237 OA
ATOM     80  O   UNL A   1      39.504  34.871  29.493  1.00  0.00    -0.237 OA
ATOM     81  O   UNL A   1      38.771  32.648  30.227  1.00  0.00    -0.744 OA
ENDBRANCH  77  78
ENDBRANCH  49  72
BRANCH  61  82
ATOM     82  C   UNL A   1      48.447  26.550  31.030  1.00  0.00    -0.014 A 
ATOM     83  C   UNL A   1      48.272  26.170  32.369  1.00  0.00     0.010 A 
ATOM     84  C   UNL A   1      49.566  26.017  30.348  1.00  0.00     0.010 A 
ATOM     85  C   UNL A   1      49.185  25.326  33.008  1.00  0.00     0.020 A 
ATOM     86  C   UNL A   1      50.458  25.136  30.963  1.00  0.00     0.020 A 
ATOM     87  C   UNL A   1      50.268  24.808  32.299  1.00  0.00     0.054 A 
BRANCH  87  88
ATOM     88  S   UNL A   1      51.367  23.624  33.110  1.00  0.00     0.124 S 
ATOM     89  O   UNL A   1      50.937  23.722  34.503  1.00  0.00    -0.237 OA
ATOM     90  O   UNL A   1      51.041  22.366  32.443  1.00  0.00    -0.237 OA
ATOM     91  O   UNL A   1      52.703  24.143  32.827  1.00  0.00    -0.744 OA
ENDBRANCH  87  88
ENDBRANCH  61  82
ENDBRANCH  35  36
ENDBRANCH  28  30
ENDBRANCH  27  28
ENDBRANCH  26  27
ENDBRANCH  25  26
ENDBRANCH   1  25
TORSDOF 20
ENDMDL
MODEL 3
REMARK VINA RESULT:     -10.6      2.155      2.985
REMARK SMILES COc1ccc(S(=O)(=O)N2CCCC[C@@H]2C(=O)OCCOCCOC(=O)c2ccc(-c3c4nc(c(-c5ccc(S(=O)(=O)[O-])cc5)c5ccc([nH]5)c(-c5ccc(S(=O)(=O)[O-])cc5)c5nc(c(-c6ccc(S(=O)(=O)[O-])cc6)c6ccc3[nH]6)C=C5)C=C4)cc2)cc1C
REMARK SMILES IDX 21 1 20 2 19 3 18 4 16 5 17 6 15 7 10 8 11 9 12 10 14 11
REMARK SMILES IDX 13 12 7 13 8 14 9 15 6 16 3 17 4 18 88 19 5 20 87 21 89 22
REMARK SMILES IDX 2 23 1 24 22 25 23 26 24 27 25 28 26 29 27 30 28 31 86 32
REMARK SMILES IDX 29 33 85 34 30 35 31 36 32 37 79 38 33 39 84 40 78 41 80 42
REMARK SMILES IDX 34 43 83 44 77 45 76 46 35 48 65 49 46 50 64 51 47 52 50 53
REMARK SMILES IDX 63 54 81 55 48 56 49 57 62 59 82 60 51 61 36 62 37 63 45 64
REMARK SMILES IDX 38 65 44 66 39 67 40 68 41 69 42 70 43 71 66 72 67 73 75 74
REMARK SMILES IDX 68 75 74 76 69 77 70 78 71 79 72 80 73 81 52 82 53 83 61 84
REMARK SMILES IDX 54 85 60 86 55 87 56 88 57 89 58 90 59 91
REMARK H PARENT 80 47 50 58
REMARK Flexibility Score: inf
ROOT
ATOM      1  O   UNL A   1      34.879  23.009  24.630  1.00  0.00    -0.374 OA
ENDROOT
BRANCH   1   2
ATOM      2  C   UNL A   1      35.325  24.074  23.790  1.00  0.00     0.202 C 
BRANCH   2   3
ATOM      3  C   UNL A   1      34.380  25.251  23.990  1.00  0.00     0.261 C 
BRANCH   3   4
ATOM      4  O   UNL A   1      33.995  25.887  22.751  1.00  0.00    -0.462 OA
BRANCH   4   5
ATOM      5  C   UNL A   1      33.793  27.236  22.743  1.00  0.00     0.324 C 
ATOM      6  O   UNL A   1      34.043  27.995  21.817  1.00  0.00    -0.250 OA
BRANCH   5   7
ATOM      7  C   UNL A   1      33.037  27.665  24.005  1.00  0.00     0.183 C 
ATOM      8  N   UNL A   1      31.593  28.046  23.851  1.00  0.00    -0.184 NA
ATOM      9  C   UNL A   1      30.967  28.931  24.856  1.00  0.00     0.103 C 
ATOM     10  C   UNL A   1      31.889  30.053  25.290  1.00  0.00     0.017 C 
ATOM     11  C   UNL A   1      33.883  28.766  24.689  1.00  0.00     0.032 C 
ATOM     12  C   UNL A   1      33.180  29.470  25.827  1.00  0.00     0.004 C 
BRANCH   8  13
ATOM     13  S   UNL A   1      30.523  26.885  23.185  1.00  0.00     0.243 S 
ATOM     14  O   UNL A   1      30.846  26.785  21.784  1.00  0.00    -0.207 OA
ATOM     15  O   UNL A   1      29.189  27.195  23.640  1.00  0.00    -0.207 OA
BRANCH  13  16
ATOM     16  C   UNL A   1      30.913  25.277  23.832  1.00  0.00     0.083 A 
ATOM     17  C   UNL A   1      31.155  22.726  24.919  1.00  0.00     0.121 A 
ATOM     18  C   UNL A   1      30.772  23.790  25.737  1.00  0.00     0.048 A 
ATOM     19  C   UNL A   1      31.380  22.919  23.548  1.00  0.00    -0.008 A 
ATOM     20  C   UNL A   1      30.637  25.063  25.192  1.00  0.00     0.025 A 
ATOM     21  C   UNL A   1      31.322  24.219  23.026  1.00  0.00     0.029 A 
ATOM     22  C   UNL A   1      31.636  21.779  22.609  1.00  0.00     0.048 C 
BRANCH  17  23
ATOM     23  O   UNL A   1      31.204  21.487  25.499  1.00  0.00    -0.496 OA
ATOM     24  C   UNL A   1      32.310  21.375  26.394  1.00  0.00     0.278 C 
ENDBRANCH  17  23
ENDBRANCH  13  16
ENDBRANCH   8  13
ENDBRANCH   5   7
ENDBRANCH   4   5
ENDBRANCH   3   4
ENDBRANCH   2   3
ENDBRANCH   1   2
BRANCH   1  25
ATOM     25  C   UNL A   1      34.858  21.714  24.049  1.00  0.00     0.202 C 
BRANCH  25  26
ATOM     26  C   UNL A   1      35.590  20.631  24.855  1.00  0.00     0.261 C 
BRANCH  26  27
ATOM     27  O   UNL A   1      36.443  21.237  25.840  1.00  0.00    -0.460 OA
BRANCH  27  28
ATOM     28  C   UNL A   1      37.761  21.264  25.495  1.00  0.00     0.338 C 
ATOM     29  O   UNL A   1      38.281  20.479  24.724  1.00  0.00    -0.246 OA
BRANCH  28  30
ATOM     30  C   UNL A   1      38.443  22.374  26.214  1.00  0.00     0.060 A 
ATOM     31  C   UNL A   1      37.900  23.668  26.216  1.00  0.00     0.016 A 
ATOM     32  C   UNL A   1      39.706  22.151  26.758  1.00  0.00     0.016 A 
ATOM     33  C   UNL A   1      38.650  24.748  26.715  1.00  0.00     0.010 A 
ATOM     34  C   UNL A   1      40.465  23.225  27.180  1.00  0.00     0.010 A 
ATOM     35  C   UNL A   1      39.949  24.530  27.178  1.00  0.00    -0.014 A 
BRANCH  35  36
ATOM     36  C   UNL A   1      40.905  25.566  27.588  1.00  0.00     0.031 A 
ATOM     37  C   UNL A   1      40.420  26.921  27.986  1.00  0.00     0.074 A 
ATOM     38  C   UNL A   1      42.178  25.240  27.912  1.00  0.00     0.049 A 
ATOM     39  N   UNL A   1      41.178  27.951  28.174  1.00  0.00    -0.248 NA
ATOM     40  C   UNL A   1      39.008  27.224  28.218  1.00  0.00     0.031 C 
ATOM     41  C   UNL A   1      43.048  25.984  28.815  1.00  0.00     0.029 A 
ATOM     42  N   UNL A   1      42.980  24.169  27.498  1.00  0.00    -0.354 N 
ATOM     43  C   UNL A   1      40.461  28.851  28.928  1.00  0.00     0.074 A 
ATOM     44  C   UNL A   1      39.090  28.408  28.830  1.00  0.00     0.031 C 
ATOM     45  C   UNL A   1      44.297  25.508  28.737  1.00  0.00     0.029 A 
ATOM     46  C   UNL A   1      44.322  24.568  27.641  1.00  0.00     0.049 A 
ATOM     47  H   UNL A   1      42.663  23.298  27.168  1.00  0.00     0.167 HD
ATOM     48  C   UNL A   1      41.110  29.773  29.700  1.00  0.00     0.031 A 
ATOM     49  C   UNL A   1      45.186  24.625  26.592  1.00  0.00     0.031 A 
ATOM     50  C   UNL A   1      42.575  29.656  29.605  1.00  0.00     0.049 A 
ATOM     51  C   UNL A   1      45.683  26.034  26.403  1.00  0.00     0.074 A 
ATOM     52  C   UNL A   1      43.557  29.263  30.503  1.00  0.00     0.029 A 
ATOM     53  N   UNL A   1      43.200  29.710  28.357  1.00  0.00    -0.354 N 
ATOM     54  N   UNL A   1      45.029  27.071  26.854  1.00  0.00    -0.248 NA
ATOM     55  C   UNL A   1      46.955  26.409  25.798  1.00  0.00     0.031 C 
ATOM     56  C   UNL A   1      44.762  29.047  29.781  1.00  0.00     0.029 A 
ATOM     57  C   UNL A   1      44.524  29.323  28.443  1.00  0.00     0.049 A 
ATOM     58  H   UNL A   1      42.755  29.987  27.524  1.00  0.00     0.167 HD
ATOM     59  C   UNL A   1      45.793  28.190  26.736  1.00  0.00     0.074 A 
ATOM     60  C   UNL A   1      46.967  27.740  26.006  1.00  0.00     0.031 C 
ATOM     61  C   UNL A   1      45.416  29.380  27.285  1.00  0.00     0.031 A 
BRANCH  48  62
ATOM     62  C   UNL A   1      40.395  30.607  30.755  1.00  0.00    -0.014 A 
ATOM     63  C   UNL A   1      39.722  31.799  30.408  1.00  0.00     0.010 A 
ATOM     64  C   UNL A   1      40.352  30.264  32.122  1.00  0.00     0.010 A 
ATOM     65  C   UNL A   1      39.130  32.636  31.372  1.00  0.00     0.020 A 
ATOM     66  C   UNL A   1      39.808  31.109  33.102  1.00  0.00     0.020 A 
ATOM     67  C   UNL A   1      39.198  32.298  32.720  1.00  0.00     0.054 A 
BRANCH  67  68
ATOM     68  S   UNL A   1      38.471  33.404  33.960  1.00  0.00     0.124 S 
ATOM     69  O   UNL A   1      39.205  33.051  35.173  1.00  0.00    -0.237 OA
ATOM     70  O   UNL A   1      38.762  34.725  33.410  1.00  0.00    -0.237 OA
ATOM     71  O   UNL A   1      37.057  33.034  33.970  1.00  0.00    -0.744 OA
ENDBRANCH  67  68
ENDBRANCH  48  62
BRANCH  49  72
ATOM     72  C   UNL A   1      44.970  23.539  25.597  1.00  0.00    -0.014 A 
ATOM     73  C   UNL A   1      46.135  22.971  25.029  1.00  0.00     0.010 A 
ATOM     74  C   UNL A   1      43.797  22.764  25.631  1.00  0.00     0.010 A 
ATOM     75  C   UNL A   1      46.174  21.619  24.664  1.00  0.00     0.020 A 
ATOM     76  C   UNL A   1      43.836  21.405  25.275  1.00  0.00     0.020 A 
ATOM     77  C   UNL A   1      45.038  20.829  24.845  1.00  0.00     0.054 A 
BRANCH  77  78
ATOM     78  S   UNL A   1      45.219  19.013  24.802  1.00  0.00     0.124 S 
ATOM     79  O   UNL A   1      46.291  18.782  25.764  1.00  0.00    -0.237 OA
ATOM     80  O   UNL A   1      43.896  18.536  25.210  1.00  0.00    -0.237 OA
ATOM     81  O   UNL A   1      45.545  18.741  23.405  1.00  0.00    -0.744 OA
ENDBRANCH  77  78
ENDBRANCH  49  72
BRANCH  61  82
ATOM     82  C   UNL A   1      45.933  30.723  26.845  1.00  0.00    -0.014 A 
ATOM     83  C   UNL A   1      45.096  31.767  26.426  1.00  0.00     0.010 A 
ATOM     84  C   UNL A   1      47.300  31.031  27.043  1.00  0.00     0.010 A 
ATOM     85  C   UNL A   1      45.600  33.048  26.183  1.00  0.00     0.020 A 
ATOM     86  C   UNL A   1      47.805  32.318  26.850  1.00  0.00     0.020 A 
ATOM     87  C   UNL A   1      46.949  33.318  26.404  1.00  0.00     0.054 A 
BRANCH  87  88
ATOM     88  S   UNL A   1      47.555  35.009  26.200  1.00  0.00     0.124 S 
ATOM     89  O   UNL A   1      48.087  35.300  27.529  1.00  0.00    -0.237 OA
ATOM     90  O   UNL A   1      48.555  34.871  25.143  1.00  0.00    -0.237 OA
ATOM     91  O   UNL A   1      46.361  35.761  25.823  1.00  0.00    -0.744 OA
ENDBRANCH  87  88
ENDBRANCH  61  82
ENDBRANCH  35  36
ENDBRANCH  28  30
ENDBRANCH  27  28
ENDBRANCH  26  27
ENDBRANCH  25  26
ENDBRANCH   1  25
TORSDOF 20
ENDMDL
