MODEL 1
REMARK VINA RESULT:     -10.3      0.000      0.000
REMARK SMILES C=CCN1C(=O)/C(=C/c2ccc(-c3ccc(Cl)c(C(=O)OCCOCCOC(=O)c4ccc(-c5c6nc(c(-c7ccc(S(=O)(=O)[O-])cc7)c7ccc([nH]7)c(-c7ccc(S(=O)(=O)[O-])cc7)c7nc(c(-c8ccc(S(=O)(=O)[O-])cc8)c8ccc5[nH]8)C=C7)C=C6)cc4)c3)o2)C(=O)NC1=S
REMARK SMILES IDX 23 1 22 2 21 3 19 4 20 5 18 6 13 7 14 8 90 9 15 10 16 11
REMARK SMILES IDX 17 12 12 13 9 14 10 15 91 16 11 17 8 18 4 19 5 20 95 21 6 22
REMARK SMILES IDX 7 23 94 24 96 25 92 26 93 28 3 29 2 30 1 31 24 32 25 33
REMARK SMILES IDX 26 34 27 35 28 36 29 37 30 38 31 39 89 40 32 41 88 42 33 43
REMARK SMILES IDX 34 44 35 45 82 46 36 47 87 48 81 49 83 50 37 51 86 52 80 53
REMARK SMILES IDX 79 54 38 56 68 57 49 58 67 59 50 60 53 61 66 62 84 63 51 64
REMARK SMILES IDX 52 65 65 67 85 68 54 69 39 70 40 71 48 72 41 73 47 74 42 75
REMARK SMILES IDX 43 76 44 77 45 78 46 79 69 80 70 81 78 82 71 83 77 84 72 85
REMARK SMILES IDX 73 86 74 87 75 88 76 89 55 90 56 91 64 92 57 93 63 94 58 95
REMARK SMILES IDX 59 96 60 97 61 98 62 99
REMARK H PARENT 94 27 83 55 53 66
REMARK Flexibility Score: inf
ROOT
ATOM      1  C   UNL A   1      34.130  35.032  32.902  1.00  0.00     0.202 C 
ENDROOT
BRANCH   1   2
ATOM      2  C   UNL A   1      33.679  35.632  31.569  1.00  0.00     0.261 C 
BRANCH   2   3
ATOM      3  O   UNL A   1      33.342  34.583  30.648  1.00  0.00    -0.460 OA
BRANCH   3   4
ATOM      4  C   UNL A   1      33.646  34.804  29.352  1.00  0.00     0.339 C 
ATOM      5  O   UNL A   1      33.535  35.863  28.748  1.00  0.00    -0.246 OA
BRANCH   4   6
ATOM      6  C   UNL A   1      34.344  33.635  28.770  1.00  0.00     0.079 A 
ATOM      7  C   UNL A   1      34.075  31.615  27.424  1.00  0.00     0.018 A 
ATOM      8  C   UNL A   1      35.424  31.315  27.628  1.00  0.00     0.013 A 
ATOM      9  C   UNL A   1      33.549  32.787  27.975  1.00  0.00     0.029 A 
ATOM     10  C   UNL A   1      36.227  32.163  28.397  1.00  0.00     0.022 A 
ATOM     11  C   UNL A   1      35.689  33.316  28.985  1.00  0.00     0.055 A 
ATOM     12  Cl  UNL A   1      36.739  34.229  30.007  1.00  0.00    -0.083 Cl
BRANCH   7  13
ATOM     13  C   UNL A   1      33.205  30.677  26.748  1.00  0.00     0.134 A 
ATOM     14  C   UNL A   1      32.815  28.821  25.600  1.00  0.00     0.128 A 
ATOM     15  C   UNL A   1      31.609  29.492  25.742  1.00  0.00     0.051 A 
ATOM     16  O   UNL A   1      33.788  29.563  26.235  1.00  0.00    -0.457 OA
ATOM     17  C   UNL A   1      31.858  30.674  26.479  1.00  0.00     0.051 A 
BRANCH  14  18
ATOM     18  C   UNL A   1      33.107  27.573  24.996  1.00  0.00     0.066 C 
ATOM     19  N   UNL A   1      32.114  24.137  24.695  1.00  0.00    -0.281 N 
ATOM     20  C   UNL A   1      32.957  25.240  24.541  1.00  0.00     0.266 C 
ATOM     21  C   UNL A   1      31.323  23.936  25.820  1.00  0.00     0.183 C 
ATOM     22  O   UNL A   1      33.832  25.308  23.678  1.00  0.00    -0.268 OA
ATOM     23  C   UNL A   1      32.718  26.375  25.466  1.00  0.00     0.109 C 
ATOM     24  N   UNL A   1      31.341  24.928  26.768  1.00  0.00    -0.298 N 
ATOM     25  S   UNL A   1      30.350  22.611  26.154  1.00  0.00    -0.040 S 
ATOM     26  C   UNL A   1      31.987  26.133  26.722  1.00  0.00     0.263 C 
ATOM     27  H   UNL A   1      30.823  24.750  27.585  1.00  0.00     0.172 HD
ATOM     28  O   UNL A   1      31.953  26.898  27.676  1.00  0.00    -0.269 OA
BRANCH  19  29
ATOM     29  C   UNL A   1      32.083  23.224  23.545  1.00  0.00     0.155 C 
BRANCH  29  30
ATOM     30  C   UNL A   1      32.910  21.996  23.796  1.00  0.00    -0.013 C 
ATOM     31  C   UNL A   1      32.560  20.753  23.437  1.00  0.00     0.006 C 
ENDBRANCH  29  30
ENDBRANCH  19  29
ENDBRANCH  14  18
ENDBRANCH   7  13
ENDBRANCH   4   6
ENDBRANCH   3   4
ENDBRANCH   2   3
ENDBRANCH   1   2
BRANCH   1  32
ATOM     32  O   UNL A   1      35.541  35.034  33.133  1.00  0.00    -0.374 OA
BRANCH  32  33
ATOM     33  C   UNL A   1      36.119  33.836  33.654  1.00  0.00     0.202 C 
BRANCH  33  34
ATOM     34  C   UNL A   1      36.229  32.651  32.686  1.00  0.00     0.261 C 
BRANCH  34  35
ATOM     35  O   UNL A   1      37.590  32.327  32.360  1.00  0.00    -0.460 OA
BRANCH  35  36
ATOM     36  C   UNL A   1      38.037  31.162  32.889  1.00  0.00     0.338 C 
ATOM     37  O   UNL A   1      37.594  30.584  33.873  1.00  0.00    -0.246 OA
BRANCH  36  38
ATOM     38  C   UNL A   1      39.058  30.562  32.011  1.00  0.00     0.060 A 
ATOM     39  C   UNL A   1      40.041  29.764  32.610  1.00  0.00     0.016 A 
ATOM     40  C   UNL A   1      39.104  30.837  30.644  1.00  0.00     0.016 A 
ATOM     41  C   UNL A   1      41.106  29.280  31.854  1.00  0.00     0.010 A 
ATOM     42  C   UNL A   1      40.178  30.358  29.886  1.00  0.00     0.010 A 
ATOM     43  C   UNL A   1      41.202  29.610  30.495  1.00  0.00    -0.014 A 
BRANCH  43  44
ATOM     44  C   UNL A   1      42.451  29.314  29.752  1.00  0.00     0.031 A 
ATOM     45  C   UNL A   1      42.614  27.960  29.116  1.00  0.00     0.074 A 
ATOM     46  C   UNL A   1      43.416  30.240  29.623  1.00  0.00     0.049 A 
ATOM     47  N   UNL A   1      43.627  27.473  28.448  1.00  0.00    -0.248 NA
ATOM     48  C   UNL A   1      41.479  27.032  29.254  1.00  0.00     0.031 C 
ATOM     49  C   UNL A   1      43.351  31.607  30.140  1.00  0.00     0.029 A 
ATOM     50  N   UNL A   1      44.643  30.167  29.012  1.00  0.00    -0.354 N 
ATOM     51  C   UNL A   1      43.258  26.180  28.095  1.00  0.00     0.074 A 
ATOM     52  C   UNL A   1      41.942  25.949  28.650  1.00  0.00     0.031 C 
ATOM     53  C   UNL A   1      44.490  32.246  29.817  1.00  0.00     0.029 A 
ATOM     54  C   UNL A   1      45.375  31.324  29.109  1.00  0.00     0.049 A 
ATOM     55  H   UNL A   1      44.966  29.361  28.548  1.00  0.00     0.167 HD
ATOM     56  C   UNL A   1      43.950  25.267  27.369  1.00  0.00     0.031 A 
ATOM     57  C   UNL A   1      46.624  31.603  28.684  1.00  0.00     0.031 A 
ATOM     58  C   UNL A   1      45.269  25.489  26.842  1.00  0.00     0.049 A 
ATOM     59  C   UNL A   1      47.415  30.543  27.967  1.00  0.00     0.074 A 
ATOM     60  C   UNL A   1      46.057  24.630  26.097  1.00  0.00     0.029 A 
ATOM     61  N   UNL A   1      46.003  26.655  27.017  1.00  0.00    -0.354 N 
ATOM     62  N   UNL A   1      47.054  29.326  27.635  1.00  0.00    -0.248 NA
ATOM     63  C   UNL A   1      48.784  30.895  27.565  1.00  0.00     0.031 C 
ATOM     64  C   UNL A   1      47.289  25.256  25.867  1.00  0.00     0.029 A 
ATOM     65  C   UNL A   1      47.244  26.528  26.415  1.00  0.00     0.049 A 
ATOM     66  H   UNL A   1      45.687  27.454  27.496  1.00  0.00     0.167 HD
ATOM     67  C   UNL A   1      48.138  28.780  26.954  1.00  0.00     0.074 A 
ATOM     68  C   UNL A   1      49.166  29.800  26.922  1.00  0.00     0.031 C 
ATOM     69  C   UNL A   1      48.263  27.549  26.396  1.00  0.00     0.031 A 
BRANCH  56  70
ATOM     70  C   UNL A   1      43.295  23.927  27.158  1.00  0.00    -0.014 A 
ATOM     71  C   UNL A   1      43.340  22.926  28.146  1.00  0.00     0.010 A 
ATOM     72  C   UNL A   1      42.644  23.656  25.941  1.00  0.00     0.010 A 
ATOM     73  C   UNL A   1      42.810  21.658  27.894  1.00  0.00     0.020 A 
ATOM     74  C   UNL A   1      42.086  22.397  25.696  1.00  0.00     0.020 A 
ATOM     75  C   UNL A   1      42.198  21.398  26.665  1.00  0.00     0.054 A 
BRANCH  75  76
ATOM     76  S   UNL A   1      41.551  19.734  26.345  1.00  0.00     0.124 S 
ATOM     77  O   UNL A   1      40.159  20.013  26.004  1.00  0.00    -0.237 OA
ATOM     78  O   UNL A   1      42.387  19.270  25.241  1.00  0.00    -0.237 OA
ATOM     79  O   UNL A   1      41.754  19.034  27.611  1.00  0.00    -0.744 OA
ENDBRANCH  75  76
ENDBRANCH  56  70
BRANCH  57  80
ATOM     80  C   UNL A   1      47.196  32.956  28.920  1.00  0.00    -0.014 A 
ATOM     81  C   UNL A   1      47.927  33.223  30.090  1.00  0.00     0.010 A 
ATOM     82  C   UNL A   1      47.044  33.974  27.960  1.00  0.00     0.010 A 
ATOM     83  C   UNL A   1      48.498  34.482  30.296  1.00  0.00     0.020 A 
ATOM     84  C   UNL A   1      47.633  35.227  28.152  1.00  0.00     0.020 A 
ATOM     85  C   UNL A   1      48.355  35.473  29.322  1.00  0.00     0.054 A 
BRANCH  85  86
ATOM     86  S   UNL A   1      49.177  37.072  29.575  1.00  0.00     0.124 S 
ATOM     87  O   UNL A   1      48.124  37.859  30.206  1.00  0.00    -0.237 OA
ATOM     88  O   UNL A   1      50.302  36.713  30.435  1.00  0.00    -0.237 OA
ATOM     89  O   UNL A   1      49.544  37.486  28.222  1.00  0.00    -0.744 OA
ENDBRANCH  85  86
ENDBRANCH  57  80
BRANCH  69  90
ATOM     90  C   UNL A   1      49.543  27.244  25.662  1.00  0.00    -0.014 A 
ATOM     91  C   UNL A   1      49.688  27.528  24.293  1.00  0.00     0.010 A 
ATOM     92  C   UNL A   1      50.641  26.727  26.375  1.00  0.00     0.010 A 
ATOM     93  C   UNL A   1      50.901  27.275  23.644  1.00  0.00     0.020 A 
ATOM     94  C   UNL A   1      51.862  26.498  25.737  1.00  0.00     0.020 A 
ATOM     95  C   UNL A   1      51.982  26.763  24.371  1.00  0.00     0.054 A 
BRANCH  95  96
ATOM     96  S   UNL A   1      53.561  26.496  23.520  1.00  0.00     0.124 S 
ATOM     97  O   UNL A   1      54.149  27.833  23.543  1.00  0.00    -0.237 OA
ATOM     98  O   UNL A   1      54.220  25.505  24.368  1.00  0.00    -0.237 OA
ATOM     99  O   UNL A   1      53.166  26.011  22.199  1.00  0.00    -0.744 OA
ENDBRANCH  95  96
ENDBRANCH  69  90
ENDBRANCH  43  44
ENDBRANCH  36  38
ENDBRANCH  35  36
ENDBRANCH  34  35
ENDBRANCH  33  34
ENDBRANCH  32  33
ENDBRANCH   1  32
TORSDOF 21
ENDMDL
MODEL 2
REMARK VINA RESULT:      -9.8      2.644      8.502
REMARK SMILES C=CCN1C(=O)/C(=C/c2ccc(-c3ccc(Cl)c(C(=O)OCCOCCOC(=O)c4ccc(-c5c6nc(c(-c7ccc(S(=O)(=O)[O-])cc7)c7ccc([nH]7)c(-c7ccc(S(=O)(=O)[O-])cc7)c7nc(c(-c8ccc(S(=O)(=O)[O-])cc8)c8ccc5[nH]8)C=C7)C=C6)cc4)c3)o2)C(=O)NC1=S
REMARK SMILES IDX 23 1 22 2 21 3 19 4 20 5 18 6 13 7 14 8 90 9 15 10 16 11
REMARK SMILES IDX 17 12 12 13 9 14 10 15 91 16 11 17 8 18 4 19 5 20 95 21 6 22
REMARK SMILES IDX 7 23 94 24 96 25 92 26 93 28 3 29 2 30 1 31 24 32 25 33
REMARK SMILES IDX 26 34 27 35 28 36 29 37 30 38 31 39 89 40 32 41 88 42 33 43
REMARK SMILES IDX 34 44 35 45 82 46 36 47 87 48 81 49 83 50 37 51 86 52 80 53
REMARK SMILES IDX 79 54 38 56 68 57 49 58 67 59 50 60 53 61 66 62 84 63 51 64
REMARK SMILES IDX 52 65 65 67 85 68 54 69 39 70 40 71 48 72 41 73 47 74 42 75
REMARK SMILES IDX 43 76 44 77 45 78 46 79 69 80 70 81 78 82 71 83 77 84 72 85
REMARK SMILES IDX 73 86 74 87 75 88 76 89 55 90 56 91 64 92 57 93 63 94 58 95
REMARK SMILES IDX 59 96 60 97 61 98 62 99
REMARK H PARENT 94 27 83 55 53 66
REMARK Flexibility Score: inf
ROOT
ATOM      1  C   UNL A   1      34.072  31.976  27.642  1.00  0.00     0.202 C 
ENDROOT
BRANCH   1   2
ATOM      2  C   UNL A   1      32.557  32.043  27.440  1.00  0.00     0.261 C 
BRANCH   2   3
ATOM      3  O   UNL A   1      32.110  30.895  26.703  1.00  0.00    -0.460 OA
BRANCH   3   4
ATOM      4  C   UNL A   1      31.181  31.119  25.751  1.00  0.00     0.339 C 
ATOM      5  O   UNL A   1      30.751  32.208  25.394  1.00  0.00    -0.246 OA
BRANCH   4   6
ATOM      6  C   UNL A   1      30.872  29.872  25.015  1.00  0.00     0.079 A 
ATOM      7  C   UNL A   1      31.278  27.466  24.904  1.00  0.00     0.018 A 
ATOM      8  C   UNL A   1      30.495  27.400  23.749  1.00  0.00     0.013 A 
ATOM      9  C   UNL A   1      31.441  28.698  25.545  1.00  0.00     0.029 A 
ATOM     10  C   UNL A   1      29.907  28.557  23.229  1.00  0.00     0.022 A 
ATOM     11  C   UNL A   1      30.105  29.799  23.847  1.00  0.00     0.055 A 
ATOM     12  Cl  UNL A   1      29.429  31.177  23.058  1.00  0.00    -0.083 Cl
BRANCH   7  13
ATOM     13  C   UNL A   1      32.002  26.303  25.372  1.00  0.00     0.134 A 
ATOM     14  C   UNL A   1      32.451  24.132  25.388  1.00  0.00     0.128 A 
ATOM     15  C   UNL A   1      33.245  24.736  26.352  1.00  0.00     0.051 A 
ATOM     16  O   UNL A   1      31.696  25.117  24.786  1.00  0.00    -0.457 OA
ATOM     17  C   UNL A   1      32.961  26.122  26.338  1.00  0.00     0.051 A 
BRANCH  14  18
ATOM     18  C   UNL A   1      32.386  22.782  24.964  1.00  0.00     0.066 C 
ATOM     19  N   UNL A   1      34.200  19.702  24.636  1.00  0.00    -0.281 N 
ATOM     20  C   UNL A   1      33.138  20.585  24.430  1.00  0.00     0.266 C 
ATOM     21  C   UNL A   1      35.528  20.109  24.691  1.00  0.00     0.183 C 
ATOM     22  O   UNL A   1      31.999  20.220  24.138  1.00  0.00    -0.268 OA
ATOM     23  C   UNL A   1      33.444  22.025  24.623  1.00  0.00     0.109 C 
ATOM     24  N   UNL A   1      35.760  21.460  24.613  1.00  0.00    -0.298 N 
ATOM     25  S   UNL A   1      36.884  19.133  24.838  1.00  0.00    -0.040 S 
ATOM     26  C   UNL A   1      34.844  22.475  24.555  1.00  0.00     0.263 C 
ATOM     27  H   UNL A   1      36.705  21.732  24.595  1.00  0.00     0.172 HD
ATOM     28  O   UNL A   1      35.206  23.637  24.431  1.00  0.00    -0.269 OA
BRANCH  19  29
ATOM     29  C   UNL A   1      33.801  18.304  24.845  1.00  0.00     0.155 C 
BRANCH  29  30
ATOM     30  C   UNL A   1      33.621  17.582  23.541  1.00  0.00    -0.013 C 
ATOM     31  C   UNL A   1      34.420  16.604  23.093  1.00  0.00     0.006 C 
ENDBRANCH  29  30
ENDBRANCH  19  29
ENDBRANCH  14  18
ENDBRANCH   7  13
ENDBRANCH   4   6
ENDBRANCH   3   4
ENDBRANCH   2   3
ENDBRANCH   1   2
BRANCH   1  32
ATOM     32  O   UNL A   1      34.517  32.061  28.998  1.00  0.00    -0.374 OA
BRANCH  32  33
ATOM     33  C   UNL A   1      35.675  32.856  29.257  1.00  0.00     0.202 C 
BRANCH  33  34
ATOM     34  C   UNL A   1      37.030  32.141  29.172  1.00  0.00     0.261 C 
BRANCH  34  35
ATOM     35  O   UNL A   1      37.062  30.923  29.933  1.00  0.00    -0.460 OA
BRANCH  35  36
ATOM     36  C   UNL A   1      36.905  29.793  29.200  1.00  0.00     0.338 C 
ATOM     37  O   UNL A   1      35.850  29.311  28.811  1.00  0.00    -0.246 OA
BRANCH  36  38
ATOM     38  C   UNL A   1      38.217  29.279  28.768  1.00  0.00     0.060 A 
ATOM     39  C   UNL A   1      39.085  28.801  29.759  1.00  0.00     0.016 A 
ATOM     40  C   UNL A   1      38.626  29.335  27.435  1.00  0.00     0.016 A 
ATOM     41  C   UNL A   1      40.385  28.427  29.430  1.00  0.00     0.010 A 
ATOM     42  C   UNL A   1      39.935  28.967  27.106  1.00  0.00     0.010 A 
ATOM     43  C   UNL A   1      40.831  28.548  28.107  1.00  0.00    -0.014 A 
BRANCH  43  44
ATOM     44  C   UNL A   1      42.273  28.395  27.798  1.00  0.00     0.031 A 
ATOM     45  C   UNL A   1      43.198  29.553  28.054  1.00  0.00     0.074 A 
ATOM     46  C   UNL A   1      42.758  27.237  27.319  1.00  0.00     0.049 A 
ATOM     47  N   UNL A   1      44.483  29.655  27.832  1.00  0.00    -0.248 NA
ATOM     48  C   UNL A   1      42.589  30.759  28.640  1.00  0.00     0.031 C 
ATOM     49  C   UNL A   1      41.977  26.024  27.086  1.00  0.00     0.029 A 
ATOM     50  N   UNL A   1      44.034  26.896  26.944  1.00  0.00    -0.354 N 
ATOM     51  C   UNL A   1      44.835  30.937  28.241  1.00  0.00     0.074 A 
ATOM     52  C   UNL A   1      43.622  31.584  28.693  1.00  0.00     0.031 C 
ATOM     53  C   UNL A   1      42.794  25.066  26.611  1.00  0.00     0.029 A 
ATOM     54  C   UNL A   1      44.143  25.611  26.472  1.00  0.00     0.049 A 
ATOM     55  H   UNL A   1      44.798  27.513  27.008  1.00  0.00     0.167 HD
ATOM     56  C   UNL A   1      46.058  31.521  28.243  1.00  0.00     0.031 A 
ATOM     57  C   UNL A   1      45.208  24.954  25.971  1.00  0.00     0.031 A 
ATOM     58  C   UNL A   1      47.257  30.885  27.767  1.00  0.00     0.049 A 
ATOM     59  C   UNL A   1      46.538  25.654  25.890  1.00  0.00     0.074 A 
ATOM     60  C   UNL A   1      48.544  31.391  27.724  1.00  0.00     0.029 A 
ATOM     61  N   UNL A   1      47.312  29.604  27.237  1.00  0.00    -0.354 N 
ATOM     62  N   UNL A   1      46.859  26.864  26.284  1.00  0.00    -0.248 NA
ATOM     63  C   UNL A   1      47.650  24.898  25.298  1.00  0.00     0.031 C 
ATOM     64  C   UNL A   1      49.368  30.435  27.119  1.00  0.00     0.029 A 
ATOM     65  C   UNL A   1      48.607  29.310  26.842  1.00  0.00     0.049 A 
ATOM     66  H   UNL A   1      46.545  28.992  27.156  1.00  0.00     0.167 HD
ATOM     67  C   UNL A   1      48.219  27.001  26.020  1.00  0.00     0.074 A 
ATOM     68  C   UNL A   1      48.657  25.751  25.433  1.00  0.00     0.031 C 
ATOM     69  C   UNL A   1      49.030  28.063  26.253  1.00  0.00     0.031 A 
BRANCH  56  70
ATOM     70  C   UNL A   1      46.132  32.944  28.734  1.00  0.00    -0.014 A 
ATOM     71  C   UNL A   1      46.333  33.240  30.095  1.00  0.00     0.010 A 
ATOM     72  C   UNL A   1      45.974  34.003  27.821  1.00  0.00     0.010 A 
ATOM     73  C   UNL A   1      46.304  34.562  30.544  1.00  0.00     0.020 A 
ATOM     74  C   UNL A   1      45.974  35.329  28.263  1.00  0.00     0.020 A 
ATOM     75  C   UNL A   1      46.110  35.599  29.626  1.00  0.00     0.054 A 
BRANCH  75  76
ATOM     76  S   UNL A   1      46.037  37.305  30.237  1.00  0.00     0.124 S 
ATOM     77  O   UNL A   1      47.301  37.852  29.750  1.00  0.00    -0.237 OA
ATOM     78  O   UNL A   1      44.836  37.828  29.589  1.00  0.00    -0.237 OA
ATOM     79  O   UNL A   1      45.941  37.151  31.686  1.00  0.00    -0.744 OA
ENDBRANCH  75  76
ENDBRANCH  56  70
BRANCH  57  80
ATOM     80  C   UNL A   1      45.056  23.544  25.519  1.00  0.00    -0.014 A 
ATOM     81  C   UNL A   1      44.620  23.262  24.213  1.00  0.00     0.010 A 
ATOM     82  C   UNL A   1      45.383  22.478  26.378  1.00  0.00     0.010 A 
ATOM     83  C   UNL A   1      44.515  21.939  23.773  1.00  0.00     0.020 A 
ATOM     84  C   UNL A   1      45.300  21.156  25.934  1.00  0.00     0.020 A 
ATOM     85  C   UNL A   1      44.864  20.895  24.633  1.00  0.00     0.054 A 
BRANCH  85  86
ATOM     86  S   UNL A   1      44.798  19.191  24.010  1.00  0.00     0.124 S 
ATOM     87  O   UNL A   1      43.538  18.712  24.567  1.00  0.00    -0.237 OA
ATOM     88  O   UNL A   1      44.818  19.386  22.562  1.00  0.00    -0.237 OA
ATOM     89  O   UNL A   1      46.002  18.577  24.565  1.00  0.00    -0.744 OA
ENDBRANCH  85  86
ENDBRANCH  57  80
BRANCH  69  90
ATOM     90  C   UNL A   1      50.490  27.911  25.915  1.00  0.00    -0.014 A 
ATOM     91  C   UNL A   1      51.406  27.386  26.843  1.00  0.00     0.010 A 
ATOM     92  C   UNL A   1      50.938  28.238  24.621  1.00  0.00     0.010 A 
ATOM     93  C   UNL A   1      52.749  27.214  26.490  1.00  0.00     0.020 A 
ATOM     94  C   UNL A   1      52.271  28.044  24.257  1.00  0.00     0.020 A 
ATOM     95  C   UNL A   1      53.173  27.543  25.198  1.00  0.00     0.054 A 
BRANCH  95  96
ATOM     96  S   UNL A   1      54.907  27.260  24.748  1.00  0.00     0.124 S 
ATOM     97  O   UNL A   1      55.348  26.342  25.795  1.00  0.00    -0.237 OA
ATOM     98  O   UNL A   1      54.802  26.683  23.410  1.00  0.00    -0.237 OA
ATOM     99  O   UNL A   1      55.501  28.594  24.799  1.00  0.00    -0.744 OA
ENDBRANCH  95  96
ENDBRANCH  69  90
ENDBRANCH  43  44
ENDBRANCH  36  38
ENDBRANCH  35  36
ENDBRANCH  34  35
ENDBRANCH  33  34
ENDBRANCH  32  33
ENDBRANCH   1  32
TORSDOF 21
ENDMDL
MODEL 3
REMARK VINA RESULT:      -9.7      2.383      8.783
REMARK SMILES C=CCN1C(=O)/C(=C/c2ccc(-c3ccc(Cl)c(C(=O)OCCOCCOC(=O)c4ccc(-c5c6nc(c(-c7ccc(S(=O)(=O)[O-])cc7)c7ccc([nH]7)c(-c7ccc(S(=O)(=O)[O-])cc7)c7nc(c(-c8ccc(S(=O)(=O)[O-])cc8)c8ccc5[nH]8)C=C7)C=C6)cc4)c3)o2)C(=O)NC1=S
REMARK SMILES IDX 23 1 22 2 21 3 19 4 20 5 18 6 13 7 14 8 90 9 15 10 16 11
REMARK SMILES IDX 17 12 12 13 9 14 10 15 91 16 11 17 8 18 4 19 5 20 95 21 6 22
REMARK SMILES IDX 7 23 94 24 96 25 92 26 93 28 3 29 2 30 1 31 24 32 25 33
REMARK SMILES IDX 26 34 27 35 28 36 29 37 30 38 31 39 89 40 32 41 88 42 33 43
REMARK SMILES IDX 34 44 35 45 82 46 36 47 87 48 81 49 83 50 37 51 86 52 80 53
REMARK SMILES IDX 79 54 38 56 68 57 49 58 67 59 50 60 53 61 66 62 84 63 51 64
REMARK SMILES IDX 52 65 65 67 85 68 54 69 39 70 40 71 48 72 41 73 47 74 42 75
REMARK SMILES IDX 43 76 44 77 45 78 46 79 69 80 70 81 78 82 71 83 77 84 72 85
REMARK SMILES IDX 73 86 74 87 75 88 76 89 55 90 56 91 64 92 57 93 63 94 58 95
REMARK SMILES IDX 59 96 60 97 61 98 62 99
REMARK H PARENT 94 27 83 55 53 66
REMARK Flexibility Score: inf
ROOT
ATOM      1  C   UNL A   1      33.682  30.988  27.118  1.00  0.00     0.202 C 
ENDROOT
BRANCH   1   2
ATOM      2  C   UNL A   1      32.345  30.378  26.693  1.00  0.00     0.261 C 
BRANCH   2   3
ATOM      3  O   UNL A   1      32.551  29.439  25.626  1.00  0.00    -0.460 OA
BRANCH   3   4
ATOM      4  C   UNL A   1      31.475  29.152  24.865  1.00  0.00     0.339 C 
ATOM      5  O   UNL A   1      30.586  29.927  24.539  1.00  0.00    -0.246 OA
BRANCH   4   6
ATOM      6  C   UNL A   1      31.595  27.799  24.277  1.00  0.00     0.079 A 
ATOM      7  C   UNL A   1      32.766  25.660  24.409  1.00  0.00     0.018 A 
ATOM      8  C   UNL A   1      32.054  25.214  23.294  1.00  0.00     0.013 A 
ATOM      9  C   UNL A   1      32.515  26.941  24.910  1.00  0.00     0.029 A 
ATOM     10  C   UNL A   1      31.121  26.051  22.672  1.00  0.00     0.022 A 
ATOM     11  C   UNL A   1      30.900  27.350  23.148  1.00  0.00     0.055 A 
ATOM     12  Cl  UNL A   1      29.813  28.336  22.239  1.00  0.00    -0.083 Cl
BRANCH   7  13
ATOM     13  C   UNL A   1      33.829  24.855  24.974  1.00  0.00     0.134 A 
ATOM     14  C   UNL A   1      34.959  22.963  25.212  1.00  0.00     0.128 A 
ATOM     15  C   UNL A   1      35.513  23.899  26.074  1.00  0.00     0.051 A 
ATOM     16  O   UNL A   1      33.926  23.575  24.534  1.00  0.00    -0.457 OA
ATOM     17  C   UNL A   1      34.795  25.107  25.918  1.00  0.00     0.051 A 
BRANCH  14  18
ATOM     18  C   UNL A   1      35.337  21.625  24.942  1.00  0.00     0.066 C 
ATOM     19  N   UNL A   1      34.235  18.210  24.846  1.00  0.00    -0.281 N 
ATOM     20  C   UNL A   1      35.165  19.252  24.824  1.00  0.00     0.266 C 
ATOM     21  C   UNL A   1      33.101  18.221  25.650  1.00  0.00     0.183 C 
ATOM     22  O   UNL A   1      36.281  19.153  24.313  1.00  0.00    -0.268 OA
ATOM     23  C   UNL A   1      34.720  20.533  25.428  1.00  0.00     0.109 C 
ATOM     24  N   UNL A   1      32.879  19.359  26.384  1.00  0.00    -0.298 N 
ATOM     25  S   UNL A   1      31.971  16.994  25.829  1.00  0.00    -0.040 S 
ATOM     26  C   UNL A   1      33.596  20.524  26.379  1.00  0.00     0.263 C 
ATOM     27  H   UNL A   1      32.106  19.334  26.992  1.00  0.00     0.172 HD
ATOM     28  O   UNL A   1      33.306  21.441  27.136  1.00  0.00    -0.269 OA
BRANCH  19  29
ATOM     29  C   UNL A   1      34.518  17.115  23.909  1.00  0.00     0.155 C 
BRANCH  29  30
ATOM     30  C   UNL A   1      33.933  17.388  22.553  1.00  0.00    -0.013 C 
ATOM     31  C   UNL A   1      32.641  17.655  22.319  1.00  0.00     0.006 C 
ENDBRANCH  29  30
ENDBRANCH  19  29
ENDBRANCH  14  18
ENDBRANCH   7  13
ENDBRANCH   4   6
ENDBRANCH   3   4
ENDBRANCH   2   3
ENDBRANCH   1   2
BRANCH   1  32
ATOM     32  O   UNL A   1      33.596  32.090  28.025  1.00  0.00    -0.374 OA
BRANCH  32  33
ATOM     33  C   UNL A   1      34.785  32.450  28.729  1.00  0.00     0.202 C 
BRANCH  33  34
ATOM     34  C   UNL A   1      34.704  32.438  30.261  1.00  0.00     0.261 C 
BRANCH  34  35
ATOM     35  O   UNL A   1      35.584  31.468  30.854  1.00  0.00    -0.460 OA
BRANCH  35  36
ATOM     36  C   UNL A   1      36.768  31.967  31.285  1.00  0.00     0.338 C 
ATOM     37  O   UNL A   1      36.936  32.839  32.128  1.00  0.00    -0.246 OA
BRANCH  36  38
ATOM     38  C   UNL A   1      37.885  31.192  30.715  1.00  0.00     0.060 A 
ATOM     39  C   UNL A   1      38.630  30.389  31.588  1.00  0.00     0.016 A 
ATOM     40  C   UNL A   1      38.248  31.306  29.372  1.00  0.00     0.016 A 
ATOM     41  C   UNL A   1      39.776  29.739  31.135  1.00  0.00     0.010 A 
ATOM     42  C   UNL A   1      39.403  30.659  28.919  1.00  0.00     0.010 A 
ATOM     43  C   UNL A   1      40.192  29.905  29.807  1.00  0.00    -0.014 A 
BRANCH  43  44
ATOM     44  C   UNL A   1      41.532  29.427  29.390  1.00  0.00     0.031 A 
ATOM     45  C   UNL A   1      42.697  30.377  29.462  1.00  0.00     0.074 A 
ATOM     46  C   UNL A   1      41.717  28.163  28.973  1.00  0.00     0.049 A 
ATOM     47  N   UNL A   1      43.945  30.187  29.122  1.00  0.00    -0.248 NA
ATOM     48  C   UNL A   1      42.412  31.721  29.991  1.00  0.00     0.031 C 
ATOM     49  C   UNL A   1      40.683  27.131  28.916  1.00  0.00     0.029 A 
ATOM     50  N   UNL A   1      42.850  27.533  28.521  1.00  0.00    -0.354 N 
ATOM     51  C   UNL A   1      44.594  31.389  29.385  1.00  0.00     0.074 A 
ATOM     52  C   UNL A   1      43.593  32.309  29.881  1.00  0.00     0.031 C 
ATOM     53  C   UNL A   1      41.233  25.992  28.459  1.00  0.00     0.029 A 
ATOM     54  C   UNL A   1      42.643  26.225  28.156  1.00  0.00     0.049 A 
ATOM     55  H   UNL A   1      43.727  27.976  28.465  1.00  0.00     0.167 HD
ATOM     56  C   UNL A   1      45.904  31.698  29.230  1.00  0.00     0.031 A 
ATOM     57  C   UNL A   1      43.493  25.324  27.625  1.00  0.00     0.031 A 
ATOM     58  C   UNL A   1      46.891  30.791  28.710  1.00  0.00     0.049 A 
ATOM     59  C   UNL A   1      44.923  25.718  27.369  1.00  0.00     0.074 A 
ATOM     60  C   UNL A   1      48.243  31.006  28.512  1.00  0.00     0.029 A 
ATOM     61  N   UNL A   1      46.628  29.494  28.292  1.00  0.00    -0.354 N 
ATOM     62  N   UNL A   1      45.525  26.856  27.625  1.00  0.00    -0.248 NA
ATOM     63  C   UNL A   1      45.790  24.704  26.751  1.00  0.00     0.031 C 
ATOM     64  C   UNL A   1      48.787  29.858  27.924  1.00  0.00     0.029 A 
ATOM     65  C   UNL A   1      47.786  28.905  27.813  1.00  0.00     0.049 A 
ATOM     66  H   UNL A   1      45.747  29.056  28.331  1.00  0.00     0.167 HD
ATOM     67  C   UNL A   1      46.849  26.681  27.234  1.00  0.00     0.074 A 
ATOM     68  C   UNL A   1      46.959  25.330  26.724  1.00  0.00     0.031 C 
ATOM     69  C   UNL A   1      47.881  27.560  27.302  1.00  0.00     0.031 A 
BRANCH  56  70
ATOM     70  C   UNL A   1      46.319  33.103  29.586  1.00  0.00    -0.014 A 
ATOM     71  C   UNL A   1      46.732  33.436  30.890  1.00  0.00     0.010 A 
ATOM     72  C   UNL A   1      46.273  34.110  28.605  1.00  0.00     0.010 A 
ATOM     73  C   UNL A   1      47.021  34.762  31.223  1.00  0.00     0.020 A 
ATOM     74  C   UNL A   1      46.591  35.433  28.928  1.00  0.00     0.020 A 
ATOM     75  C   UNL A   1      46.936  35.754  30.242  1.00  0.00     0.054 A 
BRANCH  75  76
ATOM     76  S   UNL A   1      47.278  37.474  30.707  1.00  0.00     0.124 S 
ATOM     77  O   UNL A   1      48.542  37.344  31.428  1.00  0.00    -0.237 OA
ATOM     78  O   UNL A   1      47.360  38.147  29.413  1.00  0.00    -0.237 OA
ATOM     79  O   UNL A   1      46.129  37.847  31.527  1.00  0.00    -0.744 OA
ENDBRANCH  75  76
ENDBRANCH  56  70
BRANCH  57  80
ATOM     80  C   UNL A   1      43.010  23.952  27.313  1.00  0.00    -0.014 A 
ATOM     81  C   UNL A   1      42.689  23.597  25.991  1.00  0.00     0.010 A 
ATOM     82  C   UNL A   1      42.903  22.983  28.328  1.00  0.00     0.010 A 
ATOM     83  C   UNL A   1      42.272  22.297  25.689  1.00  0.00     0.020 A 
ATOM     84  C   UNL A   1      42.508  21.677  28.026  1.00  0.00     0.020 A 
ATOM     85  C   UNL A   1      42.193  21.343  26.707  1.00  0.00     0.054 A 
BRANCH  85  86
ATOM     86  S   UNL A   1      41.729  19.642  26.275  1.00  0.00     0.124 S 
ATOM     87  O   UNL A   1      40.277  19.736  26.182  1.00  0.00    -0.237 OA
ATOM     88  O   UNL A   1      42.434  19.437  25.012  1.00  0.00    -0.237 OA
ATOM     89  O   UNL A   1      42.236  18.854  27.397  1.00  0.00    -0.744 OA
ENDBRANCH  85  86
ENDBRANCH  57  80
BRANCH  69  90
ATOM     90  C   UNL A   1      49.237  27.078  26.854  1.00  0.00    -0.014 A 
ATOM     91  C   UNL A   1      50.131  26.468  27.752  1.00  0.00     0.010 A 
ATOM     92  C   UNL A   1      49.591  27.177  25.496  1.00  0.00     0.010 A 
ATOM     93  C   UNL A   1      51.366  25.990  27.301  1.00  0.00     0.020 A 
ATOM     94  C   UNL A   1      50.811  26.677  25.038  1.00  0.00     0.020 A 
ATOM     95  C   UNL A   1      51.698  26.096  25.947  1.00  0.00     0.054 A 
BRANCH  95  96
ATOM     96  S   UNL A   1      53.282  25.419  25.378  1.00  0.00     0.124 S 
ATOM     97  O   UNL A   1      54.199  25.875  26.419  1.00  0.00    -0.237 OA
ATOM     98  O   UNL A   1      53.026  23.981  25.352  1.00  0.00    -0.237 OA
ATOM     99  O   UNL A   1      53.472  26.035  24.066  1.00  0.00    -0.744 OA
ENDBRANCH  95  96
ENDBRANCH  69  90
ENDBRANCH  43  44
ENDBRANCH  36  38
ENDBRANCH  35  36
ENDBRANCH  34  35
ENDBRANCH  33  34
ENDBRANCH  32  33
ENDBRANCH   1  32
TORSDOF 21
ENDMDL
