MODEL 1
REMARK VINA RESULT:     -10.9      0.000      0.000
REMARK SMILES Cc1cc2c(c(C)c1Cl)C=C(C(=O)OCCOCCOC(=O)c1ccc(-c3c4nc(c(-c5ccc(S(=O)(=O)[O-])cc5)c5ccc([nH]5)c(-c5ccc(S(=O)(=O)[O-])cc5)c5nc(c(-c6ccc(S(=O)(=O)[O-])cc6)c6ccc3[nH]6)C=C5)C=C4)cc1)[C@@H](C(F)(F)F)O2
REMARK SMILES IDX 18 1 17 2 16 3 15 4 14 5 12 6 13 7 11 8 1 9 2 10 3 11 8 12
REMARK SMILES IDX 4 13 6 14 9 15 5 16 88 17 7 18 10 19 83 20 84 21 85 22 86 23
REMARK SMILES IDX 87 24 19 25 20 26 21 27 22 28 23 29 24 30 82 31 25 32 81 33
REMARK SMILES IDX 26 34 27 35 28 36 75 37 29 38 80 39 74 40 76 41 30 42 79 43
REMARK SMILES IDX 73 44 72 45 31 47 61 48 42 49 60 50 43 51 46 52 59 53 77 54
REMARK SMILES IDX 44 55 45 56 58 58 78 59 47 60 32 61 33 62 41 63 34 64 40 65
REMARK SMILES IDX 35 66 36 67 37 68 38 69 39 70 62 71 63 72 71 73 64 74 70 75
REMARK SMILES IDX 65 76 66 77 67 78 68 79 69 80 48 81 49 82 57 83 50 84 56 85
REMARK SMILES IDX 51 86 52 87 53 88 54 89 55 90
REMARK H PARENT 76 46 46 57
REMARK Flexibility Score: inf
ROOT
ATOM      1  C   UNL A   1      31.984  29.356  27.080  1.00  0.00     0.202 C 
ENDROOT
BRANCH   1   2
ATOM      2  O   UNL A   1      32.222  28.595  25.895  1.00  0.00    -0.374 OA
BRANCH   2   3
ATOM      3  C   UNL A   1      31.915  29.205  24.642  1.00  0.00     0.202 C 
BRANCH   3   4
ATOM      4  C   UNL A   1      32.841  28.865  23.472  1.00  0.00     0.261 C 
BRANCH   4   5
ATOM      5  O   UNL A   1      33.727  27.783  23.799  1.00  0.00    -0.460 OA
BRANCH   5   6
ATOM      6  C   UNL A   1      33.693  26.746  22.931  1.00  0.00     0.338 C 
ATOM      7  O   UNL A   1      33.978  26.771  21.743  1.00  0.00    -0.246 OA
BRANCH   6   8
ATOM      8  C   UNL A   1      33.388  25.497  23.655  1.00  0.00     0.087 C 
ATOM      9  C   UNL A   1      33.078  19.327  25.543  1.00  0.00     0.046 C 
ATOM     10  C   UNL A   1      33.516  20.727  25.207  1.00  0.00    -0.028 A 
ATOM     11  C   UNL A   1      32.553  21.746  25.208  1.00  0.00     0.052 A 
ATOM     12  C   UNL A   1      34.836  21.036  24.823  1.00  0.00     0.047 A 
ATOM     13  C   UNL A   1      32.876  23.035  24.786  1.00  0.00     0.128 A 
ATOM     14  C   UNL A   1      35.192  22.348  24.434  1.00  0.00    -0.021 A 
ATOM     15  Cl  UNL A   1      36.017  19.760  24.796  1.00  0.00    -0.084 Cl
ATOM     16  C   UNL A   1      34.176  23.335  24.368  1.00  0.00     0.022 A 
ATOM     17  O   UNL A   1      31.849  23.936  24.821  1.00  0.00    -0.475 OA
ATOM     18  C   UNL A   1      36.612  22.715  24.069  1.00  0.00     0.047 C 
ATOM     19  C   UNL A   1      34.418  24.653  23.794  1.00  0.00     0.027 C 
ATOM     20  C   UNL A   1      32.002  25.220  24.156  1.00  0.00     0.316 C 
BRANCH  20  21
ATOM     21  C   UNL A   1      30.940  25.325  23.054  1.00  0.00     0.430 C 
ATOM     22  F   UNL A   1      31.458  25.003  21.844  1.00  0.00    -0.167 F 
ATOM     23  F   UNL A   1      29.904  24.484  23.272  1.00  0.00    -0.167 F 
ATOM     24  F   UNL A   1      30.436  26.577  22.959  1.00  0.00    -0.167 F 
ENDBRANCH  20  21
ENDBRANCH   6   8
ENDBRANCH   5   6
ENDBRANCH   4   5
ENDBRANCH   3   4
ENDBRANCH   2   3
ENDBRANCH   1   2
BRANCH   1  25
ATOM     25  C   UNL A   1      32.606  30.755  27.155  1.00  0.00     0.261 C 
BRANCH  25  26
ATOM     26  O   UNL A   1      34.040  30.718  27.040  1.00  0.00    -0.460 OA
BRANCH  26  27
ATOM     27  C   UNL A   1      34.705  31.083  28.163  1.00  0.00     0.338 C 
ATOM     28  O   UNL A   1      34.300  31.819  29.053  1.00  0.00    -0.246 OA
BRANCH  27  29
ATOM     29  C   UNL A   1      35.955  30.313  28.287  1.00  0.00     0.060 A 
ATOM     30  C   UNL A   1      36.269  29.789  29.549  1.00  0.00     0.016 A 
ATOM     31  C   UNL A   1      36.848  30.190  27.223  1.00  0.00     0.016 A 
ATOM     32  C   UNL A   1      37.507  29.190  29.766  1.00  0.00     0.010 A 
ATOM     33  C   UNL A   1      38.097  29.602  27.448  1.00  0.00     0.010 A 
ATOM     34  C   UNL A   1      38.445  29.138  28.729  1.00  0.00    -0.014 A 
BRANCH  34  35
ATOM     35  C   UNL A   1      39.848  28.772  29.036  1.00  0.00     0.031 A 
ATOM     36  C   UNL A   1      40.718  29.777  29.741  1.00  0.00     0.074 A 
ATOM     37  C   UNL A   1      40.328  27.552  28.736  1.00  0.00     0.049 A 
ATOM     38  N   UNL A   1      41.980  29.691  30.074  1.00  0.00    -0.248 NA
ATOM     39  C   UNL A   1      40.077  31.045  30.130  1.00  0.00     0.031 C 
ATOM     40  C   UNL A   1      39.562  26.468  28.121  1.00  0.00     0.029 A 
ATOM     41  N   UNL A   1      41.580  27.021  28.916  1.00  0.00    -0.354 N 
ATOM     42  C   UNL A   1      42.284  30.890  30.710  1.00  0.00     0.074 A 
ATOM     43  C   UNL A   1      41.083  31.697  30.692  1.00  0.00     0.031 C 
ATOM     44  C   UNL A   1      40.364  25.399  27.974  1.00  0.00     0.029 A 
ATOM     45  C   UNL A   1      41.704  25.735  28.450  1.00  0.00     0.049 A 
ATOM     46  H   UNL A   1      42.319  27.515  29.339  1.00  0.00     0.167 HD
ATOM     47  C   UNL A   1      43.456  31.282  31.263  1.00  0.00     0.031 A 
ATOM     48  C   UNL A   1      42.783  24.929  28.395  1.00  0.00     0.031 A 
ATOM     49  C   UNL A   1      44.655  30.488  31.259  1.00  0.00     0.049 A 
ATOM     50  C   UNL A   1      44.104  25.428  28.918  1.00  0.00     0.074 A 
ATOM     51  C   UNL A   1      45.899  30.804  31.777  1.00  0.00     0.029 A 
ATOM     52  N   UNL A   1      44.760  29.220  30.707  1.00  0.00    -0.354 N 
ATOM     53  N   UNL A   1      44.383  26.574  29.493  1.00  0.00    -0.248 NA
ATOM     54  C   UNL A   1      45.256  24.525  28.780  1.00  0.00     0.031 C 
ATOM     55  C   UNL A   1      46.770  29.746  31.493  1.00  0.00     0.029 A 
ATOM     56  C   UNL A   1      46.054  28.749  30.849  1.00  0.00     0.049 A 
ATOM     57  H   UNL A   1      44.024  28.727  30.279  1.00  0.00     0.167 HD
ATOM     58  C   UNL A   1      45.739  26.523  29.801  1.00  0.00     0.074 A 
ATOM     59  C   UNL A   1      46.219  25.228  29.364  1.00  0.00     0.031 C 
ATOM     60  C   UNL A   1      46.519  27.464  30.391  1.00  0.00     0.031 A 
BRANCH  47  61
ATOM     61  C   UNL A   1      43.501  32.648  31.891  1.00  0.00    -0.014 A 
ATOM     62  C   UNL A   1      43.715  33.798  31.110  1.00  0.00     0.010 A 
ATOM     63  C   UNL A   1      43.294  32.789  33.275  1.00  0.00     0.010 A 
ATOM     64  C   UNL A   1      43.750  35.061  31.707  1.00  0.00     0.020 A 
ATOM     65  C   UNL A   1      43.304  34.052  33.872  1.00  0.00     0.020 A 
ATOM     66  C   UNL A   1      43.546  35.180  33.084  1.00  0.00     0.054 A 
BRANCH  66  67
ATOM     67  S   UNL A   1      43.572  36.834  33.828  1.00  0.00     0.124 S 
ATOM     68  O   UNL A   1      42.236  36.923  34.412  1.00  0.00    -0.237 OA
ATOM     69  O   UNL A   1      44.670  36.736  34.787  1.00  0.00    -0.237 OA
ATOM     70  O   UNL A   1      43.816  37.723  32.694  1.00  0.00    -0.744 OA
ENDBRANCH  66  67
ENDBRANCH  47  61
BRANCH  48  71
ATOM     71  C   UNL A   1      42.665  23.569  27.802  1.00  0.00    -0.014 A 
ATOM     72  C   UNL A   1      42.336  22.465  28.607  1.00  0.00     0.010 A 
ATOM     73  C   UNL A   1      42.871  23.375  26.424  1.00  0.00     0.010 A 
ATOM     74  C   UNL A   1      42.220  21.190  28.046  1.00  0.00     0.020 A 
ATOM     75  C   UNL A   1      42.734  22.106  25.855  1.00  0.00     0.020 A 
ATOM     76  C   UNL A   1      42.414  21.020  26.672  1.00  0.00     0.054 A 
BRANCH  76  77
ATOM     77  S   UNL A   1      42.196  19.366  25.957  1.00  0.00     0.124 S 
ATOM     78  O   UNL A   1      40.763  19.339  25.684  1.00  0.00    -0.237 OA
ATOM     79  O   UNL A   1      43.064  19.415  24.782  1.00  0.00    -0.237 OA
ATOM     80  O   UNL A   1      42.649  18.472  27.019  1.00  0.00    -0.744 OA
ENDBRANCH  76  77
ENDBRANCH  48  71
BRANCH  60  81
ATOM     81  C   UNL A   1      47.969  27.123  30.607  1.00  0.00    -0.014 A 
ATOM     82  C   UNL A   1      48.967  27.636  29.760  1.00  0.00     0.010 A 
ATOM     83  C   UNL A   1      48.341  26.318  31.699  1.00  0.00     0.010 A 
ATOM     84  C   UNL A   1      50.311  27.320  29.980  1.00  0.00     0.020 A 
ATOM     85  C   UNL A   1      49.686  26.021  31.938  1.00  0.00     0.020 A 
ATOM     86  C   UNL A   1      50.661  26.512  31.067  1.00  0.00     0.054 A 
BRANCH  86  87
ATOM     87  S   UNL A   1      52.414  26.140  31.347  1.00  0.00     0.124 S 
ATOM     88  O   UNL A   1      52.908  25.961  29.985  1.00  0.00    -0.237 OA
ATOM     89  O   UNL A   1      52.890  27.336  32.037  1.00  0.00    -0.237 OA
ATOM     90  O   UNL A   1      52.385  24.928  32.163  1.00  0.00    -0.744 OA
ENDBRANCH  86  87
ENDBRANCH  60  81
ENDBRANCH  34  35
ENDBRANCH  27  29
ENDBRANCH  26  27
ENDBRANCH  25  26
ENDBRANCH   1  25
TORSDOF 18
ENDMDL
MODEL 2
REMARK VINA RESULT:     -10.9      4.770     10.550
REMARK SMILES Cc1cc2c(c(C)c1Cl)C=C(C(=O)OCCOCCOC(=O)c1ccc(-c3c4nc(c(-c5ccc(S(=O)(=O)[O-])cc5)c5ccc([nH]5)c(-c5ccc(S(=O)(=O)[O-])cc5)c5nc(c(-c6ccc(S(=O)(=O)[O-])cc6)c6ccc3[nH]6)C=C5)C=C4)cc1)[C@@H](C(F)(F)F)O2
REMARK SMILES IDX 18 1 17 2 16 3 15 4 14 5 12 6 13 7 11 8 1 9 2 10 3 11 8 12
REMARK SMILES IDX 4 13 6 14 9 15 5 16 88 17 7 18 10 19 83 20 84 21 85 22 86 23
REMARK SMILES IDX 87 24 19 25 20 26 21 27 22 28 23 29 24 30 82 31 25 32 81 33
REMARK SMILES IDX 26 34 27 35 28 36 75 37 29 38 80 39 74 40 76 41 30 42 79 43
REMARK SMILES IDX 73 44 72 45 31 47 61 48 42 49 60 50 43 51 46 52 59 53 77 54
REMARK SMILES IDX 44 55 45 56 58 58 78 59 47 60 32 61 33 62 41 63 34 64 40 65
REMARK SMILES IDX 35 66 36 67 37 68 38 69 39 70 62 71 63 72 71 73 64 74 70 75
REMARK SMILES IDX 65 76 66 77 67 78 68 79 69 80 48 81 49 82 57 83 50 84 56 85
REMARK SMILES IDX 51 86 52 87 53 88 54 89 55 90
REMARK H PARENT 76 46 46 57
REMARK Flexibility Score: inf
ROOT
ATOM      1  C   UNL A   1      39.455  22.326  26.510  1.00  0.00     0.202 C 
ENDROOT
BRANCH   1   2
ATOM      2  O   UNL A   1      38.095  22.530  26.125  1.00  0.00    -0.374 OA
BRANCH   2   3
ATOM      3  C   UNL A   1      37.514  21.592  25.219  1.00  0.00     0.202 C 
BRANCH   3   4
ATOM      4  C   UNL A   1      36.097  21.901  24.731  1.00  0.00     0.261 C 
BRANCH   4   5
ATOM      5  O   UNL A   1      35.823  23.311  24.770  1.00  0.00    -0.460 OA
BRANCH   5   6
ATOM      6  C   UNL A   1      34.791  23.662  25.569  1.00  0.00     0.338 C 
ATOM      7  O   UNL A   1      34.585  23.285  26.713  1.00  0.00    -0.246 OA
BRANCH   6   8
ATOM      8  C   UNL A   1      33.982  24.707  24.913  1.00  0.00     0.087 C 
ATOM      9  C   UNL A   1      30.031  29.678  23.731  1.00  0.00     0.046 C 
ATOM     10  C   UNL A   1      31.172  28.794  24.154  1.00  0.00    -0.028 A 
ATOM     11  C   UNL A   1      31.365  27.582  23.478  1.00  0.00     0.052 A 
ATOM     12  C   UNL A   1      32.004  29.104  25.249  1.00  0.00     0.047 A 
ATOM     13  C   UNL A   1      32.328  26.669  23.906  1.00  0.00     0.128 A 
ATOM     14  C   UNL A   1      33.015  28.210  25.670  1.00  0.00    -0.021 A 
ATOM     15  Cl  UNL A   1      31.738  30.595  26.102  1.00  0.00    -0.084 Cl
ATOM     16  C   UNL A   1      33.128  26.957  25.015  1.00  0.00     0.022 A 
ATOM     17  O   UNL A   1      32.411  25.520  23.171  1.00  0.00    -0.475 OA
ATOM     18  C   UNL A   1      33.953  28.544  26.807  1.00  0.00     0.047 C 
ATOM     19  C   UNL A   1      34.008  25.906  25.510  1.00  0.00     0.027 C 
ATOM     20  C   UNL A   1      33.181  24.398  23.685  1.00  0.00     0.316 C 
BRANCH  20  21
ATOM     21  C   UNL A   1      32.232  23.207  23.878  1.00  0.00     0.430 C 
ATOM     22  F   UNL A   1      31.629  23.255  25.091  1.00  0.00    -0.167 F 
ATOM     23  F   UNL A   1      31.247  23.193  22.952  1.00  0.00    -0.167 F 
ATOM     24  F   UNL A   1      32.886  22.026  23.797  1.00  0.00    -0.167 F 
ENDBRANCH  20  21
ENDBRANCH   6   8
ENDBRANCH   5   6
ENDBRANCH   4   5
ENDBRANCH   3   4
ENDBRANCH   2   3
ENDBRANCH   1   2
BRANCH   1  25
ATOM     25  C   UNL A   1      40.328  23.573  26.694  1.00  0.00     0.261 C 
BRANCH  25  26
ATOM     26  O   UNL A   1      39.557  24.787  26.650  1.00  0.00    -0.460 OA
BRANCH  26  27
ATOM     27  C   UNL A   1      40.296  25.920  26.565  1.00  0.00     0.338 C 
ATOM     28  O   UNL A   1      41.031  26.253  25.646  1.00  0.00    -0.246 OA
BRANCH  27  29
ATOM     29  C   UNL A   1      39.958  26.831  27.672  1.00  0.00     0.060 A 
ATOM     30  C   UNL A   1      40.445  28.144  27.601  1.00  0.00     0.016 A 
ATOM     31  C   UNL A   1      39.267  26.388  28.801  1.00  0.00     0.016 A 
ATOM     32  C   UNL A   1      40.293  29.004  28.686  1.00  0.00     0.010 A 
ATOM     33  C   UNL A   1      39.130  27.249  29.895  1.00  0.00     0.010 A 
ATOM     34  C   UNL A   1      39.679  28.543  29.856  1.00  0.00    -0.014 A 
BRANCH  34  35
ATOM     35  C   UNL A   1      39.778  29.351  31.095  1.00  0.00     0.031 A 
ATOM     36  C   UNL A   1      40.942  29.114  32.019  1.00  0.00     0.074 A 
ATOM     37  C   UNL A   1      38.877  30.310  31.372  1.00  0.00     0.049 A 
ATOM     38  N   UNL A   1      41.211  29.670  33.171  1.00  0.00    -0.248 NA
ATOM     39  C   UNL A   1      41.938  28.121  31.581  1.00  0.00     0.031 C 
ATOM     40  C   UNL A   1      37.749  30.684  30.519  1.00  0.00     0.029 A 
ATOM     41  N   UNL A   1      38.776  31.148  32.453  1.00  0.00    -0.354 N 
ATOM     42  C   UNL A   1      42.405  29.098  33.595  1.00  0.00     0.074 A 
ATOM     43  C   UNL A   1      42.794  28.132  32.591  1.00  0.00     0.031 C 
ATOM     44  C   UNL A   1      37.067  31.680  31.112  1.00  0.00     0.029 A 
ATOM     45  C   UNL A   1      37.689  31.986  32.399  1.00  0.00     0.049 A 
ATOM     46  H   UNL A   1      39.421  31.149  33.196  1.00  0.00     0.167 HD
ATOM     47  C   UNL A   1      43.117  29.357  34.718  1.00  0.00     0.031 A 
ATOM     48  C   UNL A   1      37.236  32.884  33.297  1.00  0.00     0.031 A 
ATOM     49  C   UNL A   1      42.717  30.301  35.726  1.00  0.00     0.049 A 
ATOM     50  C   UNL A   1      37.986  33.076  34.589  1.00  0.00     0.074 A 
ATOM     51  C   UNL A   1      43.360  30.622  36.909  1.00  0.00     0.029 A 
ATOM     52  N   UNL A   1      41.568  31.075  35.672  1.00  0.00    -0.354 N 
ATOM     53  N   UNL A   1      39.099  32.510  34.989  1.00  0.00    -0.248 NA
ATOM     54  C   UNL A   1      37.412  34.028  35.552  1.00  0.00     0.031 C 
ATOM     55  C   UNL A   1      42.572  31.554  37.594  1.00  0.00     0.029 A 
ATOM     56  C   UNL A   1      41.469  31.855  36.811  1.00  0.00     0.049 A 
ATOM     57  H   UNL A   1      40.919  31.071  34.932  1.00  0.00     0.167 HD
ATOM     58  C   UNL A   1      39.369  33.048  36.243  1.00  0.00     0.074 A 
ATOM     59  C   UNL A   1      38.313  33.998  36.527  1.00  0.00     0.031 C 
ATOM     60  C   UNL A   1      40.399  32.781  37.086  1.00  0.00     0.031 A 
BRANCH  47  61
ATOM     61  C   UNL A   1      44.389  28.580  34.925  1.00  0.00    -0.014 A 
ATOM     62  C   UNL A   1      45.623  29.074  34.467  1.00  0.00     0.010 A 
ATOM     63  C   UNL A   1      44.354  27.356  35.618  1.00  0.00     0.010 A 
ATOM     64  C   UNL A   1      46.796  28.343  34.672  1.00  0.00     0.020 A 
ATOM     65  C   UNL A   1      45.528  26.634  35.846  1.00  0.00     0.020 A 
ATOM     66  C   UNL A   1      46.741  27.126  35.358  1.00  0.00     0.054 A 
BRANCH  66  67
ATOM     67  S   UNL A   1      48.283  26.211  35.632  1.00  0.00     0.124 S 
ATOM     68  O   UNL A   1      48.336  26.139  37.090  1.00  0.00    -0.237 OA
ATOM     69  O   UNL A   1      48.028  24.944  34.950  1.00  0.00    -0.237 OA
ATOM     70  O   UNL A   1      49.303  27.054  35.013  1.00  0.00    -0.744 OA
ENDBRANCH  66  67
ENDBRANCH  47  61
BRANCH  48  71
ATOM     71  C   UNL A   1      35.996  33.656  33.015  1.00  0.00    -0.014 A 
ATOM     72  C   UNL A   1      34.733  33.064  33.182  1.00  0.00     0.010 A 
ATOM     73  C   UNL A   1      36.074  34.993  32.585  1.00  0.00     0.010 A 
ATOM     74  C   UNL A   1      33.569  33.793  32.921  1.00  0.00     0.020 A 
ATOM     75  C   UNL A   1      34.913  35.733  32.344  1.00  0.00     0.020 A 
ATOM     76  C   UNL A   1      33.667  35.125  32.509  1.00  0.00     0.054 A 
BRANCH  76  77
ATOM     77  S   UNL A   1      32.141  36.070  32.238  1.00  0.00     0.124 S 
ATOM     78  O   UNL A   1      32.344  37.231  33.098  1.00  0.00    -0.237 OA
ATOM     79  O   UNL A   1      32.186  36.332  30.801  1.00  0.00    -0.237 OA
ATOM     80  O   UNL A   1      31.090  35.150  32.662  1.00  0.00    -0.744 OA
ENDBRANCH  76  77
ENDBRANCH  48  71
BRANCH  60  81
ATOM     81  C   UNL A   1      40.437  33.532  38.390  1.00  0.00    -0.014 A 
ATOM     82  C   UNL A   1      39.716  33.079  39.508  1.00  0.00     0.010 A 
ATOM     83  C   UNL A   1      41.243  34.679  38.511  1.00  0.00     0.010 A 
ATOM     84  C   UNL A   1      39.771  33.781  40.715  1.00  0.00     0.020 A 
ATOM     85  C   UNL A   1      41.321  35.369  39.724  1.00  0.00     0.020 A 
ATOM     86  C   UNL A   1      40.572  34.923  40.815  1.00  0.00     0.054 A 
BRANCH  86  87
ATOM     87  S   UNL A   1      40.647  35.799  42.401  1.00  0.00     0.124 S 
ATOM     88  O   UNL A   1      41.230  34.789  43.279  1.00  0.00    -0.237 OA
ATOM     89  O   UNL A   1      41.506  36.941  42.096  1.00  0.00    -0.237 OA
ATOM     90  O   UNL A   1      39.251  36.135  42.678  1.00  0.00    -0.744 OA
ENDBRANCH  86  87
ENDBRANCH  60  81
ENDBRANCH  34  35
ENDBRANCH  27  29
ENDBRANCH  26  27
ENDBRANCH  25  26
ENDBRANCH   1  25
TORSDOF 18
ENDMDL
MODEL 3
REMARK VINA RESULT:     -10.6      3.064      3.888
REMARK SMILES Cc1cc2c(c(C)c1Cl)C=C(C(=O)OCCOCCOC(=O)c1ccc(-c3c4nc(c(-c5ccc(S(=O)(=O)[O-])cc5)c5ccc([nH]5)c(-c5ccc(S(=O)(=O)[O-])cc5)c5nc(c(-c6ccc(S(=O)(=O)[O-])cc6)c6ccc3[nH]6)C=C5)C=C4)cc1)[C@@H](C(F)(F)F)O2
REMARK SMILES IDX 18 1 17 2 16 3 15 4 14 5 12 6 13 7 11 8 1 9 2 10 3 11 8 12
REMARK SMILES IDX 4 13 6 14 9 15 5 16 88 17 7 18 10 19 83 20 84 21 85 22 86 23
REMARK SMILES IDX 87 24 19 25 20 26 21 27 22 28 23 29 24 30 82 31 25 32 81 33
REMARK SMILES IDX 26 34 27 35 28 36 75 37 29 38 80 39 74 40 76 41 30 42 79 43
REMARK SMILES IDX 73 44 72 45 31 47 61 48 42 49 60 50 43 51 46 52 59 53 77 54
REMARK SMILES IDX 44 55 45 56 58 58 78 59 47 60 32 61 33 62 41 63 34 64 40 65
REMARK SMILES IDX 35 66 36 67 37 68 38 69 39 70 62 71 63 72 71 73 64 74 70 75
REMARK SMILES IDX 65 76 66 77 67 78 68 79 69 80 48 81 49 82 57 83 50 84 56 85
REMARK SMILES IDX 51 86 52 87 53 88 54 89 55 90
REMARK H PARENT 76 46 46 57
REMARK Flexibility Score: inf
ROOT
ATOM      1  C   UNL A   1      34.780  31.422  27.675  1.00  0.00     0.202 C 
ENDROOT
BRANCH   1   2
ATOM      2  O   UNL A   1      33.396  31.071  27.656  1.00  0.00    -0.374 OA
BRANCH   2   3
ATOM      3  C   UNL A   1      32.952  30.177  26.636  1.00  0.00     0.202 C 
BRANCH   3   4
ATOM      4  C   UNL A   1      33.360  28.710  26.789  1.00  0.00     0.261 C 
BRANCH   4   5
ATOM      5  O   UNL A   1      32.580  27.855  25.937  1.00  0.00    -0.460 OA
BRANCH   5   6
ATOM      6  C   UNL A   1      33.284  27.244  24.958  1.00  0.00     0.338 C 
ATOM      7  O   UNL A   1      33.976  27.779  24.105  1.00  0.00    -0.246 OA
BRANCH   6   8
ATOM      8  C   UNL A   1      33.222  25.781  25.136  1.00  0.00     0.087 C 
ATOM      9  C   UNL A   1      34.289  19.423  24.736  1.00  0.00     0.046 C 
ATOM     10  C   UNL A   1      34.385  20.902  24.994  1.00  0.00    -0.028 A 
ATOM     11  C   UNL A   1      33.198  21.637  25.119  1.00  0.00     0.052 A 
ATOM     12  C   UNL A   1      35.617  21.584  25.040  1.00  0.00     0.047 A 
ATOM     13  C   UNL A   1      33.225  23.025  25.235  1.00  0.00     0.128 A 
ATOM     14  C   UNL A   1      35.666  22.988  25.201  1.00  0.00    -0.021 A 
ATOM     15  Cl  UNL A   1      37.084  20.669  24.853  1.00  0.00    -0.084 Cl
ATOM     16  C   UNL A   1      34.445  23.708  25.243  1.00  0.00     0.022 A 
ATOM     17  O   UNL A   1      32.003  23.627  25.339  1.00  0.00    -0.475 OA
ATOM     18  C   UNL A   1      36.975  23.734  25.307  1.00  0.00     0.047 C 
ATOM     19  C   UNL A   1      34.409  25.165  25.211  1.00  0.00     0.027 C 
ATOM     20  C   UNL A   1      31.903  25.070  25.192  1.00  0.00     0.316 C 
BRANCH  20  21
ATOM     21  C   UNL A   1      31.011  25.374  23.980  1.00  0.00     0.430 C 
ATOM     22  F   UNL A   1      30.029  26.250  24.304  1.00  0.00    -0.167 F 
ATOM     23  F   UNL A   1      31.712  25.931  22.967  1.00  0.00    -0.167 F 
ATOM     24  F   UNL A   1      30.417  24.258  23.501  1.00  0.00    -0.167 F 
ENDBRANCH  20  21
ENDBRANCH   6   8
ENDBRANCH   5   6
ENDBRANCH   4   5
ENDBRANCH   3   4
ENDBRANCH   2   3
ENDBRANCH   1   2
BRANCH   1  25
ATOM     25  C   UNL A   1      35.589  31.029  28.917  1.00  0.00     0.261 C 
BRANCH  25  26
ATOM     26  O   UNL A   1      36.086  29.680  28.837  1.00  0.00    -0.460 OA
BRANCH  26  27
ATOM     27  C   UNL A   1      36.944  29.338  29.828  1.00  0.00     0.338 C 
ATOM     28  O   UNL A   1      36.700  29.270  31.025  1.00  0.00    -0.246 OA
BRANCH  27  29
ATOM     29  C   UNL A   1      38.214  28.857  29.256  1.00  0.00     0.060 A 
ATOM     30  C   UNL A   1      39.096  28.185  30.114  1.00  0.00     0.016 A 
ATOM     31  C   UNL A   1      38.580  29.143  27.940  1.00  0.00     0.016 A 
ATOM     32  C   UNL A   1      40.373  27.846  29.675  1.00  0.00     0.010 A 
ATOM     33  C   UNL A   1      39.869  28.816  27.507  1.00  0.00     0.010 A 
ATOM     34  C   UNL A   1      40.782  28.205  28.385  1.00  0.00    -0.014 A 
BRANCH  34  35
ATOM     35  C   UNL A   1      42.216  28.109  28.025  1.00  0.00     0.031 A 
ATOM     36  C   UNL A   1      43.108  29.291  28.293  1.00  0.00     0.074 A 
ATOM     37  C   UNL A   1      42.728  26.977  27.511  1.00  0.00     0.049 A 
ATOM     38  N   UNL A   1      44.378  29.448  28.025  1.00  0.00    -0.248 NA
ATOM     39  C   UNL A   1      42.484  30.449  28.959  1.00  0.00     0.031 C 
ATOM     40  C   UNL A   1      41.982  25.741  27.275  1.00  0.00     0.029 A 
ATOM     41  N   UNL A   1      44.004  26.685  27.100  1.00  0.00    -0.354 N 
ATOM     42  C   UNL A   1      44.707  30.717  28.489  1.00  0.00     0.074 A 
ATOM     43  C   UNL A   1      43.498  31.299  29.030  1.00  0.00     0.031 C 
ATOM     44  C   UNL A   1      42.817  24.822  26.759  1.00  0.00     0.029 A 
ATOM     45  C   UNL A   1      44.142  25.415  26.595  1.00  0.00     0.049 A 
ATOM     46  H   UNL A   1      44.750  27.325  27.162  1.00  0.00     0.167 HD
ATOM     47  C   UNL A   1      45.909  31.341  28.471  1.00  0.00     0.031 A 
ATOM     48  C   UNL A   1      45.213  24.809  26.044  1.00  0.00     0.031 A 
ATOM     49  C   UNL A   1      47.105  30.770  27.913  1.00  0.00     0.049 A 
ATOM     50  C   UNL A   1      46.512  25.562  25.936  1.00  0.00     0.074 A 
ATOM     51  C   UNL A   1      48.368  31.330  27.829  1.00  0.00     0.029 A 
ATOM     52  N   UNL A   1      47.186  29.510  27.340  1.00  0.00    -0.354 N 
ATOM     53  N   UNL A   1      46.802  26.771  26.355  1.00  0.00    -0.248 NA
ATOM     54  C   UNL A   1      47.627  24.869  25.275  1.00  0.00     0.031 C 
ATOM     55  C   UNL A   1      49.201  30.426  27.159  1.00  0.00     0.029 A 
ATOM     56  C   UNL A   1      48.470  29.282  26.877  1.00  0.00     0.049 A 
ATOM     57  H   UNL A   1      46.440  28.871  27.272  1.00  0.00     0.167 HD
ATOM     58  C   UNL A   1      48.137  26.977  26.024  1.00  0.00     0.074 A 
ATOM     59  C   UNL A   1      48.602  25.762  25.386  1.00  0.00     0.031 C 
ATOM     60  C   UNL A   1      48.911  28.074  26.228  1.00  0.00     0.031 A 
BRANCH  47  61
ATOM     61  C   UNL A   1      45.976  32.729  29.047  1.00  0.00    -0.014 A 
ATOM     62  C   UNL A   1      46.320  32.938  30.395  1.00  0.00     0.010 A 
ATOM     63  C   UNL A   1      45.727  33.841  28.222  1.00  0.00     0.010 A 
ATOM     64  C   UNL A   1      46.384  34.234  30.914  1.00  0.00     0.020 A 
ATOM     65  C   UNL A   1      45.813  35.139  28.733  1.00  0.00     0.020 A 
ATOM     66  C   UNL A   1      46.128  35.326  30.080  1.00  0.00     0.054 A 
BRANCH  66  67
ATOM     67  S   UNL A   1      46.242  36.998  30.776  1.00  0.00     0.124 S 
ATOM     68  O   UNL A   1      46.130  36.736  32.209  1.00  0.00    -0.237 OA
ATOM     69  O   UNL A   1      47.556  37.444  30.320  1.00  0.00    -0.237 OA
ATOM     70  O   UNL A   1      45.107  37.701  30.181  1.00  0.00    -0.744 OA
ENDBRANCH  66  67
ENDBRANCH  47  61
BRANCH  48  71
ATOM     71  C   UNL A   1      45.095  23.417  25.532  1.00  0.00    -0.014 A 
ATOM     72  C   UNL A   1      44.549  23.167  24.262  1.00  0.00     0.010 A 
ATOM     73  C   UNL A   1      45.540  22.334  26.312  1.00  0.00     0.010 A 
ATOM     74  C   UNL A   1      44.444  21.858  23.782  1.00  0.00     0.020 A 
ATOM     75  C   UNL A   1      45.460  21.025  25.826  1.00  0.00     0.020 A 
ATOM     76  C   UNL A   1      44.906  20.796  24.565  1.00  0.00     0.054 A 
BRANCH  76  77
ATOM     77  S   UNL A   1      44.818  19.113  23.893  1.00  0.00     0.124 S 
ATOM     78  O   UNL A   1      46.148  18.594  24.194  1.00  0.00    -0.237 OA
ATOM     79  O   UNL A   1      43.721  18.526  24.659  1.00  0.00    -0.237 OA
ATOM     80  O   UNL A   1      44.534  19.325  22.476  1.00  0.00    -0.744 OA
ENDBRANCH  76  77
ENDBRANCH  48  71
BRANCH  60  81
ATOM     81  C   UNL A   1      50.341  28.006  25.765  1.00  0.00    -0.014 A 
ATOM     82  C   UNL A   1      50.682  28.255  24.424  1.00  0.00     0.010 A 
ATOM     83  C   UNL A   1      51.363  27.735  26.694  1.00  0.00     0.010 A 
ATOM     84  C   UNL A   1      52.016  28.200  24.012  1.00  0.00     0.020 A 
ATOM     85  C   UNL A   1      52.701  27.705  26.291  1.00  0.00     0.020 A 
ATOM     86  C   UNL A   1      53.017  27.923  24.949  1.00  0.00     0.054 A 
BRANCH  86  87
ATOM     87  S   UNL A   1      54.744  27.884  24.394  1.00  0.00     0.124 S 
ATOM     88  O   UNL A   1      54.751  28.907  23.352  1.00  0.00    -0.237 OA
ATOM     89  O   UNL A   1      55.479  28.219  25.611  1.00  0.00    -0.237 OA
ATOM     90  O   UNL A   1      54.925  26.512  23.922  1.00  0.00    -0.744 OA
ENDBRANCH  86  87
ENDBRANCH  60  81
ENDBRANCH  34  35
ENDBRANCH  27  29
ENDBRANCH  26  27
ENDBRANCH  25  26
ENDBRANCH   1  25
TORSDOF 18
ENDMDL
