MODEL 1
REMARK VINA RESULT:     -11.7      0.000      0.000
REMARK SMILES Cc1ccnc(C(=O)c2[nH]c3ccc(C(C)(C)C)cc3c2CC(=O)OCCOCCOC(=O)c2ccc(-c3c4nc(c(-c5ccc(S(=O)(=O)[O-])cc5)c5ccc([nH]5)c(-c5ccc(S(=O)(=O)[O-])cc5)c5nc(c(-c6ccc(S(=O)(=O)[O-])cc6)c6ccc3[nH]6)C=C5)C=C4)cc2)c1
REMARK SMILES IDX 28 1 27 2 26 3 25 4 23 5 24 6 22 7 21 8 9 9 10 10 11 11
REMARK SMILES IDX 20 13 12 14 19 15 13 16 14 17 7 18 8 19 6 20 1 21 2 22 3 23
REMARK SMILES IDX 94 24 4 25 5 26 15 27 16 28 17 29 18 30 29 31 30 32 31 33
REMARK SMILES IDX 32 34 33 35 34 36 35 37 93 38 36 39 92 40 37 41 38 42 39 43
REMARK SMILES IDX 86 44 40 45 91 46 85 47 87 48 41 49 90 50 84 51 83 52 42 54
REMARK SMILES IDX 72 55 53 56 71 57 54 58 57 59 70 60 88 61 55 62 56 63 69 65
REMARK SMILES IDX 89 66 58 67 43 68 44 69 52 70 45 71 51 72 46 73 47 74 48 75
REMARK SMILES IDX 49 76 50 77 73 78 74 79 82 80 75 81 81 82 76 83 77 84 78 85
REMARK SMILES IDX 79 86 80 87 59 88 60 89 68 90 61 91 67 92 62 93 63 94 64 95
REMARK SMILES IDX 65 96 66 97
REMARK H PARENT 10 12 87 53 57 64
REMARK Flexibility Score: inf
ROOT
ATOM      1  O   UNL A   1      38.548  22.057  26.020  1.00  0.00    -0.374 OA
ENDROOT
BRANCH   1   2
ATOM      2  C   UNL A   1      37.821  21.133  25.211  1.00  0.00     0.202 C 
BRANCH   2   3
ATOM      3  C   UNL A   1      36.659  21.666  24.363  1.00  0.00     0.261 C 
BRANCH   3   4
ATOM      4  O   UNL A   1      36.752  23.080  24.088  1.00  0.00    -0.463 OA
BRANCH   4   5
ATOM      5  C   UNL A   1      35.591  23.776  24.230  1.00  0.00     0.310 C 
ATOM      6  O   UNL A   1      34.858  24.089  23.292  1.00  0.00    -0.252 OA
BRANCH   5   7
ATOM      7  C   UNL A   1      35.273  24.232  25.636  1.00  0.00     0.161 C 
BRANCH   7   8
ATOM      8  C   UNL A   1      33.839  24.258  26.097  1.00  0.00     0.000 A 
ATOM      9  C   UNL A   1      33.044  23.180  26.497  1.00  0.00     0.093 A 
ATOM     10  N   UNL A   1      31.815  23.707  26.844  1.00  0.00    -0.352 N 
ATOM     11  C   UNL A   1      31.697  24.994  26.371  1.00  0.00     0.046 A 
ATOM     12  H   UNL A   1      31.122  23.230  27.355  1.00  0.00     0.167 HD
ATOM     13  C   UNL A   1      32.956  25.371  25.927  1.00  0.00     0.004 A 
ATOM     14  C   UNL A   1      30.591  25.846  26.285  1.00  0.00     0.027 A 
ATOM     15  C   UNL A   1      33.111  26.643  25.342  1.00  0.00     0.015 A 
ATOM     16  C   UNL A   1      30.764  27.080  25.633  1.00  0.00     0.006 A 
ATOM     17  C   UNL A   1      32.006  27.488  25.122  1.00  0.00    -0.042 A 
BRANCH   9  18
ATOM     18  C   UNL A   1      33.436  21.775  26.545  1.00  0.00     0.227 C 
ATOM     19  O   UNL A   1      34.225  21.353  27.390  1.00  0.00    -0.285 OA
BRANCH  18  20
ATOM     20  C   UNL A   1      32.966  20.793  25.521  1.00  0.00     0.113 A 
ATOM     21  C   UNL A   1      31.875  20.637  21.899  1.00  0.00     0.044 C 
ATOM     22  C   UNL A   1      32.292  20.246  23.284  1.00  0.00    -0.047 A 
ATOM     23  C   UNL A   1      32.575  18.909  23.576  1.00  0.00     0.023 A 
ATOM     24  C   UNL A   1      32.501  21.211  24.277  1.00  0.00     0.036 A 
ATOM     25  C   UNL A   1      33.013  18.582  24.849  1.00  0.00     0.112 A 
ATOM     26  N   UNL A   1      33.200  19.489  25.826  1.00  0.00    -0.253 NA
ENDBRANCH  18  20
ENDBRANCH   9  18
BRANCH  17  27
ATOM     27  C   UNL A   1      32.207  28.763  24.283  1.00  0.00    -0.013 C 
ATOM     28  C   UNL A   1      31.748  30.001  25.082  1.00  0.00     0.016 C 
ATOM     29  C   UNL A   1      33.711  28.907  23.945  1.00  0.00     0.016 C 
ATOM     30  C   UNL A   1      31.445  28.763  22.942  1.00  0.00     0.016 C 
ENDBRANCH  17  27
ENDBRANCH   7   8
ENDBRANCH   5   7
ENDBRANCH   4   5
ENDBRANCH   3   4
ENDBRANCH   2   3
ENDBRANCH   1   2
BRANCH   1  31
ATOM     31  C   UNL A   1      39.878  21.691  26.377  1.00  0.00     0.202 C 
BRANCH  31  32
ATOM     32  C   UNL A   1      40.922  22.814  26.463  1.00  0.00     0.261 C 
BRANCH  32  33
ATOM     33  O   UNL A   1      40.365  24.128  26.315  1.00  0.00    -0.460 OA
BRANCH  33  34
ATOM     34  C   UNL A   1      41.285  25.121  26.255  1.00  0.00     0.338 C 
ATOM     35  O   UNL A   1      42.147  25.289  25.405  1.00  0.00    -0.246 OA
BRANCH  34  36
ATOM     36  C   UNL A   1      41.002  26.113  27.304  1.00  0.00     0.060 A 
ATOM     37  C   UNL A   1      41.791  27.270  27.332  1.00  0.00     0.016 A 
ATOM     38  C   UNL A   1      40.008  25.899  28.260  1.00  0.00     0.016 A 
ATOM     39  C   UNL A   1      41.598  28.216  28.335  1.00  0.00     0.010 A 
ATOM     40  C   UNL A   1      39.827  26.843  29.274  1.00  0.00     0.010 A 
ATOM     41  C   UNL A   1      40.633  27.994  29.325  1.00  0.00    -0.014 A 
BRANCH  41  42
ATOM     42  C   UNL A   1      40.528  28.928  30.469  1.00  0.00     0.031 A 
ATOM     43  C   UNL A   1      41.441  28.743  31.648  1.00  0.00     0.074 A 
ATOM     44  C   UNL A   1      39.632  29.930  30.438  1.00  0.00     0.049 A 
ATOM     45  N   UNL A   1      41.491  29.418  32.766  1.00  0.00    -0.248 NA
ATOM     46  C   UNL A   1      42.427  27.654  31.556  1.00  0.00     0.031 C 
ATOM     47  C   UNL A   1      38.730  30.222  29.322  1.00  0.00     0.029 A 
ATOM     48  N   UNL A   1      39.329  30.886  31.373  1.00  0.00    -0.354 N 
ATOM     49  C   UNL A   1      42.503  28.830  33.516  1.00  0.00     0.074 A 
ATOM     50  C   UNL A   1      43.028  27.732  32.735  1.00  0.00     0.031 C 
ATOM     51  C   UNL A   1      37.971  31.285  29.642  1.00  0.00     0.029 A 
ATOM     52  C   UNL A   1      38.304  31.721  30.995  1.00  0.00     0.049 A 
ATOM     53  H   UNL A   1      39.801  30.967  32.234  1.00  0.00     0.167 HD
ATOM     54  C   UNL A   1      42.949  29.179  34.745  1.00  0.00     0.031 A 
ATOM     55  C   UNL A   1      37.688  32.707  31.677  1.00  0.00     0.031 A 
ATOM     56  C   UNL A   1      42.406  30.268  35.513  1.00  0.00     0.049 A 
ATOM     57  C   UNL A   1      38.151  33.017  33.077  1.00  0.00     0.074 A 
ATOM     58  C   UNL A   1      42.804  30.727  36.757  1.00  0.00     0.029 A 
ATOM     59  N   UNL A   1      41.339  31.062  35.117  1.00  0.00    -0.354 N 
ATOM     60  N   UNL A   1      39.138  32.482  33.757  1.00  0.00    -0.248 NA
ATOM     61  C   UNL A   1      37.416  34.063  33.802  1.00  0.00     0.031 C 
ATOM     62  C   UNL A   1      41.932  31.749  37.143  1.00  0.00     0.029 A 
ATOM     63  C   UNL A   1      41.035  31.975  36.111  1.00  0.00     0.049 A 
ATOM     64  H   UNL A   1      40.867  30.985  34.256  1.00  0.00     0.167 HD
ATOM     65  C   UNL A   1      39.155  33.140  34.981  1.00  0.00     0.074 A 
ATOM     66  C   UNL A   1      38.096  34.128  34.939  1.00  0.00     0.031 C 
ATOM     67  C   UNL A   1      39.970  32.946  36.048  1.00  0.00     0.031 A 
BRANCH  54  68
ATOM     68  C   UNL A   1      44.048  28.352  35.359  1.00  0.00    -0.014 A 
ATOM     69  C   UNL A   1      43.766  27.191  36.101  1.00  0.00     0.010 A 
ATOM     70  C   UNL A   1      45.391  28.710  35.136  1.00  0.00     0.010 A 
ATOM     71  C   UNL A   1      44.806  26.416  36.626  1.00  0.00     0.020 A 
ATOM     72  C   UNL A   1      46.433  27.925  35.636  1.00  0.00     0.020 A 
ATOM     73  C   UNL A   1      46.133  26.787  36.388  1.00  0.00     0.054 A 
BRANCH  73  74
ATOM     74  S   UNL A   1      47.460  25.738  37.041  1.00  0.00     0.124 S 
ATOM     75  O   UNL A   1      48.638  26.578  36.840  1.00  0.00    -0.237 OA
ATOM     76  O   UNL A   1      47.058  25.542  38.431  1.00  0.00    -0.237 OA
ATOM     77  O   UNL A   1      47.401  24.541  36.204  1.00  0.00    -0.744 OA
ENDBRANCH  73  74
ENDBRANCH  54  68
BRANCH  55  78
ATOM     78  C   UNL A   1      36.550  33.447  31.065  1.00  0.00    -0.014 A 
ATOM     79  C   UNL A   1      35.403  33.751  31.818  1.00  0.00     0.010 A 
ATOM     80  C   UNL A   1      36.602  33.841  29.715  1.00  0.00     0.010 A 
ATOM     81  C   UNL A   1      34.320  34.413  31.228  1.00  0.00     0.020 A 
ATOM     82  C   UNL A   1      35.536  34.531  29.129  1.00  0.00     0.020 A 
ATOM     83  C   UNL A   1      34.395  34.799  29.887  1.00  0.00     0.054 A 
BRANCH  83  84
ATOM     84  S   UNL A   1      32.993  35.685  29.151  1.00  0.00     0.124 S 
ATOM     85  O   UNL A   1      32.442  34.682  28.246  1.00  0.00    -0.237 OA
ATOM     86  O   UNL A   1      32.175  36.003  30.319  1.00  0.00    -0.237 OA
ATOM     87  O   UNL A   1      33.618  36.837  28.504  1.00  0.00    -0.744 OA
ENDBRANCH  83  84
ENDBRANCH  55  78
BRANCH  67  88
ATOM     88  C   UNL A   1      39.757  33.826  37.251  1.00  0.00    -0.014 A 
ATOM     89  C   UNL A   1      40.231  35.149  37.275  1.00  0.00     0.010 A 
ATOM     90  C   UNL A   1      39.018  33.341  38.347  1.00  0.00     0.010 A 
ATOM     91  C   UNL A   1      39.995  35.963  38.385  1.00  0.00     0.020 A 
ATOM     92  C   UNL A   1      38.752  34.163  39.444  1.00  0.00     0.020 A 
ATOM     93  C   UNL A   1      39.252  35.466  39.461  1.00  0.00     0.054 A 
BRANCH  93  94
ATOM     94  S   UNL A   1      38.914  36.563  40.864  1.00  0.00     0.124 S 
ATOM     95  O   UNL A   1      38.495  37.791  40.196  1.00  0.00    -0.237 OA
ATOM     96  O   UNL A   1      37.863  35.847  41.583  1.00  0.00    -0.237 OA
ATOM     97  O   UNL A   1      40.196  36.640  41.562  1.00  0.00    -0.744 OA
ENDBRANCH  93  94
ENDBRANCH  67  88
ENDBRANCH  41  42
ENDBRANCH  34  36
ENDBRANCH  33  34
ENDBRANCH  32  33
ENDBRANCH  31  32
ENDBRANCH   1  31
TORSDOF 21
ENDMDL
MODEL 2
REMARK VINA RESULT:     -11.6      6.254     12.194
REMARK SMILES Cc1ccnc(C(=O)c2[nH]c3ccc(C(C)(C)C)cc3c2CC(=O)OCCOCCOC(=O)c2ccc(-c3c4nc(c(-c5ccc(S(=O)(=O)[O-])cc5)c5ccc([nH]5)c(-c5ccc(S(=O)(=O)[O-])cc5)c5nc(c(-c6ccc(S(=O)(=O)[O-])cc6)c6ccc3[nH]6)C=C5)C=C4)cc2)c1
REMARK SMILES IDX 28 1 27 2 26 3 25 4 23 5 24 6 22 7 21 8 9 9 10 10 11 11
REMARK SMILES IDX 20 13 12 14 19 15 13 16 14 17 7 18 8 19 6 20 1 21 2 22 3 23
REMARK SMILES IDX 94 24 4 25 5 26 15 27 16 28 17 29 18 30 29 31 30 32 31 33
REMARK SMILES IDX 32 34 33 35 34 36 35 37 93 38 36 39 92 40 37 41 38 42 39 43
REMARK SMILES IDX 86 44 40 45 91 46 85 47 87 48 41 49 90 50 84 51 83 52 42 54
REMARK SMILES IDX 72 55 53 56 71 57 54 58 57 59 70 60 88 61 55 62 56 63 69 65
REMARK SMILES IDX 89 66 58 67 43 68 44 69 52 70 45 71 51 72 46 73 47 74 48 75
REMARK SMILES IDX 49 76 50 77 73 78 74 79 82 80 75 81 81 82 76 83 77 84 78 85
REMARK SMILES IDX 79 86 80 87 59 88 60 89 68 90 61 91 67 92 62 93 63 94 64 95
REMARK SMILES IDX 65 96 66 97
REMARK H PARENT 10 12 87 53 57 64
REMARK Flexibility Score: inf
ROOT
ATOM      1  O   UNL A   1      34.670  31.779  27.317  1.00  0.00    -0.374 OA
ENDROOT
BRANCH   1   2
ATOM      2  C   UNL A   1      33.962  30.545  27.434  1.00  0.00     0.202 C 
BRANCH   2   3
ATOM      3  C   UNL A   1      32.543  30.464  26.857  1.00  0.00     0.261 C 
BRANCH   3   4
ATOM      4  O   UNL A   1      32.349  29.344  25.966  1.00  0.00    -0.463 OA
BRANCH   4   5
ATOM      5  C   UNL A   1      31.671  28.291  26.497  1.00  0.00     0.310 C 
ATOM      6  O   UNL A   1      31.924  27.793  27.594  1.00  0.00    -0.252 OA
BRANCH   5   7
ATOM      7  C   UNL A   1      30.605  27.689  25.611  1.00  0.00     0.161 C 
BRANCH   7   8
ATOM      8  C   UNL A   1      30.887  27.497  24.143  1.00  0.00     0.000 A 
ATOM      9  C   UNL A   1      30.077  27.846  23.059  1.00  0.00     0.093 A 
ATOM     10  N   UNL A   1      30.772  27.487  21.919  1.00  0.00    -0.352 N 
ATOM     11  C   UNL A   1      31.811  26.643  22.240  1.00  0.00     0.046 A 
ATOM     12  H   UNL A   1      30.555  27.790  21.009  1.00  0.00     0.167 HD
ATOM     13  C   UNL A   1      31.922  26.657  23.623  1.00  0.00     0.004 A 
ATOM     14  C   UNL A   1      32.647  25.863  21.434  1.00  0.00     0.027 A 
ATOM     15  C   UNL A   1      32.889  25.832  24.230  1.00  0.00     0.015 A 
ATOM     16  C   UNL A   1      33.554  24.999  22.073  1.00  0.00     0.006 A 
ATOM     17  C   UNL A   1      33.671  24.940  23.470  1.00  0.00    -0.042 A 
BRANCH   9  18
ATOM     18  C   UNL A   1      28.759  28.469  23.117  1.00  0.00     0.227 C 
ATOM     19  O   UNL A   1      27.777  27.863  23.545  1.00  0.00    -0.285 OA
BRANCH  18  20
ATOM     20  C   UNL A   1      28.516  29.844  22.584  1.00  0.00     0.113 A 
ATOM     21  C   UNL A   1      29.278  33.467  23.373  1.00  0.00     0.044 C 
ATOM     22  C   UNL A   1      28.829  32.221  22.673  1.00  0.00    -0.047 A 
ATOM     23  C   UNL A   1      28.454  32.273  21.328  1.00  0.00     0.023 A 
ATOM     24  C   UNL A   1      28.869  30.976  23.312  1.00  0.00     0.036 A 
ATOM     25  C   UNL A   1      28.097  31.098  20.688  1.00  0.00     0.112 A 
ATOM     26  N   UNL A   1      28.106  29.893  21.288  1.00  0.00    -0.253 NA
ENDBRANCH  18  20
ENDBRANCH   9  18
BRANCH  17  27
ATOM     27  C   UNL A   1      34.548  23.913  24.211  1.00  0.00    -0.013 C 
ATOM     28  C   UNL A   1      33.679  22.742  24.717  1.00  0.00     0.016 C 
ATOM     29  C   UNL A   1      35.614  23.365  23.231  1.00  0.00     0.016 C 
ATOM     30  C   UNL A   1      35.308  24.490  25.423  1.00  0.00     0.016 C 
ENDBRANCH  17  27
ENDBRANCH   7   8
ENDBRANCH   5   7
ENDBRANCH   4   5
ENDBRANCH   3   4
ENDBRANCH   2   3
ENDBRANCH   1   2
BRANCH   1  31
ATOM     31  C   UNL A   1      34.467  32.737  28.353  1.00  0.00     0.202 C 
BRANCH  31  32
ATOM     32  C   UNL A   1      34.956  32.371  29.762  1.00  0.00     0.261 C 
BRANCH  32  33
ATOM     33  O   UNL A   1      36.368  32.126  29.833  1.00  0.00    -0.460 OA
BRANCH  33  34
ATOM     34  C   UNL A   1      36.714  31.079  30.620  1.00  0.00     0.338 C 
ATOM     35  O   UNL A   1      36.062  30.578  31.526  1.00  0.00    -0.246 OA
BRANCH  34  36
ATOM     36  C   UNL A   1      37.965  30.486  30.123  1.00  0.00     0.060 A 
ATOM     37  C   UNL A   1      38.918  30.093  31.071  1.00  0.00     0.016 A 
ATOM     38  C   UNL A   1      38.214  30.350  28.756  1.00  0.00     0.016 A 
ATOM     39  C   UNL A   1      40.140  29.573  30.652  1.00  0.00     0.010 A 
ATOM     40  C   UNL A   1      39.446  29.842  28.338  1.00  0.00     0.010 A 
ATOM     41  C   UNL A   1      40.419  29.470  29.283  1.00  0.00    -0.014 A 
BRANCH  41  42
ATOM     42  C   UNL A   1      41.769  29.055  28.840  1.00  0.00     0.031 A 
ATOM     43  C   UNL A   1      42.866  30.079  28.784  1.00  0.00     0.074 A 
ATOM     44  C   UNL A   1      42.001  27.774  28.504  1.00  0.00     0.049 A 
ATOM     45  N   UNL A   1      44.105  29.940  28.390  1.00  0.00    -0.248 NA
ATOM     46  C   UNL A   1      42.524  31.440  29.230  1.00  0.00     0.031 C 
ATOM     47  C   UNL A   1      41.015  26.693  28.566  1.00  0.00     0.029 A 
ATOM     48  N   UNL A   1      43.138  27.163  28.040  1.00  0.00    -0.354 N 
ATOM     49  C   UNL A   1      44.687  31.195  28.528  1.00  0.00     0.074 A 
ATOM     50  C   UNL A   1      43.662  32.088  29.023  1.00  0.00     0.031 C 
ATOM     51  C   UNL A   1      41.592  25.552  28.151  1.00  0.00     0.029 A 
ATOM     52  C   UNL A   1      42.970  25.829  27.756  1.00  0.00     0.049 A 
ATOM     53  H   UNL A   1      43.994  27.637  27.922  1.00  0.00     0.167 HD
ATOM     54  C   UNL A   1      45.962  31.565  28.262  1.00  0.00     0.031 A 
ATOM     55  C   UNL A   1      43.826  24.941  27.213  1.00  0.00     0.031 A 
ATOM     56  C   UNL A   1      46.965  30.665  27.757  1.00  0.00     0.049 A 
ATOM     57  C   UNL A   1      45.214  25.401  26.849  1.00  0.00     0.074 A 
ATOM     58  C   UNL A   1      48.296  30.928  27.482  1.00  0.00     0.029 A 
ATOM     59  N   UNL A   1      46.746  29.333  27.438  1.00  0.00    -0.354 N 
ATOM     60  N   UNL A   1      45.764  26.580  27.026  1.00  0.00    -0.248 NA
ATOM     61  C   UNL A   1      46.095  24.414  26.211  1.00  0.00     0.031 C 
ATOM     62  C   UNL A   1      48.862  29.775  26.930  1.00  0.00     0.029 A 
ATOM     63  C   UNL A   1      47.904  28.773  26.926  1.00  0.00     0.049 A 
ATOM     64  H   UNL A   1      45.894  28.856  27.558  1.00  0.00     0.167 HD
ATOM     65  C   UNL A   1      47.062  26.469  26.540  1.00  0.00     0.074 A 
ATOM     66  C   UNL A   1      47.221  25.103  26.084  1.00  0.00     0.031 C 
ATOM     67  C   UNL A   1      48.036  27.411  26.472  1.00  0.00     0.031 A 
BRANCH  54  68
ATOM     68  C   UNL A   1      46.337  33.009  28.468  1.00  0.00    -0.014 A 
ATOM     69  C   UNL A   1      46.868  33.463  29.688  1.00  0.00     0.010 A 
ATOM     70  C   UNL A   1      46.214  33.915  27.398  1.00  0.00     0.010 A 
ATOM     71  C   UNL A   1      47.248  34.800  29.841  1.00  0.00     0.020 A 
ATOM     72  C   UNL A   1      46.616  35.246  27.537  1.00  0.00     0.020 A 
ATOM     73  C   UNL A   1      47.122  35.683  28.763  1.00  0.00     0.054 A 
BRANCH  73  74
ATOM     74  S   UNL A   1      47.668  37.399  28.976  1.00  0.00     0.124 S 
ATOM     75  O   UNL A   1      48.479  37.311  30.187  1.00  0.00    -0.237 OA
ATOM     76  O   UNL A   1      48.407  37.655  27.742  1.00  0.00    -0.237 OA
ATOM     77  O   UNL A   1      46.420  38.146  29.117  1.00  0.00    -0.744 OA
ENDBRANCH  73  74
ENDBRANCH  54  68
BRANCH  55  78
ATOM     78  C   UNL A   1      43.391  23.541  26.948  1.00  0.00    -0.014 A 
ATOM     79  C   UNL A   1      43.181  23.091  25.634  1.00  0.00     0.010 A 
ATOM     80  C   UNL A   1      43.169  22.652  28.016  1.00  0.00     0.010 A 
ATOM     81  C   UNL A   1      42.735  21.786  25.393  1.00  0.00     0.020 A 
ATOM     82  C   UNL A   1      42.754  21.338  27.780  1.00  0.00     0.020 A 
ATOM     83  C   UNL A   1      42.525  20.919  26.469  1.00  0.00     0.054 A 
BRANCH  83  84
ATOM     84  S   UNL A   1      41.978  19.221  26.131  1.00  0.00     0.124 S 
ATOM     85  O   UNL A   1      42.764  18.879  24.950  1.00  0.00    -0.237 OA
ATOM     86  O   UNL A   1      42.344  18.523  27.360  1.00  0.00    -0.237 OA
ATOM     87  O   UNL A   1      40.541  19.363  25.909  1.00  0.00    -0.744 OA
ENDBRANCH  83  84
ENDBRANCH  55  78
BRANCH  67  88
ATOM     88  C   UNL A   1      49.363  26.994  25.896  1.00  0.00    -0.014 A 
ATOM     89  C   UNL A   1      49.654  27.180  24.533  1.00  0.00     0.010 A 
ATOM     90  C   UNL A   1      50.356  26.467  26.744  1.00  0.00     0.010 A 
ATOM     91  C   UNL A   1      50.903  26.821  24.023  1.00  0.00     0.020 A 
ATOM     92  C   UNL A   1      51.617  26.137  26.244  1.00  0.00     0.020 A 
ATOM     93  C   UNL A   1      51.879  26.305  24.882  1.00  0.00     0.054 A 
BRANCH  93  94
ATOM     94  S   UNL A   1      53.509  25.899  24.202  1.00  0.00     0.124 S 
ATOM     95  O   UNL A   1      53.268  25.979  22.765  1.00  0.00    -0.237 OA
ATOM     96  O   UNL A   1      54.358  26.950  24.758  1.00  0.00    -0.237 OA
ATOM     97  O   UNL A   1      53.775  24.557  24.715  1.00  0.00    -0.744 OA
ENDBRANCH  93  94
ENDBRANCH  67  88
ENDBRANCH  41  42
ENDBRANCH  34  36
ENDBRANCH  33  34
ENDBRANCH  32  33
ENDBRANCH  31  32
ENDBRANCH   1  31
TORSDOF 21
ENDMDL
MODEL 3
REMARK VINA RESULT:     -11.6      1.443      7.995
REMARK SMILES Cc1ccnc(C(=O)c2[nH]c3ccc(C(C)(C)C)cc3c2CC(=O)OCCOCCOC(=O)c2ccc(-c3c4nc(c(-c5ccc(S(=O)(=O)[O-])cc5)c5ccc([nH]5)c(-c5ccc(S(=O)(=O)[O-])cc5)c5nc(c(-c6ccc(S(=O)(=O)[O-])cc6)c6ccc3[nH]6)C=C5)C=C4)cc2)c1
REMARK SMILES IDX 28 1 27 2 26 3 25 4 23 5 24 6 22 7 21 8 9 9 10 10 11 11
REMARK SMILES IDX 20 13 12 14 19 15 13 16 14 17 7 18 8 19 6 20 1 21 2 22 3 23
REMARK SMILES IDX 94 24 4 25 5 26 15 27 16 28 17 29 18 30 29 31 30 32 31 33
REMARK SMILES IDX 32 34 33 35 34 36 35 37 93 38 36 39 92 40 37 41 38 42 39 43
REMARK SMILES IDX 86 44 40 45 91 46 85 47 87 48 41 49 90 50 84 51 83 52 42 54
REMARK SMILES IDX 72 55 53 56 71 57 54 58 57 59 70 60 88 61 55 62 56 63 69 65
REMARK SMILES IDX 89 66 58 67 43 68 44 69 52 70 45 71 51 72 46 73 47 74 48 75
REMARK SMILES IDX 49 76 50 77 73 78 74 79 82 80 75 81 81 82 76 83 77 84 78 85
REMARK SMILES IDX 79 86 80 87 59 88 60 89 68 90 61 91 67 92 62 93 63 94 64 95
REMARK SMILES IDX 65 96 66 97
REMARK H PARENT 10 12 87 53 57 64
REMARK Flexibility Score: inf
ROOT
ATOM      1  O   UNL A   1      38.665  22.691  26.246  1.00  0.00    -0.374 OA
ENDROOT
BRANCH   1   2
ATOM      2  C   UNL A   1      38.254  21.635  25.377  1.00  0.00     0.202 C 
BRANCH   2   3
ATOM      3  C   UNL A   1      36.868  21.727  24.726  1.00  0.00     0.261 C 
BRANCH   3   4
ATOM      4  O   UNL A   1      36.742  22.826  23.797  1.00  0.00    -0.463 OA
BRANCH   4   5
ATOM      5  C   UNL A   1      35.616  23.576  23.936  1.00  0.00     0.310 C 
ATOM      6  O   UNL A   1      34.911  23.937  22.994  1.00  0.00    -0.252 OA
BRANCH   5   7
ATOM      7  C   UNL A   1      35.305  24.030  25.343  1.00  0.00     0.161 C 
BRANCH   7   8
ATOM      8  C   UNL A   1      33.875  24.036  25.818  1.00  0.00     0.000 A 
ATOM      9  C   UNL A   1      33.060  22.938  26.108  1.00  0.00     0.093 A 
ATOM     10  N   UNL A   1      31.845  23.450  26.520  1.00  0.00    -0.352 N 
ATOM     11  C   UNL A   1      31.751  24.783  26.189  1.00  0.00     0.046 A 
ATOM     12  H   UNL A   1      31.145  22.935  26.984  1.00  0.00     0.167 HD
ATOM     13  C   UNL A   1      33.015  25.179  25.776  1.00  0.00     0.004 A 
ATOM     14  C   UNL A   1      30.663  25.661  26.204  1.00  0.00     0.027 A 
ATOM     15  C   UNL A   1      33.193  26.502  25.329  1.00  0.00     0.015 A 
ATOM     16  C   UNL A   1      30.858  26.955  25.687  1.00  0.00     0.006 A 
ATOM     17  C   UNL A   1      32.105  27.389  25.211  1.00  0.00    -0.042 A 
BRANCH   9  18
ATOM     18  C   UNL A   1      33.422  21.528  26.001  1.00  0.00     0.227 C 
ATOM     19  O   UNL A   1      34.009  20.942  26.911  1.00  0.00    -0.285 OA
BRANCH  18  20
ATOM     20  C   UNL A   1      33.174  20.745  24.753  1.00  0.00     0.113 A 
ATOM     21  C   UNL A   1      33.159  17.177  23.488  1.00  0.00     0.044 C 
ATOM     22  C   UNL A   1      32.979  18.662  23.579  1.00  0.00    -0.047 A 
ATOM     23  C   UNL A   1      32.255  19.338  22.594  1.00  0.00     0.023 A 
ATOM     24  C   UNL A   1      33.442  19.381  24.688  1.00  0.00     0.036 A 
ATOM     25  C   UNL A   1      32.055  20.702  22.731  1.00  0.00     0.112 A 
ATOM     26  N   UNL A   1      32.509  21.418  23.776  1.00  0.00    -0.253 NA
ENDBRANCH  18  20
ENDBRANCH   9  18
BRANCH  17  27
ATOM     27  C   UNL A   1      32.327  28.742  24.511  1.00  0.00    -0.013 C 
ATOM     28  C   UNL A   1      33.493  28.633  23.506  1.00  0.00     0.016 C 
ATOM     29  C   UNL A   1      31.036  29.130  23.750  1.00  0.00     0.016 C 
ATOM     30  C   UNL A   1      32.647  29.905  25.473  1.00  0.00     0.016 C 
ENDBRANCH  17  27
ENDBRANCH   7   8
ENDBRANCH   5   7
ENDBRANCH   4   5
ENDBRANCH   3   4
ENDBRANCH   2   3
ENDBRANCH   1   2
BRANCH   1  31
ATOM     31  C   UNL A   1      40.005  22.641  26.728  1.00  0.00     0.202 C 
BRANCH  31  32
ATOM     32  C   UNL A   1      40.560  23.901  27.408  1.00  0.00     0.261 C 
BRANCH  32  33
ATOM     33  O   UNL A   1      39.672  25.027  27.343  1.00  0.00    -0.460 OA
BRANCH  33  34
ATOM     34  C   UNL A   1      40.291  26.216  27.149  1.00  0.00     0.338 C 
ATOM     35  O   UNL A   1      40.764  26.651  26.109  1.00  0.00    -0.246 OA
BRANCH  34  36
ATOM     36  C   UNL A   1      40.177  27.031  28.369  1.00  0.00     0.060 A 
ATOM     37  C   UNL A   1      41.010  28.151  28.480  1.00  0.00     0.016 A 
ATOM     38  C   UNL A   1      39.298  26.686  29.396  1.00  0.00     0.016 A 
ATOM     39  C   UNL A   1      40.978  28.927  29.635  1.00  0.00     0.010 A 
ATOM     40  C   UNL A   1      39.279  27.456  30.561  1.00  0.00     0.010 A 
ATOM     41  C   UNL A   1      40.131  28.568  30.691  1.00  0.00    -0.014 A 
BRANCH  41  42
ATOM     42  C   UNL A   1      40.203  29.306  31.973  1.00  0.00     0.031 A 
ATOM     43  C   UNL A   1      39.162  30.347  32.274  1.00  0.00     0.074 A 
ATOM     44  C   UNL A   1      41.183  29.033  32.852  1.00  0.00     0.049 A 
ATOM     45  N   UNL A   1      39.059  31.133  33.313  1.00  0.00    -0.248 NA
ATOM     46  C   UNL A   1      38.097  30.526  31.274  1.00  0.00     0.031 C 
ATOM     47  C   UNL A   1      42.216  28.011  32.673  1.00  0.00     0.029 A 
ATOM     48  N   UNL A   1      41.474  29.594  34.068  1.00  0.00    -0.354 N 
ATOM     49  C   UNL A   1      37.928  31.909  33.087  1.00  0.00     0.074 A 
ATOM     50  C   UNL A   1      37.389  31.513  31.805  1.00  0.00     0.031 C 
ATOM     51  C   UNL A   1      43.030  28.022  33.743  1.00  0.00     0.029 A 
ATOM     52  C   UNL A   1      42.602  29.076  34.659  1.00  0.00     0.049 A 
ATOM     53  H   UNL A   1      40.926  30.302  34.480  1.00  0.00     0.167 HD
ATOM     54  C   UNL A   1      37.392  32.865  33.882  1.00  0.00     0.031 A 
ATOM     55  C   UNL A   1      43.231  29.433  35.796  1.00  0.00     0.031 A 
ATOM     56  C   UNL A   1      37.949  33.255  35.150  1.00  0.00     0.049 A 
ATOM     57  C   UNL A   1      42.658  30.558  36.618  1.00  0.00     0.074 A 
ATOM     58  C   UNL A   1      37.469  34.191  36.049  1.00  0.00     0.029 A 
ATOM     59  N   UNL A   1      39.118  32.740  35.693  1.00  0.00    -0.354 N 
ATOM     60  N   UNL A   1      41.564  31.253  36.415  1.00  0.00    -0.248 NA
ATOM     61  C   UNL A   1      43.406  30.949  37.821  1.00  0.00     0.031 C 
ATOM     62  C   UNL A   1      38.386  34.293  37.100  1.00  0.00     0.029 A 
ATOM     63  C   UNL A   1      39.400  33.372  36.892  1.00  0.00     0.049 A 
ATOM     64  H   UNL A   1      39.666  32.031  35.286  1.00  0.00     0.167 HD
ATOM     65  C   UNL A   1      41.481  32.149  37.475  1.00  0.00     0.074 A 
ATOM     66  C   UNL A   1      42.623  31.891  38.329  1.00  0.00     0.031 C 
ATOM     67  C   UNL A   1      40.548  33.102  37.722  1.00  0.00     0.031 A 
BRANCH  54  68
ATOM     68  C   UNL A   1      36.167  33.590  33.388  1.00  0.00    -0.014 A 
ATOM     69  C   UNL A   1      34.881  33.040  33.533  1.00  0.00     0.010 A 
ATOM     70  C   UNL A   1      36.302  34.873  32.825  1.00  0.00     0.010 A 
ATOM     71  C   UNL A   1      33.755  33.751  33.105  1.00  0.00     0.020 A 
ATOM     72  C   UNL A   1      35.179  35.598  32.420  1.00  0.00     0.020 A 
ATOM     73  C   UNL A   1      33.911  35.027  32.553  1.00  0.00     0.054 A 
BRANCH  73  74
ATOM     74  S   UNL A   1      32.430  35.945  32.050  1.00  0.00     0.124 S 
ATOM     75  O   UNL A   1      31.364  35.162  32.670  1.00  0.00    -0.237 OA
ATOM     76  O   UNL A   1      32.659  37.265  32.632  1.00  0.00    -0.237 OA
ATOM     77  O   UNL A   1      32.468  35.895  30.590  1.00  0.00    -0.744 OA
ENDBRANCH  73  74
ENDBRANCH  54  68
BRANCH  55  78
ATOM     78  C   UNL A   1      44.487  28.747  36.208  1.00  0.00    -0.014 A 
ATOM     79  C   UNL A   1      44.449  27.617  37.043  1.00  0.00     0.010 A 
ATOM     80  C   UNL A   1      45.736  29.231  35.776  1.00  0.00     0.010 A 
ATOM     81  C   UNL A   1      45.634  27.000  37.458  1.00  0.00     0.020 A 
ATOM     82  C   UNL A   1      46.922  28.599  36.161  1.00  0.00     0.020 A 
ATOM     83  C   UNL A   1      46.863  27.495  37.013  1.00  0.00     0.054 A 
BRANCH  83  84
ATOM     84  S   UNL A   1      48.385  26.658  37.537  1.00  0.00     0.124 S 
ATOM     85  O   UNL A   1      49.019  27.676  38.369  1.00  0.00    -0.237 OA
ATOM     86  O   UNL A   1      47.873  25.489  38.246  1.00  0.00    -0.237 OA
ATOM     87  O   UNL A   1      49.066  26.366  36.277  1.00  0.00    -0.744 OA
ENDBRANCH  83  84
ENDBRANCH  55  78
BRANCH  67  88
ATOM     88  C   UNL A   1      40.715  33.928  38.970  1.00  0.00    -0.014 A 
ATOM     89  C   UNL A   1      41.414  35.147  38.945  1.00  0.00     0.010 A 
ATOM     90  C   UNL A   1      40.110  33.507  40.169  1.00  0.00     0.010 A 
ATOM     91  C   UNL A   1      41.529  35.918  40.104  1.00  0.00     0.020 A 
ATOM     92  C   UNL A   1      40.195  34.291  41.321  1.00  0.00     0.020 A 
ATOM     93  C   UNL A   1      40.915  35.487  41.284  1.00  0.00     0.054 A 
BRANCH  93  94
ATOM     94  S   UNL A   1      41.035  36.535  42.759  1.00  0.00     0.124 S 
ATOM     95  O   UNL A   1      41.961  37.574  42.320  1.00  0.00    -0.237 OA
ATOM     96  O   UNL A   1      39.653  36.967  42.957  1.00  0.00    -0.237 OA
ATOM     97  O   UNL A   1      41.552  35.633  43.785  1.00  0.00    -0.744 OA
ENDBRANCH  93  94
ENDBRANCH  67  88
ENDBRANCH  41  42
ENDBRANCH  34  36
ENDBRANCH  33  34
ENDBRANCH  32  33
ENDBRANCH  31  32
ENDBRANCH   1  31
TORSDOF 21
ENDMDL
