MODEL 1
REMARK VINA RESULT:      -9.1      0.000      0.000
REMARK SMILES Cc1cccc(C(=O)[C@H](C)[C@@H](C)C(=O)OCCOCCOC(=O)c2ccc(-c3c4nc(c(-c5ccc(S(=O)(=O)[O-])cc5)c5ccc([nH]5)c(-c5ccc(S(=O)(=O)[O-])cc5)c5nc(c(-c6ccc(S(=O)(=O)[O-])cc6)c6ccc3[nH]6)C=C5)C=C4)cc2)c1C
REMARK SMILES IDX 18 1 17 2 16 3 15 4 13 5 14 6 11 7 12 8 9 9 10 10 7 11 8 12
REMARK SMILES IDX 6 13 1 14 2 15 3 16 84 17 4 18 85 19 5 20 19 21 20 22 21 23
REMARK SMILES IDX 22 24 23 25 24 26 25 27 83 28 26 29 82 30 27 31 28 32 29 33
REMARK SMILES IDX 76 34 30 35 81 36 75 37 77 38 31 39 80 40 74 41 73 42 32 44
REMARK SMILES IDX 62 45 43 46 61 47 44 48 47 49 60 50 78 51 45 52 46 53 59 55
REMARK SMILES IDX 79 56 48 57 33 58 34 59 42 60 35 61 41 62 36 63 37 64 38 65
REMARK SMILES IDX 39 66 40 67 63 68 64 69 72 70 65 71 71 72 66 73 67 74 68 75
REMARK SMILES IDX 69 76 70 77 49 78 50 79 58 80 51 81 57 82 52 83 53 84 54 85
REMARK SMILES IDX 55 86 56 87
REMARK H PARENT 77 43 47 54
REMARK Flexibility Score: inf
ROOT
ATOM      1  O   UNL A   1      33.956  35.433  29.179  1.00  0.00    -0.374 OA
ENDROOT
BRANCH   1   2
ATOM      2  C   UNL A   1      32.908  36.205  29.753  1.00  0.00     0.202 C 
BRANCH   2   3
ATOM      3  C   UNL A   1      32.783  36.178  31.281  1.00  0.00     0.261 C 
BRANCH   3   4
ATOM      4  O   UNL A   1      33.286  34.996  31.930  1.00  0.00    -0.463 OA
BRANCH   4   5
ATOM      5  C   UNL A   1      34.451  35.178  32.616  1.00  0.00     0.309 C 
ATOM      6  O   UNL A   1      34.790  36.234  33.141  1.00  0.00    -0.252 OA
BRANCH   5   7
ATOM      7  C   UNL A   1      35.394  33.984  32.528  1.00  0.00     0.106 C 
ATOM      8  C   UNL A   1      34.529  32.746  32.796  1.00  0.00     0.021 C 
BRANCH   7   9
ATOM      9  C   UNL A   1      36.656  34.049  33.435  1.00  0.00     0.072 C 
ATOM     10  C   UNL A   1      36.415  33.349  34.779  1.00  0.00     0.017 C 
BRANCH   9  11
ATOM     11  C   UNL A   1      37.853  33.351  32.771  1.00  0.00     0.166 C 
ATOM     12  O   UNL A   1      38.378  32.387  33.328  1.00  0.00    -0.294 OA
BRANCH  11  13
ATOM     13  C   UNL A   1      38.382  33.845  31.436  1.00  0.00     0.021 A 
ATOM     14  C   UNL A   1      41.683  34.939  29.791  1.00  0.00     0.044 C 
ATOM     15  C   UNL A   1      40.234  34.586  30.016  1.00  0.00    -0.047 A 
ATOM     16  C   UNL A   1      39.418  34.435  28.888  1.00  0.00     0.004 A 
ATOM     17  C   UNL A   1      39.681  34.411  31.309  1.00  0.00    -0.037 A 
ATOM     18  C   UNL A   1      38.095  34.037  29.024  1.00  0.00     0.001 A 
ATOM     19  C   UNL A   1      40.477  34.840  32.519  1.00  0.00     0.045 C 
ATOM     20  C   UNL A   1      37.598  33.697  30.279  1.00  0.00     0.012 A 
ENDBRANCH  11  13
ENDBRANCH   9  11
ENDBRANCH   7   9
ENDBRANCH   5   7
ENDBRANCH   4   5
ENDBRANCH   3   4
ENDBRANCH   2   3
ENDBRANCH   1   2
BRANCH   1  21
ATOM     21  C   UNL A   1      33.592  34.183  28.586  1.00  0.00     0.202 C 
BRANCH  21  22
ATOM     22  C   UNL A   1      34.768  33.337  28.095  1.00  0.00     0.261 C 
BRANCH  22  23
ATOM     23  O   UNL A   1      34.990  32.219  28.973  1.00  0.00    -0.460 OA
BRANCH  23  24
ATOM     24  C   UNL A   1      34.824  31.022  28.372  1.00  0.00     0.338 C 
ATOM     25  O   UNL A   1      33.874  30.672  27.676  1.00  0.00    -0.246 OA
BRANCH  24  26
ATOM     26  C   UNL A   1      36.031  30.203  28.539  1.00  0.00     0.060 A 
ATOM     27  C   UNL A   1      36.319  29.665  29.796  1.00  0.00     0.016 A 
ATOM     28  C   UNL A   1      36.952  30.093  27.500  1.00  0.00     0.016 A 
ATOM     29  C   UNL A   1      37.565  29.073  30.027  1.00  0.00     0.010 A 
ATOM     30  C   UNL A   1      38.185  29.473  27.721  1.00  0.00     0.010 A 
ATOM     31  C   UNL A   1      38.522  29.010  29.003  1.00  0.00    -0.014 A 
BRANCH  31  32
ATOM     32  C   UNL A   1      39.918  28.591  29.294  1.00  0.00     0.031 A 
ATOM     33  C   UNL A   1      40.843  29.536  30.021  1.00  0.00     0.074 A 
ATOM     34  C   UNL A   1      40.367  27.382  28.907  1.00  0.00     0.049 A 
ATOM     35  N   UNL A   1      42.097  29.372  30.359  1.00  0.00    -0.248 NA
ATOM     36  C   UNL A   1      40.287  30.845  30.403  1.00  0.00     0.031 C 
ATOM     37  C   UNL A   1      39.585  26.382  28.180  1.00  0.00     0.029 A 
ATOM     38  N   UNL A   1      41.596  26.793  29.072  1.00  0.00    -0.354 N 
ATOM     39  C   UNL A   1      42.485  30.561  30.968  1.00  0.00     0.074 A 
ATOM     40  C   UNL A   1      41.345  31.449  30.923  1.00  0.00     0.031 C 
ATOM     41  C   UNL A   1      40.351  25.298  27.969  1.00  0.00     0.029 A 
ATOM     42  C   UNL A   1      41.681  25.534  28.528  1.00  0.00     0.049 A 
ATOM     43  H   UNL A   1      42.346  27.232  29.534  1.00  0.00     0.167 HD
ATOM     44  C   UNL A   1      43.677  30.882  31.529  1.00  0.00     0.031 A 
ATOM     45  C   UNL A   1      42.711  24.666  28.488  1.00  0.00     0.031 A 
ATOM     46  C   UNL A   1      44.804  29.992  31.599  1.00  0.00     0.049 A 
ATOM     47  C   UNL A   1      44.016  25.030  29.140  1.00  0.00     0.074 A 
ATOM     48  C   UNL A   1      46.036  30.206  32.195  1.00  0.00     0.029 A 
ATOM     49  N   UNL A   1      44.836  28.715  31.063  1.00  0.00    -0.354 N 
ATOM     50  N   UNL A   1      44.346  26.141  29.755  1.00  0.00    -0.248 NA
ATOM     51  C   UNL A   1      45.079  24.015  29.111  1.00  0.00     0.031 C 
ATOM     52  C   UNL A   1      46.825  29.069  31.988  1.00  0.00     0.029 A 
ATOM     53  C   UNL A   1      46.069  28.132  31.303  1.00  0.00     0.049 A 
ATOM     54  H   UNL A   1      44.092  28.285  30.581  1.00  0.00     0.167 HD
ATOM     55  C   UNL A   1      45.648  25.949  30.208  1.00  0.00     0.074 A 
ATOM     56  C   UNL A   1      46.040  24.614  29.804  1.00  0.00     0.031 C 
ATOM     57  C   UNL A   1      46.444  26.801  30.898  1.00  0.00     0.031 A 
BRANCH  44  58
ATOM     58  C   UNL A   1      43.822  32.266  32.108  1.00  0.00    -0.014 A 
ATOM     59  C   UNL A   1      43.413  32.550  33.423  1.00  0.00     0.010 A 
ATOM     60  C   UNL A   1      44.402  33.289  31.336  1.00  0.00     0.010 A 
ATOM     61  C   UNL A   1      43.536  33.844  33.938  1.00  0.00     0.020 A 
ATOM     62  C   UNL A   1      44.550  34.578  31.856  1.00  0.00     0.020 A 
ATOM     63  C   UNL A   1      44.096  34.851  33.149  1.00  0.00     0.054 A 
BRANCH  63  64
ATOM     64  S   UNL A   1      44.252  36.522  33.840  1.00  0.00     0.124 S 
ATOM     65  O   UNL A   1      45.628  36.864  33.487  1.00  0.00    -0.237 OA
ATOM     66  O   UNL A   1      43.218  37.265  33.125  1.00  0.00    -0.237 OA
ATOM     67  O   UNL A   1      44.004  36.330  35.267  1.00  0.00    -0.744 OA
ENDBRANCH  63  64
ENDBRANCH  44  58
BRANCH  45  68
ATOM     68  C   UNL A   1      42.532  23.348  27.822  1.00  0.00    -0.014 A 
ATOM     69  C   UNL A   1      43.056  23.124  26.537  1.00  0.00     0.010 A 
ATOM     70  C   UNL A   1      41.868  22.301  28.486  1.00  0.00     0.010 A 
ATOM     71  C   UNL A   1      42.916  21.875  25.925  1.00  0.00     0.020 A 
ATOM     72  C   UNL A   1      41.744  21.045  27.885  1.00  0.00     0.020 A 
ATOM     73  C   UNL A   1      42.264  20.842  26.605  1.00  0.00     0.054 A 
BRANCH  73  74
ATOM     74  S   UNL A   1      42.163  19.206  25.828  1.00  0.00     0.124 S 
ATOM     75  O   UNL A   1      40.730  19.076  25.581  1.00  0.00    -0.237 OA
ATOM     76  O   UNL A   1      42.998  19.367  24.639  1.00  0.00    -0.237 OA
ATOM     77  O   UNL A   1      42.711  18.312  26.846  1.00  0.00    -0.744 OA
ENDBRANCH  73  74
ENDBRANCH  45  68
BRANCH  57  78
ATOM     78  C   UNL A   1      47.809  26.310  31.294  1.00  0.00    -0.014 A 
ATOM     79  C   UNL A   1      48.922  26.509  30.459  1.00  0.00     0.010 A 
ATOM     80  C   UNL A   1      47.989  25.696  32.547  1.00  0.00     0.010 A 
ATOM     81  C   UNL A   1      50.190  26.079  30.862  1.00  0.00     0.020 A 
ATOM     82  C   UNL A   1      49.258  25.282  32.960  1.00  0.00     0.020 A 
ATOM     83  C   UNL A   1      50.350  25.467  32.108  1.00  0.00     0.054 A 
BRANCH  83  84
ATOM     84  S   UNL A   1      52.011  24.959  32.631  1.00  0.00     0.124 S 
ATOM     85  O   UNL A   1      51.877  23.507  32.702  1.00  0.00    -0.237 OA
ATOM     86  O   UNL A   1      52.857  25.459  31.550  1.00  0.00    -0.237 OA
ATOM     87  O   UNL A   1      52.190  25.633  33.914  1.00  0.00    -0.744 OA
ENDBRANCH  83  84
ENDBRANCH  57  78
ENDBRANCH  31  32
ENDBRANCH  24  26
ENDBRANCH  23  24
ENDBRANCH  22  23
ENDBRANCH  21  22
ENDBRANCH   1  21
TORSDOF 20
ENDMDL
MODEL 2
REMARK VINA RESULT:      -8.9      1.298      2.273
REMARK SMILES Cc1cccc(C(=O)[C@H](C)[C@@H](C)C(=O)OCCOCCOC(=O)c2ccc(-c3c4nc(c(-c5ccc(S(=O)(=O)[O-])cc5)c5ccc([nH]5)c(-c5ccc(S(=O)(=O)[O-])cc5)c5nc(c(-c6ccc(S(=O)(=O)[O-])cc6)c6ccc3[nH]6)C=C5)C=C4)cc2)c1C
REMARK SMILES IDX 18 1 17 2 16 3 15 4 13 5 14 6 11 7 12 8 9 9 10 10 7 11 8 12
REMARK SMILES IDX 6 13 1 14 2 15 3 16 84 17 4 18 85 19 5 20 19 21 20 22 21 23
REMARK SMILES IDX 22 24 23 25 24 26 25 27 83 28 26 29 82 30 27 31 28 32 29 33
REMARK SMILES IDX 76 34 30 35 81 36 75 37 77 38 31 39 80 40 74 41 73 42 32 44
REMARK SMILES IDX 62 45 43 46 61 47 44 48 47 49 60 50 78 51 45 52 46 53 59 55
REMARK SMILES IDX 79 56 48 57 33 58 34 59 42 60 35 61 41 62 36 63 37 64 38 65
REMARK SMILES IDX 39 66 40 67 63 68 64 69 72 70 65 71 71 72 66 73 67 74 68 75
REMARK SMILES IDX 69 76 70 77 49 78 50 79 58 80 51 81 57 82 52 83 53 84 54 85
REMARK SMILES IDX 55 86 56 87
REMARK H PARENT 77 43 47 54
REMARK Flexibility Score: inf
ROOT
ATOM      1  O   UNL A   1      34.228  35.134  29.435  1.00  0.00    -0.374 OA
ENDROOT
BRANCH   1   2
ATOM      2  C   UNL A   1      33.488  35.263  30.644  1.00  0.00     0.202 C 
BRANCH   2   3
ATOM      3  C   UNL A   1      33.987  34.462  31.852  1.00  0.00     0.261 C 
BRANCH   3   4
ATOM      4  O   UNL A   1      35.177  34.963  32.488  1.00  0.00    -0.463 OA
BRANCH   4   5
ATOM      5  C   UNL A   1      36.260  34.139  32.395  1.00  0.00     0.309 C 
ATOM      6  O   UNL A   1      36.934  33.990  31.381  1.00  0.00    -0.252 OA
BRANCH   5   7
ATOM      7  C   UNL A   1      36.465  33.272  33.632  1.00  0.00     0.106 C 
ATOM      8  C   UNL A   1      35.721  33.983  34.769  1.00  0.00     0.021 C 
BRANCH   7   9
ATOM      9  C   UNL A   1      37.941  32.938  33.989  1.00  0.00     0.072 C 
ATOM     10  C   UNL A   1      38.523  33.963  34.972  1.00  0.00     0.017 C 
BRANCH   9  11
ATOM     11  C   UNL A   1      38.052  31.559  34.658  1.00  0.00     0.166 C 
ATOM     12  O   UNL A   1      37.692  31.421  35.826  1.00  0.00    -0.294 OA
BRANCH  11  13
ATOM     13  C   UNL A   1      38.601  30.375  33.880  1.00  0.00     0.021 A 
ATOM     14  C   UNL A   1      41.845  28.346  33.491  1.00  0.00     0.044 C 
ATOM     15  C   UNL A   1      40.425  28.831  33.347  1.00  0.00    -0.047 A 
ATOM     16  C   UNL A   1      39.512  27.990  32.700  1.00  0.00     0.004 A 
ATOM     17  C   UNL A   1      39.994  30.091  33.833  1.00  0.00    -0.037 A 
ATOM     18  C   UNL A   1      38.174  28.346  32.602  1.00  0.00     0.001 A 
ATOM     19  C   UNL A   1      41.022  31.104  34.278  1.00  0.00     0.045 C 
ATOM     20  C   UNL A   1      37.715  29.501  33.229  1.00  0.00     0.012 A 
ENDBRANCH  11  13
ENDBRANCH   9  11
ENDBRANCH   7   9
ENDBRANCH   5   7
ENDBRANCH   4   5
ENDBRANCH   3   4
ENDBRANCH   2   3
ENDBRANCH   1   2
BRANCH   1  21
ATOM     21  C   UNL A   1      33.677  34.283  28.425  1.00  0.00     0.202 C 
BRANCH  21  22
ATOM     22  C   UNL A   1      34.641  33.231  27.875  1.00  0.00     0.261 C 
BRANCH  22  23
ATOM     23  O   UNL A   1      34.706  32.094  28.756  1.00  0.00    -0.460 OA
BRANCH  23  24
ATOM     24  C   UNL A   1      34.629  30.911  28.112  1.00  0.00     0.338 C 
ATOM     25  O   UNL A   1      33.716  30.526  27.385  1.00  0.00    -0.246 OA
BRANCH  24  26
ATOM     26  C   UNL A   1      35.883  30.164  28.276  1.00  0.00     0.060 A 
ATOM     27  C   UNL A   1      36.151  29.549  29.502  1.00  0.00     0.016 A 
ATOM     28  C   UNL A   1      36.855  30.200  27.279  1.00  0.00     0.016 A 
ATOM     29  C   UNL A   1      37.425  29.027  29.750  1.00  0.00     0.010 A 
ATOM     30  C   UNL A   1      38.117  29.649  27.514  1.00  0.00     0.010 A 
ATOM     31  C   UNL A   1      38.429  29.109  28.772  1.00  0.00    -0.014 A 
BRANCH  31  32
ATOM     32  C   UNL A   1      39.837  28.764  29.101  1.00  0.00     0.031 A 
ATOM     33  C   UNL A   1      40.711  29.781  29.792  1.00  0.00     0.074 A 
ATOM     34  C   UNL A   1      40.341  27.557  28.779  1.00  0.00     0.049 A 
ATOM     35  N   UNL A   1      41.967  29.687  30.152  1.00  0.00    -0.248 NA
ATOM     36  C   UNL A   1      40.097  31.083  30.102  1.00  0.00     0.031 C 
ATOM     37  C   UNL A   1      39.611  26.492  28.093  1.00  0.00     0.029 A 
ATOM     38  N   UNL A   1      41.590  27.030  28.987  1.00  0.00    -0.354 N 
ATOM     39  C   UNL A   1      42.297  30.919  30.707  1.00  0.00     0.074 A 
ATOM     40  C   UNL A   1      41.122  31.756  30.604  1.00  0.00     0.031 C 
ATOM     41  C   UNL A   1      40.424  25.432  27.945  1.00  0.00     0.029 A 
ATOM     42  C   UNL A   1      41.735  25.750  28.507  1.00  0.00     0.049 A 
ATOM     43  H   UNL A   1      42.316  27.521  29.436  1.00  0.00     0.167 HD
ATOM     44  C   UNL A   1      43.466  31.317  31.265  1.00  0.00     0.031 A 
ATOM     45  C   UNL A   1      42.801  24.925  28.522  1.00  0.00     0.031 A 
ATOM     46  C   UNL A   1      44.628  30.479  31.393  1.00  0.00     0.049 A 
ATOM     47  C   UNL A   1      44.080  25.375  29.171  1.00  0.00     0.074 A 
ATOM     48  C   UNL A   1      45.842  30.774  31.991  1.00  0.00     0.029 A 
ATOM     49  N   UNL A   1      44.720  29.180  30.920  1.00  0.00    -0.354 N 
ATOM     50  N   UNL A   1      44.356  26.527  29.735  1.00  0.00    -0.248 NA
ATOM     51  C   UNL A   1      45.185  24.405  29.205  1.00  0.00     0.031 C 
ATOM     52  C   UNL A   1      46.679  29.662  31.851  1.00  0.00     0.029 A 
ATOM     53  C   UNL A   1      45.973  28.662  31.203  1.00  0.00     0.049 A 
ATOM     54  H   UNL A   1      44.002  28.697  30.451  1.00  0.00     0.167 HD
ATOM     55  C   UNL A   1      45.657  26.412  30.212  1.00  0.00     0.074 A 
ATOM     56  C   UNL A   1      46.110  25.077  29.878  1.00  0.00     0.031 C 
ATOM     57  C   UNL A   1      46.408  27.330  30.869  1.00  0.00     0.031 A 
BRANCH  44  58
ATOM     58  C   UNL A   1      43.546  32.732  31.777  1.00  0.00    -0.014 A 
ATOM     59  C   UNL A   1      43.337  33.026  33.137  1.00  0.00     0.010 A 
ATOM     60  C   UNL A   1      43.862  33.778  30.892  1.00  0.00     0.010 A 
ATOM     61  C   UNL A   1      43.395  34.346  33.592  1.00  0.00     0.020 A 
ATOM     62  C   UNL A   1      43.946  35.097  31.348  1.00  0.00     0.020 A 
ATOM     63  C   UNL A   1      43.691  35.375  32.693  1.00  0.00     0.054 A 
BRANCH  63  64
ATOM     64  S   UNL A   1      43.767  37.080  33.307  1.00  0.00     0.124 S 
ATOM     65  O   UNL A   1      45.011  37.066  34.075  1.00  0.00    -0.237 OA
ATOM     66  O   UNL A   1      43.799  37.866  32.076  1.00  0.00    -0.237 OA
ATOM     67  O   UNL A   1      42.548  37.217  34.099  1.00  0.00    -0.744 OA
ENDBRANCH  63  64
ENDBRANCH  44  58
BRANCH  45  68
ATOM     68  C   UNL A   1      42.686  23.570  27.920  1.00  0.00    -0.014 A 
ATOM     69  C   UNL A   1      42.016  22.542  28.605  1.00  0.00     0.010 A 
ATOM     70  C   UNL A   1      43.214  23.314  26.642  1.00  0.00     0.010 A 
ATOM     71  C   UNL A   1      41.880  21.277  28.025  1.00  0.00     0.020 A 
ATOM     72  C   UNL A   1      43.062  22.057  26.050  1.00  0.00     0.020 A 
ATOM     73  C   UNL A   1      42.401  21.044  26.748  1.00  0.00     0.054 A 
BRANCH  73  74
ATOM     74  S   UNL A   1      42.143  19.422  25.978  1.00  0.00     0.124 S 
ATOM     75  O   UNL A   1      42.956  19.527  24.770  1.00  0.00    -0.237 OA
ATOM     76  O   UNL A   1      42.643  18.503  26.999  1.00  0.00    -0.237 OA
ATOM     77  O   UNL A   1      40.699  19.374  25.763  1.00  0.00    -0.744 OA
ENDBRANCH  73  74
ENDBRANCH  45  68
BRANCH  57  78
ATOM     78  C   UNL A   1      47.787  26.917  31.305  1.00  0.00    -0.014 A 
ATOM     79  C   UNL A   1      48.923  27.287  30.566  1.00  0.00     0.010 A 
ATOM     80  C   UNL A   1      47.949  26.199  32.504  1.00  0.00     0.010 A 
ATOM     81  C   UNL A   1      50.199  26.925  31.007  1.00  0.00     0.020 A 
ATOM     82  C   UNL A   1      49.224  25.853  32.958  1.00  0.00     0.020 A 
ATOM     83  C   UNL A   1      50.342  26.209  32.199  1.00  0.00     0.054 A 
BRANCH  83  84
ATOM     84  S   UNL A   1      52.009  25.791  32.778  1.00  0.00     0.124 S 
ATOM     85  O   UNL A   1      52.711  27.063  32.626  1.00  0.00    -0.237 OA
ATOM     86  O   UNL A   1      51.776  25.364  34.156  1.00  0.00    -0.237 OA
ATOM     87  O   UNL A   1      52.435  24.730  31.869  1.00  0.00    -0.744 OA
ENDBRANCH  83  84
ENDBRANCH  57  78
ENDBRANCH  31  32
ENDBRANCH  24  26
ENDBRANCH  23  24
ENDBRANCH  22  23
ENDBRANCH  21  22
ENDBRANCH   1  21
TORSDOF 20
ENDMDL
MODEL 3
REMARK VINA RESULT:      -8.5      4.163      7.389
REMARK SMILES Cc1cccc(C(=O)[C@H](C)[C@@H](C)C(=O)OCCOCCOC(=O)c2ccc(-c3c4nc(c(-c5ccc(S(=O)(=O)[O-])cc5)c5ccc([nH]5)c(-c5ccc(S(=O)(=O)[O-])cc5)c5nc(c(-c6ccc(S(=O)(=O)[O-])cc6)c6ccc3[nH]6)C=C5)C=C4)cc2)c1C
REMARK SMILES IDX 18 1 17 2 16 3 15 4 13 5 14 6 11 7 12 8 9 9 10 10 7 11 8 12
REMARK SMILES IDX 6 13 1 14 2 15 3 16 84 17 4 18 85 19 5 20 19 21 20 22 21 23
REMARK SMILES IDX 22 24 23 25 24 26 25 27 83 28 26 29 82 30 27 31 28 32 29 33
REMARK SMILES IDX 76 34 30 35 81 36 75 37 77 38 31 39 80 40 74 41 73 42 32 44
REMARK SMILES IDX 62 45 43 46 61 47 44 48 47 49 60 50 78 51 45 52 46 53 59 55
REMARK SMILES IDX 79 56 48 57 33 58 34 59 42 60 35 61 41 62 36 63 37 64 38 65
REMARK SMILES IDX 39 66 40 67 63 68 64 69 72 70 65 71 71 72 66 73 67 74 68 75
REMARK SMILES IDX 69 76 70 77 49 78 50 79 58 80 51 81 57 82 52 83 53 84 54 85
REMARK SMILES IDX 55 86 56 87
REMARK H PARENT 77 43 47 54
REMARK Flexibility Score: inf
ROOT
ATOM      1  O   UNL A   1      32.172  28.001  26.873  1.00  0.00    -0.374 OA
ENDROOT
BRANCH   1   2
ATOM      2  C   UNL A   1      31.270  27.599  25.849  1.00  0.00     0.202 C 
BRANCH   2   3
ATOM      3  C   UNL A   1      30.722  26.170  25.929  1.00  0.00     0.261 C 
BRANCH   3   4
ATOM      4  O   UNL A   1      31.508  25.239  26.695  1.00  0.00    -0.463 OA
BRANCH   4   5
ATOM      5  C   UNL A   1      30.972  23.989  26.794  1.00  0.00     0.309 C 
ATOM      6  O   UNL A   1      29.820  23.753  27.144  1.00  0.00    -0.252 OA
BRANCH   5   7
ATOM      7  C   UNL A   1      31.995  22.877  26.594  1.00  0.00     0.106 C 
ATOM      8  C   UNL A   1      32.838  22.850  27.875  1.00  0.00     0.021 C 
BRANCH   7   9
ATOM      9  C   UNL A   1      32.857  22.973  25.303  1.00  0.00     0.072 C 
ATOM     10  C   UNL A   1      33.773  24.204  25.333  1.00  0.00     0.017 C 
BRANCH   9  11
ATOM     11  C   UNL A   1      33.763  21.742  25.148  1.00  0.00     0.166 C 
ATOM     12  O   UNL A   1      34.981  21.866  25.267  1.00  0.00    -0.294 OA
BRANCH  11  13
ATOM     13  C   UNL A   1      33.157  20.380  24.853  1.00  0.00     0.021 A 
ATOM     14  C   UNL A   1      32.058  18.223  21.863  1.00  0.00     0.044 C 
ATOM     15  C   UNL A   1      32.362  18.697  23.262  1.00  0.00    -0.047 A 
ATOM     16  C   UNL A   1      32.354  17.744  24.288  1.00  0.00     0.004 A 
ATOM     17  C   UNL A   1      32.645  20.052  23.567  1.00  0.00    -0.037 A 
ATOM     18  C   UNL A   1      32.699  18.102  25.584  1.00  0.00     0.001 A 
ATOM     19  C   UNL A   1      32.384  21.115  22.525  1.00  0.00     0.045 C 
ATOM     20  C   UNL A   1      33.144  19.393  25.853  1.00  0.00     0.012 A 
ENDBRANCH  11  13
ENDBRANCH   9  11
ENDBRANCH   7   9
ENDBRANCH   5   7
ENDBRANCH   4   5
ENDBRANCH   3   4
ENDBRANCH   2   3
ENDBRANCH   1   2
BRANCH   1  21
ATOM     21  C   UNL A   1      31.844  29.192  27.596  1.00  0.00     0.202 C 
BRANCH  21  22
ATOM     22  C   UNL A   1      32.421  30.481  27.009  1.00  0.00     0.261 C 
BRANCH  22  23
ATOM     23  O   UNL A   1      33.850  30.378  26.870  1.00  0.00    -0.460 OA
BRANCH  23  24
ATOM     24  C   UNL A   1      34.529  30.876  27.924  1.00  0.00     0.338 C 
ATOM     25  O   UNL A   1      34.157  31.764  28.688  1.00  0.00    -0.246 OA
BRANCH  24  26
ATOM     26  C   UNL A   1      35.758  30.103  28.143  1.00  0.00     0.060 A 
ATOM     27  C   UNL A   1      36.056  29.652  29.432  1.00  0.00     0.016 A 
ATOM     28  C   UNL A   1      36.685  29.955  27.114  1.00  0.00     0.016 A 
ATOM     29  C   UNL A   1      37.318  29.110  29.701  1.00  0.00     0.010 A 
ATOM     30  C   UNL A   1      37.934  29.385  27.375  1.00  0.00     0.010 A 
ATOM     31  C   UNL A   1      38.279  29.011  28.684  1.00  0.00    -0.014 A 
BRANCH  31  32
ATOM     32  C   UNL A   1      39.685  28.649  29.003  1.00  0.00     0.031 A 
ATOM     33  C   UNL A   1      40.573  29.653  29.696  1.00  0.00     0.074 A 
ATOM     34  C   UNL A   1      40.176  27.440  28.670  1.00  0.00     0.049 A 
ATOM     35  N   UNL A   1      41.829  29.545  30.050  1.00  0.00    -0.248 NA
ATOM     36  C   UNL A   1      39.973  30.958  30.019  1.00  0.00     0.031 C 
ATOM     37  C   UNL A   1      39.433  26.387  27.980  1.00  0.00     0.029 A 
ATOM     38  N   UNL A   1      41.422  26.899  28.868  1.00  0.00    -0.354 N 
ATOM     39  C   UNL A   1      42.174  30.770  30.612  1.00  0.00     0.074 A 
ATOM     40  C   UNL A   1      41.006  31.618  30.521  1.00  0.00     0.031 C 
ATOM     41  C   UNL A   1      40.235  25.320  27.820  1.00  0.00     0.029 A 
ATOM     42  C   UNL A   1      41.552  25.622  28.379  1.00  0.00     0.049 A 
ATOM     43  H   UNL A   1      42.154  27.381  29.317  1.00  0.00     0.167 HD
ATOM     44  C   UNL A   1      43.350  31.153  31.167  1.00  0.00     0.031 A 
ATOM     45  C   UNL A   1      42.610  24.787  28.382  1.00  0.00     0.031 A 
ATOM     46  C   UNL A   1      44.504  30.303  31.283  1.00  0.00     0.049 A 
ATOM     47  C   UNL A   1      43.897  25.220  29.028  1.00  0.00     0.074 A 
ATOM     48  C   UNL A   1      45.723  30.581  31.878  1.00  0.00     0.029 A 
ATOM     49  N   UNL A   1      44.582  29.006  30.801  1.00  0.00    -0.354 N 
ATOM     50  N   UNL A   1      44.186  26.365  29.598  1.00  0.00    -0.248 NA
ATOM     51  C   UNL A   1      44.992  24.240  29.049  1.00  0.00     0.031 C 
ATOM     52  C   UNL A   1      46.550  29.463  31.725  1.00  0.00     0.029 A 
ATOM     53  C   UNL A   1      45.830  28.474  31.074  1.00  0.00     0.049 A 
ATOM     54  H   UNL A   1      43.856  28.533  30.331  1.00  0.00     0.167 HD
ATOM     55  C   UNL A   1      45.489  26.235  30.068  1.00  0.00     0.074 A 
ATOM     56  C   UNL A   1      45.927  24.897  29.723  1.00  0.00     0.031 C 
ATOM     57  C   UNL A   1      46.251  27.140  30.728  1.00  0.00     0.031 A 
BRANCH  44  58
ATOM     58  C   UNL A   1      43.446  32.563  31.688  1.00  0.00    -0.014 A 
ATOM     59  C   UNL A   1      43.729  33.638  30.827  1.00  0.00     0.010 A 
ATOM     60  C   UNL A   1      43.223  32.821  33.053  1.00  0.00     0.010 A 
ATOM     61  C   UNL A   1      43.835  34.938  31.329  1.00  0.00     0.020 A 
ATOM     62  C   UNL A   1      43.302  34.123  33.555  1.00  0.00     0.020 A 
ATOM     63  C   UNL A   1      43.629  35.171  32.691  1.00  0.00     0.054 A 
BRANCH  63  64
ATOM     64  S   UNL A   1      43.765  36.868  33.320  1.00  0.00     0.124 S 
ATOM     65  O   UNL A   1      42.528  37.002  34.087  1.00  0.00    -0.237 OA
ATOM     66  O   UNL A   1      44.992  36.822  34.111  1.00  0.00    -0.237 OA
ATOM     67  O   UNL A   1      43.839  37.681  32.109  1.00  0.00    -0.744 OA
ENDBRANCH  63  64
ENDBRANCH  44  58
BRANCH  45  68
ATOM     68  C   UNL A   1      42.479  23.438  27.771  1.00  0.00    -0.014 A 
ATOM     69  C   UNL A   1      42.752  23.246  26.405  1.00  0.00     0.010 A 
ATOM     70  C   UNL A   1      42.116  22.332  28.560  1.00  0.00     0.010 A 
ATOM     71  C   UNL A   1      42.660  21.972  25.838  1.00  0.00     0.020 A 
ATOM     72  C   UNL A   1      42.043  21.053  28.001  1.00  0.00     0.020 A 
ATOM     73  C   UNL A   1      42.310  20.882  26.641  1.00  0.00     0.054 A 
BRANCH  73  74
ATOM     74  S   UNL A   1      42.275  19.224  25.905  1.00  0.00     0.124 S 
ATOM     75  O   UNL A   1      40.847  19.024  25.677  1.00  0.00    -0.237 OA
ATOM     76  O   UNL A   1      43.090  19.393  24.704  1.00  0.00    -0.237 OA
ATOM     77  O   UNL A   1      42.872  18.382  26.939  1.00  0.00    -0.744 OA
ENDBRANCH  73  74
ENDBRANCH  45  68
BRANCH  57  78
ATOM     78  C   UNL A   1      47.628  26.711  31.154  1.00  0.00    -0.014 A 
ATOM     79  C   UNL A   1      47.836  26.047  32.375  1.00  0.00     0.010 A 
ATOM     80  C   UNL A   1      48.719  26.923  30.291  1.00  0.00     0.010 A 
ATOM     81  C   UNL A   1      49.118  25.623  32.737  1.00  0.00     0.020 A 
ATOM     82  C   UNL A   1      49.998  26.483  30.641  1.00  0.00     0.020 A 
ATOM     83  C   UNL A   1      50.191  25.845  31.868  1.00  0.00     0.054 A 
BRANCH  83  84
ATOM     84  S   UNL A   1      51.837  25.244  32.336  1.00  0.00     0.124 S 
ATOM     85  O   UNL A   1      52.085  25.972  33.577  1.00  0.00    -0.237 OA
ATOM     86  O   UNL A   1      51.627  23.805  32.483  1.00  0.00    -0.237 OA
ATOM     87  O   UNL A   1      52.680  25.630  31.206  1.00  0.00    -0.744 OA
ENDBRANCH  83  84
ENDBRANCH  57  78
ENDBRANCH  31  32
ENDBRANCH  24  26
ENDBRANCH  23  24
ENDBRANCH  22  23
ENDBRANCH  21  22
ENDBRANCH   1  21
TORSDOF 20
ENDMDL
