MODEL 1
REMARK VINA RESULT:     -10.6      0.000      0.000
REMARK SMILES CCc1c(Cl)ccc2c1C=C(C(=O)OCCOCCOC(=O)c1ccc(-c3c4nc(c(-c5ccc(S(=O)(=O)[O-])cc5)c5ccc([nH]5)c(-c5ccc(S(=O)(=O)[O-])cc5)c5nc(c(-c6ccc(S(=O)(=O)[O-])cc6)c6ccc3[nH]6)C=C5)C=C4)cc1)[C@@H](C(F)(F)F)O2
REMARK SMILES IDX 18 1 17 2 16 3 15 4 14 5 12 6 13 7 11 8 3 9 4 10 9 11 5 12
REMARK SMILES IDX 6 13 8 14 10 15 7 16 88 17 83 18 2 19 1 20 84 21 85 22 86 23
REMARK SMILES IDX 87 24 19 25 20 26 21 27 22 28 23 29 24 30 82 31 25 32 81 33
REMARK SMILES IDX 26 34 27 35 28 36 75 37 29 38 80 39 74 40 76 41 30 42 79 43
REMARK SMILES IDX 73 44 72 45 31 47 61 48 42 49 60 50 43 51 46 52 59 53 77 54
REMARK SMILES IDX 44 55 45 56 58 58 78 59 47 60 32 61 33 62 41 63 34 64 40 65
REMARK SMILES IDX 35 66 36 67 37 68 38 69 39 70 62 71 63 72 71 73 64 74 70 75
REMARK SMILES IDX 65 76 66 77 67 78 68 79 69 80 48 81 49 82 57 83 50 84 56 85
REMARK SMILES IDX 51 86 52 87 53 88 54 89 55 90
REMARK H PARENT 76 46 46 57
REMARK Flexibility Score: inf
ROOT
ATOM      1  C   UNL A   1      40.640  22.287  26.331  1.00  0.00     0.202 C 
ENDROOT
BRANCH   1   2
ATOM      2  O   UNL A   1      39.348  22.887  26.411  1.00  0.00    -0.374 OA
BRANCH   2   3
ATOM      3  C   UNL A   1      38.255  22.230  25.776  1.00  0.00     0.202 C 
BRANCH   3   4
ATOM      4  C   UNL A   1      37.141  23.100  25.180  1.00  0.00     0.261 C 
BRANCH   4   5
ATOM      5  O   UNL A   1      36.331  23.718  26.190  1.00  0.00    -0.460 OA
BRANCH   5   6
ATOM      6  C   UNL A   1      34.999  23.542  26.020  1.00  0.00     0.338 C 
ATOM      7  O   UNL A   1      34.289  22.725  26.583  1.00  0.00    -0.246 OA
BRANCH   6   8
ATOM      8  C   UNL A   1      34.463  24.609  25.153  1.00  0.00     0.087 C 
ATOM      9  C   UNL A   1      33.017  28.000  25.659  1.00  0.00    -0.019 A 
ATOM     10  C   UNL A   1      32.321  28.933  24.862  1.00  0.00     0.045 A 
ATOM     11  C   UNL A   1      33.479  26.809  25.037  1.00  0.00     0.022 A 
ATOM     12  Cl  UNL A   1      31.665  30.402  25.503  1.00  0.00    -0.084 Cl
ATOM     13  C   UNL A   1      32.116  28.706  23.498  1.00  0.00     0.024 A 
ATOM     14  C   UNL A   1      33.314  26.621  23.656  1.00  0.00     0.128 A 
ATOM     15  C   UNL A   1      34.086  25.721  25.792  1.00  0.00     0.027 C 
ATOM     16  C   UNL A   1      32.632  27.565  22.893  1.00  0.00     0.048 A 
ATOM     17  O   UNL A   1      33.795  25.550  22.956  1.00  0.00    -0.475 OA
ATOM     18  C   UNL A   1      34.356  24.417  23.671  1.00  0.00     0.316 C 
BRANCH   9  19
ATOM     19  C   UNL A   1      33.276  28.262  27.134  1.00  0.00     0.034 C 
ATOM     20  C   UNL A   1      34.506  29.134  27.373  1.00  0.00     0.009 C 
ENDBRANCH   9  19
BRANCH  18  21
ATOM     21  C   UNL A   1      33.546  23.166  23.303  1.00  0.00     0.430 C 
ATOM     22  F   UNL A   1      33.185  23.186  21.998  1.00  0.00    -0.167 F 
ATOM     23  F   UNL A   1      34.262  22.034  23.496  1.00  0.00    -0.167 F 
ATOM     24  F   UNL A   1      32.416  23.068  24.040  1.00  0.00    -0.167 F 
ENDBRANCH  18  21
ENDBRANCH   6   8
ENDBRANCH   5   6
ENDBRANCH   4   5
ENDBRANCH   3   4
ENDBRANCH   2   3
ENDBRANCH   1   2
BRANCH   1  25
ATOM     25  C   UNL A   1      41.834  23.157  25.915  1.00  0.00     0.261 C 
BRANCH  25  26
ATOM     26  O   UNL A   1      42.108  24.223  26.839  1.00  0.00    -0.460 OA
BRANCH  26  27
ATOM     27  C   UNL A   1      41.668  25.447  26.450  1.00  0.00     0.338 C 
ATOM     28  O   UNL A   1      41.270  25.769  25.341  1.00  0.00    -0.246 OA
BRANCH  27  29
ATOM     29  C   UNL A   1      41.538  26.315  27.635  1.00  0.00     0.060 A 
ATOM     30  C   UNL A   1      42.396  27.396  27.835  1.00  0.00     0.016 A 
ATOM     31  C   UNL A   1      40.505  26.047  28.543  1.00  0.00     0.016 A 
ATOM     32  C   UNL A   1      42.211  28.219  28.950  1.00  0.00     0.010 A 
ATOM     33  C   UNL A   1      40.325  26.867  29.656  1.00  0.00     0.010 A 
ATOM     34  C   UNL A   1      41.170  27.966  29.863  1.00  0.00    -0.014 A 
BRANCH  34  35
ATOM     35  C   UNL A   1      40.906  28.895  30.991  1.00  0.00     0.031 A 
ATOM     36  C   UNL A   1      41.726  28.837  32.246  1.00  0.00     0.074 A 
ATOM     37  C   UNL A   1      39.895  29.780  30.883  1.00  0.00     0.049 A 
ATOM     38  N   UNL A   1      41.637  29.583  33.316  1.00  0.00    -0.248 NA
ATOM     39  C   UNL A   1      42.782  27.814  32.312  1.00  0.00     0.031 C 
ATOM     40  C   UNL A   1      39.029  29.920  29.710  1.00  0.00     0.029 A 
ATOM     41  N   UNL A   1      39.429  30.730  31.757  1.00  0.00    -0.354 N 
ATOM     42  C   UNL A   1      42.632  29.136  34.176  1.00  0.00     0.074 A 
ATOM     43  C   UNL A   1      43.282  28.020  33.524  1.00  0.00     0.031 C 
ATOM     44  C   UNL A   1      38.160  30.919  29.926  1.00  0.00     0.029 A 
ATOM     45  C   UNL A   1      38.372  31.462  31.265  1.00  0.00     0.049 A 
ATOM     46  H   UNL A   1      39.814  30.876  32.651  1.00  0.00     0.167 HD
ATOM     47  C   UNL A   1      42.982  29.632  35.387  1.00  0.00     0.031 A 
ATOM     48  C   UNL A   1      37.651  32.457  31.824  1.00  0.00     0.031 A 
ATOM     49  C   UNL A   1      42.318  30.739  36.028  1.00  0.00     0.049 A 
ATOM     50  C   UNL A   1      38.015  32.941  33.202  1.00  0.00     0.074 A 
ATOM     51  C   UNL A   1      42.621  31.324  37.245  1.00  0.00     0.029 A 
ATOM     52  N   UNL A   1      41.224  31.423  35.517  1.00  0.00    -0.354 N 
ATOM     53  N   UNL A   1      39.000  32.548  33.975  1.00  0.00    -0.248 NA
ATOM     54  C   UNL A   1      37.187  34.007  33.782  1.00  0.00     0.031 C 
ATOM     55  C   UNL A   1      41.663  32.304  37.508  1.00  0.00     0.029 A 
ATOM     56  C   UNL A   1      40.820  32.399  36.413  1.00  0.00     0.049 A 
ATOM     57  H   UNL A   1      40.799  31.241  34.648  1.00  0.00     0.167 HD
ATOM     58  C   UNL A   1      38.928  33.338  35.117  1.00  0.00     0.074 A 
ATOM     59  C   UNL A   1      37.811  34.241  34.932  1.00  0.00     0.031 C 
ATOM     60  C   UNL A   1      39.718  33.313  36.217  1.00  0.00     0.031 A 
BRANCH  47  61
ATOM     61  C   UNL A   1      44.154  29.014  36.109  1.00  0.00    -0.014 A 
ATOM     62  C   UNL A   1      45.463  29.449  35.829  1.00  0.00     0.010 A 
ATOM     63  C   UNL A   1      43.972  27.893  36.941  1.00  0.00     0.010 A 
ATOM     64  C   UNL A   1      46.567  28.748  36.323  1.00  0.00     0.020 A 
ATOM     65  C   UNL A   1      45.072  27.210  37.464  1.00  0.00     0.020 A 
ATOM     66  C   UNL A   1      46.363  27.624  37.127  1.00  0.00     0.054 A 
BRANCH  66  67
ATOM     67  S   UNL A   1      47.808  26.692  37.708  1.00  0.00     0.124 S 
ATOM     68  O   UNL A   1      48.603  27.728  38.358  1.00  0.00    -0.237 OA
ATOM     69  O   UNL A   1      47.208  25.703  38.599  1.00  0.00    -0.237 OA
ATOM     70  O   UNL A   1      48.380  26.145  36.478  1.00  0.00    -0.744 OA
ENDBRANCH  66  67
ENDBRANCH  47  61
BRANCH  48  71
ATOM     71  C   UNL A   1      36.546  33.084  31.045  1.00  0.00    -0.014 A 
ATOM     72  C   UNL A   1      36.823  33.846  29.894  1.00  0.00     0.010 A 
ATOM     73  C   UNL A   1      35.217  32.992  31.495  1.00  0.00     0.010 A 
ATOM     74  C   UNL A   1      35.806  34.553  29.246  1.00  0.00     0.020 A 
ATOM     75  C   UNL A   1      34.190  33.668  30.827  1.00  0.00     0.020 A 
ATOM     76  C   UNL A   1      34.498  34.470  29.727  1.00  0.00     0.054 A 
BRANCH  76  77
ATOM     77  S   UNL A   1      33.207  35.447  28.906  1.00  0.00     0.124 S 
ATOM     78  O   UNL A   1      34.000  36.429  28.170  1.00  0.00    -0.237 OA
ATOM     79  O   UNL A   1      32.524  34.449  28.089  1.00  0.00    -0.237 OA
ATOM     80  O   UNL A   1      32.423  35.982  30.016  1.00  0.00    -0.744 OA
ENDBRANCH  76  77
ENDBRANCH  48  71
BRANCH  60  81
ATOM     81  C   UNL A   1      39.446  34.291  37.334  1.00  0.00    -0.014 A 
ATOM     82  C   UNL A   1      40.018  35.577  37.283  1.00  0.00     0.010 A 
ATOM     83  C   UNL A   1      38.794  33.880  38.509  1.00  0.00     0.010 A 
ATOM     84  C   UNL A   1      40.006  36.407  38.407  1.00  0.00     0.020 A 
ATOM     85  C   UNL A   1      38.749  34.722  39.626  1.00  0.00     0.020 A 
ATOM     86  C   UNL A   1      39.387  35.963  39.578  1.00  0.00     0.054 A 
BRANCH  86  87
ATOM     87  S   UNL A   1      39.471  37.013  41.056  1.00  0.00     0.124 S 
ATOM     88  O   UNL A   1      38.842  38.246  40.596  1.00  0.00    -0.237 OA
ATOM     89  O   UNL A   1      38.710  36.245  42.038  1.00  0.00    -0.237 OA
ATOM     90  O   UNL A   1      40.905  37.110  41.329  1.00  0.00    -0.744 OA
ENDBRANCH  86  87
ENDBRANCH  60  81
ENDBRANCH  34  35
ENDBRANCH  27  29
ENDBRANCH  26  27
ENDBRANCH  25  26
ENDBRANCH   1  25
TORSDOF 19
ENDMDL
MODEL 2
REMARK VINA RESULT:     -10.6      6.496     12.294
REMARK SMILES CCc1c(Cl)ccc2c1C=C(C(=O)OCCOCCOC(=O)c1ccc(-c3c4nc(c(-c5ccc(S(=O)(=O)[O-])cc5)c5ccc([nH]5)c(-c5ccc(S(=O)(=O)[O-])cc5)c5nc(c(-c6ccc(S(=O)(=O)[O-])cc6)c6ccc3[nH]6)C=C5)C=C4)cc1)[C@@H](C(F)(F)F)O2
REMARK SMILES IDX 18 1 17 2 16 3 15 4 14 5 12 6 13 7 11 8 3 9 4 10 9 11 5 12
REMARK SMILES IDX 6 13 8 14 10 15 7 16 88 17 83 18 2 19 1 20 84 21 85 22 86 23
REMARK SMILES IDX 87 24 19 25 20 26 21 27 22 28 23 29 24 30 82 31 25 32 81 33
REMARK SMILES IDX 26 34 27 35 28 36 75 37 29 38 80 39 74 40 76 41 30 42 79 43
REMARK SMILES IDX 73 44 72 45 31 47 61 48 42 49 60 50 43 51 46 52 59 53 77 54
REMARK SMILES IDX 44 55 45 56 58 58 78 59 47 60 32 61 33 62 41 63 34 64 40 65
REMARK SMILES IDX 35 66 36 67 37 68 38 69 39 70 62 71 63 72 71 73 64 74 70 75
REMARK SMILES IDX 65 76 66 77 67 78 68 79 69 80 48 81 49 82 57 83 50 84 56 85
REMARK SMILES IDX 51 86 52 87 53 88 54 89 55 90
REMARK H PARENT 76 46 46 57
REMARK Flexibility Score: inf
ROOT
ATOM      1  C   UNL A   1      34.639  31.675  27.662  1.00  0.00     0.202 C 
ENDROOT
BRANCH   1   2
ATOM      2  O   UNL A   1      33.230  31.452  27.602  1.00  0.00    -0.374 OA
BRANCH   2   3
ATOM      3  C   UNL A   1      32.761  30.225  27.052  1.00  0.00     0.202 C 
BRANCH   3   4
ATOM      4  C   UNL A   1      33.651  29.510  26.028  1.00  0.00     0.261 C 
BRANCH   4   5
ATOM      5  O   UNL A   1      33.784  28.108  26.305  1.00  0.00    -0.460 OA
BRANCH   5   6
ATOM      6  C   UNL A   1      33.643  27.311  25.219  1.00  0.00     0.338 C 
ATOM      7  O   UNL A   1      33.774  27.634  24.050  1.00  0.00    -0.246 OA
BRANCH   6   8
ATOM      8  C   UNL A   1      33.463  25.911  25.650  1.00  0.00     0.087 C 
ATOM      9  C   UNL A   1      35.333  22.720  25.241  1.00  0.00    -0.019 A 
ATOM     10  C   UNL A   1      35.067  21.353  25.472  1.00  0.00     0.045 A 
ATOM     11  C   UNL A   1      34.340  23.663  25.619  1.00  0.00     0.022 A 
ATOM     12  Cl  UNL A   1      36.171  20.098  25.019  1.00  0.00    -0.084 Cl
ATOM     13  C   UNL A   1      33.876  20.943  26.077  1.00  0.00     0.024 A 
ATOM     14  C   UNL A   1      33.174  23.239  26.275  1.00  0.00     0.128 A 
ATOM     15  C   UNL A   1      34.452  25.080  25.302  1.00  0.00     0.027 C 
ATOM     16  C   UNL A   1      32.943  21.885  26.498  1.00  0.00     0.048 A 
ATOM     17  O   UNL A   1      32.202  24.077  26.747  1.00  0.00    -0.475 OA
ATOM     18  C   UNL A   1      32.243  25.489  26.409  1.00  0.00     0.316 C 
BRANCH   9  19
ATOM     19  C   UNL A   1      36.645  23.172  24.620  1.00  0.00     0.034 C 
ATOM     20  C   UNL A   1      36.705  22.922  23.115  1.00  0.00     0.009 C 
ENDBRANCH   9  19
BRANCH  18  21
ATOM     21  C   UNL A   1      30.945  25.844  25.669  1.00  0.00     0.430 C 
ATOM     22  F   UNL A   1      30.674  27.167  25.768  1.00  0.00    -0.167 F 
ATOM     23  F   UNL A   1      31.027  25.556  24.350  1.00  0.00    -0.167 F 
ATOM     24  F   UNL A   1      29.884  25.170  26.170  1.00  0.00    -0.167 F 
ENDBRANCH  18  21
ENDBRANCH   6   8
ENDBRANCH   5   6
ENDBRANCH   4   5
ENDBRANCH   3   4
ENDBRANCH   2   3
ENDBRANCH   1   2
BRANCH   1  25
ATOM     25  C   UNL A   1      35.423  31.122  28.860  1.00  0.00     0.261 C 
BRANCH  25  26
ATOM     26  O   UNL A   1      36.077  29.873  28.582  1.00  0.00    -0.460 OA
BRANCH  26  27
ATOM     27  C   UNL A   1      36.802  29.364  29.610  1.00  0.00     0.338 C 
ATOM     28  O   UNL A   1      36.381  28.991  30.695  1.00  0.00    -0.246 OA
BRANCH  27  29
ATOM     29  C   UNL A   1      38.184  29.122  29.157  1.00  0.00     0.060 A 
ATOM     30  C   UNL A   1      38.559  29.345  27.832  1.00  0.00     0.016 A 
ATOM     31  C   UNL A   1      39.125  28.692  30.102  1.00  0.00     0.016 A 
ATOM     32  C   UNL A   1      39.891  29.144  27.456  1.00  0.00     0.010 A 
ATOM     33  C   UNL A   1      40.450  28.488  29.722  1.00  0.00     0.010 A 
ATOM     34  C   UNL A   1      40.847  28.722  28.399  1.00  0.00    -0.014 A 
BRANCH  34  35
ATOM     35  C   UNL A   1      42.280  28.606  28.027  1.00  0.00     0.031 A 
ATOM     36  C   UNL A   1      43.224  29.755  28.231  1.00  0.00     0.074 A 
ATOM     37  C   UNL A   1      42.719  27.458  27.476  1.00  0.00     0.049 A 
ATOM     38  N   UNL A   1      44.505  29.815  27.975  1.00  0.00    -0.248 NA
ATOM     39  C   UNL A   1      42.664  30.994  28.794  1.00  0.00     0.031 C 
ATOM     40  C   UNL A   1      41.887  26.279  27.227  1.00  0.00     0.029 A 
ATOM     41  N   UNL A   1      43.965  27.086  27.034  1.00  0.00    -0.354 N 
ATOM     42  C   UNL A   1      44.910  31.086  28.359  1.00  0.00     0.074 A 
ATOM     43  C   UNL A   1      43.730  31.784  28.821  1.00  0.00     0.031 C 
ATOM     44  C   UNL A   1      42.651  25.307  26.708  1.00  0.00     0.029 A 
ATOM     45  C   UNL A   1      44.016  25.802  26.543  1.00  0.00     0.049 A 
ATOM     46  H   UNL A   1      44.748  27.682  27.067  1.00  0.00     0.167 HD
ATOM     47  C   UNL A   1      46.160  31.610  28.350  1.00  0.00     0.031 A 
ATOM     48  C   UNL A   1      45.041  25.097  26.018  1.00  0.00     0.031 A 
ATOM     49  C   UNL A   1      47.325  30.905  27.877  1.00  0.00     0.049 A 
ATOM     50  C   UNL A   1      46.406  25.729  25.951  1.00  0.00     0.074 A 
ATOM     51  C   UNL A   1      48.636  31.349  27.852  1.00  0.00     0.029 A 
ATOM     52  N   UNL A   1      47.328  29.623  27.347  1.00  0.00    -0.354 N 
ATOM     53  N   UNL A   1      46.783  26.911  26.378  1.00  0.00    -0.248 NA
ATOM     54  C   UNL A   1      47.486  24.936  25.348  1.00  0.00     0.031 C 
ATOM     55  C   UNL A   1      49.415  30.372  27.233  1.00  0.00     0.029 A 
ATOM     56  C   UNL A   1      48.612  29.277  26.959  1.00  0.00     0.049 A 
ATOM     57  H   UNL A   1      46.535  29.046  27.259  1.00  0.00     0.167 HD
ATOM     58  C   UNL A   1      48.148  26.990  26.124  1.00  0.00     0.074 A 
ATOM     59  C   UNL A   1      48.535  25.734  25.515  1.00  0.00     0.031 C 
ATOM     60  C   UNL A   1      48.999  28.015  26.372  1.00  0.00     0.031 A 
BRANCH  47  61
ATOM     61  C   UNL A   1      46.364  33.005  28.886  1.00  0.00    -0.014 A 
ATOM     62  C   UNL A   1      46.502  33.213  30.272  1.00  0.00     0.010 A 
ATOM     63  C   UNL A   1      46.252  34.121  28.038  1.00  0.00     0.010 A 
ATOM     64  C   UNL A   1      46.476  34.506  30.803  1.00  0.00     0.020 A 
ATOM     65  C   UNL A   1      46.259  35.416  28.562  1.00  0.00     0.020 A 
ATOM     66  C   UNL A   1      46.341  35.599  29.945  1.00  0.00     0.054 A 
BRANCH  66  67
ATOM     67  S   UNL A   1      46.247  37.264  30.659  1.00  0.00     0.124 S 
ATOM     68  O   UNL A   1      45.724  36.999  31.995  1.00  0.00    -0.237 OA
ATOM     69  O   UNL A   1      47.635  37.713  30.599  1.00  0.00    -0.237 OA
ATOM     70  O   UNL A   1      45.334  37.971  29.760  1.00  0.00    -0.744 OA
ENDBRANCH  66  67
ENDBRANCH  47  61
BRANCH  48  71
ATOM     71  C   UNL A   1      44.807  23.697  25.564  1.00  0.00    -0.014 A 
ATOM     72  C   UNL A   1      44.562  22.672  26.497  1.00  0.00     0.010 A 
ATOM     73  C   UNL A   1      44.910  23.365  24.201  1.00  0.00     0.010 A 
ATOM     74  C   UNL A   1      44.487  21.338  26.087  1.00  0.00     0.020 A 
ATOM     75  C   UNL A   1      44.798  22.035  23.782  1.00  0.00     0.020 A 
ATOM     76  C   UNL A   1      44.620  21.027  24.732  1.00  0.00     0.054 A 
BRANCH  76  77
ATOM     77  S   UNL A   1      44.582  19.283  24.233  1.00  0.00     0.124 S 
ATOM     78  O   UNL A   1      45.877  18.807  24.711  1.00  0.00    -0.237 OA
ATOM     79  O   UNL A   1      43.418  18.773  24.952  1.00  0.00    -0.237 OA
ATOM     80  O   UNL A   1      44.435  19.345  22.781  1.00  0.00    -0.744 OA
ENDBRANCH  76  77
ENDBRANCH  48  71
BRANCH  60  81
ATOM     81  C   UNL A   1      50.456  27.857  26.012  1.00  0.00    -0.014 A 
ATOM     82  C   UNL A   1      50.885  28.167  24.707  1.00  0.00     0.010 A 
ATOM     83  C   UNL A   1      51.352  27.226  26.893  1.00  0.00     0.010 A 
ATOM     84  C   UNL A   1      52.155  27.789  24.265  1.00  0.00     0.020 A 
ATOM     85  C   UNL A   1      52.638  26.876  26.465  1.00  0.00     0.020 A 
ATOM     86  C   UNL A   1      53.016  27.127  25.144  1.00  0.00     0.054 A 
BRANCH  86  87
ATOM     87  S   UNL A   1      54.621  26.553  24.522  1.00  0.00     0.124 S 
ATOM     88  O   UNL A   1      54.479  25.103  24.591  1.00  0.00    -0.237 OA
ATOM     89  O   UNL A   1      54.664  27.120  23.177  1.00  0.00    -0.237 OA
ATOM     90  O   UNL A   1      55.582  27.130  25.463  1.00  0.00    -0.744 OA
ENDBRANCH  86  87
ENDBRANCH  60  81
ENDBRANCH  34  35
ENDBRANCH  27  29
ENDBRANCH  26  27
ENDBRANCH  25  26
ENDBRANCH   1  25
TORSDOF 19
ENDMDL
MODEL 3
REMARK VINA RESULT:     -10.5      0.625      8.095
REMARK SMILES CCc1c(Cl)ccc2c1C=C(C(=O)OCCOCCOC(=O)c1ccc(-c3c4nc(c(-c5ccc(S(=O)(=O)[O-])cc5)c5ccc([nH]5)c(-c5ccc(S(=O)(=O)[O-])cc5)c5nc(c(-c6ccc(S(=O)(=O)[O-])cc6)c6ccc3[nH]6)C=C5)C=C4)cc1)[C@@H](C(F)(F)F)O2
REMARK SMILES IDX 18 1 17 2 16 3 15 4 14 5 12 6 13 7 11 8 3 9 4 10 9 11 5 12
REMARK SMILES IDX 6 13 8 14 10 15 7 16 88 17 83 18 2 19 1 20 84 21 85 22 86 23
REMARK SMILES IDX 87 24 19 25 20 26 21 27 22 28 23 29 24 30 82 31 25 32 81 33
REMARK SMILES IDX 26 34 27 35 28 36 75 37 29 38 80 39 74 40 76 41 30 42 79 43
REMARK SMILES IDX 73 44 72 45 31 47 61 48 42 49 60 50 43 51 46 52 59 53 77 54
REMARK SMILES IDX 44 55 45 56 58 58 78 59 47 60 32 61 33 62 41 63 34 64 40 65
REMARK SMILES IDX 35 66 36 67 37 68 38 69 39 70 62 71 63 72 71 73 64 74 70 75
REMARK SMILES IDX 65 76 66 77 67 78 68 79 69 80 48 81 49 82 57 83 50 84 56 85
REMARK SMILES IDX 51 86 52 87 53 88 54 89 55 90
REMARK H PARENT 76 46 46 57
REMARK Flexibility Score: inf
ROOT
ATOM      1  C   UNL A   1      40.239  21.812  26.525  1.00  0.00     0.202 C 
ENDROOT
BRANCH   1   2
ATOM      2  O   UNL A   1      38.890  22.254  26.381  1.00  0.00    -0.374 OA
BRANCH   2   3
ATOM      3  C   UNL A   1      38.061  21.599  25.425  1.00  0.00     0.202 C 
BRANCH   3   4
ATOM      4  C   UNL A   1      37.103  22.460  24.592  1.00  0.00     0.261 C 
BRANCH   4   5
ATOM      5  O   UNL A   1      36.652  23.620  25.306  1.00  0.00    -0.460 OA
BRANCH   5   6
ATOM      6  C   UNL A   1      35.326  23.620  25.585  1.00  0.00     0.338 C 
ATOM      7  O   UNL A   1      34.755  22.949  26.428  1.00  0.00    -0.246 OA
BRANCH   6   8
ATOM      8  C   UNL A   1      34.657  24.691  24.822  1.00  0.00     0.087 C 
ATOM      9  C   UNL A   1      33.162  28.007  25.606  1.00  0.00    -0.019 A 
ATOM     10  C   UNL A   1      32.346  28.937  24.927  1.00  0.00     0.045 A 
ATOM     11  C   UNL A   1      33.590  26.855  24.894  1.00  0.00     0.022 A 
ATOM     12  Cl  UNL A   1      31.719  30.360  25.688  1.00  0.00    -0.084 Cl
ATOM     13  C   UNL A   1      31.993  28.743  23.588  1.00  0.00     0.024 A 
ATOM     14  C   UNL A   1      33.273  26.702  23.536  1.00  0.00     0.128 A 
ATOM     15  C   UNL A   1      34.317  25.769  25.538  1.00  0.00     0.027 C 
ATOM     16  C   UNL A   1      32.475  27.641  22.889  1.00  0.00     0.048 A 
ATOM     17  O   UNL A   1      33.707  25.672  22.750  1.00  0.00    -0.475 OA
ATOM     18  C   UNL A   1      34.386  24.540  23.357  1.00  0.00     0.316 C 
BRANCH   9  19
ATOM     19  C   UNL A   1      33.580  28.235  27.050  1.00  0.00     0.034 C 
ATOM     20  C   UNL A   1      34.763  29.192  27.180  1.00  0.00     0.009 C 
ENDBRANCH   9  19
BRANCH  18  21
ATOM     21  C   UNL A   1      33.583  23.270  23.040  1.00  0.00     0.430 C 
ATOM     22  F   UNL A   1      33.221  23.234  21.736  1.00  0.00    -0.167 F 
ATOM     23  F   UNL A   1      34.304  22.151  23.281  1.00  0.00    -0.167 F 
ATOM     24  F   UNL A   1      32.453  23.197  23.781  1.00  0.00    -0.167 F 
ENDBRANCH  18  21
ENDBRANCH   6   8
ENDBRANCH   5   6
ENDBRANCH   4   5
ENDBRANCH   3   4
ENDBRANCH   2   3
ENDBRANCH   1   2
BRANCH   1  25
ATOM     25  C   UNL A   1      41.375  22.812  26.267  1.00  0.00     0.261 C 
BRANCH  25  26
ATOM     26  O   UNL A   1      40.925  24.175  26.200  1.00  0.00    -0.460 OA
BRANCH  26  27
ATOM     27  C   UNL A   1      41.915  25.104  26.171  1.00  0.00     0.338 C 
ATOM     28  O   UNL A   1      42.689  25.329  25.252  1.00  0.00    -0.246 OA
BRANCH  27  29
ATOM     29  C   UNL A   1      41.799  25.974  27.356  1.00  0.00     0.060 A 
ATOM     30  C   UNL A   1      42.680  27.035  27.562  1.00  0.00     0.016 A 
ATOM     31  C   UNL A   1      40.756  25.727  28.259  1.00  0.00     0.016 A 
ATOM     32  C   UNL A   1      42.507  27.861  28.677  1.00  0.00     0.010 A 
ATOM     33  C   UNL A   1      40.590  26.549  29.372  1.00  0.00     0.010 A 
ATOM     34  C   UNL A   1      41.457  27.629  29.585  1.00  0.00    -0.014 A 
BRANCH  34  35
ATOM     35  C   UNL A   1      41.209  28.563  30.713  1.00  0.00     0.031 A 
ATOM     36  C   UNL A   1      40.127  29.599  30.631  1.00  0.00     0.074 A 
ATOM     37  C   UNL A   1      41.991  28.484  31.808  1.00  0.00     0.049 A 
ATOM     38  N   UNL A   1      39.770  30.480  31.529  1.00  0.00    -0.248 NA
ATOM     39  C   UNL A   1      39.344  29.657  29.386  1.00  0.00     0.031 C 
ATOM     40  C   UNL A   1      43.075  27.518  31.992  1.00  0.00     0.029 A 
ATOM     41  N   UNL A   1      41.993  29.215  32.970  1.00  0.00    -0.354 N 
ATOM     42  C   UNL A   1      38.712  31.186  30.969  1.00  0.00     0.074 A 
ATOM     43  C   UNL A   1      38.516  30.665  29.634  1.00  0.00     0.031 C 
ATOM     44  C   UNL A   1      43.615  27.695  33.207  1.00  0.00     0.029 A 
ATOM     45  C   UNL A   1      42.950  28.813  33.873  1.00  0.00     0.049 A 
ATOM     46  H   UNL A   1      41.368  29.955  33.143  1.00  0.00     0.167 HD
ATOM     47  C   UNL A   1      37.960  32.162  31.533  1.00  0.00     0.031 A 
ATOM     48  C   UNL A   1      43.263  29.287  35.098  1.00  0.00     0.031 A 
ATOM     49  C   UNL A   1      38.174  32.678  32.862  1.00  0.00     0.049 A 
ATOM     50  C   UNL A   1      42.459  30.422  35.672  1.00  0.00     0.074 A 
ATOM     51  C   UNL A   1      37.446  33.651  33.524  1.00  0.00     0.029 A 
ATOM     52  N   UNL A   1      39.182  32.276  33.726  1.00  0.00    -0.354 N 
ATOM     53  N   UNL A   1      41.421  31.035  35.154  1.00  0.00    -0.248 NA
ATOM     54  C   UNL A   1      42.851  30.923  36.996  1.00  0.00     0.031 C 
ATOM     55  C   UNL A   1      38.061  33.895  34.752  1.00  0.00     0.029 A 
ATOM     56  C   UNL A   1      39.115  33.008  34.901  1.00  0.00     0.049 A 
ATOM     57  H   UNL A   1      39.846  31.575  33.534  1.00  0.00     0.167 HD
ATOM     58  C   UNL A   1      41.019  31.971  36.100  1.00  0.00     0.074 A 
ATOM     59  C   UNL A   1      41.917  31.838  37.229  1.00  0.00     0.031 C 
ATOM     60  C   UNL A   1      39.998  32.860  36.034  1.00  0.00     0.031 A 
BRANCH  47  61
ATOM     61  C   UNL A   1      36.810  32.735  30.743  1.00  0.00    -0.014 A 
ATOM     62  C   UNL A   1      37.031  33.802  29.851  1.00  0.00     0.010 A 
ATOM     63  C   UNL A   1      35.489  32.331  31.007  1.00  0.00     0.010 A 
ATOM     64  C   UNL A   1      35.954  34.484  29.276  1.00  0.00     0.020 A 
ATOM     65  C   UNL A   1      34.411  32.988  30.408  1.00  0.00     0.020 A 
ATOM     66  C   UNL A   1      34.650  34.080  29.570  1.00  0.00     0.054 A 
BRANCH  66  67
ATOM     67  S   UNL A   1      33.266  35.016  28.863  1.00  0.00     0.124 S 
ATOM     68  O   UNL A   1      32.704  34.065  27.909  1.00  0.00    -0.237 OA
ATOM     69  O   UNL A   1      32.442  35.297  30.036  1.00  0.00    -0.237 OA
ATOM     70  O   UNL A   1      33.911  36.187  28.271  1.00  0.00    -0.744 OA
ENDBRANCH  66  67
ENDBRANCH  47  61
BRANCH  48  71
ATOM     71  C   UNL A   1      44.364  28.643  35.870  1.00  0.00    -0.014 A 
ATOM     72  C   UNL A   1      44.093  27.588  36.762  1.00  0.00     0.010 A 
ATOM     73  C   UNL A   1      45.679  29.135  35.779  1.00  0.00     0.010 A 
ATOM     74  C   UNL A   1      45.096  27.081  37.592  1.00  0.00     0.020 A 
ATOM     75  C   UNL A   1      46.695  28.604  36.582  1.00  0.00     0.020 A 
ATOM     76  C   UNL A   1      46.388  27.604  37.506  1.00  0.00     0.054 A 
BRANCH  76  77
ATOM     77  S   UNL A   1      47.658  26.972  38.638  1.00  0.00     0.124 S 
ATOM     78  O   UNL A   1      46.878  26.084  39.496  1.00  0.00    -0.237 OA
ATOM     79  O   UNL A   1      48.592  26.312  37.731  1.00  0.00    -0.237 OA
ATOM     80  O   UNL A   1      48.169  28.176  39.287  1.00  0.00    -0.744 OA
ENDBRANCH  76  77
ENDBRANCH  48  71
BRANCH  60  81
ATOM     81  C   UNL A   1      39.750  33.774  37.208  1.00  0.00    -0.014 A 
ATOM     82  C   UNL A   1      40.552  34.921  37.375  1.00  0.00     0.010 A 
ATOM     83  C   UNL A   1      38.868  33.404  38.237  1.00  0.00     0.010 A 
ATOM     84  C   UNL A   1      40.529  35.638  38.573  1.00  0.00     0.020 A 
ATOM     85  C   UNL A   1      38.816  34.140  39.426  1.00  0.00     0.020 A 
ATOM     86  C   UNL A   1      39.673  35.229  39.599  1.00  0.00     0.054 A 
BRANCH  86  87
ATOM     87  S   UNL A   1      39.732  36.112  41.183  1.00  0.00     0.124 S 
ATOM     88  O   UNL A   1      41.108  36.596  41.216  1.00  0.00    -0.237 OA
ATOM     89  O   UNL A   1      38.706  37.138  41.016  1.00  0.00    -0.237 OA
ATOM     90  O   UNL A   1      39.412  35.078  42.166  1.00  0.00    -0.744 OA
ENDBRANCH  86  87
ENDBRANCH  60  81
ENDBRANCH  34  35
ENDBRANCH  27  29
ENDBRANCH  26  27
ENDBRANCH  25  26
ENDBRANCH   1  25
TORSDOF 19
ENDMDL
