MODEL 1
REMARK VINA RESULT:     -11.2      0.000      0.000
REMARK SMILES Cc1cccc(C(=O)OCCOCCOC(=O)c2ccc(-c3c4nc(c(-c5ccc(S(=O)(=O)[O-])cc5)c5ccc([nH]5)c(-c5ccc(S(=O)(=O)[O-])cc5)c5nc(c(-c6ccc(S(=O)(=O)[O-])cc6)c6ccc3[nH]6)C=C5)C=C4)cc2)c1OC[C@@H]1C[C@H]2CC[C@@H]1C2
REMARK SMILES IDX 12 1 11 2 10 3 9 4 7 5 8 6 6 7 1 8 2 9 3 10 78 11 4 12 5 13
REMARK SMILES IDX 79 14 80 15 81 16 82 17 86 18 83 19 85 20 87 21 84 22 13 23
REMARK SMILES IDX 14 24 15 25 16 26 17 27 18 28 19 29 77 30 20 31 76 32 21 33
REMARK SMILES IDX 22 34 23 35 70 36 24 37 75 38 69 39 71 40 25 41 74 42 68 43
REMARK SMILES IDX 67 44 26 46 56 47 37 48 55 49 38 50 41 51 54 52 72 53 39 54
REMARK SMILES IDX 40 55 53 57 73 58 42 59 27 60 28 61 36 62 29 63 35 64 30 65
REMARK SMILES IDX 31 66 32 67 33 68 34 69 57 70 58 71 66 72 59 73 65 74 60 75
REMARK SMILES IDX 61 76 62 77 63 78 64 79 43 80 44 81 52 82 45 83 51 84 46 85
REMARK SMILES IDX 47 86 48 87 49 88 50 89
REMARK H PARENT 71 45 41 56
REMARK Flexibility Score: inf
ROOT
ATOM      1  O   UNL A   1      33.889  26.398  24.516  1.00  0.00    -0.374 OA
ENDROOT
BRANCH   1   2
ATOM      2  C   UNL A   1      33.035  25.537  23.768  1.00  0.00     0.202 C 
BRANCH   2   3
ATOM      3  C   UNL A   1      32.769  24.341  24.639  1.00  0.00     0.261 C 
BRANCH   3   4
ATOM      4  O   UNL A   1      33.376  24.442  25.942  1.00  0.00    -0.460 OA
BRANCH   4   5
ATOM      5  C   UNL A   1      33.838  23.317  26.526  1.00  0.00     0.342 C 
ATOM      6  O   UNL A   1      33.284  22.642  27.369  1.00  0.00    -0.246 OA
BRANCH   5   7
ATOM      7  C   UNL A   1      35.135  22.936  25.917  1.00  0.00     0.102 A 
ATOM      8  C   UNL A   1      37.253  19.928  24.928  1.00  0.00     0.048 C 
ATOM      9  C   UNL A   1      36.796  21.336  25.189  1.00  0.00    -0.008 A 
ATOM     10  C   UNL A   1      37.784  22.332  25.300  1.00  0.00     0.007 A 
ATOM     11  C   UNL A   1      35.448  21.643  25.446  1.00  0.00     0.136 A 
ATOM     12  C   UNL A   1      37.463  23.615  25.726  1.00  0.00     0.001 A 
ATOM     13  C   UNL A   1      36.144  23.914  26.039  1.00  0.00     0.019 A 
BRANCH  11  14
ATOM     14  O   UNL A   1      34.594  20.580  25.555  1.00  0.00    -0.492 OA
BRANCH  14  15
ATOM     15  C   UNL A   1      33.642  20.230  24.532  1.00  0.00     0.233 C 
BRANCH  15  16
ATOM     16  C   UNL A   1      33.184  18.780  24.330  1.00  0.00     0.030 C 
ATOM     17  C   UNL A   1      32.791  18.090  25.672  1.00  0.00     0.011 C 
ATOM     18  C   UNL A   1      34.292  17.822  23.826  1.00  0.00    -0.004 C 
ATOM     19  C   UNL A   1      33.568  16.761  25.637  1.00  0.00    -0.010 C 
ATOM     20  C   UNL A   1      33.605  16.585  23.233  1.00  0.00     0.004 C 
ATOM     21  C   UNL A   1      34.909  17.240  25.102  1.00  0.00     0.007 C 
ATOM     22  C   UNL A   1      33.055  15.881  24.481  1.00  0.00     0.004 C 
ENDBRANCH  15  16
ENDBRANCH  14  15
ENDBRANCH  11  14
ENDBRANCH   5   7
ENDBRANCH   4   5
ENDBRANCH   3   4
ENDBRANCH   2   3
ENDBRANCH   1   2
BRANCH   1  23
ATOM     23  C   UNL A   1      33.407  27.699  24.767  1.00  0.00     0.202 C 
BRANCH  23  24
ATOM     24  C   UNL A   1      32.913  27.892  26.204  1.00  0.00     0.261 C 
BRANCH  24  25
ATOM     25  O   UNL A   1      34.004  28.233  27.089  1.00  0.00    -0.460 OA
BRANCH  25  26
ATOM     26  C   UNL A   1      34.144  29.561  27.385  1.00  0.00     0.338 C 
ATOM     27  O   UNL A   1      33.260  30.385  27.229  1.00  0.00    -0.246 OA
BRANCH  26  28
ATOM     28  C   UNL A   1      35.507  29.833  27.930  1.00  0.00     0.060 A 
ATOM     29  C   UNL A   1      36.610  30.056  27.086  1.00  0.00     0.016 A 
ATOM     30  C   UNL A   1      35.712  29.657  29.292  1.00  0.00     0.016 A 
ATOM     31  C   UNL A   1      37.924  29.948  27.584  1.00  0.00     0.010 A 
ATOM     32  C   UNL A   1      36.992  29.436  29.749  1.00  0.00     0.010 A 
ATOM     33  C   UNL A   1      38.113  29.557  28.906  1.00  0.00    -0.014 A 
BRANCH  33  34
ATOM     34  C   UNL A   1      39.374  29.217  29.585  1.00  0.00     0.031 A 
ATOM     35  C   UNL A   1      39.967  27.899  29.238  1.00  0.00     0.074 A 
ATOM     36  C   UNL A   1      40.169  30.189  30.105  1.00  0.00     0.049 A 
ATOM     37  N   UNL A   1      41.120  27.496  29.633  1.00  0.00    -0.248 NA
ATOM     38  C   UNL A   1      39.287  26.901  28.403  1.00  0.00     0.031 C 
ATOM     39  C   UNL A   1      41.635  30.261  30.090  1.00  0.00     0.029 A 
ATOM     40  N   UNL A   1      39.821  31.360  30.775  1.00  0.00    -0.354 N 
ATOM     41  C   UNL A   1      41.483  26.443  28.828  1.00  0.00     0.074 A 
ATOM     42  C   UNL A   1      40.272  26.026  28.174  1.00  0.00     0.031 C 
ATOM     43  C   UNL A   1      42.055  31.242  30.908  1.00  0.00     0.029 A 
ATOM     44  C   UNL A   1      40.885  31.741  31.608  1.00  0.00     0.049 A 
ATOM     45  H   UNL A   1      38.968  31.843  30.680  1.00  0.00     0.167 HD
ATOM     46  C   UNL A   1      42.807  26.152  28.712  1.00  0.00     0.031 A 
ATOM     47  C   UNL A   1      40.697  31.831  32.954  1.00  0.00     0.031 A 
ATOM     48  C   UNL A   1      43.591  26.908  29.696  1.00  0.00     0.049 A 
ATOM     49  C   UNL A   1      41.524  30.755  33.603  1.00  0.00     0.074 A 
ATOM     50  C   UNL A   1      44.455  27.983  29.606  1.00  0.00     0.029 A 
ATOM     51  N   UNL A   1      43.253  26.786  31.044  1.00  0.00    -0.354 N 
ATOM     52  N   UNL A   1      41.908  29.685  32.958  1.00  0.00    -0.248 NA
ATOM     53  C   UNL A   1      42.095  30.835  34.942  1.00  0.00     0.031 C 
ATOM     54  C   UNL A   1      44.528  28.583  30.900  1.00  0.00     0.029 A 
ATOM     55  C   UNL A   1      43.749  27.844  31.781  1.00  0.00     0.049 A 
ATOM     56  H   UNL A   1      42.729  26.044  31.421  1.00  0.00     0.167 HD
ATOM     57  C   UNL A   1      42.826  29.011  33.695  1.00  0.00     0.074 A 
ATOM     58  C   UNL A   1      42.873  29.736  34.956  1.00  0.00     0.031 C 
ATOM     59  C   UNL A   1      43.499  27.926  33.219  1.00  0.00     0.031 A 
BRANCH  46  60
ATOM     60  C   UNL A   1      43.417  25.322  27.606  1.00  0.00    -0.014 A 
ATOM     61  C   UNL A   1      44.208  24.206  27.943  1.00  0.00     0.010 A 
ATOM     62  C   UNL A   1      43.329  25.627  26.230  1.00  0.00     0.010 A 
ATOM     63  C   UNL A   1      44.858  23.432  26.968  1.00  0.00     0.020 A 
ATOM     64  C   UNL A   1      43.949  24.845  25.242  1.00  0.00     0.020 A 
ATOM     65  C   UNL A   1      44.718  23.751  25.619  1.00  0.00     0.054 A 
BRANCH  65  66
ATOM     66  S   UNL A   1      45.559  22.738  24.374  1.00  0.00     0.124 S 
ATOM     67  O   UNL A   1      46.087  21.635  25.173  1.00  0.00    -0.237 OA
ATOM     68  O   UNL A   1      44.473  22.391  23.461  1.00  0.00    -0.237 OA
ATOM     69  O   UNL A   1      46.571  23.635  23.817  1.00  0.00    -0.744 OA
ENDBRANCH  65  66
ENDBRANCH  46  60
BRANCH  47  70
ATOM     70  C   UNL A   1      39.315  32.324  33.287  1.00  0.00    -0.014 A 
ATOM     71  C   UNL A   1      39.049  33.682  32.976  1.00  0.00     0.010 A 
ATOM     72  C   UNL A   1      38.228  31.428  33.295  1.00  0.00     0.010 A 
ATOM     73  C   UNL A   1      37.796  34.084  32.486  1.00  0.00     0.020 A 
ATOM     74  C   UNL A   1      36.972  31.830  32.798  1.00  0.00     0.020 A 
ATOM     75  C   UNL A   1      36.781  33.139  32.341  1.00  0.00     0.054 A 
BRANCH  75  76
ATOM     76  S   UNL A   1      35.311  33.572  31.341  1.00  0.00     0.124 S 
ATOM     77  O   UNL A   1      34.802  34.753  32.030  1.00  0.00    -0.237 OA
ATOM     78  O   UNL A   1      35.874  33.826  30.014  1.00  0.00    -0.237 OA
ATOM     79  O   UNL A   1      34.476  32.378  31.429  1.00  0.00    -0.744 OA
ENDBRANCH  75  76
ENDBRANCH  47  70
BRANCH  59  80
ATOM     80  C   UNL A   1      44.030  26.857  34.128  1.00  0.00    -0.014 A 
ATOM     81  C   UNL A   1      43.189  26.032  34.891  1.00  0.00     0.010 A 
ATOM     82  C   UNL A   1      45.405  26.539  34.102  1.00  0.00     0.010 A 
ATOM     83  C   UNL A   1      43.704  25.011  35.685  1.00  0.00     0.020 A 
ATOM     84  C   UNL A   1      45.923  25.475  34.840  1.00  0.00     0.020 A 
ATOM     85  C   UNL A   1      45.071  24.746  35.662  1.00  0.00     0.054 A 
BRANCH  85  86
ATOM     86  S   UNL A   1      45.710  23.421  36.705  1.00  0.00     0.124 S 
ATOM     87  O   UNL A   1      45.286  23.861  38.032  1.00  0.00    -0.237 OA
ATOM     88  O   UNL A   1      45.021  22.242  36.186  1.00  0.00    -0.237 OA
ATOM     89  O   UNL A   1      47.149  23.454  36.463  1.00  0.00    -0.744 OA
ENDBRANCH  85  86
ENDBRANCH  59  80
ENDBRANCH  33  34
ENDBRANCH  26  28
ENDBRANCH  25  26
ENDBRANCH  24  25
ENDBRANCH  23  24
ENDBRANCH   1  23
TORSDOF 20
ENDMDL
MODEL 2
REMARK VINA RESULT:     -10.8      2.662      4.958
REMARK SMILES Cc1cccc(C(=O)OCCOCCOC(=O)c2ccc(-c3c4nc(c(-c5ccc(S(=O)(=O)[O-])cc5)c5ccc([nH]5)c(-c5ccc(S(=O)(=O)[O-])cc5)c5nc(c(-c6ccc(S(=O)(=O)[O-])cc6)c6ccc3[nH]6)C=C5)C=C4)cc2)c1OC[C@@H]1C[C@H]2CC[C@@H]1C2
REMARK SMILES IDX 12 1 11 2 10 3 9 4 7 5 8 6 6 7 1 8 2 9 3 10 78 11 4 12 5 13
REMARK SMILES IDX 79 14 80 15 81 16 82 17 86 18 83 19 85 20 87 21 84 22 13 23
REMARK SMILES IDX 14 24 15 25 16 26 17 27 18 28 19 29 77 30 20 31 76 32 21 33
REMARK SMILES IDX 22 34 23 35 70 36 24 37 75 38 69 39 71 40 25 41 74 42 68 43
REMARK SMILES IDX 67 44 26 46 56 47 37 48 55 49 38 50 41 51 54 52 72 53 39 54
REMARK SMILES IDX 40 55 53 57 73 58 42 59 27 60 28 61 36 62 29 63 35 64 30 65
REMARK SMILES IDX 31 66 32 67 33 68 34 69 57 70 58 71 66 72 59 73 65 74 60 75
REMARK SMILES IDX 61 76 62 77 63 78 64 79 43 80 44 81 52 82 45 83 51 84 46 85
REMARK SMILES IDX 47 86 48 87 49 88 50 89
REMARK H PARENT 71 45 41 56
REMARK Flexibility Score: inf
ROOT
ATOM      1  O   UNL A   1      33.372  28.500  24.199  1.00  0.00    -0.374 OA
ENDROOT
BRANCH   1   2
ATOM      2  C   UNL A   1      33.300  28.952  22.849  1.00  0.00     0.202 C 
BRANCH   2   3
ATOM      3  C   UNL A   1      34.022  27.926  22.019  1.00  0.00     0.261 C 
BRANCH   3   4
ATOM      4  O   UNL A   1      33.802  26.575  22.471  1.00  0.00    -0.460 OA
BRANCH   4   5
ATOM      5  C   UNL A   1      32.943  25.797  21.780  1.00  0.00     0.342 C 
ATOM      6  O   UNL A   1      32.859  25.680  20.575  1.00  0.00    -0.246 OA
BRANCH   5   7
ATOM      7  C   UNL A   1      32.130  24.995  22.725  1.00  0.00     0.102 A 
ATOM      8  C   UNL A   1      29.828  25.284  25.748  1.00  0.00     0.048 C 
ATOM      9  C   UNL A   1      30.680  24.725  24.642  1.00  0.00    -0.008 A 
ATOM     10  C   UNL A   1      31.111  23.390  24.762  1.00  0.00     0.007 A 
ATOM     11  C   UNL A   1      31.147  25.528  23.586  1.00  0.00     0.136 A 
ATOM     12  C   UNL A   1      32.049  22.859  23.887  1.00  0.00     0.001 A 
ATOM     13  C   UNL A   1      32.562  23.660  22.875  1.00  0.00     0.019 A 
BRANCH  11  14
ATOM     14  O   UNL A   1      30.878  26.866  23.677  1.00  0.00    -0.492 OA
BRANCH  14  15
ATOM     15  C   UNL A   1      29.883  27.523  22.869  1.00  0.00     0.233 C 
BRANCH  15  16
ATOM     16  C   UNL A   1      29.132  28.762  23.376  1.00  0.00     0.030 C 
ATOM     17  C   UNL A   1      27.705  28.882  22.759  1.00  0.00     0.011 C 
ATOM     18  C   UNL A   1      29.752  30.112  22.937  1.00  0.00    -0.004 C 
ATOM     19  C   UNL A   1      27.652  30.334  22.249  1.00  0.00    -0.010 C 
ATOM     20  C   UNL A   1      29.208  31.199  23.874  1.00  0.00     0.004 C 
ATOM     21  C   UNL A   1      29.036  30.458  21.628  1.00  0.00     0.007 C 
ATOM     22  C   UNL A   1      27.742  31.313  23.435  1.00  0.00     0.004 C 
ENDBRANCH  15  16
ENDBRANCH  14  15
ENDBRANCH  11  14
ENDBRANCH   5   7
ENDBRANCH   4   5
ENDBRANCH   3   4
ENDBRANCH   2   3
ENDBRANCH   1   2
BRANCH   1  23
ATOM     23  C   UNL A   1      32.953  29.411  25.189  1.00  0.00     0.202 C 
BRANCH  23  24
ATOM     24  C   UNL A   1      33.489  29.074  26.584  1.00  0.00     0.261 C 
BRANCH  24  25
ATOM     25  O   UNL A   1      33.384  30.210  27.472  1.00  0.00    -0.460 OA
BRANCH  25  26
ATOM     26  C   UNL A   1      34.491  31.008  27.559  1.00  0.00     0.338 C 
ATOM     27  O   UNL A   1      34.499  32.188  27.257  1.00  0.00    -0.246 OA
BRANCH  26  28
ATOM     28  C   UNL A   1      35.653  30.232  28.086  1.00  0.00     0.060 A 
ATOM     29  C   UNL A   1      35.668  29.722  29.396  1.00  0.00     0.016 A 
ATOM     30  C   UNL A   1      36.814  30.199  27.325  1.00  0.00     0.016 A 
ATOM     31  C   UNL A   1      36.882  29.323  29.993  1.00  0.00     0.010 A 
ATOM     32  C   UNL A   1      38.010  29.920  27.947  1.00  0.00     0.010 A 
ATOM     33  C   UNL A   1      38.068  29.499  29.290  1.00  0.00    -0.014 A 
BRANCH  33  34
ATOM     34  C   UNL A   1      39.448  29.319  29.769  1.00  0.00     0.031 A 
ATOM     35  C   UNL A   1      40.045  27.975  29.547  1.00  0.00     0.074 A 
ATOM     36  C   UNL A   1      40.266  30.387  29.957  1.00  0.00     0.049 A 
ATOM     37  N   UNL A   1      41.271  27.678  29.783  1.00  0.00    -0.248 NA
ATOM     38  C   UNL A   1      39.285  26.827  29.038  1.00  0.00     0.031 C 
ATOM     39  C   UNL A   1      41.698  30.493  29.655  1.00  0.00     0.029 A 
ATOM     40  N   UNL A   1      39.977  31.651  30.470  1.00  0.00    -0.354 N 
ATOM     41  C   UNL A   1      41.544  26.508  29.116  1.00  0.00     0.074 A 
ATOM     42  C   UNL A   1      40.261  25.950  28.782  1.00  0.00     0.031 C 
ATOM     43  C   UNL A   1      42.201  31.615  30.200  1.00  0.00     0.029 A 
ATOM     44  C   UNL A   1      41.149  32.201  31.011  1.00  0.00     0.049 A 
ATOM     45  H   UNL A   1      39.094  32.086  30.455  1.00  0.00     0.167 HD
ATOM     46  C   UNL A   1      42.840  26.235  28.806  1.00  0.00     0.031 A 
ATOM     47  C   UNL A   1      41.201  32.525  32.332  1.00  0.00     0.031 A 
ATOM     48  C   UNL A   1      43.743  27.174  29.481  1.00  0.00     0.049 A 
ATOM     49  C   UNL A   1      42.193  31.604  32.989  1.00  0.00     0.074 A 
ATOM     50  C   UNL A   1      44.513  28.237  29.048  1.00  0.00     0.029 A 
ATOM     51  N   UNL A   1      43.661  27.288  30.870  1.00  0.00    -0.354 N 
ATOM     52  N   UNL A   1      42.516  30.446  32.477  1.00  0.00    -0.248 NA
ATOM     53  C   UNL A   1      42.990  31.937  34.164  1.00  0.00     0.031 C 
ATOM     54  C   UNL A   1      44.783  29.061  30.184  1.00  0.00     0.029 A 
ATOM     55  C   UNL A   1      44.220  28.472  31.308  1.00  0.00     0.049 A 
ATOM     56  H   UNL A   1      43.257  26.611  31.460  1.00  0.00     0.167 HD
ATOM     57  C   UNL A   1      43.590  29.939  33.133  1.00  0.00     0.074 A 
ATOM     58  C   UNL A   1      43.821  30.878  34.220  1.00  0.00     0.031 C 
ATOM     59  C   UNL A   1      44.227  28.803  32.732  1.00  0.00     0.031 A 
BRANCH  46  60
ATOM     60  C   UNL A   1      43.288  25.236  27.764  1.00  0.00    -0.014 A 
ATOM     61  C   UNL A   1      44.057  24.126  28.164  1.00  0.00     0.010 A 
ATOM     62  C   UNL A   1      43.069  25.370  26.375  1.00  0.00     0.010 A 
ATOM     63  C   UNL A   1      44.562  23.196  27.240  1.00  0.00     0.020 A 
ATOM     64  C   UNL A   1      43.541  24.432  25.442  1.00  0.00     0.020 A 
ATOM     65  C   UNL A   1      44.293  23.351  25.882  1.00  0.00     0.054 A 
BRANCH  65  66
ATOM     66  S   UNL A   1      44.948  22.139  24.704  1.00  0.00     0.124 S 
ATOM     67  O   UNL A   1      43.870  21.156  24.634  1.00  0.00    -0.237 OA
ATOM     68  O   UNL A   1      45.148  22.942  23.500  1.00  0.00    -0.237 OA
ATOM     69  O   UNL A   1      46.177  21.662  25.338  1.00  0.00    -0.744 OA
ENDBRANCH  65  66
ENDBRANCH  46  60
BRANCH  47  70
ATOM     70  C   UNL A   1      39.876  33.035  32.829  1.00  0.00    -0.014 A 
ATOM     71  C   UNL A   1      39.405  34.230  32.227  1.00  0.00     0.010 A 
ATOM     72  C   UNL A   1      38.919  32.135  33.338  1.00  0.00     0.010 A 
ATOM     73  C   UNL A   1      38.041  34.416  31.952  1.00  0.00     0.020 A 
ATOM     74  C   UNL A   1      37.550  32.319  33.056  1.00  0.00     0.020 A 
ATOM     75  C   UNL A   1      37.126  33.427  32.314  1.00  0.00     0.054 A 
BRANCH  75  76
ATOM     76  S   UNL A   1      35.441  33.485  31.604  1.00  0.00     0.124 S 
ATOM     77  O   UNL A   1      35.702  33.824  30.209  1.00  0.00    -0.237 OA
ATOM     78  O   UNL A   1      34.938  32.129  31.826  1.00  0.00    -0.237 OA
ATOM     79  O   UNL A   1      34.776  34.518  32.393  1.00  0.00    -0.744 OA
ENDBRANCH  75  76
ENDBRANCH  47  70
BRANCH  59  80
ATOM     80  C   UNL A   1      44.975  27.928  33.694  1.00  0.00    -0.014 A 
ATOM     81  C   UNL A   1      46.348  28.085  33.942  1.00  0.00     0.010 A 
ATOM     82  C   UNL A   1      44.264  27.026  34.515  1.00  0.00     0.010 A 
ATOM     83  C   UNL A   1      47.007  27.295  34.881  1.00  0.00     0.020 A 
ATOM     84  C   UNL A   1      44.902  26.280  35.506  1.00  0.00     0.020 A 
ATOM     85  C   UNL A   1      46.281  26.390  35.649  1.00  0.00     0.054 A 
BRANCH  85  86
ATOM     86  S   UNL A   1      47.163  25.378  36.853  1.00  0.00     0.124 S 
ATOM     87  O   UNL A   1      48.541  25.501  36.387  1.00  0.00    -0.237 OA
ATOM     88  O   UNL A   1      46.866  26.049  38.117  1.00  0.00    -0.237 OA
ATOM     89  O   UNL A   1      46.563  24.056  36.699  1.00  0.00    -0.744 OA
ENDBRANCH  85  86
ENDBRANCH  59  80
ENDBRANCH  33  34
ENDBRANCH  26  28
ENDBRANCH  25  26
ENDBRANCH  24  25
ENDBRANCH  23  24
ENDBRANCH   1  23
TORSDOF 20
ENDMDL
MODEL 3
REMARK VINA RESULT:     -10.4      1.157      2.652
REMARK SMILES Cc1cccc(C(=O)OCCOCCOC(=O)c2ccc(-c3c4nc(c(-c5ccc(S(=O)(=O)[O-])cc5)c5ccc([nH]5)c(-c5ccc(S(=O)(=O)[O-])cc5)c5nc(c(-c6ccc(S(=O)(=O)[O-])cc6)c6ccc3[nH]6)C=C5)C=C4)cc2)c1OC[C@@H]1C[C@H]2CC[C@@H]1C2
REMARK SMILES IDX 12 1 11 2 10 3 9 4 7 5 8 6 6 7 1 8 2 9 3 10 78 11 4 12 5 13
REMARK SMILES IDX 79 14 80 15 81 16 82 17 86 18 83 19 85 20 87 21 84 22 13 23
REMARK SMILES IDX 14 24 15 25 16 26 17 27 18 28 19 29 77 30 20 31 76 32 21 33
REMARK SMILES IDX 22 34 23 35 70 36 24 37 75 38 69 39 71 40 25 41 74 42 68 43
REMARK SMILES IDX 67 44 26 46 56 47 37 48 55 49 38 50 41 51 54 52 72 53 39 54
REMARK SMILES IDX 40 55 53 57 73 58 42 59 27 60 28 61 36 62 29 63 35 64 30 65
REMARK SMILES IDX 31 66 32 67 33 68 34 69 57 70 58 71 66 72 59 73 65 74 60 75
REMARK SMILES IDX 61 76 62 77 63 78 64 79 43 80 44 81 52 82 45 83 51 84 46 85
REMARK SMILES IDX 47 86 48 87 49 88 50 89
REMARK H PARENT 71 45 41 56
REMARK Flexibility Score: inf
ROOT
ATOM      1  O   UNL A   1      32.116  27.713  25.784  1.00  0.00    -0.374 OA
ENDROOT
BRANCH   1   2
ATOM      2  C   UNL A   1      30.999  26.874  26.064  1.00  0.00     0.202 C 
BRANCH   2   3
ATOM      3  C   UNL A   1      31.521  25.464  26.084  1.00  0.00     0.261 C 
BRANCH   3   4
ATOM      4  O   UNL A   1      31.278  24.752  24.856  1.00  0.00    -0.460 OA
BRANCH   4   5
ATOM      5  C   UNL A   1      32.333  24.249  24.183  1.00  0.00     0.342 C 
ATOM      6  O   UNL A   1      33.332  24.840  23.829  1.00  0.00    -0.246 OA
BRANCH   5   7
ATOM      7  C   UNL A   1      32.154  22.789  23.998  1.00  0.00     0.102 A 
ATOM      8  C   UNL A   1      32.949  19.413  25.575  1.00  0.00     0.048 C 
ATOM      9  C   UNL A   1      32.476  20.474  24.621  1.00  0.00    -0.008 A 
ATOM     10  C   UNL A   1      32.264  20.098  23.281  1.00  0.00     0.007 A 
ATOM     11  C   UNL A   1      32.371  21.823  25.004  1.00  0.00     0.136 A 
ATOM     12  C   UNL A   1      32.012  21.050  22.302  1.00  0.00     0.001 A 
ATOM     13  C   UNL A   1      31.963  22.392  22.658  1.00  0.00     0.019 A 
BRANCH  11  14
ATOM     14  O   UNL A   1      32.826  22.136  26.255  1.00  0.00    -0.492 OA
BRANCH  14  15
ATOM     15  C   UNL A   1      34.026  22.898  26.487  1.00  0.00     0.233 C 
BRANCH  15  16
ATOM     16  C   UNL A   1      35.416  22.290  26.257  1.00  0.00     0.030 C 
ATOM     17  C   UNL A   1      36.538  23.372  26.234  1.00  0.00     0.011 C 
ATOM     18  C   UNL A   1      35.610  21.642  24.863  1.00  0.00    -0.004 C 
ATOM     19  C   UNL A   1      37.322  23.053  24.947  1.00  0.00    -0.010 C 
ATOM     20  C   UNL A   1      36.815  20.697  24.953  1.00  0.00     0.004 C 
ATOM     21  C   UNL A   1      36.175  22.767  23.990  1.00  0.00     0.007 C 
ATOM     22  C   UNL A   1      37.994  21.672  25.068  1.00  0.00     0.004 C 
ENDBRANCH  15  16
ENDBRANCH  14  15
ENDBRANCH  11  14
ENDBRANCH   5   7
ENDBRANCH   4   5
ENDBRANCH   3   4
ENDBRANCH   2   3
ENDBRANCH   1   2
BRANCH   1  23
ATOM     23  C   UNL A   1      31.933  29.094  25.995  1.00  0.00     0.202 C 
BRANCH  23  24
ATOM     24  C   UNL A   1      33.252  29.868  26.095  1.00  0.00     0.261 C 
BRANCH  24  25
ATOM     25  O   UNL A   1      33.408  30.466  27.402  1.00  0.00    -0.460 OA
BRANCH  25  26
ATOM     26  C   UNL A   1      34.531  31.223  27.585  1.00  0.00     0.338 C 
ATOM     27  O   UNL A   1      34.587  32.417  27.346  1.00  0.00    -0.246 OA
BRANCH  26  28
ATOM     28  C   UNL A   1      35.643  30.387  28.125  1.00  0.00     0.060 A 
ATOM     29  C   UNL A   1      35.534  29.718  29.357  1.00  0.00     0.016 A 
ATOM     30  C   UNL A   1      36.875  30.447  27.486  1.00  0.00     0.016 A 
ATOM     31  C   UNL A   1      36.686  29.246  30.019  1.00  0.00     0.010 A 
ATOM     32  C   UNL A   1      38.006  30.091  28.185  1.00  0.00     0.010 A 
ATOM     33  C   UNL A   1      37.935  29.507  29.465  1.00  0.00    -0.014 A 
BRANCH  33  34
ATOM     34  C   UNL A   1      39.262  29.266  30.053  1.00  0.00     0.031 A 
ATOM     35  C   UNL A   1      39.912  27.979  29.693  1.00  0.00     0.074 A 
ATOM     36  C   UNL A   1      40.030  30.300  30.488  1.00  0.00     0.049 A 
ATOM     37  N   UNL A   1      41.115  27.659  30.009  1.00  0.00    -0.248 NA
ATOM     38  C   UNL A   1      39.237  26.916  28.937  1.00  0.00     0.031 C 
ATOM     39  C   UNL A   1      41.483  30.463  30.358  1.00  0.00     0.029 A 
ATOM     40  N   UNL A   1      39.658  31.466  31.155  1.00  0.00    -0.354 N 
ATOM     41  C   UNL A   1      41.484  26.609  29.203  1.00  0.00     0.074 A 
ATOM     42  C   UNL A   1      40.256  26.098  28.655  1.00  0.00     0.031 C 
ATOM     43  C   UNL A   1      41.898  31.492  31.119  1.00  0.00     0.029 A 
ATOM     44  C   UNL A   1      40.754  31.937  31.894  1.00  0.00     0.049 A 
ATOM     45  H   UNL A   1      38.771  31.891  31.113  1.00  0.00     0.167 HD
ATOM     46  C   UNL A   1      42.811  26.398  28.994  1.00  0.00     0.031 A 
ATOM     47  C   UNL A   1      40.663  32.053  33.248  1.00  0.00     0.031 A 
ATOM     48  C   UNL A   1      43.616  27.229  29.896  1.00  0.00     0.049 A 
ATOM     49  C   UNL A   1      41.604  31.050  33.857  1.00  0.00     0.074 A 
ATOM     50  C   UNL A   1      44.400  28.353  29.714  1.00  0.00     0.029 A 
ATOM     51  N   UNL A   1      43.389  27.126  31.269  1.00  0.00    -0.354 N 
ATOM     52  N   UNL A   1      42.006  29.988  33.210  1.00  0.00    -0.248 NA
ATOM     53  C   UNL A   1      42.267  31.204  35.146  1.00  0.00     0.031 C 
ATOM     54  C   UNL A   1      44.531  28.993  30.985  1.00  0.00     0.029 A 
ATOM     55  C   UNL A   1      43.869  28.233  31.940  1.00  0.00     0.049 A 
ATOM     56  H   UNL A   1      42.943  26.362  31.702  1.00  0.00     0.167 HD
ATOM     57  C   UNL A   1      43.019  29.394  33.891  1.00  0.00     0.074 A 
ATOM     58  C   UNL A   1      43.114  30.156  35.127  1.00  0.00     0.031 C 
ATOM     59  C   UNL A   1      43.723  28.340  33.391  1.00  0.00     0.031 A 
BRANCH  46  60
ATOM     60  C   UNL A   1      43.388  25.576  27.864  1.00  0.00    -0.014 A 
ATOM     61  C   UNL A   1      43.512  24.182  28.024  1.00  0.00     0.010 A 
ATOM     62  C   UNL A   1      43.906  26.110  26.664  1.00  0.00     0.010 A 
ATOM     63  C   UNL A   1      44.101  23.368  27.042  1.00  0.00     0.020 A 
ATOM     64  C   UNL A   1      44.470  25.306  25.660  1.00  0.00     0.020 A 
ATOM     65  C   UNL A   1      44.570  23.935  25.860  1.00  0.00     0.054 A 
BRANCH  65  66
ATOM     66  S   UNL A   1      45.321  22.869  24.601  1.00  0.00     0.124 S 
ATOM     67  O   UNL A   1      46.111  23.816  23.819  1.00  0.00    -0.237 OA
ATOM     68  O   UNL A   1      46.088  21.921  25.405  1.00  0.00    -0.237 OA
ATOM     69  O   UNL A   1      44.174  22.295  23.898  1.00  0.00    -0.744 OA
ENDBRANCH  65  66
ENDBRANCH  46  60
BRANCH  47  70
ATOM     70  C   UNL A   1      39.281  32.468  33.674  1.00  0.00    -0.014 A 
ATOM     71  C   UNL A   1      38.948  33.830  33.461  1.00  0.00     0.010 A 
ATOM     72  C   UNL A   1      38.230  31.529  33.677  1.00  0.00     0.010 A 
ATOM     73  C   UNL A   1      37.659  34.209  33.055  1.00  0.00     0.020 A 
ATOM     74  C   UNL A   1      36.937  31.908  33.263  1.00  0.00     0.020 A 
ATOM     75  C   UNL A   1      36.675  33.234  32.898  1.00  0.00     0.054 A 
BRANCH  75  76
ATOM     76  S   UNL A   1      35.143  33.667  31.995  1.00  0.00     0.124 S 
ATOM     77  O   UNL A   1      34.892  35.032  32.444  1.00  0.00    -0.237 OA
ATOM     78  O   UNL A   1      35.536  33.541  30.591  1.00  0.00    -0.237 OA
ATOM     79  O   UNL A   1      34.186  32.663  32.451  1.00  0.00    -0.744 OA
ENDBRANCH  75  76
ENDBRANCH  47  70
BRANCH  59  80
ATOM     80  C   UNL A   1      44.388  27.333  34.281  1.00  0.00    -0.014 A 
ATOM     81  C   UNL A   1      43.719  26.713  35.348  1.00  0.00     0.010 A 
ATOM     82  C   UNL A   1      45.674  26.851  33.952  1.00  0.00     0.010 A 
ATOM     83  C   UNL A   1      44.343  25.741  36.126  1.00  0.00     0.020 A 
ATOM     84  C   UNL A   1      46.281  25.830  34.681  1.00  0.00     0.020 A 
ATOM     85  C   UNL A   1      45.625  25.314  35.793  1.00  0.00     0.054 A 
BRANCH  85  86
ATOM     86  S   UNL A   1      46.409  24.058  36.823  1.00  0.00     0.124 S 
ATOM     87  O   UNL A   1      45.595  22.883  36.524  1.00  0.00    -0.237 OA
ATOM     88  O   UNL A   1      47.774  24.023  36.303  1.00  0.00    -0.237 OA
ATOM     89  O   UNL A   1      46.276  24.587  38.177  1.00  0.00    -0.744 OA
ENDBRANCH  85  86
ENDBRANCH  59  80
ENDBRANCH  33  34
ENDBRANCH  26  28
ENDBRANCH  25  26
ENDBRANCH  24  25
ENDBRANCH  23  24
ENDBRANCH   1  23
TORSDOF 20
ENDMDL
