MODEL 1
REMARK VINA RESULT:     -10.6      0.000      0.000
REMARK SMILES CC[C@H](NC(=O)c1ccc(C)nc1)C(=O)OCCOCCOC(=O)c1ccc(-c2c3nc(c(-c4ccc(S(=O)(=O)[O-])cc4)c4ccc([nH]4)c(-c4ccc(S(=O)(=O)[O-])cc4)c4nc(c(-c5ccc(S(=O)(=O)[O-])cc5)c5ccc2[nH]5)C=C4)C=C3)cc1
REMARK SMILES IDX 20 1 19 2 18 3 17 4 16 5 14 6 15 7 3 8 2 9 1 10 4 11 5 12
REMARK SMILES IDX 6 14 7 15 8 16 13 17 9 18 12 19 10 20 11 21 21 22 22 23
REMARK SMILES IDX 23 24 24 25 25 26 26 27 84 28 27 29 83 30 28 31 29 32 30 33
REMARK SMILES IDX 77 34 31 35 82 36 76 37 78 38 32 39 81 40 75 41 74 42 33 44
REMARK SMILES IDX 63 45 44 46 62 47 45 48 48 49 61 50 79 51 46 52 47 53 60 55
REMARK SMILES IDX 80 56 49 57 34 58 35 59 43 60 36 61 42 62 37 63 38 64 39 65
REMARK SMILES IDX 40 66 41 67 64 68 65 69 73 70 66 71 72 72 67 73 68 74 69 75
REMARK SMILES IDX 70 76 71 77 50 78 51 79 59 80 52 81 58 82 53 83 54 84 55 85
REMARK SMILES IDX 56 86 57 87
REMARK H PARENT 4 13 78 43 48 54
REMARK Flexibility Score: inf
ROOT
ATOM      1  C   UNL A   1      31.688  30.873  26.438  1.00  0.00     0.202 C 
ENDROOT
BRANCH   1   2
ATOM      2  O   UNL A   1      32.842  30.174  25.992  1.00  0.00    -0.374 OA
BRANCH   2   3
ATOM      3  C   UNL A   1      33.306  29.012  26.699  1.00  0.00     0.202 C 
BRANCH   3   4
ATOM      4  C   UNL A   1      32.719  27.621  26.394  1.00  0.00     0.261 C 
BRANCH   4   5
ATOM      5  O   UNL A   1      33.729  26.600  26.251  1.00  0.00    -0.462 OA
BRANCH   5   6
ATOM      6  C   UNL A   1      33.286  25.352  25.950  1.00  0.00     0.328 C 
ATOM      7  O   UNL A   1      32.759  24.593  26.759  1.00  0.00    -0.250 OA
BRANCH   6   8
ATOM      8  C   UNL A   1      33.519  24.951  24.482  1.00  0.00     0.192 C 
BRANCH   8   9
ATOM      9  C   UNL A   1      34.525  23.778  24.615  1.00  0.00     0.033 C 
ATOM     10  C   UNL A   1      35.166  23.255  23.345  1.00  0.00     0.007 C 
ENDBRANCH   8   9
BRANCH   8  11
ATOM     11  N   UNL A   1      33.939  25.984  23.507  1.00  0.00    -0.339 N 
ATOM     12  C   UNL A   1      33.165  26.384  22.432  1.00  0.00     0.253 C 
ATOM     13  H   UNL A   1      34.817  26.411  23.631  1.00  0.00     0.164 HD
ATOM     14  O   UNL A   1      33.531  26.142  21.287  1.00  0.00    -0.269 OA
BRANCH  12  15
ATOM     15  C   UNL A   1      31.924  27.142  22.626  1.00  0.00     0.058 A 
ATOM     16  C   UNL A   1      31.775  28.871  22.179  1.00  0.00     0.017 A 
ATOM     17  C   UNL A   1      30.463  26.285  23.186  1.00  0.00     0.125 A 
ATOM     18  C   UNL A   1      30.178  29.730  22.359  1.00  0.00     0.024 A 
ATOM     19  N   UNL A   1      28.920  27.111  23.401  1.00  0.00    -0.261 NA
ATOM     20  C   UNL A   1      28.768  28.813  22.959  1.00  0.00     0.037 A 
ATOM     21  C   UNL A   1      27.496  29.508  23.314  1.00  0.00     0.066 C 
ENDBRANCH  12  15
ENDBRANCH   8  11
ENDBRANCH   6   8
ENDBRANCH   5   6
ENDBRANCH   4   5
ENDBRANCH   3   4
ENDBRANCH   2   3
ENDBRANCH   1   2
BRANCH   1  22
ATOM     22  C   UNL A   1      31.514  32.509  26.546  1.00  0.00     0.261 C 
BRANCH  22  23
ATOM     23  O   UNL A   1      32.278  33.877  27.824  1.00  0.00    -0.460 OA
BRANCH  23  24
ATOM     24  C   UNL A   1      32.888  34.809  28.681  1.00  0.00     0.338 C 
ATOM     25  O   UNL A   1      32.457  35.953  28.807  1.00  0.00    -0.246 OA
BRANCH  24  26
ATOM     26  C   UNL A   1      34.147  34.497  29.443  1.00  0.00     0.060 A 
ATOM     27  C   UNL A   1      35.403  34.379  28.831  1.00  0.00     0.016 A 
ATOM     28  C   UNL A   1      34.020  34.105  30.783  1.00  0.00     0.016 A 
ATOM     29  C   UNL A   1      36.517  33.904  29.548  1.00  0.00     0.010 A 
ATOM     30  C   UNL A   1      35.128  33.610  31.495  1.00  0.00     0.010 A 
ATOM     31  C   UNL A   1      36.383  33.477  30.877  1.00  0.00    -0.014 A 
BRANCH  31  32
ATOM     32  C   UNL A   1      37.478  32.710  31.545  1.00  0.00     0.031 A 
ATOM     33  C   UNL A   1      37.983  33.178  32.891  1.00  0.00     0.074 A 
ATOM     34  C   UNL A   1      38.030  31.607  30.998  1.00  0.00     0.049 A 
ATOM     35  N   UNL A   1      38.941  32.684  33.638  1.00  0.00    -0.248 NA
ATOM     36  C   UNL A   1      37.316  34.355  33.469  1.00  0.00     0.031 C 
ATOM     37  C   UNL A   1      37.635  30.998  29.730  1.00  0.00     0.029 A 
ATOM     38  N   UNL A   1      39.054  30.803  31.450  1.00  0.00    -0.354 N 
ATOM     39  C   UNL A   1      38.997  33.494  34.768  1.00  0.00     0.074 A 
ATOM     40  C   UNL A   1      37.993  34.523  34.596  1.00  0.00     0.031 C 
ATOM     41  C   UNL A   1      38.412  29.922  29.503  1.00  0.00     0.029 A 
ATOM     42  C   UNL A   1      39.380  29.779  30.592  1.00  0.00     0.049 A 
ATOM     43  H   UNL A   1      39.512  30.951  32.310  1.00  0.00     0.167 HD
ATOM     44  C   UNL A   1      39.801  33.397  35.854  1.00  0.00     0.031 A 
ATOM     45  C   UNL A   1      40.350  28.842  30.661  1.00  0.00     0.031 A 
ATOM     46  C   UNL A   1      40.813  32.393  36.044  1.00  0.00     0.049 A 
ATOM     47  C   UNL A   1      41.288  28.800  31.843  1.00  0.00     0.074 A 
ATOM     48  C   UNL A   1      41.654  32.216  37.133  1.00  0.00     0.029 A 
ATOM     49  N   UNL A   1      41.135  31.404  35.130  1.00  0.00    -0.354 N 
ATOM     50  N   UNL A   1      41.303  29.556  32.914  1.00  0.00    -0.248 NA
ATOM     51  C   UNL A   1      42.340  27.769  31.824  1.00  0.00     0.031 C 
ATOM     52  C   UNL A   1      42.519  31.152  36.852  1.00  0.00     0.029 A 
ATOM     53  C   UNL A   1      42.179  30.632  35.614  1.00  0.00     0.049 A 
ATOM     54  H   UNL A   1      40.688  31.270  34.263  1.00  0.00     0.167 HD
ATOM     55  C   UNL A   1      42.344  29.074  33.705  1.00  0.00     0.074 A 
ATOM     56  C   UNL A   1      42.930  27.957  32.998  1.00  0.00     0.031 C 
ATOM     57  C   UNL A   1      42.767  29.519  34.915  1.00  0.00     0.031 A 
BRANCH  44  58
ATOM     58  C   UNL A   1      39.635  34.438  36.930  1.00  0.00    -0.014 A 
ATOM     59  C   UNL A   1      38.880  34.171  38.086  1.00  0.00     0.010 A 
ATOM     60  C   UNL A   1      40.279  35.681  36.800  1.00  0.00     0.010 A 
ATOM     61  C   UNL A   1      38.743  35.146  39.078  1.00  0.00     0.020 A 
ATOM     62  C   UNL A   1      40.164  36.650  37.801  1.00  0.00     0.020 A 
ATOM     63  C   UNL A   1      39.381  36.380  38.927  1.00  0.00     0.054 A 
BRANCH  63  64
ATOM     64  S   UNL A   1      39.207  37.619  40.240  1.00  0.00     0.124 S 
ATOM     65  O   UNL A   1      38.712  36.811  41.352  1.00  0.00    -0.237 OA
ATOM     66  O   UNL A   1      40.570  38.124  40.390  1.00  0.00    -0.237 OA
ATOM     67  O   UNL A   1      38.250  38.576  39.690  1.00  0.00    -0.744 OA
ENDBRANCH  63  64
ENDBRANCH  44  58
BRANCH  45  68
ATOM     68  C   UNL A   1      40.510  27.852  29.558  1.00  0.00    -0.014 A 
ATOM     69  C   UNL A   1      39.724  26.686  29.521  1.00  0.00     0.010 A 
ATOM     70  C   UNL A   1      41.471  28.060  28.553  1.00  0.00     0.010 A 
ATOM     71  C   UNL A   1      39.903  25.743  28.505  1.00  0.00     0.020 A 
ATOM     72  C   UNL A   1      41.636  27.132  27.522  1.00  0.00     0.020 A 
ATOM     73  C   UNL A   1      40.857  25.973  27.509  1.00  0.00     0.054 A 
BRANCH  73  74
ATOM     74  S   UNL A   1      41.031  24.768  26.163  1.00  0.00     0.124 S 
ATOM     75  O   UNL A   1      41.892  23.758  26.767  1.00  0.00    -0.237 OA
ATOM     76  O   UNL A   1      39.648  24.362  25.922  1.00  0.00    -0.237 OA
ATOM     77  O   UNL A   1      41.636  25.548  25.086  1.00  0.00    -0.744 OA
ENDBRANCH  73  74
ENDBRANCH  45  68
BRANCH  57  78
ATOM     78  C   UNL A   1      43.901  28.782  35.583  1.00  0.00    -0.014 A 
ATOM     79  C   UNL A   1      43.665  27.680  36.422  1.00  0.00     0.010 A 
ATOM     80  C   UNL A   1      45.230  29.163  35.314  1.00  0.00     0.010 A 
ATOM     81  C   UNL A   1      44.734  26.988  37.001  1.00  0.00     0.020 A 
ATOM     82  C   UNL A   1      46.302  28.459  35.872  1.00  0.00     0.020 A 
ATOM     83  C   UNL A   1      46.047  27.382  36.724  1.00  0.00     0.054 A 
BRANCH  83  84
ATOM     84  S   UNL A   1      47.419  26.443  37.452  1.00  0.00     0.124 S 
ATOM     85  O   UNL A   1      47.481  26.992  38.803  1.00  0.00    -0.237 OA
ATOM     86  O   UNL A   1      46.953  25.062  37.355  1.00  0.00    -0.237 OA
ATOM     87  O   UNL A   1      48.556  26.771  36.595  1.00  0.00    -0.744 OA
ENDBRANCH  83  84
ENDBRANCH  57  78
ENDBRANCH  31  32
ENDBRANCH  24  26
ENDBRANCH  23  24
ENDBRANCH  22  23
ENDBRANCH   1  22
TORSDOF 20
ENDMDL
MODEL 2
REMARK VINA RESULT:     -10.5      1.362      3.070
REMARK SMILES CC[C@H](NC(=O)c1ccc(C)nc1)C(=O)OCCOCCOC(=O)c1ccc(-c2c3nc(c(-c4ccc(S(=O)(=O)[O-])cc4)c4ccc([nH]4)c(-c4ccc(S(=O)(=O)[O-])cc4)c4nc(c(-c5ccc(S(=O)(=O)[O-])cc5)c5ccc2[nH]5)C=C4)C=C3)cc1
REMARK SMILES IDX 20 1 19 2 18 3 17 4 16 5 14 6 15 7 3 8 2 9 1 10 4 11 5 12
REMARK SMILES IDX 6 14 7 15 8 16 13 17 9 18 12 19 10 20 11 21 21 22 22 23
REMARK SMILES IDX 23 24 24 25 25 26 26 27 84 28 27 29 83 30 28 31 29 32 30 33
REMARK SMILES IDX 77 34 31 35 82 36 76 37 78 38 32 39 81 40 75 41 74 42 33 44
REMARK SMILES IDX 63 45 44 46 62 47 45 48 48 49 61 50 79 51 46 52 47 53 60 55
REMARK SMILES IDX 80 56 49 57 34 58 35 59 43 60 36 61 42 62 37 63 38 64 39 65
REMARK SMILES IDX 40 66 41 67 64 68 65 69 73 70 66 71 72 72 67 73 68 74 69 75
REMARK SMILES IDX 70 76 71 77 50 78 51 79 59 80 52 81 58 82 53 83 54 84 55 85
REMARK SMILES IDX 56 86 57 87
REMARK H PARENT 4 13 78 43 48 54
REMARK Flexibility Score: inf
ROOT
ATOM      1  C   UNL A   1      31.685  30.960  26.655  1.00  0.00     0.202 C 
ENDROOT
BRANCH   1   2
ATOM      2  O   UNL A   1      32.666  30.133  27.265  1.00  0.00    -0.374 OA
BRANCH   2   3
ATOM      3  C   UNL A   1      33.845  29.746  26.538  1.00  0.00     0.202 C 
BRANCH   3   4
ATOM      4  C   UNL A   1      33.886  28.420  25.757  1.00  0.00     0.261 C 
BRANCH   4   5
ATOM      5  O   UNL A   1      32.920  28.365  24.686  1.00  0.00    -0.462 OA
BRANCH   5   6
ATOM      6  C   UNL A   1      32.808  27.178  24.036  1.00  0.00     0.328 C 
ATOM      7  O   UNL A   1      33.600  26.778  23.188  1.00  0.00    -0.250 OA
BRANCH   6   8
ATOM      8  C   UNL A   1      31.569  26.362  24.448  1.00  0.00     0.192 C 
BRANCH   8   9
ATOM      9  C   UNL A   1      30.405  27.318  24.077  1.00  0.00     0.033 C 
ATOM     10  C   UNL A   1      30.352  27.843  22.656  1.00  0.00     0.007 C 
ENDBRANCH   8   9
BRANCH   8  11
ATOM     11  N   UNL A   1      31.480  25.827  25.826  1.00  0.00    -0.339 N 
ATOM     12  C   UNL A   1      30.952  24.586  26.135  1.00  0.00     0.253 C 
ATOM     13  H   UNL A   1      31.816  26.385  26.564  1.00  0.00     0.164 HD
ATOM     14  O   UNL A   1      29.910  24.504  26.776  1.00  0.00    -0.269 OA
BRANCH  12  15
ATOM     15  C   UNL A   1      31.639  23.348  25.753  1.00  0.00     0.058 A 
ATOM     16  C   UNL A   1      31.551  22.673  24.096  1.00  0.00     0.017 A 
ATOM     17  C   UNL A   1      32.723  22.559  26.930  1.00  0.00     0.125 A 
ATOM     18  C   UNL A   1      32.504  21.181  23.661  1.00  0.00     0.024 A 
ATOM     19  N   UNL A   1      33.622  21.094  26.537  1.00  0.00    -0.261 NA
ATOM     20  C   UNL A   1      33.541  20.428  24.905  1.00  0.00     0.037 A 
ATOM     21  C   UNL A   1      34.182  19.101  24.667  1.00  0.00     0.066 C 
ENDBRANCH  12  15
ENDBRANCH   8  11
ENDBRANCH   6   8
ENDBRANCH   5   6
ENDBRANCH   4   5
ENDBRANCH   3   4
ENDBRANCH   2   3
ENDBRANCH   1   2
BRANCH   1  22
ATOM     22  C   UNL A   1      31.654  32.608  26.656  1.00  0.00     0.261 C 
BRANCH  22  23
ATOM     23  O   UNL A   1      32.436  33.982  27.917  1.00  0.00    -0.460 OA
BRANCH  23  24
ATOM     24  C   UNL A   1      33.016  34.872  28.837  1.00  0.00     0.338 C 
ATOM     25  O   UNL A   1      32.547  35.989  29.042  1.00  0.00    -0.246 OA
BRANCH  24  26
ATOM     26  C   UNL A   1      34.285  34.550  29.577  1.00  0.00     0.060 A 
ATOM     27  C   UNL A   1      35.520  34.373  28.936  1.00  0.00     0.016 A 
ATOM     28  C   UNL A   1      34.184  34.209  30.932  1.00  0.00     0.016 A 
ATOM     29  C   UNL A   1      36.639  33.890  29.640  1.00  0.00     0.010 A 
ATOM     30  C   UNL A   1      35.296  33.706  31.632  1.00  0.00     0.010 A 
ATOM     31  C   UNL A   1      36.529  33.513  30.986  1.00  0.00    -0.014 A 
BRANCH  31  32
ATOM     32  C   UNL A   1      37.619  32.738  31.653  1.00  0.00     0.031 A 
ATOM     33  C   UNL A   1      38.126  33.198  33.001  1.00  0.00     0.074 A 
ATOM     34  C   UNL A   1      38.165  31.634  31.103  1.00  0.00     0.049 A 
ATOM     35  N   UNL A   1      39.080  32.696  33.747  1.00  0.00    -0.248 NA
ATOM     36  C   UNL A   1      37.465  34.377  33.582  1.00  0.00     0.031 C 
ATOM     37  C   UNL A   1      37.768  31.032  29.832  1.00  0.00     0.029 A 
ATOM     38  N   UNL A   1      39.184  30.822  31.552  1.00  0.00    -0.354 N 
ATOM     39  C   UNL A   1      39.140  33.502  34.879  1.00  0.00     0.074 A 
ATOM     40  C   UNL A   1      38.142  34.537  34.710  1.00  0.00     0.031 C 
ATOM     41  C   UNL A   1      38.539  29.952  29.601  1.00  0.00     0.029 A 
ATOM     42  C   UNL A   1      39.504  29.799  30.691  1.00  0.00     0.049 A 
ATOM     43  H   UNL A   1      39.643  30.964  32.413  1.00  0.00     0.167 HD
ATOM     44  C   UNL A   1      39.942  33.397  35.966  1.00  0.00     0.031 A 
ATOM     45  C   UNL A   1      40.469  28.856  30.757  1.00  0.00     0.031 A 
ATOM     46  C   UNL A   1      40.949  32.386  36.153  1.00  0.00     0.049 A 
ATOM     47  C   UNL A   1      41.406  28.805  31.940  1.00  0.00     0.074 A 
ATOM     48  C   UNL A   1      41.788  32.201  37.242  1.00  0.00     0.029 A 
ATOM     49  N   UNL A   1      41.266  31.399  35.235  1.00  0.00    -0.354 N 
ATOM     50  N   UNL A   1      41.425  29.557  33.013  1.00  0.00    -0.248 NA
ATOM     51  C   UNL A   1      42.452  27.768  31.918  1.00  0.00     0.031 C 
ATOM     52  C   UNL A   1      42.647  31.133  36.958  1.00  0.00     0.029 A 
ATOM     53  C   UNL A   1      42.305  30.619  35.718  1.00  0.00     0.049 A 
ATOM     54  H   UNL A   1      40.819  31.270  34.368  1.00  0.00     0.167 HD
ATOM     55  C   UNL A   1      42.462  29.067  33.804  1.00  0.00     0.074 A 
ATOM     56  C   UNL A   1      43.042  27.949  33.093  1.00  0.00     0.031 C 
ATOM     57  C   UNL A   1      42.887  29.505  35.016  1.00  0.00     0.031 A 
BRANCH  44  58
ATOM     58  C   UNL A   1      39.782  34.434  37.045  1.00  0.00    -0.014 A 
ATOM     59  C   UNL A   1      40.307  35.729  36.889  1.00  0.00     0.010 A 
ATOM     60  C   UNL A   1      39.059  34.120  38.210  1.00  0.00     0.010 A 
ATOM     61  C   UNL A   1      40.142  36.683  37.897  1.00  0.00     0.020 A 
ATOM     62  C   UNL A   1      38.872  35.079  39.210  1.00  0.00     0.020 A 
ATOM     63  C   UNL A   1      39.430  36.349  39.054  1.00  0.00     0.054 A 
BRANCH  63  64
ATOM     64  S   UNL A   1      39.210  37.613  40.337  1.00  0.00     0.124 S 
ATOM     65  O   UNL A   1      38.578  36.846  41.408  1.00  0.00    -0.237 OA
ATOM     66  O   UNL A   1      40.581  38.045  40.601  1.00  0.00    -0.237 OA
ATOM     67  O   UNL A   1      38.359  38.612  39.698  1.00  0.00    -0.744 OA
ENDBRANCH  63  64
ENDBRANCH  44  58
BRANCH  45  68
ATOM     68  C   UNL A   1      40.624  27.869  29.651  1.00  0.00    -0.014 A 
ATOM     69  C   UNL A   1      41.690  27.976  28.740  1.00  0.00     0.010 A 
ATOM     70  C   UNL A   1      39.689  26.832  29.490  1.00  0.00     0.010 A 
ATOM     71  C   UNL A   1      41.812  27.069  27.682  1.00  0.00     0.020 A 
ATOM     72  C   UNL A   1      39.820  25.909  28.449  1.00  0.00     0.020 A 
ATOM     73  C   UNL A   1      40.877  26.039  27.545  1.00  0.00     0.054 A 
BRANCH  73  74
ATOM     74  S   UNL A   1      41.087  24.834  26.204  1.00  0.00     0.124 S 
ATOM     75  O   UNL A   1      42.338  24.182  26.574  1.00  0.00    -0.237 OA
ATOM     76  O   UNL A   1      39.884  24.014  26.324  1.00  0.00    -0.237 OA
ATOM     77  O   UNL A   1      41.143  25.668  25.005  1.00  0.00    -0.744 OA
ENDBRANCH  73  74
ENDBRANCH  45  68
BRANCH  57  78
ATOM     78  C   UNL A   1      44.016  28.759  35.682  1.00  0.00    -0.014 A 
ATOM     79  C   UNL A   1      45.358  29.113  35.463  1.00  0.00     0.010 A 
ATOM     80  C   UNL A   1      43.723  27.726  36.592  1.00  0.00     0.010 A 
ATOM     81  C   UNL A   1      46.388  28.432  36.121  1.00  0.00     0.020 A 
ATOM     82  C   UNL A   1      44.749  27.057  37.270  1.00  0.00     0.020 A 
ATOM     83  C   UNL A   1      46.078  27.406  37.019  1.00  0.00     0.054 A 
BRANCH  83  84
ATOM     84  S   UNL A   1      47.428  26.565  37.893  1.00  0.00     0.124 S 
ATOM     85  O   UNL A   1      47.334  25.208  37.363  1.00  0.00    -0.237 OA
ATOM     86  O   UNL A   1      48.605  27.323  37.477  1.00  0.00    -0.237 OA
ATOM     87  O   UNL A   1      47.070  26.708  39.303  1.00  0.00    -0.744 OA
ENDBRANCH  83  84
ENDBRANCH  57  78
ENDBRANCH  31  32
ENDBRANCH  24  26
ENDBRANCH  23  24
ENDBRANCH  22  23
ENDBRANCH   1  22
TORSDOF 20
ENDMDL
MODEL 3
REMARK VINA RESULT:     -10.3      2.808      4.824
REMARK SMILES CC[C@H](NC(=O)c1ccc(C)nc1)C(=O)OCCOCCOC(=O)c1ccc(-c2c3nc(c(-c4ccc(S(=O)(=O)[O-])cc4)c4ccc([nH]4)c(-c4ccc(S(=O)(=O)[O-])cc4)c4nc(c(-c5ccc(S(=O)(=O)[O-])cc5)c5ccc2[nH]5)C=C4)C=C3)cc1
REMARK SMILES IDX 20 1 19 2 18 3 17 4 16 5 14 6 15 7 3 8 2 9 1 10 4 11 5 12
REMARK SMILES IDX 6 14 7 15 8 16 13 17 9 18 12 19 10 20 11 21 21 22 22 23
REMARK SMILES IDX 23 24 24 25 25 26 26 27 84 28 27 29 83 30 28 31 29 32 30 33
REMARK SMILES IDX 77 34 31 35 82 36 76 37 78 38 32 39 81 40 75 41 74 42 33 44
REMARK SMILES IDX 63 45 44 46 62 47 45 48 48 49 61 50 79 51 46 52 47 53 60 55
REMARK SMILES IDX 80 56 49 57 34 58 35 59 43 60 36 61 42 62 37 63 38 64 39 65
REMARK SMILES IDX 40 66 41 67 64 68 65 69 73 70 66 71 72 72 67 73 68 74 69 75
REMARK SMILES IDX 70 76 71 77 50 78 51 79 59 80 52 81 58 82 53 83 54 84 55 85
REMARK SMILES IDX 56 86 57 87
REMARK H PARENT 4 13 78 43 48 54
REMARK Flexibility Score: inf
ROOT
ATOM      1  C   UNL A   1      31.665  29.267  24.657  1.00  0.00     0.202 C 
ENDROOT
BRANCH   1   2
ATOM      2  O   UNL A   1      30.674  28.310  24.308  1.00  0.00    -0.374 OA
BRANCH   2   3
ATOM      3  C   UNL A   1      30.519  27.888  22.943  1.00  0.00     0.202 C 
BRANCH   3   4
ATOM      4  C   UNL A   1      31.549  26.948  22.290  1.00  0.00     0.261 C 
BRANCH   4   5
ATOM      5  O   UNL A   1      31.409  25.574  22.713  1.00  0.00    -0.462 OA
BRANCH   5   6
ATOM      6  C   UNL A   1      32.550  24.840  22.760  1.00  0.00     0.328 C 
ATOM      7  O   UNL A   1      33.380  24.795  21.856  1.00  0.00    -0.250 OA
BRANCH   6   8
ATOM      8  C   UNL A   1      32.713  24.036  24.063  1.00  0.00     0.192 C 
BRANCH   8   9
ATOM      9  C   UNL A   1      31.864  24.856  25.068  1.00  0.00     0.033 C 
ATOM     10  C   UNL A   1      31.282  24.122  26.260  1.00  0.00     0.007 C 
ENDBRANCH   8   9
BRANCH   8  11
ATOM     11  N   UNL A   1      34.075  23.724  24.554  1.00  0.00    -0.339 N 
ATOM     12  C   UNL A   1      34.352  22.718  25.463  1.00  0.00     0.253 C 
ATOM     13  H   UNL A   1      34.827  24.262  24.214  1.00  0.00     0.164 HD
ATOM     14  O   UNL A   1      34.761  22.998  26.585  1.00  0.00    -0.269 OA
BRANCH  12  15
ATOM     15  C   UNL A   1      34.213  21.303  25.101  1.00  0.00     0.058 A 
ATOM     16  C   UNL A   1      32.650  20.591  24.591  1.00  0.00     0.017 A 
ATOM     17  C   UNL A   1      35.674  20.281  25.020  1.00  0.00     0.125 A 
ATOM     18  C   UNL A   1      32.565  18.848  24.065  1.00  0.00     0.024 A 
ATOM     19  N   UNL A   1      35.602  18.584  24.549  1.00  0.00    -0.261 NA
ATOM     20  C   UNL A   1      34.065  17.880  24.043  1.00  0.00     0.037 A 
ATOM     21  C   UNL A   1      34.022  16.405  23.816  1.00  0.00     0.066 C 
ENDBRANCH  12  15
ENDBRANCH   8  11
ENDBRANCH   6   8
ENDBRANCH   5   6
ENDBRANCH   4   5
ENDBRANCH   3   4
ENDBRANCH   2   3
ENDBRANCH   1   2
BRANCH   1  22
ATOM     22  C   UNL A   1      31.701  30.186  26.025  1.00  0.00     0.261 C 
BRANCH  22  23
ATOM     23  O   UNL A   1      33.224  31.009  27.070  1.00  0.00    -0.460 OA
BRANCH  23  24
ATOM     24  C   UNL A   1      34.230  31.648  27.814  1.00  0.00     0.338 C 
ATOM     25  O   UNL A   1      34.098  32.796  28.232  1.00  0.00    -0.246 OA
BRANCH  24  26
ATOM     26  C   UNL A   1      35.560  31.002  28.089  1.00  0.00     0.060 A 
ATOM     27  C   UNL A   1      35.701  29.642  28.400  1.00  0.00     0.016 A 
ATOM     28  C   UNL A   1      36.674  31.839  28.244  1.00  0.00     0.016 A 
ATOM     29  C   UNL A   1      36.935  29.121  28.832  1.00  0.00     0.010 A 
ATOM     30  C   UNL A   1      37.903  31.324  28.697  1.00  0.00     0.010 A 
ATOM     31  C   UNL A   1      38.039  29.964  29.023  1.00  0.00    -0.014 A 
BRANCH  31  32
ATOM     32  C   UNL A   1      39.252  29.478  29.749  1.00  0.00     0.031 A 
ATOM     33  C   UNL A   1      39.662  30.166  31.031  1.00  0.00     0.074 A 
ATOM     34  C   UNL A   1      39.993  28.440  29.310  1.00  0.00     0.049 A 
ATOM     35  N   UNL A   1      40.691  29.931  31.809  1.00  0.00    -0.248 NA
ATOM     36  C   UNL A   1      38.795  31.259  31.495  1.00  0.00     0.031 C 
ATOM     37  C   UNL A   1      39.717  27.641  28.118  1.00  0.00     0.029 A 
ATOM     38  N   UNL A   1      41.143  27.882  29.826  1.00  0.00    -0.354 N 
ATOM     39  C   UNL A   1      40.599  30.852  32.849  1.00  0.00     0.074 A 
ATOM     40  C   UNL A   1      39.428  31.662  32.588  1.00  0.00     0.031 C 
ATOM     41  C   UNL A   1      40.674  26.702  27.990  1.00  0.00     0.029 A 
ATOM     42  C   UNL A   1      41.648  26.848  29.073  1.00  0.00     0.049 A 
ATOM     43  H   UNL A   1      41.566  28.198  30.658  1.00  0.00     0.167 HD
ATOM     44  C   UNL A   1      41.404  31.013  33.926  1.00  0.00     0.031 A 
ATOM     45  C   UNL A   1      42.770  26.110  29.222  1.00  0.00     0.031 A 
ATOM     46  C   UNL A   1      42.580  30.230  34.202  1.00  0.00     0.049 A 
ATOM     47  C   UNL A   1      43.698  26.360  30.387  1.00  0.00     0.074 A 
ATOM     48  C   UNL A   1      43.436  30.321  35.289  1.00  0.00     0.029 A 
ATOM     49  N   UNL A   1      43.075  29.225  33.389  1.00  0.00    -0.354 N 
ATOM     50  N   UNL A   1      43.575  27.214  31.373  1.00  0.00    -0.248 NA
ATOM     51  C   UNL A   1      44.917  25.536  30.458  1.00  0.00     0.031 C 
ATOM     52  C   UNL A   1      44.477  29.404  35.106  1.00  0.00     0.029 A 
ATOM     53  C   UNL A   1      44.238  28.705  33.934  1.00  0.00     0.049 A 
ATOM     54  H   UNL A   1      42.661  28.923  32.549  1.00  0.00     0.167 HD
ATOM     55  C   UNL A   1      44.683  27.011  32.194  1.00  0.00     0.074 A 
ATOM     56  C   UNL A   1      45.461  25.948  31.596  1.00  0.00     0.031 C 
ATOM     57  C   UNL A   1      45.017  27.648  33.344  1.00  0.00     0.031 A 
BRANCH  44  58
ATOM     58  C   UNL A   1      41.053  32.114  34.891  1.00  0.00    -0.014 A 
ATOM     59  C   UNL A   1      40.237  31.865  36.008  1.00  0.00     0.010 A 
ATOM     60  C   UNL A   1      41.583  33.403  34.699  1.00  0.00     0.010 A 
ATOM     61  C   UNL A   1      39.926  32.897  36.899  1.00  0.00     0.020 A 
ATOM     62  C   UNL A   1      41.295  34.432  35.600  1.00  0.00     0.020 A 
ATOM     63  C   UNL A   1      40.454  34.175  36.685  1.00  0.00     0.054 A 
BRANCH  63  64
ATOM     64  S   UNL A   1      40.055  35.491  37.869  1.00  0.00     0.124 S 
ATOM     65  O   UNL A   1      38.870  34.951  38.530  1.00  0.00    -0.237 OA
ATOM     66  O   UNL A   1      41.259  35.556  38.695  1.00  0.00    -0.237 OA
ATOM     67  O   UNL A   1      39.821  36.659  37.024  1.00  0.00    -0.744 OA
ENDBRANCH  63  64
ENDBRANCH  44  58
BRANCH  45  68
ATOM     68  C   UNL A   1      43.107  25.055  28.225  1.00  0.00    -0.014 A 
ATOM     69  C   UNL A   1      43.825  25.374  27.059  1.00  0.00     0.010 A 
ATOM     70  C   UNL A   1      42.687  23.728  28.427  1.00  0.00     0.010 A 
ATOM     71  C   UNL A   1      44.108  24.388  26.109  1.00  0.00     0.020 A 
ATOM     72  C   UNL A   1      42.989  22.735  27.492  1.00  0.00     0.020 A 
ATOM     73  C   UNL A   1      43.690  23.073  26.333  1.00  0.00     0.054 A 
BRANCH  73  74
ATOM     74  S   UNL A   1      44.121  21.795  25.119  1.00  0.00     0.124 S 
ATOM     75  O   UNL A   1      43.013  20.856  25.258  1.00  0.00    -0.237 OA
ATOM     76  O   UNL A   1      44.161  22.548  23.867  1.00  0.00    -0.237 OA
ATOM     77  O   UNL A   1      45.419  21.310  25.584  1.00  0.00    -0.744 OA
ENDBRANCH  73  74
ENDBRANCH  45  68
BRANCH  57  78
ATOM     78  C   UNL A   1      46.263  27.198  34.066  1.00  0.00    -0.014 A 
ATOM     79  C   UNL A   1      46.228  26.156  35.009  1.00  0.00     0.010 A 
ATOM     80  C   UNL A   1      47.501  27.787  33.746  1.00  0.00     0.010 A 
ATOM     81  C   UNL A   1      47.402  25.730  35.638  1.00  0.00     0.020 A 
ATOM     82  C   UNL A   1      48.681  27.348  34.357  1.00  0.00     0.020 A 
ATOM     83  C   UNL A   1      48.622  26.330  35.310  1.00  0.00     0.054 A 
BRANCH  83  84
ATOM     84  S   UNL A   1      50.139  25.731  36.108  1.00  0.00     0.124 S 
ATOM     85  O   UNL A   1      50.074  24.296  35.848  1.00  0.00    -0.237 OA
ATOM     86  O   UNL A   1      51.187  26.453  35.391  1.00  0.00    -0.237 OA
ATOM     87  O   UNL A   1      49.970  26.118  37.507  1.00  0.00    -0.744 OA
ENDBRANCH  83  84
ENDBRANCH  57  78
ENDBRANCH  31  32
ENDBRANCH  24  26
ENDBRANCH  23  24
ENDBRANCH  22  23
ENDBRANCH   1  22
TORSDOF 20
ENDMDL
