MODEL 1
REMARK VINA RESULT:     -10.7      0.000      0.000
REMARK SMILES CC(C)CCc1cc2c(cc1Cl)C=C(C(=O)OCCOCCOC(=O)c1ccc(-c3c4nc(c(-c5ccc(S(=O)(=O)[O-])cc5)c5ccc([nH]5)c(-c5ccc(S(=O)(=O)[O-])cc5)c5nc(c(-c6ccc(S(=O)(=O)[O-])cc6)c6ccc3[nH]6)C=C5)C=C4)cc1)[C@@H](C(F)(F)F)O2
REMARK SMILES IDX 20 1 19 2 18 3 17 4 15 5 16 6 14 7 6 8 7 9 11 10 8 11 10 12
REMARK SMILES IDX 12 13 9 14 91 15 13 16 86 17 5 18 4 19 2 20 1 21 3 22 87 23
REMARK SMILES IDX 88 24 89 25 90 26 21 27 22 28 23 29 24 30 25 31 26 32 27 33
REMARK SMILES IDX 85 34 28 35 84 36 29 37 30 38 31 39 78 40 32 41 83 42 77 43
REMARK SMILES IDX 79 44 33 45 82 46 76 47 75 48 34 50 64 51 45 52 63 53 46 54
REMARK SMILES IDX 49 55 62 56 80 57 47 58 48 59 61 61 81 62 50 63 35 64 36 65
REMARK SMILES IDX 44 66 37 67 43 68 38 69 39 70 40 71 41 72 42 73 65 74 66 75
REMARK SMILES IDX 74 76 67 77 73 78 68 79 69 80 70 81 71 82 72 83 51 84 52 85
REMARK SMILES IDX 60 86 53 87 59 88 54 89 55 90 56 91 57 92 58 93
REMARK H PARENT 79 49 49 60
REMARK Flexibility Score: inf
ROOT
ATOM      1  O   UNL A   1      37.684  21.059  24.636  1.00  0.00    -0.374 OA
ENDROOT
BRANCH   1   2
ATOM      2  C   UNL A   1      36.269  21.051  24.811  1.00  0.00     0.202 C 
BRANCH   2   3
ATOM      3  C   UNL A   1      35.659  22.122  25.722  1.00  0.00     0.261 C 
BRANCH   3   4
ATOM      4  O   UNL A   1      34.409  22.607  25.211  1.00  0.00    -0.460 OA
BRANCH   4   5
ATOM      5  C   UNL A   1      33.708  23.376  26.077  1.00  0.00     0.338 C 
ATOM      6  O   UNL A   1      33.645  23.246  27.289  1.00  0.00    -0.246 OA
BRANCH   5   7
ATOM      7  C   UNL A   1      33.127  24.525  25.356  1.00  0.00     0.087 C 
ATOM      8  C   UNL A   1      31.009  28.951  24.355  1.00  0.00    -0.026 A 
ATOM      9  C   UNL A   1      31.168  27.751  23.636  1.00  0.00     0.052 A 
ATOM     10  C   UNL A   1      31.771  29.121  25.523  1.00  0.00     0.045 A 
ATOM     11  C   UNL A   1      31.925  26.697  24.151  1.00  0.00     0.128 A 
ATOM     12  C   UNL A   1      32.555  28.077  26.023  1.00  0.00     0.032 A 
ATOM     13  Cl  UNL A   1      31.772  30.600  26.419  1.00  0.00    -0.084 Cl
ATOM     14  C   UNL A   1      32.590  26.848  25.363  1.00  0.00     0.019 A 
ATOM     15  O   UNL A   1      31.951  25.551  23.411  1.00  0.00    -0.475 OA
ATOM     16  C   UNL A   1      33.260  25.712  25.962  1.00  0.00     0.027 C 
ATOM     17  C   UNL A   1      32.426  24.325  24.040  1.00  0.00     0.316 C 
BRANCH   8  18
ATOM     18  C   UNL A   1      30.047  30.018  23.871  1.00  0.00     0.037 C 
BRANCH  18  19
ATOM     19  C   UNL A   1      29.333  29.748  22.533  1.00  0.00     0.008 C 
BRANCH  19  20
ATOM     20  C   UNL A   1      28.025  30.538  22.305  1.00  0.00    -0.017 C 
ATOM     21  C   UNL A   1      27.673  31.441  23.486  1.00  0.00     0.007 C 
ATOM     22  C   UNL A   1      28.141  31.370  21.025  1.00  0.00     0.007 C 
ENDBRANCH  19  20
ENDBRANCH  18  19
ENDBRANCH   8  18
BRANCH  17  23
ATOM     23  C   UNL A   1      31.257  23.334  24.147  1.00  0.00     0.430 C 
ATOM     24  F   UNL A   1      31.665  22.067  23.897  1.00  0.00    -0.167 F 
ATOM     25  F   UNL A   1      30.714  23.335  25.385  1.00  0.00    -0.167 F 
ATOM     26  F   UNL A   1      30.270  23.625  23.268  1.00  0.00    -0.167 F 
ENDBRANCH  17  23
ENDBRANCH   5   7
ENDBRANCH   4   5
ENDBRANCH   3   4
ENDBRANCH   2   3
ENDBRANCH   1   2
BRANCH   1  27
ATOM     27  C   UNL A   1      38.473  20.162  25.415  1.00  0.00     0.202 C 
BRANCH  27  28
ATOM     28  C   UNL A   1      39.705  20.712  26.145  1.00  0.00     0.261 C 
BRANCH  28  29
ATOM     29  O   UNL A   1      40.485  19.693  26.786  1.00  0.00    -0.460 OA
BRANCH  29  30
ATOM     30  C   UNL A   1      41.755  19.576  26.323  1.00  0.00     0.338 C 
ATOM     31  O   UNL A   1      42.244  18.611  25.754  1.00  0.00    -0.246 OA
BRANCH  30  32
ATOM     32  C   UNL A   1      42.438  20.879  26.428  1.00  0.00     0.060 A 
ATOM     33  C   UNL A   1      42.929  21.531  25.297  1.00  0.00     0.016 A 
ATOM     34  C   UNL A   1      42.549  21.468  27.695  1.00  0.00     0.016 A 
ATOM     35  C   UNL A   1      43.515  22.791  25.438  1.00  0.00     0.010 A 
ATOM     36  C   UNL A   1      43.125  22.731  27.830  1.00  0.00     0.010 A 
ATOM     37  C   UNL A   1      43.598  23.411  26.699  1.00  0.00    -0.014 A 
BRANCH  37  38
ATOM     38  C   UNL A   1      44.081  24.811  26.804  1.00  0.00     0.031 A 
ATOM     39  C   UNL A   1      43.161  25.928  27.200  1.00  0.00     0.074 A 
ATOM     40  C   UNL A   1      45.379  25.063  26.546  1.00  0.00     0.049 A 
ATOM     41  N   UNL A   1      43.458  27.176  27.453  1.00  0.00    -0.248 NA
ATOM     42  C   UNL A   1      41.731  25.611  27.327  1.00  0.00     0.031 C 
ATOM     43  C   UNL A   1      46.355  24.058  26.120  1.00  0.00     0.029 A 
ATOM     44  N   UNL A   1      46.110  26.224  26.624  1.00  0.00    -0.354 N 
ATOM     45  C   UNL A   1      42.260  27.791  27.792  1.00  0.00     0.074 A 
ATOM     46  C   UNL A   1      41.221  26.792  27.655  1.00  0.00     0.031 C 
ATOM     47  C   UNL A   1      47.564  24.632  26.029  1.00  0.00     0.029 A 
ATOM     48  C   UNL A   1      47.447  26.053  26.349  1.00  0.00     0.049 A 
ATOM     49  H   UNL A   1      45.714  27.094  26.856  1.00  0.00     0.167 HD
ATOM     50  C   UNL A   1      42.056  29.064  28.206  1.00  0.00     0.031 A 
ATOM     51  C   UNL A   1      48.472  26.929  26.367  1.00  0.00     0.031 A 
ATOM     52  C   UNL A   1      43.100  30.051  28.323  1.00  0.00     0.049 A 
ATOM     53  C   UNL A   1      48.211  28.348  26.792  1.00  0.00     0.074 A 
ATOM     54  C   UNL A   1      42.993  31.358  28.767  1.00  0.00     0.029 A 
ATOM     55  N   UNL A   1      44.434  29.851  27.994  1.00  0.00    -0.354 N 
ATOM     56  N   UNL A   1      47.086  28.891  27.192  1.00  0.00    -0.248 NA
ATOM     57  C   UNL A   1      49.356  29.270  26.791  1.00  0.00     0.031 C 
ATOM     58  C   UNL A   1      44.239  31.970  28.627  1.00  0.00     0.029 A 
ATOM     59  C   UNL A   1      45.150  31.021  28.192  1.00  0.00     0.049 A 
ATOM     60  H   UNL A   1      44.815  29.003  27.669  1.00  0.00     0.167 HD
ATOM     61  C   UNL A   1      47.393  30.209  27.517  1.00  0.00     0.074 A 
ATOM     62  C   UNL A   1      48.812  30.377  27.283  1.00  0.00     0.031 C 
ATOM     63  C   UNL A   1      46.567  31.185  27.968  1.00  0.00     0.031 A 
BRANCH  50  64
ATOM     64  C   UNL A   1      40.658  29.479  28.596  1.00  0.00    -0.014 A 
ATOM     65  C   UNL A   1      40.306  29.579  29.956  1.00  0.00     0.010 A 
ATOM     66  C   UNL A   1      39.654  29.624  27.621  1.00  0.00     0.010 A 
ATOM     67  C   UNL A   1      38.974  29.767  30.335  1.00  0.00     0.020 A 
ATOM     68  C   UNL A   1      38.326  29.847  27.995  1.00  0.00     0.020 A 
ATOM     69  C   UNL A   1      37.990  29.890  29.350  1.00  0.00     0.054 A 
BRANCH  69  70
ATOM     70  S   UNL A   1      36.261  30.082  29.862  1.00  0.00     0.124 S 
ATOM     71  O   UNL A   1      35.541  29.435  28.769  1.00  0.00    -0.237 OA
ATOM     72  O   UNL A   1      36.229  29.381  31.143  1.00  0.00    -0.237 OA
ATOM     73  O   UNL A   1      36.088  31.530  29.951  1.00  0.00    -0.744 OA
ENDBRANCH  69  70
ENDBRANCH  50  64
BRANCH  51  74
ATOM     74  C   UNL A   1      49.843  26.451  26.029  1.00  0.00    -0.014 A 
ATOM     75  C   UNL A   1      50.655  25.856  27.015  1.00  0.00     0.010 A 
ATOM     76  C   UNL A   1      50.381  26.669  24.748  1.00  0.00     0.010 A 
ATOM     77  C   UNL A   1      51.991  25.553  26.748  1.00  0.00     0.020 A 
ATOM     78  C   UNL A   1      51.709  26.330  24.465  1.00  0.00     0.020 A 
ATOM     79  C   UNL A   1      52.515  25.806  25.479  1.00  0.00     0.054 A 
BRANCH  79  80
ATOM     80  S   UNL A   1      54.272  25.466  25.180  1.00  0.00     0.124 S 
ATOM     81  O   UNL A   1      54.463  26.033  23.847  1.00  0.00    -0.237 OA
ATOM     82  O   UNL A   1      54.923  26.186  26.270  1.00  0.00    -0.237 OA
ATOM     83  O   UNL A   1      54.357  24.010  25.256  1.00  0.00    -0.744 OA
ENDBRANCH  79  80
ENDBRANCH  51  74
BRANCH  63  84
ATOM     84  C   UNL A   1      47.150  32.547  28.261  1.00  0.00    -0.014 A 
ATOM     85  C   UNL A   1      47.232  33.503  27.230  1.00  0.00     0.010 A 
ATOM     86  C   UNL A   1      47.759  32.825  29.497  1.00  0.00     0.010 A 
ATOM     87  C   UNL A   1      47.959  34.683  27.408  1.00  0.00     0.020 A 
ATOM     88  C   UNL A   1      48.456  34.022  29.693  1.00  0.00     0.020 A 
ATOM     89  C   UNL A   1      48.579  34.928  28.636  1.00  0.00     0.054 A 
BRANCH  89  90
ATOM     90  S   UNL A   1      49.575  36.432  28.824  1.00  0.00     0.124 S 
ATOM     91  O   UNL A   1      50.665  36.200  27.882  1.00  0.00    -0.237 OA
ATOM     92  O   UNL A   1      48.634  37.487  28.451  1.00  0.00    -0.237 OA
ATOM     93  O   UNL A   1      49.955  36.418  30.235  1.00  0.00    -0.744 OA
ENDBRANCH  89  90
ENDBRANCH  63  84
ENDBRANCH  37  38
ENDBRANCH  30  32
ENDBRANCH  29  30
ENDBRANCH  28  29
ENDBRANCH  27  28
ENDBRANCH   1  27
TORSDOF 21
ENDMDL
MODEL 2
REMARK VINA RESULT:     -10.7      6.145     10.878
REMARK SMILES CC(C)CCc1cc2c(cc1Cl)C=C(C(=O)OCCOCCOC(=O)c1ccc(-c3c4nc(c(-c5ccc(S(=O)(=O)[O-])cc5)c5ccc([nH]5)c(-c5ccc(S(=O)(=O)[O-])cc5)c5nc(c(-c6ccc(S(=O)(=O)[O-])cc6)c6ccc3[nH]6)C=C5)C=C4)cc1)[C@@H](C(F)(F)F)O2
REMARK SMILES IDX 20 1 19 2 18 3 17 4 15 5 16 6 14 7 6 8 7 9 11 10 8 11 10 12
REMARK SMILES IDX 12 13 9 14 91 15 13 16 86 17 5 18 4 19 2 20 1 21 3 22 87 23
REMARK SMILES IDX 88 24 89 25 90 26 21 27 22 28 23 29 24 30 25 31 26 32 27 33
REMARK SMILES IDX 85 34 28 35 84 36 29 37 30 38 31 39 78 40 32 41 83 42 77 43
REMARK SMILES IDX 79 44 33 45 82 46 76 47 75 48 34 50 64 51 45 52 63 53 46 54
REMARK SMILES IDX 49 55 62 56 80 57 47 58 48 59 61 61 81 62 50 63 35 64 36 65
REMARK SMILES IDX 44 66 37 67 43 68 38 69 39 70 40 71 41 72 42 73 65 74 66 75
REMARK SMILES IDX 74 76 67 77 73 78 68 79 69 80 70 81 71 82 72 83 51 84 52 85
REMARK SMILES IDX 60 86 53 87 59 88 54 89 55 90 56 91 57 92 58 93
REMARK H PARENT 79 49 49 60
REMARK Flexibility Score: inf
ROOT
ATOM      1  O   UNL A   1      40.290  22.681  26.318  1.00  0.00    -0.374 OA
ENDROOT
BRANCH   1   2
ATOM      2  C   UNL A   1      39.193  21.771  26.372  1.00  0.00     0.202 C 
BRANCH   2   3
ATOM      3  C   UNL A   1      38.133  21.870  25.269  1.00  0.00     0.261 C 
BRANCH   3   4
ATOM      4  O   UNL A   1      36.806  21.924  25.810  1.00  0.00    -0.460 OA
BRANCH   4   5
ATOM      5  C   UNL A   1      35.942  21.033  25.270  1.00  0.00     0.338 C 
ATOM      6  O   UNL A   1      36.101  19.827  25.163  1.00  0.00    -0.246 OA
BRANCH   5   7
ATOM      7  C   UNL A   1      34.672  21.710  24.948  1.00  0.00     0.087 C 
ATOM      8  C   UNL A   1      31.327  24.954  23.111  1.00  0.00    -0.026 A 
ATOM      9  C   UNL A   1      31.307  23.999  24.145  1.00  0.00     0.052 A 
ATOM     10  C   UNL A   1      32.389  24.901  22.191  1.00  0.00     0.045 A 
ATOM     11  C   UNL A   1      32.386  23.139  24.354  1.00  0.00     0.128 A 
ATOM     12  C   UNL A   1      33.456  24.018  22.382  1.00  0.00     0.032 A 
ATOM     13  Cl  UNL A   1      32.458  25.925  20.799  1.00  0.00    -0.084 Cl
ATOM     14  C   UNL A   1      33.477  23.173  23.492  1.00  0.00     0.019 A 
ATOM     15  O   UNL A   1      32.298  22.305  25.431  1.00  0.00    -0.475 OA
ATOM     16  C   UNL A   1      34.653  22.381  23.789  1.00  0.00     0.027 C 
ATOM     17  C   UNL A   1      33.507  21.640  25.899  1.00  0.00     0.316 C 
BRANCH   8  18
ATOM     18  C   UNL A   1      30.231  25.996  23.001  1.00  0.00     0.037 C 
BRANCH  18  19
ATOM     19  C   UNL A   1      29.971  26.857  24.251  1.00  0.00     0.008 C 
BRANCH  19  20
ATOM     20  C   UNL A   1      30.879  28.098  24.405  1.00  0.00    -0.017 C 
ATOM     21  C   UNL A   1      32.364  27.738  24.424  1.00  0.00     0.007 C 
ATOM     22  C   UNL A   1      30.594  29.089  23.273  1.00  0.00     0.007 C 
ENDBRANCH  19  20
ENDBRANCH  18  19
ENDBRANCH   8  18
BRANCH  17  23
ATOM     23  C   UNL A   1      33.862  22.175  27.295  1.00  0.00     0.430 C 
ATOM     24  F   UNL A   1      34.590  23.314  27.213  1.00  0.00    -0.167 F 
ATOM     25  F   UNL A   1      32.754  22.468  28.013  1.00  0.00    -0.167 F 
ATOM     26  F   UNL A   1      34.585  21.280  28.007  1.00  0.00    -0.167 F 
ENDBRANCH  17  23
ENDBRANCH   5   7
ENDBRANCH   4   5
ENDBRANCH   3   4
ENDBRANCH   2   3
ENDBRANCH   1   2
BRANCH   1  27
ATOM     27  C   UNL A   1      41.595  22.163  26.068  1.00  0.00     0.202 C 
BRANCH  27  28
ATOM     28  C   UNL A   1      42.762  23.148  25.928  1.00  0.00     0.261 C 
BRANCH  28  29
ATOM     29  O   UNL A   1      42.342  24.519  25.864  1.00  0.00    -0.460 OA
BRANCH  29  30
ATOM     30  C   UNL A   1      43.272  25.417  26.278  1.00  0.00     0.338 C 
ATOM     31  O   UNL A   1      44.361  25.636  25.767  1.00  0.00    -0.246 OA
BRANCH  30  32
ATOM     32  C   UNL A   1      42.702  26.256  27.349  1.00  0.00     0.060 A 
ATOM     33  C   UNL A   1      41.651  25.798  28.143  1.00  0.00     0.016 A 
ATOM     34  C   UNL A   1      43.269  27.517  27.575  1.00  0.00     0.016 A 
ATOM     35  C   UNL A   1      41.183  26.602  29.184  1.00  0.00     0.010 A 
ATOM     36  C   UNL A   1      42.805  28.314  28.622  1.00  0.00     0.010 A 
ATOM     37  C   UNL A   1      41.769  27.855  29.446  1.00  0.00    -0.014 A 
BRANCH  37  38
ATOM     38  C   UNL A   1      41.363  28.624  30.650  1.00  0.00     0.031 A 
ATOM     39  C   UNL A   1      42.137  28.537  31.932  1.00  0.00     0.074 A 
ATOM     40  C   UNL A   1      40.279  29.420  30.567  1.00  0.00     0.049 A 
ATOM     41  N   UNL A   1      41.981  29.236  33.026  1.00  0.00    -0.248 NA
ATOM     42  C   UNL A   1      43.219  27.543  32.001  1.00  0.00     0.031 C 
ATOM     43  C   UNL A   1      39.432  29.555  29.379  1.00  0.00     0.029 A 
ATOM     44  N   UNL A   1      39.716  30.282  31.476  1.00  0.00    -0.354 N 
ATOM     45  C   UNL A   1      42.957  28.787  33.906  1.00  0.00     0.074 A 
ATOM     46  C   UNL A   1      43.662  27.714  33.240  1.00  0.00     0.031 C 
ATOM     47  C   UNL A   1      38.494  30.485  29.613  1.00  0.00     0.029 A 
ATOM     48  C   UNL A   1      38.643  30.985  30.978  1.00  0.00     0.049 A 
ATOM     49  H   UNL A   1      40.049  30.386  32.396  1.00  0.00     0.167 HD
ATOM     50  C   UNL A   1      43.249  29.251  35.144  1.00  0.00     0.031 A 
ATOM     51  C   UNL A   1      37.872  31.937  31.542  1.00  0.00     0.031 A 
ATOM     52  C   UNL A   1      42.526  30.312  35.799  1.00  0.00     0.049 A 
ATOM     53  C   UNL A   1      38.194  32.408  32.934  1.00  0.00     0.074 A 
ATOM     54  C   UNL A   1      42.773  30.874  37.041  1.00  0.00     0.029 A 
ATOM     55  N   UNL A   1      41.419  30.970  35.280  1.00  0.00    -0.354 N 
ATOM     56  N   UNL A   1      39.175  32.032  33.720  1.00  0.00    -0.248 NA
ATOM     57  C   UNL A   1      37.324  33.442  33.511  1.00  0.00     0.031 C 
ATOM     58  C   UNL A   1      41.770  31.806  37.307  1.00  0.00     0.029 A 
ATOM     59  C   UNL A   1      40.953  31.903  36.191  1.00  0.00     0.049 A 
ATOM     60  H   UNL A   1      41.025  30.798  34.394  1.00  0.00     0.167 HD
ATOM     61  C   UNL A   1      39.057  32.804  34.872  1.00  0.00     0.074 A 
ATOM     62  C   UNL A   1      37.921  33.679  34.673  1.00  0.00     0.031 C 
ATOM     63  C   UNL A   1      39.826  32.783  35.988  1.00  0.00     0.031 A 
BRANCH  50  64
ATOM     64  C   UNL A   1      44.419  28.647  35.882  1.00  0.00    -0.014 A 
ATOM     65  C   UNL A   1      44.210  27.592  36.790  1.00  0.00     0.010 A 
ATOM     66  C   UNL A   1      45.700  29.222  35.790  1.00  0.00     0.010 A 
ATOM     67  C   UNL A   1      45.244  27.155  37.624  1.00  0.00     0.020 A 
ATOM     68  C   UNL A   1      46.746  28.765  36.598  1.00  0.00     0.020 A 
ATOM     69  C   UNL A   1      46.503  27.752  37.529  1.00  0.00     0.054 A 
BRANCH  69  70
ATOM     70  S   UNL A   1      47.817  27.207  38.655  1.00  0.00     0.124 S 
ATOM     71  O   UNL A   1      49.017  27.404  37.848  1.00  0.00    -0.237 OA
ATOM     72  O   UNL A   1      47.661  28.116  39.788  1.00  0.00    -0.237 OA
ATOM     73  O   UNL A   1      47.473  25.814  38.934  1.00  0.00    -0.744 OA
ENDBRANCH  69  70
ENDBRANCH  50  64
BRANCH  51  74
ATOM     74  C   UNL A   1      36.766  32.543  30.746  1.00  0.00    -0.014 A 
ATOM     75  C   UNL A   1      37.013  33.645  29.905  1.00  0.00     0.010 A 
ATOM     76  C   UNL A   1      35.446  32.083  30.892  1.00  0.00     0.010 A 
ATOM     77  C   UNL A   1      35.958  34.316  29.283  1.00  0.00     0.020 A 
ATOM     78  C   UNL A   1      34.389  32.728  30.239  1.00  0.00     0.020 A 
ATOM     79  C   UNL A   1      34.650  33.861  29.465  1.00  0.00     0.054 A 
BRANCH  79  80
ATOM     80  S   UNL A   1      33.293  34.791  28.700  1.00  0.00     0.124 S 
ATOM     81  O   UNL A   1      32.746  33.807  27.768  1.00  0.00    -0.237 OA
ATOM     82  O   UNL A   1      32.445  35.112  29.845  1.00  0.00    -0.237 OA
ATOM     83  O   UNL A   1      33.963  35.931  28.082  1.00  0.00    -0.744 OA
ENDBRANCH  79  80
ENDBRANCH  51  74
BRANCH  63  84
ATOM     84  C   UNL A   1      39.496  33.738  37.111  1.00  0.00    -0.014 A 
ATOM     85  C   UNL A   1      40.053  35.031  37.108  1.00  0.00     0.010 A 
ATOM     86  C   UNL A   1      38.775  33.310  38.240  1.00  0.00     0.010 A 
ATOM     87  C   UNL A   1      39.947  35.856  38.232  1.00  0.00     0.020 A 
ATOM     88  C   UNL A   1      38.634  34.146  39.352  1.00  0.00     0.020 A 
ATOM     89  C   UNL A   1      39.249  35.401  39.353  1.00  0.00     0.054 A 
BRANCH  89  90
ATOM     90  S   UNL A   1      39.183  36.458  40.825  1.00  0.00     0.124 S 
ATOM     91  O   UNL A   1      40.517  36.284  41.390  1.00  0.00    -0.237 OA
ATOM     92  O   UNL A   1      38.904  37.777  40.259  1.00  0.00    -0.237 OA
ATOM     93  O   UNL A   1      38.093  35.884  41.611  1.00  0.00    -0.744 OA
ENDBRANCH  89  90
ENDBRANCH  63  84
ENDBRANCH  37  38
ENDBRANCH  30  32
ENDBRANCH  29  30
ENDBRANCH  28  29
ENDBRANCH  27  28
ENDBRANCH   1  27
TORSDOF 21
ENDMDL
MODEL 3
REMARK VINA RESULT:     -10.6      5.984     10.620
REMARK SMILES CC(C)CCc1cc2c(cc1Cl)C=C(C(=O)OCCOCCOC(=O)c1ccc(-c3c4nc(c(-c5ccc(S(=O)(=O)[O-])cc5)c5ccc([nH]5)c(-c5ccc(S(=O)(=O)[O-])cc5)c5nc(c(-c6ccc(S(=O)(=O)[O-])cc6)c6ccc3[nH]6)C=C5)C=C4)cc1)[C@@H](C(F)(F)F)O2
REMARK SMILES IDX 20 1 19 2 18 3 17 4 15 5 16 6 14 7 6 8 7 9 11 10 8 11 10 12
REMARK SMILES IDX 12 13 9 14 91 15 13 16 86 17 5 18 4 19 2 20 1 21 3 22 87 23
REMARK SMILES IDX 88 24 89 25 90 26 21 27 22 28 23 29 24 30 25 31 26 32 27 33
REMARK SMILES IDX 85 34 28 35 84 36 29 37 30 38 31 39 78 40 32 41 83 42 77 43
REMARK SMILES IDX 79 44 33 45 82 46 76 47 75 48 34 50 64 51 45 52 63 53 46 54
REMARK SMILES IDX 49 55 62 56 80 57 47 58 48 59 61 61 81 62 50 63 35 64 36 65
REMARK SMILES IDX 44 66 37 67 43 68 38 69 39 70 40 71 41 72 42 73 65 74 66 75
REMARK SMILES IDX 74 76 67 77 73 78 68 79 69 80 70 81 71 82 72 83 51 84 52 85
REMARK SMILES IDX 60 86 53 87 59 88 54 89 55 90 56 91 57 92 58 93
REMARK H PARENT 79 49 49 60
REMARK Flexibility Score: inf
ROOT
ATOM      1  O   UNL A   1      39.547  21.832  25.821  1.00  0.00    -0.374 OA
ENDROOT
BRANCH   1   2
ATOM      2  C   UNL A   1      38.157  22.153  25.811  1.00  0.00     0.202 C 
BRANCH   2   3
ATOM      3  C   UNL A   1      37.284  21.499  24.735  1.00  0.00     0.261 C 
BRANCH   3   4
ATOM      4  O   UNL A   1      36.275  22.396  24.250  1.00  0.00    -0.460 OA
BRANCH   4   5
ATOM      5  C   UNL A   1      35.119  22.376  24.955  1.00  0.00     0.338 C 
ATOM      6  O   UNL A   1      34.917  21.809  26.017  1.00  0.00    -0.246 OA
BRANCH   5   7
ATOM      7  C   UNL A   1      34.142  23.284  24.326  1.00  0.00     0.087 C 
ATOM      8  C   UNL A   1      30.775  26.926  23.628  1.00  0.00    -0.026 A 
ATOM      9  C   UNL A   1      31.135  25.767  22.914  1.00  0.00     0.052 A 
ATOM     10  C   UNL A   1      31.641  27.363  24.646  1.00  0.00     0.045 A 
ATOM     11  C   UNL A   1      32.221  24.984  23.309  1.00  0.00     0.128 A 
ATOM     12  C   UNL A   1      32.747  26.595  25.022  1.00  0.00     0.032 A 
ATOM     13  Cl  UNL A   1      31.387  28.843  25.504  1.00  0.00    -0.084 Cl
ATOM     14  C   UNL A   1      33.006  25.380  24.386  1.00  0.00     0.019 A 
ATOM     15  O   UNL A   1      32.436  23.841  22.594  1.00  0.00    -0.475 OA
ATOM     16  C   UNL A   1      34.045  24.500  24.880  1.00  0.00     0.027 C 
ATOM     17  C   UNL A   1      33.319  22.825  23.153  1.00  0.00     0.316 C 
BRANCH   8  18
ATOM     18  C   UNL A   1      29.496  27.670  23.299  1.00  0.00     0.037 C 
BRANCH  18  19
ATOM     19  C   UNL A   1      29.653  29.053  22.639  1.00  0.00     0.008 C 
BRANCH  19  20
ATOM     20  C   UNL A   1      28.334  29.767  22.268  1.00  0.00    -0.017 C 
ATOM     21  C   UNL A   1      27.721  30.515  23.451  1.00  0.00     0.007 C 
ATOM     22  C   UNL A   1      28.580  30.733  21.107  1.00  0.00     0.007 C 
ENDBRANCH  19  20
ENDBRANCH  18  19
ENDBRANCH   8  18
BRANCH  17  23
ATOM     23  C   UNL A   1      32.493  21.570  23.476  1.00  0.00     0.430 C 
ATOM     24  F   UNL A   1      33.291  20.489  23.640  1.00  0.00    -0.167 F 
ATOM     25  F   UNL A   1      31.789  21.717  24.621  1.00  0.00    -0.167 F 
ATOM     26  F   UNL A   1      31.614  21.281  22.489  1.00  0.00    -0.167 F 
ENDBRANCH  17  23
ENDBRANCH   5   7
ENDBRANCH   4   5
ENDBRANCH   3   4
ENDBRANCH   2   3
ENDBRANCH   1   2
BRANCH   1  27
ATOM     27  C   UNL A   1      40.417  22.594  26.654  1.00  0.00     0.202 C 
BRANCH  27  28
ATOM     28  C   UNL A   1      41.855  22.843  26.181  1.00  0.00     0.261 C 
BRANCH  28  29
ATOM     29  O   UNL A   1      42.473  23.971  26.818  1.00  0.00    -0.460 OA
BRANCH  29  30
ATOM     30  C   UNL A   1      42.147  25.174  26.281  1.00  0.00     0.338 C 
ATOM     31  O   UNL A   1      42.016  25.438  25.095  1.00  0.00    -0.246 OA
BRANCH  30  32
ATOM     32  C   UNL A   1      41.775  26.109  27.360  1.00  0.00     0.060 A 
ATOM     33  C   UNL A   1      40.731  25.818  28.238  1.00  0.00     0.016 A 
ATOM     34  C   UNL A   1      42.523  27.284  27.506  1.00  0.00     0.016 A 
ATOM     35  C   UNL A   1      40.452  26.703  29.282  1.00  0.00     0.010 A 
ATOM     36  C   UNL A   1      42.248  28.161  28.556  1.00  0.00     0.010 A 
ATOM     37  C   UNL A   1      41.221  27.869  29.463  1.00  0.00    -0.014 A 
BRANCH  37  38
ATOM     38  C   UNL A   1      41.010  28.714  30.666  1.00  0.00     0.031 A 
ATOM     39  C   UNL A   1      41.915  28.617  31.858  1.00  0.00     0.074 A 
ATOM     40  C   UNL A   1      39.986  29.589  30.663  1.00  0.00     0.049 A 
ATOM     41  N   UNL A   1      41.934  29.368  32.929  1.00  0.00    -0.248 NA
ATOM     42  C   UNL A   1      42.921  27.544  31.856  1.00  0.00     0.031 C 
ATOM     43  C   UNL A   1      39.024  29.744  29.570  1.00  0.00     0.029 A 
ATOM     44  N   UNL A   1      39.593  30.527  31.587  1.00  0.00    -0.354 N 
ATOM     45  C   UNL A   1      42.967  28.878  33.718  1.00  0.00     0.074 A 
ATOM     46  C   UNL A   1      43.512  27.727  33.031  1.00  0.00     0.031 C 
ATOM     47  C   UNL A   1      38.189  30.753  29.860  1.00  0.00     0.029 A 
ATOM     48  C   UNL A   1      38.526  31.293  31.175  1.00  0.00     0.049 A 
ATOM     49  H   UNL A   1      40.035  30.641  32.459  1.00  0.00     0.167 HD
ATOM     50  C   UNL A   1      43.431  29.366  34.893  1.00  0.00     0.031 A 
ATOM     51  C   UNL A   1      37.896  32.324  31.774  1.00  0.00     0.031 A 
ATOM     52  C   UNL A   1      42.865  30.506  35.572  1.00  0.00     0.049 A 
ATOM     53  C   UNL A   1      38.407  32.822  33.098  1.00  0.00     0.074 A 
ATOM     54  C   UNL A   1      43.291  31.094  36.751  1.00  0.00     0.029 A 
ATOM     55  N   UNL A   1      41.759  31.228  35.145  1.00  0.00    -0.354 N 
ATOM     56  N   UNL A   1      39.439  32.401  33.790  1.00  0.00    -0.248 NA
ATOM     57  C   UNL A   1      37.686  33.944  33.716  1.00  0.00     0.031 C 
ATOM     58  C   UNL A   1      42.396  32.112  37.080  1.00  0.00     0.029 A 
ATOM     59  C   UNL A   1      41.468  32.229  36.056  1.00  0.00     0.049 A 
ATOM     60  H   UNL A   1      41.257  31.053  34.316  1.00  0.00     0.167 HD
ATOM     61  C   UNL A   1      39.508  33.224  34.910  1.00  0.00     0.074 A 
ATOM     62  C   UNL A   1      38.425  34.178  34.795  1.00  0.00     0.031 C 
ATOM     63  C   UNL A   1      40.394  33.187  35.936  1.00  0.00     0.031 A 
BRANCH  50  64
ATOM     64  C   UNL A   1      44.628  28.701  35.527  1.00  0.00    -0.014 A 
ATOM     65  C   UNL A   1      45.928  29.138  35.210  1.00  0.00     0.010 A 
ATOM     66  C   UNL A   1      44.472  27.547  36.318  1.00  0.00     0.010 A 
ATOM     67  C   UNL A   1      47.046  28.412  35.630  1.00  0.00     0.020 A 
ATOM     68  C   UNL A   1      45.588  26.837  36.769  1.00  0.00     0.020 A 
ATOM     69  C   UNL A   1      46.867  27.258  36.399  1.00  0.00     0.054 A 
BRANCH  69  70
ATOM     70  S   UNL A   1      48.327  26.301  36.890  1.00  0.00     0.124 S 
ATOM     71  O   UNL A   1      48.197  25.098  36.075  1.00  0.00    -0.237 OA
ATOM     72  O   UNL A   1      49.427  27.193  36.531  1.00  0.00    -0.237 OA
ATOM     73  O   UNL A   1      48.141  26.106  38.327  1.00  0.00    -0.744 OA
ENDBRANCH  69  70
ENDBRANCH  50  64
BRANCH  51  74
ATOM     74  C   UNL A   1      36.756  32.983  31.075  1.00  0.00    -0.014 A 
ATOM     75  C   UNL A   1      36.981  33.776  29.933  1.00  0.00     0.010 A 
ATOM     76  C   UNL A   1      35.453  32.899  31.597  1.00  0.00     0.010 A 
ATOM     77  C   UNL A   1      35.944  34.523  29.370  1.00  0.00     0.020 A 
ATOM     78  C   UNL A   1      34.403  33.616  31.012  1.00  0.00     0.020 A 
ATOM     79  C   UNL A   1      34.664  34.450  29.922  1.00  0.00     0.054 A 
BRANCH  79  80
ATOM     80  S   UNL A   1      33.352  35.483  29.213  1.00  0.00     0.124 S 
ATOM     81  O   UNL A   1      34.115  36.390  28.359  1.00  0.00    -0.237 OA
ATOM     82  O   UNL A   1      32.523  34.505  28.514  1.00  0.00    -0.237 OA
ATOM     83  O   UNL A   1      32.732  36.101  30.383  1.00  0.00    -0.744 OA
ENDBRANCH  79  80
ENDBRANCH  51  74
BRANCH  63  84
ATOM     84  C   UNL A   1      40.263  34.208  37.041  1.00  0.00    -0.014 A 
ATOM     85  C   UNL A   1      39.388  33.958  38.116  1.00  0.00     0.010 A 
ATOM     86  C   UNL A   1      40.873  35.470  36.939  1.00  0.00     0.010 A 
ATOM     87  C   UNL A   1      39.080  34.967  39.033  1.00  0.00     0.020 A 
ATOM     88  C   UNL A   1      40.597  36.471  37.877  1.00  0.00     0.020 A 
ATOM     89  C   UNL A   1      39.677  36.222  38.898  1.00  0.00     0.054 A 
BRANCH  89  90
ATOM     90  S   UNL A   1      39.211  37.537  40.057  1.00  0.00     0.124 S 
ATOM     91  O   UNL A   1      40.486  38.209  40.290  1.00  0.00    -0.237 OA
ATOM     92  O   UNL A   1      38.227  38.302  39.294  1.00  0.00    -0.237 OA
ATOM     93  O   UNL A   1      38.670  36.810  41.203  1.00  0.00    -0.744 OA
ENDBRANCH  89  90
ENDBRANCH  63  84
ENDBRANCH  37  38
ENDBRANCH  30  32
ENDBRANCH  29  30
ENDBRANCH  28  29
ENDBRANCH  27  28
ENDBRANCH   1  27
TORSDOF 21
ENDMDL
