MODEL 1
REMARK VINA RESULT:     -10.0      0.000      0.000
REMARK SMILES C[C@H](C(=O)OCCOCCOC(=O)c1ccc(-c2c3nc(c(-c4ccc(S(=O)(=O)[O-])cc4)c4ccc([nH]4)c(-c4ccc(S(=O)(=O)[O-])cc4)c4nc(c(-c5ccc(S(=O)(=O)[O-])cc5)c5ccc2[nH]5)C=C4)C=C3)cc1)[C@@H](C)Nc1ccccc1Oc1ccccc1
REMARK SMILES IDX 7 1 6 2 5 3 3 4 4 5 2 6 1 7 74 8 75 9 76 10 77 12 78 13
REMARK SMILES IDX 82 14 79 15 81 16 80 17 83 18 84 19 85 20 89 21 86 22 88 23
REMARK SMILES IDX 87 24 8 25 9 26 10 27 11 28 12 29 13 30 14 31 15 32 73 33
REMARK SMILES IDX 16 34 72 35 17 36 18 37 19 38 66 39 20 40 71 41 65 42 67 43
REMARK SMILES IDX 21 44 70 45 64 46 63 47 22 49 52 50 33 51 51 52 34 53 37 54
REMARK SMILES IDX 50 55 68 56 35 57 36 58 49 60 69 61 38 62 23 63 24 64 32 65
REMARK SMILES IDX 25 66 31 67 26 68 27 69 28 70 29 71 30 72 53 73 54 74 62 75
REMARK SMILES IDX 55 76 61 77 56 78 57 79 58 80 59 81 60 82 39 83 40 84 48 85
REMARK SMILES IDX 41 86 47 87 42 88 43 89 44 90 45 91 46 92
REMARK H PARENT 76 11 67 48 37 59
REMARK Flexibility Score: inf
ROOT
ATOM      1  C   UNL A   1      40.132  20.653  26.112  1.00  0.00     0.202 C 
ENDROOT
BRANCH   1   2
ATOM      2  C   UNL A   1      39.384  21.944  26.441  1.00  0.00     0.261 C 
BRANCH   2   3
ATOM      3  O   UNL A   1      38.145  22.032  25.704  1.00  0.00    -0.463 OA
BRANCH   3   4
ATOM      4  C   UNL A   1      37.545  23.249  25.657  1.00  0.00     0.310 C 
ATOM      5  O   UNL A   1      37.829  24.179  26.403  1.00  0.00    -0.252 OA
BRANCH   4   6
ATOM      6  C   UNL A   1      36.388  23.304  24.651  1.00  0.00     0.118 C 
ATOM      7  C   UNL A   1      36.887  22.686  23.339  1.00  0.00     0.022 C 
BRANCH   6   8
ATOM      8  C   UNL A   1      35.063  22.664  25.167  1.00  0.00     0.090 C 
ATOM      9  C   UNL A   1      34.870  23.057  26.644  1.00  0.00     0.031 C 
BRANCH   8  10
ATOM     10  N   UNL A   1      33.897  23.206  24.463  1.00  0.00    -0.379 N 
ATOM     11  H   UNL A   1      33.103  22.625  24.498  1.00  0.00     0.160 HD
BRANCH  10  12
ATOM     12  C   UNL A   1      33.704  24.381  23.759  1.00  0.00     0.078 A 
ATOM     13  C   UNL A   1      33.161  24.176  22.462  1.00  0.00     0.029 A 
ATOM     14  C   UNL A   1      33.879  25.726  24.140  1.00  0.00     0.150 A 
ATOM     15  C   UNL A   1      32.802  25.214  21.596  1.00  0.00     0.002 A 
ATOM     16  C   UNL A   1      33.526  26.771  23.251  1.00  0.00     0.049 A 
ATOM     17  C   UNL A   1      32.991  26.524  21.991  1.00  0.00     0.004 A 
BRANCH  14  18
ATOM     18  O   UNL A   1      34.263  26.258  25.347  1.00  0.00    -0.455 OA
BRANCH  18  19
ATOM     19  C   UNL A   1      33.450  27.070  26.080  1.00  0.00     0.127 A 
ATOM     20  C   UNL A   1      32.171  26.556  26.265  1.00  0.00     0.047 A 
ATOM     21  C   UNL A   1      33.761  28.343  26.546  1.00  0.00     0.047 A 
ATOM     22  C   UNL A   1      31.256  27.221  27.064  1.00  0.00     0.004 A 
ATOM     23  C   UNL A   1      32.799  29.055  27.279  1.00  0.00     0.004 A 
ATOM     24  C   UNL A   1      31.557  28.481  27.564  1.00  0.00     0.000 A 
ENDBRANCH  18  19
ENDBRANCH  14  18
ENDBRANCH  10  12
ENDBRANCH   8  10
ENDBRANCH   6   8
ENDBRANCH   4   6
ENDBRANCH   3   4
ENDBRANCH   2   3
ENDBRANCH   1   2
BRANCH   1  25
ATOM     25  O   UNL A   1      41.511  20.876  25.817  1.00  0.00    -0.374 OA
BRANCH  25  26
ATOM     26  C   UNL A   1      42.092  21.992  26.496  1.00  0.00     0.202 C 
BRANCH  26  27
ATOM     27  C   UNL A   1      42.280  23.210  25.582  1.00  0.00     0.261 C 
BRANCH  27  28
ATOM     28  O   UNL A   1      43.017  24.246  26.265  1.00  0.00    -0.460 OA
BRANCH  28  29
ATOM     29  C   UNL A   1      42.620  25.519  26.006  1.00  0.00     0.338 C 
ATOM     30  O   UNL A   1      42.295  25.974  24.931  1.00  0.00    -0.246 OA
BRANCH  29  31
ATOM     31  C   UNL A   1      42.449  26.260  27.284  1.00  0.00     0.060 A 
ATOM     32  C   UNL A   1      41.465  25.800  28.162  1.00  0.00     0.016 A 
ATOM     33  C   UNL A   1      43.216  27.376  27.630  1.00  0.00     0.016 A 
ATOM     34  C   UNL A   1      41.213  26.479  29.356  1.00  0.00     0.010 A 
ATOM     35  C   UNL A   1      43.005  28.020  28.859  1.00  0.00     0.010 A 
ATOM     36  C   UNL A   1      41.960  27.615  29.707  1.00  0.00    -0.014 A 
BRANCH  36  37
ATOM     37  C   UNL A   1      41.510  28.453  30.857  1.00  0.00     0.031 A 
ATOM     38  C   UNL A   1      42.309  28.433  32.140  1.00  0.00     0.074 A 
ATOM     39  C   UNL A   1      40.468  29.303  30.746  1.00  0.00     0.049 A 
ATOM     40  N   UNL A   1      42.181  29.185  33.205  1.00  0.00    -0.248 NA
ATOM     41  C   UNL A   1      43.391  27.439  32.237  1.00  0.00     0.031 C 
ATOM     42  C   UNL A   1      39.607  29.444  29.572  1.00  0.00     0.029 A 
ATOM     43  N   UNL A   1      39.976  30.232  31.633  1.00  0.00    -0.354 N 
ATOM     44  C   UNL A   1      43.163  28.755  34.092  1.00  0.00     0.074 A 
ATOM     45  C   UNL A   1      43.838  27.641  33.466  1.00  0.00     0.031 C 
ATOM     46  C   UNL A   1      38.717  30.428  29.797  1.00  0.00     0.029 A 
ATOM     47  C   UNL A   1      38.927  30.973  31.138  1.00  0.00     0.049 A 
ATOM     48  H   UNL A   1      40.340  30.356  32.539  1.00  0.00     0.167 HD
ATOM     49  C   UNL A   1      43.498  29.250  35.307  1.00  0.00     0.031 A 
ATOM     50  C   UNL A   1      38.221  31.982  31.690  1.00  0.00     0.031 A 
ATOM     51  C   UNL A   1      42.845  30.361  35.942  1.00  0.00     0.049 A 
ATOM     52  C   UNL A   1      38.578  32.485  33.066  1.00  0.00     0.074 A 
ATOM     53  C   UNL A   1      43.148  30.954  37.156  1.00  0.00     0.029 A 
ATOM     54  N   UNL A   1      41.754  31.041  35.427  1.00  0.00    -0.354 N 
ATOM     55  N   UNL A   1      39.552  32.105  33.858  1.00  0.00    -0.248 NA
ATOM     56  C   UNL A   1      37.745  33.565  33.617  1.00  0.00     0.031 C 
ATOM     57  C   UNL A   1      42.203  31.955  37.402  1.00  0.00     0.029 A 
ATOM     58  C   UNL A   1      41.351  32.026  36.313  1.00  0.00     0.049 A 
ATOM     59  H   UNL A   1      41.329  30.853  34.559  1.00  0.00     0.167 HD
ATOM     60  C   UNL A   1      39.467  32.920  34.984  1.00  0.00     0.074 A 
ATOM     61  C   UNL A   1      38.354  33.820  34.767  1.00  0.00     0.031 C 
ATOM     62  C   UNL A   1      40.244  32.922  36.095  1.00  0.00     0.031 A 
BRANCH  49  63
ATOM     63  C   UNL A   1      44.623  28.573  36.042  1.00  0.00    -0.014 A 
ATOM     64  C   UNL A   1      44.380  27.501  36.920  1.00  0.00     0.010 A 
ATOM     65  C   UNL A   1      45.947  28.996  35.826  1.00  0.00     0.010 A 
ATOM     66  C   UNL A   1      45.437  26.893  37.603  1.00  0.00     0.020 A 
ATOM     67  C   UNL A   1      47.009  28.371  36.484  1.00  0.00     0.020 A 
ATOM     68  C   UNL A   1      46.744  27.336  37.383  1.00  0.00     0.054 A 
BRANCH  68  69
ATOM     69  S   UNL A   1      48.099  26.519  38.270  1.00  0.00     0.124 S 
ATOM     70  O   UNL A   1      47.746  25.109  38.123  1.00  0.00    -0.237 OA
ATOM     71  O   UNL A   1      49.277  26.952  37.524  1.00  0.00    -0.237 OA
ATOM     72  O   UNL A   1      47.995  27.049  39.627  1.00  0.00    -0.744 OA
ENDBRANCH  68  69
ENDBRANCH  49  63
BRANCH  50  73
ATOM     73  C   UNL A   1      37.094  32.605  30.937  1.00  0.00    -0.014 A 
ATOM     74  C   UNL A   1      37.334  33.607  29.980  1.00  0.00     0.010 A 
ATOM     75  C   UNL A   1      35.770  32.207  31.193  1.00  0.00     0.010 A 
ATOM     76  C   UNL A   1      36.268  34.212  29.305  1.00  0.00     0.020 A 
ATOM     77  C   UNL A   1      34.704  32.790  30.501  1.00  0.00     0.020 A 
ATOM     78  C   UNL A   1      34.959  33.796  29.569  1.00  0.00     0.054 A 
BRANCH  78  79
ATOM     79  S   UNL A   1      33.594  34.558  28.646  1.00  0.00     0.124 S 
ATOM     80  O   UNL A   1      32.634  34.846  29.705  1.00  0.00    -0.237 OA
ATOM     81  O   UNL A   1      34.236  35.722  28.037  1.00  0.00    -0.237 OA
ATOM     82  O   UNL A   1      33.196  33.514  27.703  1.00  0.00    -0.744 OA
ENDBRANCH  78  79
ENDBRANCH  50  73
BRANCH  62  83
ATOM     83  C   UNL A   1      39.950  33.947  37.161  1.00  0.00    -0.014 A 
ATOM     84  C   UNL A   1      39.026  33.691  38.188  1.00  0.00     0.010 A 
ATOM     85  C   UNL A   1      40.664  35.160  37.173  1.00  0.00     0.010 A 
ATOM     86  C   UNL A   1      38.799  34.639  39.191  1.00  0.00     0.020 A 
ATOM     87  C   UNL A   1      40.460  36.100  38.187  1.00  0.00     0.020 A 
ATOM     88  C   UNL A   1      39.518  35.839  39.183  1.00  0.00     0.054 A 
BRANCH  88  89
ATOM     89  S   UNL A   1      39.239  37.034  40.520  1.00  0.00     0.124 S 
ATOM     90  O   UNL A   1      40.544  37.678  40.629  1.00  0.00    -0.237 OA
ATOM     91  O   UNL A   1      38.168  37.871  39.985  1.00  0.00    -0.237 OA
ATOM     92  O   UNL A   1      38.859  36.200  41.658  1.00  0.00    -0.744 OA
ENDBRANCH  88  89
ENDBRANCH  62  83
ENDBRANCH  36  37
ENDBRANCH  29  31
ENDBRANCH  28  29
ENDBRANCH  27  28
ENDBRANCH  26  27
ENDBRANCH  25  26
ENDBRANCH   1  25
TORSDOF 22
ENDMDL
MODEL 2
REMARK VINA RESULT:      -9.9      6.445     12.228
REMARK SMILES C[C@H](C(=O)OCCOCCOC(=O)c1ccc(-c2c3nc(c(-c4ccc(S(=O)(=O)[O-])cc4)c4ccc([nH]4)c(-c4ccc(S(=O)(=O)[O-])cc4)c4nc(c(-c5ccc(S(=O)(=O)[O-])cc5)c5ccc2[nH]5)C=C4)C=C3)cc1)[C@@H](C)Nc1ccccc1Oc1ccccc1
REMARK SMILES IDX 7 1 6 2 5 3 3 4 4 5 2 6 1 7 74 8 75 9 76 10 77 12 78 13
REMARK SMILES IDX 82 14 79 15 81 16 80 17 83 18 84 19 85 20 89 21 86 22 88 23
REMARK SMILES IDX 87 24 8 25 9 26 10 27 11 28 12 29 13 30 14 31 15 32 73 33
REMARK SMILES IDX 16 34 72 35 17 36 18 37 19 38 66 39 20 40 71 41 65 42 67 43
REMARK SMILES IDX 21 44 70 45 64 46 63 47 22 49 52 50 33 51 51 52 34 53 37 54
REMARK SMILES IDX 50 55 68 56 35 57 36 58 49 60 69 61 38 62 23 63 24 64 32 65
REMARK SMILES IDX 25 66 31 67 26 68 27 69 28 70 29 71 30 72 53 73 54 74 62 75
REMARK SMILES IDX 55 76 61 77 56 78 57 79 58 80 59 81 60 82 39 83 40 84 48 85
REMARK SMILES IDX 41 86 47 87 42 88 43 89 44 90 45 91 46 92
REMARK H PARENT 76 11 67 48 37 59
REMARK Flexibility Score: inf
ROOT
ATOM      1  C   UNL A   1      34.049  28.733  27.130  1.00  0.00     0.202 C 
ENDROOT
BRANCH   1   2
ATOM      2  C   UNL A   1      32.839  29.064  26.259  1.00  0.00     0.261 C 
BRANCH   2   3
ATOM      3  O   UNL A   1      33.143  28.899  24.857  1.00  0.00    -0.463 OA
BRANCH   3   4
ATOM      4  C   UNL A   1      32.090  28.758  24.013  1.00  0.00     0.310 C 
ATOM      5  O   UNL A   1      30.935  29.043  24.309  1.00  0.00    -0.252 OA
BRANCH   4   6
ATOM      6  C   UNL A   1      32.476  28.094  22.685  1.00  0.00     0.118 C 
ATOM      7  C   UNL A   1      33.975  28.332  22.467  1.00  0.00     0.022 C 
BRANCH   6   8
ATOM      8  C   UNL A   1      32.070  26.592  22.582  1.00  0.00     0.090 C 
ATOM      9  C   UNL A   1      32.690  26.001  21.301  1.00  0.00     0.031 C 
BRANCH   8  10
ATOM     10  N   UNL A   1      32.634  25.808  23.685  1.00  0.00    -0.379 N 
ATOM     11  H   UNL A   1      33.579  26.010  23.877  1.00  0.00     0.160 HD
BRANCH  10  12
ATOM     12  C   UNL A   1      32.087  24.839  24.507  1.00  0.00     0.078 A 
ATOM     13  C   UNL A   1      31.139  25.355  25.430  1.00  0.00     0.029 A 
ATOM     14  C   UNL A   1      32.255  23.441  24.525  1.00  0.00     0.150 A 
ATOM     15  C   UNL A   1      30.393  24.560  26.306  1.00  0.00     0.002 A 
ATOM     16  C   UNL A   1      31.506  22.643  25.425  1.00  0.00     0.049 A 
ATOM     17  C   UNL A   1      30.582  23.191  26.308  1.00  0.00     0.004 A 
BRANCH  14  18
ATOM     18  O   UNL A   1      32.993  22.630  23.695  1.00  0.00    -0.455 OA
BRANCH  18  19
ATOM     19  C   UNL A   1      34.290  22.305  23.954  1.00  0.00     0.127 A 
ATOM     20  C   UNL A   1      35.207  23.174  23.374  1.00  0.00     0.047 A 
ATOM     21  C   UNL A   1      34.736  21.178  24.637  1.00  0.00     0.047 A 
ATOM     22  C   UNL A   1      36.563  23.031  23.619  1.00  0.00     0.004 A 
ATOM     23  C   UNL A   1      36.116  20.986  24.807  1.00  0.00     0.004 A 
ATOM     24  C   UNL A   1      37.028  21.929  24.323  1.00  0.00     0.000 A 
ENDBRANCH  18  19
ENDBRANCH  14  18
ENDBRANCH  10  12
ENDBRANCH   8  10
ENDBRANCH   6   8
ENDBRANCH   4   6
ENDBRANCH   3   4
ENDBRANCH   2   3
ENDBRANCH   1   2
BRANCH   1  25
ATOM     25  O   UNL A   1      35.139  29.632  26.923  1.00  0.00    -0.374 OA
BRANCH  25  26
ATOM     26  C   UNL A   1      35.100  30.812  27.726  1.00  0.00     0.202 C 
BRANCH  26  27
ATOM     27  C   UNL A   1      35.412  30.536  29.203  1.00  0.00     0.261 C 
BRANCH  27  28
ATOM     28  O   UNL A   1      36.827  30.664  29.454  1.00  0.00    -0.460 OA
BRANCH  28  29
ATOM     29  C   UNL A   1      37.404  29.627  30.113  1.00  0.00     0.338 C 
ATOM     30  O   UNL A   1      36.918  28.976  31.013  1.00  0.00    -0.246 OA
BRANCH  29  31
ATOM     31  C   UNL A   1      38.679  29.256  29.444  1.00  0.00     0.060 A 
ATOM     32  C   UNL A   1      39.722  28.809  30.259  1.00  0.00     0.016 A 
ATOM     33  C   UNL A   1      38.870  29.338  28.062  1.00  0.00     0.016 A 
ATOM     34  C   UNL A   1      40.964  28.493  29.703  1.00  0.00     0.010 A 
ATOM     35  C   UNL A   1      40.099  28.960  27.497  1.00  0.00     0.010 A 
ATOM     36  C   UNL A   1      41.178  28.592  28.320  1.00  0.00    -0.014 A 
BRANCH  36  37
ATOM     37  C   UNL A   1      42.570  28.486  27.791  1.00  0.00     0.031 A 
ATOM     38  C   UNL A   1      43.518  29.648  27.978  1.00  0.00     0.074 A 
ATOM     39  C   UNL A   1      43.031  27.344  27.241  1.00  0.00     0.049 A 
ATOM     40  N   UNL A   1      44.802  29.715  27.727  1.00  0.00    -0.248 NA
ATOM     41  C   UNL A   1      42.949  30.895  28.517  1.00  0.00     0.031 C 
ATOM     42  C   UNL A   1      42.243  26.136  27.002  1.00  0.00     0.029 A 
ATOM     43  N   UNL A   1      44.293  27.008  26.809  1.00  0.00    -0.354 N 
ATOM     44  C   UNL A   1      45.190  31.005  28.078  1.00  0.00     0.074 A 
ATOM     45  C   UNL A   1      43.997  31.703  28.503  1.00  0.00     0.031 C 
ATOM     46  C   UNL A   1      43.046  25.181  26.500  1.00  0.00     0.029 A 
ATOM     47  C   UNL A   1      44.402  25.712  26.360  1.00  0.00     0.049 A 
ATOM     48  H   UNL A   1      45.050  27.638  26.818  1.00  0.00     0.167 HD
ATOM     49  C   UNL A   1      46.424  31.561  28.075  1.00  0.00     0.031 A 
ATOM     50  C   UNL A   1      45.467  25.023  25.901  1.00  0.00     0.031 A 
ATOM     51  C   UNL A   1      47.622  30.882  27.665  1.00  0.00     0.049 A 
ATOM     52  C   UNL A   1      46.825  25.677  25.859  1.00  0.00     0.074 A 
ATOM     53  C   UNL A   1      48.922  31.358  27.671  1.00  0.00     0.029 A 
ATOM     54  N   UNL A   1      47.672  29.590  27.168  1.00  0.00    -0.354 N 
ATOM     55  N   UNL A   1      47.177  26.876  26.256  1.00  0.00    -0.248 NA
ATOM     56  C   UNL A   1      47.934  24.876  25.316  1.00  0.00     0.031 C 
ATOM     57  C   UNL A   1      49.750  30.375  27.121  1.00  0.00     0.029 A 
ATOM     58  C   UNL A   1      48.975  29.264  26.832  1.00  0.00     0.049 A 
ATOM     59  H   UNL A   1      46.896  28.992  27.070  1.00  0.00     0.167 HD
ATOM     60  C   UNL A   1      48.550  26.960  26.041  1.00  0.00     0.074 A 
ATOM     61  C   UNL A   1      48.967  25.689  25.489  1.00  0.00     0.031 C 
ATOM     62  C   UNL A   1      49.389  27.998  26.283  1.00  0.00     0.031 A 
BRANCH  49  63
ATOM     63  C   UNL A   1      46.537  32.994  28.520  1.00  0.00    -0.014 A 
ATOM     64  C   UNL A   1      46.774  33.324  29.867  1.00  0.00     0.010 A 
ATOM     65  C   UNL A   1      46.435  34.026  27.569  1.00  0.00     0.010 A 
ATOM     66  C   UNL A   1      46.863  34.661  30.262  1.00  0.00     0.020 A 
ATOM     67  C   UNL A   1      46.554  35.363  27.955  1.00  0.00     0.020 A 
ATOM     68  C   UNL A   1      46.748  35.672  29.303  1.00  0.00     0.054 A 
BRANCH  68  69
ATOM     69  S   UNL A   1      46.885  37.398  29.840  1.00  0.00     0.124 S 
ATOM     70  O   UNL A   1      47.966  37.323  30.820  1.00  0.00    -0.237 OA
ATOM     71  O   UNL A   1      47.209  38.096  28.600  1.00  0.00    -0.237 OA
ATOM     72  O   UNL A   1      45.565  37.696  30.392  1.00  0.00    -0.744 OA
ENDBRANCH  68  69
ENDBRANCH  49  63
BRANCH  50  73
ATOM     73  C   UNL A   1      45.303  23.613  25.443  1.00  0.00    -0.014 A 
ATOM     74  C   UNL A   1      45.581  22.538  26.306  1.00  0.00     0.010 A 
ATOM     75  C   UNL A   1      44.885  23.342  24.128  1.00  0.00     0.010 A 
ATOM     76  C   UNL A   1      45.461  21.218  25.857  1.00  0.00     0.020 A 
ATOM     77  C   UNL A   1      44.738  22.025  23.683  1.00  0.00     0.020 A 
ATOM     78  C   UNL A   1      45.037  20.971  24.548  1.00  0.00     0.054 A 
BRANCH  78  79
ATOM     79  S   UNL A   1      44.839  19.252  24.000  1.00  0.00     0.124 S 
ATOM     80  O   UNL A   1      46.170  18.703  24.233  1.00  0.00    -0.237 OA
ATOM     81  O   UNL A   1      43.786  18.759  24.885  1.00  0.00    -0.237 OA
ATOM     82  O   UNL A   1      44.450  19.384  22.597  1.00  0.00    -0.744 OA
ENDBRANCH  78  79
ENDBRANCH  50  73
BRANCH  62  83
ATOM     83  C   UNL A   1      50.855  27.807  25.985  1.00  0.00    -0.014 A 
ATOM     84  C   UNL A   1      51.394  28.124  24.727  1.00  0.00     0.010 A 
ATOM     85  C   UNL A   1      51.718  27.366  27.007  1.00  0.00     0.010 A 
ATOM     86  C   UNL A   1      52.764  27.978  24.486  1.00  0.00     0.020 A 
ATOM     87  C   UNL A   1      53.091  27.244  26.779  1.00  0.00     0.020 A 
ATOM     88  C   UNL A   1      53.604  27.538  25.514  1.00  0.00     0.054 A 
BRANCH  88  89
ATOM     89  S   UNL A   1      55.384  27.400  25.190  1.00  0.00     0.124 S 
ATOM     90  O   UNL A   1      55.865  26.751  26.406  1.00  0.00    -0.237 OA
ATOM     91  O   UNL A   1      55.428  26.580  23.981  1.00  0.00    -0.237 OA
ATOM     92  O   UNL A   1      55.813  28.785  25.011  1.00  0.00    -0.744 OA
ENDBRANCH  88  89
ENDBRANCH  62  83
ENDBRANCH  36  37
ENDBRANCH  29  31
ENDBRANCH  28  29
ENDBRANCH  27  28
ENDBRANCH  26  27
ENDBRANCH  25  26
ENDBRANCH   1  25
TORSDOF 22
ENDMDL
MODEL 3
REMARK VINA RESULT:      -9.7      1.792      3.446
REMARK SMILES C[C@H](C(=O)OCCOCCOC(=O)c1ccc(-c2c3nc(c(-c4ccc(S(=O)(=O)[O-])cc4)c4ccc([nH]4)c(-c4ccc(S(=O)(=O)[O-])cc4)c4nc(c(-c5ccc(S(=O)(=O)[O-])cc5)c5ccc2[nH]5)C=C4)C=C3)cc1)[C@@H](C)Nc1ccccc1Oc1ccccc1
REMARK SMILES IDX 7 1 6 2 5 3 3 4 4 5 2 6 1 7 74 8 75 9 76 10 77 12 78 13
REMARK SMILES IDX 82 14 79 15 81 16 80 17 83 18 84 19 85 20 89 21 86 22 88 23
REMARK SMILES IDX 87 24 8 25 9 26 10 27 11 28 12 29 13 30 14 31 15 32 73 33
REMARK SMILES IDX 16 34 72 35 17 36 18 37 19 38 66 39 20 40 71 41 65 42 67 43
REMARK SMILES IDX 21 44 70 45 64 46 63 47 22 49 52 50 33 51 51 52 34 53 37 54
REMARK SMILES IDX 50 55 68 56 35 57 36 58 49 60 69 61 38 62 23 63 24 64 32 65
REMARK SMILES IDX 25 66 31 67 26 68 27 69 28 70 29 71 30 72 53 73 54 74 62 75
REMARK SMILES IDX 55 76 61 77 56 78 57 79 58 80 59 81 60 82 39 83 40 84 48 85
REMARK SMILES IDX 41 86 47 87 42 88 43 89 44 90 45 91 46 92
REMARK H PARENT 76 11 67 48 37 59
REMARK Flexibility Score: inf
ROOT
ATOM      1  C   UNL A   1      43.633  22.020  25.160  1.00  0.00     0.202 C 
ENDROOT
BRANCH   1   2
ATOM      2  C   UNL A   1      42.292  22.304  25.835  1.00  0.00     0.261 C 
BRANCH   2   3
ATOM      3  O   UNL A   1      41.431  21.145  25.796  1.00  0.00    -0.463 OA
BRANCH   3   4
ATOM      4  C   UNL A   1      40.211  21.268  26.377  1.00  0.00     0.310 C 
ATOM      5  O   UNL A   1      40.042  21.439  27.579  1.00  0.00    -0.252 OA
BRANCH   4   6
ATOM      6  C   UNL A   1      39.057  21.052  25.389  1.00  0.00     0.118 C 
ATOM      7  C   UNL A   1      38.741  19.551  25.369  1.00  0.00     0.022 C 
BRANCH   6   8
ATOM      8  C   UNL A   1      37.806  21.940  25.667  1.00  0.00     0.090 C 
ATOM      9  C   UNL A   1      38.277  23.380  25.949  1.00  0.00     0.031 C 
BRANCH   8  10
ATOM     10  N   UNL A   1      36.944  22.035  24.486  1.00  0.00    -0.379 N 
ATOM     11  H   UNL A   1      37.398  21.814  23.640  1.00  0.00     0.160 HD
BRANCH  10  12
ATOM     12  C   UNL A   1      35.612  22.378  24.336  1.00  0.00     0.078 A 
ATOM     13  C   UNL A   1      35.420  23.587  23.616  1.00  0.00     0.029 A 
ATOM     14  C   UNL A   1      34.436  21.696  24.705  1.00  0.00     0.150 A 
ATOM     15  C   UNL A   1      34.164  24.094  23.268  1.00  0.00     0.002 A 
ATOM     16  C   UNL A   1      33.167  22.223  24.360  1.00  0.00     0.049 A 
ATOM     17  C   UNL A   1      33.026  23.409  23.647  1.00  0.00     0.004 A 
BRANCH  14  18
ATOM     18  O   UNL A   1      34.278  20.463  25.293  1.00  0.00    -0.455 OA
BRANCH  18  19
ATOM     19  C   UNL A   1      33.945  19.350  24.581  1.00  0.00     0.127 A 
ATOM     20  C   UNL A   1      34.913  18.353  24.624  1.00  0.00     0.047 A 
ATOM     21  C   UNL A   1      32.816  19.188  23.785  1.00  0.00     0.047 A 
ATOM     22  C   UNL A   1      34.684  17.125  24.025  1.00  0.00     0.004 A 
ATOM     23  C   UNL A   1      32.629  17.975  23.105  1.00  0.00     0.004 A 
ATOM     24  C   UNL A   1      33.549  16.933  23.249  1.00  0.00     0.000 A 
ENDBRANCH  18  19
ENDBRANCH  14  18
ENDBRANCH  10  12
ENDBRANCH   8  10
ENDBRANCH   6   8
ENDBRANCH   4   6
ENDBRANCH   3   4
ENDBRANCH   2   3
ENDBRANCH   1   2
BRANCH   1  25
ATOM     25  O   UNL A   1      44.577  23.076  25.344  1.00  0.00    -0.374 OA
BRANCH  25  26
ATOM     26  C   UNL A   1      44.315  23.919  26.467  1.00  0.00     0.202 C 
BRANCH  26  27
ATOM     27  C   UNL A   1      44.757  25.371  26.235  1.00  0.00     0.261 C 
BRANCH  27  28
ATOM     28  O   UNL A   1      43.912  26.006  25.253  1.00  0.00    -0.460 OA
BRANCH  28  29
ATOM     29  C   UNL A   1      42.596  26.093  25.576  1.00  0.00     0.338 C 
ATOM     30  O   UNL A   1      41.669  25.572  24.994  1.00  0.00    -0.246 OA
BRANCH  29  31
ATOM     31  C   UNL A   1      42.446  26.776  26.888  1.00  0.00     0.060 A 
ATOM     32  C   UNL A   1      41.651  26.146  27.849  1.00  0.00     0.016 A 
ATOM     33  C   UNL A   1      43.053  27.999  27.188  1.00  0.00     0.016 A 
ATOM     34  C   UNL A   1      41.424  26.757  29.085  1.00  0.00     0.010 A 
ATOM     35  C   UNL A   1      42.875  28.581  28.453  1.00  0.00     0.010 A 
ATOM     36  C   UNL A   1      42.009  27.995  29.392  1.00  0.00    -0.014 A 
BRANCH  36  37
ATOM     37  C   UNL A   1      41.555  28.730  30.610  1.00  0.00     0.031 A 
ATOM     38  C   UNL A   1      42.373  28.630  31.877  1.00  0.00     0.074 A 
ATOM     39  C   UNL A   1      40.492  29.560  30.579  1.00  0.00     0.049 A 
ATOM     40  N   UNL A   1      42.242  29.293  32.999  1.00  0.00    -0.248 NA
ATOM     41  C   UNL A   1      43.479  27.659  31.883  1.00  0.00     0.031 C 
ATOM     42  C   UNL A   1      39.611  29.771  29.430  1.00  0.00     0.029 A 
ATOM     43  N   UNL A   1      39.990  30.405  31.542  1.00  0.00    -0.354 N 
ATOM     44  C   UNL A   1      43.247  28.821  33.837  1.00  0.00     0.074 A 
ATOM     45  C   UNL A   1      43.940  27.776  33.118  1.00  0.00     0.031 C 
ATOM     46  C   UNL A   1      38.701  30.711  29.743  1.00  0.00     0.029 A 
ATOM     47  C   UNL A   1      38.917  31.155  31.120  1.00  0.00     0.049 A 
ATOM     48  H   UNL A   1      40.365  30.466  32.450  1.00  0.00     0.167 HD
ATOM     49  C   UNL A   1      43.588  29.227  35.083  1.00  0.00     0.031 A 
ATOM     50  C   UNL A   1      38.195  32.100  31.758  1.00  0.00     0.031 A 
ATOM     51  C   UNL A   1      42.918  30.269  35.811  1.00  0.00     0.049 A 
ATOM     52  C   UNL A   1      38.560  32.503  33.165  1.00  0.00     0.074 A 
ATOM     53  C   UNL A   1      43.225  30.773  37.064  1.00  0.00     0.029 A 
ATOM     54  N   UNL A   1      41.804  30.960  35.364  1.00  0.00    -0.354 N 
ATOM     55  N   UNL A   1      39.554  32.087  33.911  1.00  0.00    -0.248 NA
ATOM     56  C   UNL A   1      37.709  33.516  33.809  1.00  0.00     0.031 C 
ATOM     57  C   UNL A   1      42.260  31.728  37.399  1.00  0.00     0.029 A 
ATOM     58  C   UNL A   1      41.391  31.863  36.330  1.00  0.00     0.049 A 
ATOM     59  H   UNL A   1      41.371  30.830  34.490  1.00  0.00     0.167 HD
ATOM     60  C   UNL A   1      39.466  32.810  35.099  1.00  0.00     0.074 A 
ATOM     61  C   UNL A   1      38.330  33.696  34.967  1.00  0.00     0.031 C 
ATOM     62  C   UNL A   1      40.259  32.745  36.197  1.00  0.00     0.031 A 
BRANCH  49  63
ATOM     63  C   UNL A   1      44.740  28.523  35.748  1.00  0.00    -0.014 A 
ATOM     64  C   UNL A   1      46.054  29.013  35.640  1.00  0.00     0.010 A 
ATOM     65  C   UNL A   1      44.498  27.372  36.519  1.00  0.00     0.010 A 
ATOM     66  C   UNL A   1      47.112  28.338  36.255  1.00  0.00     0.020 A 
ATOM     67  C   UNL A   1      45.549  26.712  37.160  1.00  0.00     0.020 A 
ATOM     68  C   UNL A   1      46.853  27.190  37.008  1.00  0.00     0.054 A 
BRANCH  68  69
ATOM     69  S   UNL A   1      48.241  26.343  37.809  1.00  0.00     0.124 S 
ATOM     70  O   UNL A   1      49.341  26.639  36.894  1.00  0.00    -0.237 OA
ATOM     71  O   UNL A   1      48.312  27.002  39.109  1.00  0.00    -0.237 OA
ATOM     72  O   UNL A   1      47.821  24.944  37.845  1.00  0.00    -0.744 OA
ENDBRANCH  68  69
ENDBRANCH  49  63
BRANCH  50  73
ATOM     73  C   UNL A   1      37.043  32.751  31.070  1.00  0.00    -0.014 A 
ATOM     74  C   UNL A   1      35.733  32.274  31.251  1.00  0.00     0.010 A 
ATOM     75  C   UNL A   1      37.260  33.844  30.212  1.00  0.00     0.010 A 
ATOM     76  C   UNL A   1      34.662  32.867  30.572  1.00  0.00     0.020 A 
ATOM     77  C   UNL A   1      36.190  34.457  29.553  1.00  0.00     0.020 A 
ATOM     78  C   UNL A   1      34.899  33.957  29.730  1.00  0.00     0.054 A 
BRANCH  78  79
ATOM     79  S   UNL A   1      33.490  34.745  28.898  1.00  0.00     0.124 S 
ATOM     80  O   UNL A   1      33.089  33.718  27.942  1.00  0.00    -0.237 OA
ATOM     81  O   UNL A   1      32.563  34.980  30.003  1.00  0.00    -0.237 OA
ATOM     82  O   UNL A   1      34.071  35.953  28.315  1.00  0.00    -0.744 OA
ENDBRANCH  78  79
ENDBRANCH  50  73
BRANCH  62  83
ATOM     83  C   UNL A   1      39.956  33.676  37.344  1.00  0.00    -0.014 A 
ATOM     84  C   UNL A   1      40.376  35.017  37.329  1.00  0.00     0.010 A 
ATOM     85  C   UNL A   1      39.178  33.216  38.423  1.00  0.00     0.010 A 
ATOM     86  C   UNL A   1      40.048  35.873  38.384  1.00  0.00     0.020 A 
ATOM     87  C   UNL A   1      38.825  34.075  39.467  1.00  0.00     0.020 A 
ATOM     88  C   UNL A   1      39.275  35.397  39.448  1.00  0.00     0.054 A 
BRANCH  88  89
ATOM     89  S   UNL A   1      38.825  36.540  40.783  1.00  0.00     0.124 S 
ATOM     90  O   UNL A   1      37.827  35.769  41.520  1.00  0.00    -0.237 OA
ATOM     91  O   UNL A   1      40.096  36.745  41.474  1.00  0.00    -0.237 OA
ATOM     92  O   UNL A   1      38.310  37.712  40.078  1.00  0.00    -0.744 OA
ENDBRANCH  88  89
ENDBRANCH  62  83
ENDBRANCH  36  37
ENDBRANCH  29  31
ENDBRANCH  28  29
ENDBRANCH  27  28
ENDBRANCH  26  27
ENDBRANCH  25  26
ENDBRANCH   1  25
TORSDOF 22
ENDMDL
