MODEL 1
REMARK VINA RESULT:     -11.8      0.000      0.000
REMARK SMILES O=C(OCCOCCOC(=O)c1ccc(-c2c3nc(c(-c4ccc(S(=O)(=O)[O-])cc4)c4ccc([nH]4)c(-c4ccc(S(=O)(=O)[O-])cc4)c4nc(c(-c5ccc(S(=O)(=O)[O-])cc5)c5ccc2[nH]5)C=C4)C=C3)cc1)C1=Cc2cc(Cl)c(Cl)c(Cl)c2O[C@@H]1C(F)(F)F
REMARK SMILES IDX 7 1 6 2 5 3 4 4 3 5 2 6 1 7 72 8 73 9 84 10 74 11 83 12
REMARK SMILES IDX 75 13 82 14 76 15 80 16 77 17 78 18 81 19 79 20 85 21 86 22
REMARK SMILES IDX 87 23 88 24 8 25 9 26 10 27 11 28 12 29 13 30 71 31 14 32
REMARK SMILES IDX 70 33 15 34 16 35 17 36 64 37 18 38 69 39 63 40 65 41 19 42
REMARK SMILES IDX 68 43 62 44 61 45 20 47 50 48 31 49 49 50 32 51 35 52 48 53
REMARK SMILES IDX 66 54 33 55 34 56 47 58 67 59 36 60 21 61 22 62 30 63 23 64
REMARK SMILES IDX 29 65 24 66 25 67 26 68 27 69 28 70 51 71 52 72 60 73 53 74
REMARK SMILES IDX 59 75 54 76 55 77 56 78 57 79 58 80 37 81 38 82 46 83 39 84
REMARK SMILES IDX 45 85 40 86 41 87 42 88 43 89 44 90
REMARK H PARENT 65 46 35 57
REMARK Flexibility Score: inf
ROOT
ATOM      1  C   UNL A   1      42.421  22.103  25.944  1.00  0.00     0.202 C 
ENDROOT
BRANCH   1   2
ATOM      2  O   UNL A   1      41.400  21.320  26.580  1.00  0.00    -0.374 OA
BRANCH   2   3
ATOM      3  C   UNL A   1      39.882  20.963  26.234  1.00  0.00     0.202 C 
BRANCH   3   4
ATOM      4  C   UNL A   1      38.177  22.194  25.649  1.00  0.00     0.261 C 
BRANCH   4   5
ATOM      5  O   UNL A   1      36.713  21.735  25.534  1.00  0.00    -0.460 OA
BRANCH   5   6
ATOM      6  C   UNL A   1      36.066  22.308  24.516  1.00  0.00     0.338 C 
ATOM      7  O   UNL A   1      36.491  22.741  23.477  1.00  0.00    -0.246 OA
BRANCH   6   8
ATOM      8  C   UNL A   1      34.844  22.554  25.247  1.00  0.00     0.087 C 
ATOM      9  C   UNL A   1      34.811  23.923  25.812  1.00  0.00     0.027 C 
ATOM     10  C   UNL A   1      33.644  21.893  23.877  1.00  0.00     0.316 C 
ATOM     11  C   UNL A   1      33.774  25.253  25.148  1.00  0.00     0.020 A 
ATOM     12  O   UNL A   1      32.589  23.318  23.106  1.00  0.00    -0.474 OA
ATOM     13  C   UNL A   1      33.934  26.513  25.646  1.00  0.00     0.034 A 
ATOM     14  C   UNL A   1      32.768  25.022  23.754  1.00  0.00     0.148 A 
ATOM     15  C   UNL A   1      33.318  27.537  24.905  1.00  0.00     0.062 A 
ATOM     16  C   UNL A   1      32.381  26.095  22.991  1.00  0.00     0.103 A 
ATOM     17  Cl  UNL A   1      33.482  29.120  25.627  1.00  0.00    -0.083 Cl
ATOM     18  C   UNL A   1      32.647  27.358  23.613  1.00  0.00     0.082 A 
ATOM     19  Cl  UNL A   1      32.006  25.907  21.331  1.00  0.00    -0.079 Cl
ATOM     20  Cl  UNL A   1      32.250  28.826  22.763  1.00  0.00    -0.081 Cl
BRANCH  10  21
ATOM     21  C   UNL A   1      33.235  20.542  24.609  1.00  0.00     0.430 C 
ATOM     22  F   UNL A   1      32.259  19.827  24.024  1.00  0.00    -0.167 F 
ATOM     23  F   UNL A   1      34.329  19.721  24.572  1.00  0.00    -0.167 F 
ATOM     24  F   UNL A   1      32.957  20.669  25.927  1.00  0.00    -0.167 F 
ENDBRANCH  10  21
ENDBRANCH   6   8
ENDBRANCH   5   6
ENDBRANCH   4   5
ENDBRANCH   3   4
ENDBRANCH   2   3
ENDBRANCH   1   2
BRANCH   1  25
ATOM     25  C   UNL A   1      42.591  23.540  26.410  1.00  0.00     0.261 C 
BRANCH  25  26
ATOM     26  O   UNL A   1      41.353  24.205  26.568  1.00  0.00    -0.460 OA
BRANCH  26  27
ATOM     27  C   UNL A   1      41.377  25.494  26.165  1.00  0.00     0.338 C 
ATOM     28  O   UNL A   1      41.455  25.918  25.026  1.00  0.00    -0.246 OA
BRANCH  27  29
ATOM     29  C   UNL A   1      41.274  26.343  27.359  1.00  0.00     0.060 A 
ATOM     30  C   UNL A   1      40.271  26.041  28.282  1.00  0.00     0.016 A 
ATOM     31  C   UNL A   1      42.172  27.399  27.582  1.00  0.00     0.016 A 
ATOM     32  C   UNL A   1      40.174  26.791  29.445  1.00  0.00     0.010 A 
ATOM     33  C   UNL A   1      42.085  28.137  28.754  1.00  0.00     0.010 A 
ATOM     34  C   UNL A   1      41.074  27.841  29.676  1.00  0.00    -0.014 A 
BRANCH  34  35
ATOM     35  C   UNL A   1      40.790  28.786  30.766  1.00  0.00     0.031 A 
ATOM     36  C   UNL A   1      41.689  28.722  31.959  1.00  0.00     0.074 A 
ATOM     37  C   UNL A   1      39.802  29.690  30.671  1.00  0.00     0.049 A 
ATOM     38  N   UNL A   1      41.721  29.496  33.007  1.00  0.00    -0.248 NA
ATOM     39  C   UNL A   1      42.682  27.633  31.974  1.00  0.00     0.031 C 
ATOM     40  C   UNL A   1      38.878  29.815  29.550  1.00  0.00     0.029 A 
ATOM     41  N   UNL A   1      39.428  30.692  31.525  1.00  0.00    -0.354 N 
ATOM     42  C   UNL A   1      42.738  28.992  33.802  1.00  0.00     0.074 A 
ATOM     43  C   UNL A   1      43.270  27.822  33.142  1.00  0.00     0.031 C 
ATOM     44  C   UNL A   1      38.086  30.882  29.747  1.00  0.00     0.029 A 
ATOM     45  C   UNL A   1      38.398  31.466  31.047  1.00  0.00     0.049 A 
ATOM     46  H   UNL A   1      39.857  30.844  32.399  1.00  0.00     0.167 HD
ATOM     47  C   UNL A   1      43.191  29.471  34.981  1.00  0.00     0.031 A 
ATOM     48  C   UNL A   1      37.774  32.517  31.612  1.00  0.00     0.031 A 
ATOM     49  C   UNL A   1      42.608  30.602  35.646  1.00  0.00     0.049 A 
ATOM     50  C   UNL A   1      38.240  32.972  32.972  1.00  0.00     0.074 A 
ATOM     51  C   UNL A   1      42.974  31.172  36.849  1.00  0.00     0.029 A 
ATOM     52  N   UNL A   1      41.517  31.319  35.172  1.00  0.00    -0.354 N 
ATOM     53  N   UNL A   1      39.236  32.521  33.699  1.00  0.00    -0.248 NA
ATOM     54  C   UNL A   1      37.499  34.081  33.585  1.00  0.00     0.031 C 
ATOM     55  C   UNL A   1      42.055  32.184  37.141  1.00  0.00     0.029 A 
ATOM     56  C   UNL A   1      41.173  32.306  36.077  1.00  0.00     0.049 A 
ATOM     57  H   UNL A   1      41.058  31.150  34.318  1.00  0.00     0.167 HD
ATOM     58  C   UNL A   1      39.265  33.315  34.839  1.00  0.00     0.074 A 
ATOM     59  C   UNL A   1      38.197  34.285  34.694  1.00  0.00     0.031 C 
ATOM     60  C   UNL A   1      40.101  33.257  35.907  1.00  0.00     0.031 A 
BRANCH  47  61
ATOM     61  C   UNL A   1      44.320  28.722  35.632  1.00  0.00    -0.014 A 
ATOM     62  C   UNL A   1      45.664  29.042  35.365  1.00  0.00     0.010 A 
ATOM     63  C   UNL A   1      44.028  27.667  36.513  1.00  0.00     0.010 A 
ATOM     64  C   UNL A   1      46.694  28.290  35.931  1.00  0.00     0.020 A 
ATOM     65  C   UNL A   1      45.055  26.936  37.111  1.00  0.00     0.020 A 
ATOM     66  C   UNL A   1      46.382  27.241  36.801  1.00  0.00     0.054 A 
BRANCH  66  67
ATOM     67  S   UNL A   1      47.741  26.293  37.536  1.00  0.00     0.124 S 
ATOM     68  O   UNL A   1      47.146  24.965  37.669  1.00  0.00    -0.237 OA
ATOM     69  O   UNL A   1      48.792  26.412  36.528  1.00  0.00    -0.237 OA
ATOM     70  O   UNL A   1      48.006  26.984  38.795  1.00  0.00    -0.744 OA
ENDBRANCH  66  67
ENDBRANCH  47  61
BRANCH  48  71
ATOM     71  C   UNL A   1      36.648  33.199  30.915  1.00  0.00    -0.014 A 
ATOM     72  C   UNL A   1      36.880  33.998  29.780  1.00  0.00     0.010 A 
ATOM     73  C   UNL A   1      35.330  33.071  31.395  1.00  0.00     0.010 A 
ATOM     74  C   UNL A   1      35.826  34.673  29.157  1.00  0.00     0.020 A 
ATOM     75  C   UNL A   1      34.268  33.717  30.754  1.00  0.00     0.020 A 
ATOM     76  C   UNL A   1      34.525  34.525  29.646  1.00  0.00     0.054 A 
BRANCH  76  77
ATOM     77  S   UNL A   1      33.169  35.383  28.798  1.00  0.00     0.124 S 
ATOM     78  O   UNL A   1      32.402  35.922  29.916  1.00  0.00    -0.237 OA
ATOM     79  O   UNL A   1      33.881  36.365  27.985  1.00  0.00    -0.237 OA
ATOM     80  O   UNL A   1      32.510  34.320  28.043  1.00  0.00    -0.744 OA
ENDBRANCH  76  77
ENDBRANCH  48  71
BRANCH  60  81
ATOM     81  C   UNL A   1      39.928  34.302  36.979  1.00  0.00    -0.014 A 
ATOM     82  C   UNL A   1      40.538  35.566  36.886  1.00  0.00     0.010 A 
ATOM     83  C   UNL A   1      39.093  34.022  38.077  1.00  0.00     0.010 A 
ATOM     84  C   UNL A   1      40.348  36.513  37.895  1.00  0.00     0.020 A 
ATOM     85  C   UNL A   1      38.868  34.981  39.064  1.00  0.00     0.020 A 
ATOM     86  C   UNL A   1      39.513  36.216  38.976  1.00  0.00     0.054 A 
BRANCH  86  87
ATOM     87  S   UNL A   1      39.257  37.476  40.252  1.00  0.00     0.124 S 
ATOM     88  O   UNL A   1      38.778  36.678  41.377  1.00  0.00    -0.237 OA
ATOM     89  O   UNL A   1      40.593  38.046  40.410  1.00  0.00    -0.237 OA
ATOM     90  O   UNL A   1      38.268  38.374  39.662  1.00  0.00    -0.744 OA
ENDBRANCH  86  87
ENDBRANCH  60  81
ENDBRANCH  34  35
ENDBRANCH  27  29
ENDBRANCH  26  27
ENDBRANCH  25  26
ENDBRANCH   1  25
TORSDOF 18
ENDMDL
MODEL 2
REMARK VINA RESULT:     -11.5      1.538      2.089
REMARK SMILES O=C(OCCOCCOC(=O)c1ccc(-c2c3nc(c(-c4ccc(S(=O)(=O)[O-])cc4)c4ccc([nH]4)c(-c4ccc(S(=O)(=O)[O-])cc4)c4nc(c(-c5ccc(S(=O)(=O)[O-])cc5)c5ccc2[nH]5)C=C4)C=C3)cc1)C1=Cc2cc(Cl)c(Cl)c(Cl)c2O[C@@H]1C(F)(F)F
REMARK SMILES IDX 7 1 6 2 5 3 4 4 3 5 2 6 1 7 72 8 73 9 84 10 74 11 83 12
REMARK SMILES IDX 75 13 82 14 76 15 80 16 77 17 78 18 81 19 79 20 85 21 86 22
REMARK SMILES IDX 87 23 88 24 8 25 9 26 10 27 11 28 12 29 13 30 71 31 14 32
REMARK SMILES IDX 70 33 15 34 16 35 17 36 64 37 18 38 69 39 63 40 65 41 19 42
REMARK SMILES IDX 68 43 62 44 61 45 20 47 50 48 31 49 49 50 32 51 35 52 48 53
REMARK SMILES IDX 66 54 33 55 34 56 47 58 67 59 36 60 21 61 22 62 30 63 23 64
REMARK SMILES IDX 29 65 24 66 25 67 26 68 27 69 28 70 51 71 52 72 60 73 53 74
REMARK SMILES IDX 59 75 54 76 55 77 56 78 57 79 58 80 37 81 38 82 46 83 39 84
REMARK SMILES IDX 45 85 40 86 41 87 42 88 43 89 44 90
REMARK H PARENT 65 46 35 57
REMARK Flexibility Score: inf
ROOT
ATOM      1  C   UNL A   1      41.288  22.400  26.695  1.00  0.00     0.202 C 
ENDROOT
BRANCH   1   2
ATOM      2  O   UNL A   1      39.911  21.995  26.665  1.00  0.00    -0.374 OA
BRANCH   2   3
ATOM      3  C   UNL A   1      38.787  21.928  25.532  1.00  0.00     0.202 C 
BRANCH   3   4
ATOM      4  C   UNL A   1      36.784  21.061  25.496  1.00  0.00     0.261 C 
BRANCH   4   5
ATOM      5  O   UNL A   1      35.481  21.750  25.936  1.00  0.00    -0.460 OA
BRANCH   5   6
ATOM      6  C   UNL A   1      35.049  22.657  25.056  1.00  0.00     0.338 C 
ATOM      7  O   UNL A   1      35.669  23.451  24.398  1.00  0.00    -0.246 OA
BRANCH   6   8
ATOM      8  C   UNL A   1      33.664  22.602  25.466  1.00  0.00     0.087 C 
ATOM      9  C   UNL A   1      33.313  23.731  26.357  1.00  0.00     0.027 C 
ATOM     10  C   UNL A   1      32.933  22.321  23.695  1.00  0.00     0.316 C 
ATOM     11  C   UNL A   1      32.300  25.140  25.833  1.00  0.00     0.020 A 
ATOM     12  O   UNL A   1      31.916  23.852  23.093  1.00  0.00    -0.474 OA
ATOM     13  C   UNL A   1      32.164  26.197  26.685  1.00  0.00     0.034 A 
ATOM     14  C   UNL A   1      31.703  25.287  24.211  1.00  0.00     0.148 A 
ATOM     15  C   UNL A   1      31.616  27.361  26.120  1.00  0.00     0.062 A 
ATOM     16  C   UNL A   1      31.373  26.517  23.701  1.00  0.00     0.103 A 
ATOM     17  Cl  UNL A   1      31.387  28.658  27.269  1.00  0.00    -0.083 Cl
ATOM     18  C   UNL A   1      31.309  27.545  24.697  1.00  0.00     0.082 A 
ATOM     19  Cl  UNL A   1      31.441  26.821  22.017  1.00  0.00    -0.079 Cl
ATOM     20  Cl  UNL A   1      30.938  29.177  24.212  1.00  0.00    -0.081 Cl
BRANCH  10  21
ATOM     21  C   UNL A   1      32.542  20.791  23.883  1.00  0.00     0.430 C 
ATOM     22  F   UNL A   1      33.553  19.956  24.176  1.00  0.00    -0.167 F 
ATOM     23  F   UNL A   1      31.715  20.722  24.971  1.00  0.00    -0.167 F 
ATOM     24  F   UNL A   1      31.813  20.261  22.874  1.00  0.00    -0.167 F 
ENDBRANCH  10  21
ENDBRANCH   6   8
ENDBRANCH   5   6
ENDBRANCH   4   5
ENDBRANCH   3   4
ENDBRANCH   2   3
ENDBRANCH   1   2
BRANCH   1  25
ATOM     25  C   UNL A   1      41.581  23.889  26.586  1.00  0.00     0.261 C 
BRANCH  25  26
ATOM     26  O   UNL A   1      40.569  24.681  27.176  1.00  0.00    -0.460 OA
BRANCH  26  27
ATOM     27  C   UNL A   1      40.601  25.974  26.790  1.00  0.00     0.338 C 
ATOM     28  O   UNL A   1      40.769  26.413  25.665  1.00  0.00    -0.246 OA
BRANCH  27  29
ATOM     29  C   UNL A   1      40.379  26.808  27.978  1.00  0.00     0.060 A 
ATOM     30  C   UNL A   1      41.047  28.032  28.043  1.00  0.00     0.016 A 
ATOM     31  C   UNL A   1      39.502  26.405  28.998  1.00  0.00     0.016 A 
ATOM     32  C   UNL A   1      40.825  28.867  29.127  1.00  0.00     0.010 A 
ATOM     33  C   UNL A   1      39.267  27.249  30.074  1.00  0.00     0.010 A 
ATOM     34  C   UNL A   1      39.943  28.473  30.144  1.00  0.00    -0.014 A 
BRANCH  34  35
ATOM     35  C   UNL A   1      39.928  29.236  31.400  1.00  0.00     0.031 A 
ATOM     36  C   UNL A   1      41.053  28.983  32.351  1.00  0.00     0.074 A 
ATOM     37  C   UNL A   1      38.976  30.148  31.655  1.00  0.00     0.049 A 
ATOM     38  N   UNL A   1      41.331  29.584  33.474  1.00  0.00    -0.248 NA
ATOM     39  C   UNL A   1      41.987  27.902  31.990  1.00  0.00     0.031 C 
ATOM     40  C   UNL A   1      37.843  30.450  30.787  1.00  0.00     0.029 A 
ATOM     41  N   UNL A   1      38.825  31.005  32.712  1.00  0.00    -0.354 N 
ATOM     42  C   UNL A   1      42.473  28.957  33.949  1.00  0.00     0.074 A 
ATOM     43  C   UNL A   1      42.812  27.904  33.021  1.00  0.00     0.031 C 
ATOM     44  C   UNL A   1      37.149  31.476  31.308  1.00  0.00     0.029 A 
ATOM     45  C   UNL A   1      37.747  31.848  32.586  1.00  0.00     0.049 A 
ATOM     46  H   UNL A   1      39.432  31.017  33.487  1.00  0.00     0.167 HD
ATOM     47  C   UNL A   1      43.179  29.245  35.064  1.00  0.00     0.031 A 
ATOM     48  C   UNL A   1      37.293  32.800  33.423  1.00  0.00     0.031 A 
ATOM     49  C   UNL A   1      42.789  30.260  36.002  1.00  0.00     0.049 A 
ATOM     50  C   UNL A   1      38.049  33.035  34.707  1.00  0.00     0.074 A 
ATOM     51  C   UNL A   1      43.419  30.633  37.172  1.00  0.00     0.029 A 
ATOM     52  N   UNL A   1      41.651  31.046  35.885  1.00  0.00    -0.354 N 
ATOM     53  N   UNL A   1      39.158  32.472  35.129  1.00  0.00    -0.248 NA
ATOM     54  C   UNL A   1      37.494  34.037  35.625  1.00  0.00     0.031 C 
ATOM     55  C   UNL A   1      42.619  31.591  37.804  1.00  0.00     0.029 A 
ATOM     56  C   UNL A   1      41.539  31.880  36.981  1.00  0.00     0.049 A 
ATOM     57  H   UNL A   1      41.017  31.014  35.132  1.00  0.00     0.167 HD
ATOM     58  C   UNL A   1      39.453  33.078  36.344  1.00  0.00     0.074 A 
ATOM     59  C   UNL A   1      38.415  34.062  36.578  1.00  0.00     0.031 C 
ATOM     60  C   UNL A   1      40.491  32.850  37.189  1.00  0.00     0.031 A 
BRANCH  47  61
ATOM     61  C   UNL A   1      44.390  28.399  35.340  1.00  0.00    -0.014 A 
ATOM     62  C   UNL A   1      44.301  27.212  36.090  1.00  0.00     0.010 A 
ATOM     63  C   UNL A   1      45.643  28.812  34.856  1.00  0.00     0.010 A 
ATOM     64  C   UNL A   1      45.450  26.478  36.389  1.00  0.00     0.020 A 
ATOM     65  C   UNL A   1      46.790  28.062  35.121  1.00  0.00     0.020 A 
ATOM     66  C   UNL A   1      46.688  26.908  35.901  1.00  0.00     0.054 A 
BRANCH  66  67
ATOM     67  S   UNL A   1      48.161  25.926  36.290  1.00  0.00     0.124 S 
ATOM     68  O   UNL A   1      48.002  25.697  37.723  1.00  0.00    -0.237 OA
ATOM     69  O   UNL A   1      47.989  24.749  35.442  1.00  0.00    -0.237 OA
ATOM     70  O   UNL A   1      49.270  26.802  35.919  1.00  0.00    -0.744 OA
ENDBRANCH  66  67
ENDBRANCH  47  61
BRANCH  48  71
ATOM     71  C   UNL A   1      36.072  33.587  33.093  1.00  0.00    -0.014 A 
ATOM     72  C   UNL A   1      34.789  33.057  33.321  1.00  0.00     0.010 A 
ATOM     73  C   UNL A   1      36.184  34.872  32.527  1.00  0.00     0.010 A 
ATOM     74  C   UNL A   1      33.646  33.781  32.966  1.00  0.00     0.020 A 
ATOM     75  C   UNL A   1      35.044  35.613  32.202  1.00  0.00     0.020 A 
ATOM     76  C   UNL A   1      33.781  35.057  32.412  1.00  0.00     0.054 A 
BRANCH  76  77
ATOM     77  S   UNL A   1      32.283  35.991  31.994  1.00  0.00     0.124 S 
ATOM     78  O   UNL A   1      32.544  37.284  32.617  1.00  0.00    -0.237 OA
ATOM     79  O   UNL A   1      32.302  35.975  30.533  1.00  0.00    -0.237 OA
ATOM     80  O   UNL A   1      31.210  35.209  32.604  1.00  0.00    -0.744 OA
ENDBRANCH  76  77
ENDBRANCH  48  71
BRANCH  60  81
ATOM     81  C   UNL A   1      40.584  33.715  38.420  1.00  0.00    -0.014 A 
ATOM     82  C   UNL A   1      41.202  34.978  38.392  1.00  0.00     0.010 A 
ATOM     83  C   UNL A   1      39.993  33.266  39.616  1.00  0.00     0.010 A 
ATOM     84  C   UNL A   1      41.262  35.757  39.551  1.00  0.00     0.020 A 
ATOM     85  C   UNL A   1      40.014  34.060  40.763  1.00  0.00     0.020 A 
ATOM     86  C   UNL A   1      40.666  35.294  40.728  1.00  0.00     0.054 A 
BRANCH  86  87
ATOM     87  S   UNL A   1      40.728  36.340  42.206  1.00  0.00     0.124 S 
ATOM     88  O   UNL A   1      39.641  37.282  41.957  1.00  0.00    -0.237 OA
ATOM     89  O   UNL A   1      40.495  35.381  43.284  1.00  0.00    -0.237 OA
ATOM     90  O   UNL A   1      42.071  36.914  42.170  1.00  0.00    -0.744 OA
ENDBRANCH  86  87
ENDBRANCH  60  81
ENDBRANCH  34  35
ENDBRANCH  27  29
ENDBRANCH  26  27
ENDBRANCH  25  26
ENDBRANCH   1  25
TORSDOF 18
ENDMDL
MODEL 3
REMARK VINA RESULT:     -11.5      2.244      3.300
REMARK SMILES O=C(OCCOCCOC(=O)c1ccc(-c2c3nc(c(-c4ccc(S(=O)(=O)[O-])cc4)c4ccc([nH]4)c(-c4ccc(S(=O)(=O)[O-])cc4)c4nc(c(-c5ccc(S(=O)(=O)[O-])cc5)c5ccc2[nH]5)C=C4)C=C3)cc1)C1=Cc2cc(Cl)c(Cl)c(Cl)c2O[C@@H]1C(F)(F)F
REMARK SMILES IDX 7 1 6 2 5 3 4 4 3 5 2 6 1 7 72 8 73 9 84 10 74 11 83 12
REMARK SMILES IDX 75 13 82 14 76 15 80 16 77 17 78 18 81 19 79 20 85 21 86 22
REMARK SMILES IDX 87 23 88 24 8 25 9 26 10 27 11 28 12 29 13 30 71 31 14 32
REMARK SMILES IDX 70 33 15 34 16 35 17 36 64 37 18 38 69 39 63 40 65 41 19 42
REMARK SMILES IDX 68 43 62 44 61 45 20 47 50 48 31 49 49 50 32 51 35 52 48 53
REMARK SMILES IDX 66 54 33 55 34 56 47 58 67 59 36 60 21 61 22 62 30 63 23 64
REMARK SMILES IDX 29 65 24 66 25 67 26 68 27 69 28 70 51 71 52 72 60 73 53 74
REMARK SMILES IDX 59 75 54 76 55 77 56 78 57 79 58 80 37 81 38 82 46 83 39 84
REMARK SMILES IDX 45 85 40 86 41 87 42 88 43 89 44 90
REMARK H PARENT 65 46 35 57
REMARK Flexibility Score: inf
ROOT
ATOM      1  C   UNL A   1      42.698  19.431  25.919  1.00  0.00     0.202 C 
ENDROOT
BRANCH   1   2
ATOM      2  O   UNL A   1      41.497  19.710  26.653  1.00  0.00    -0.374 OA
BRANCH   2   3
ATOM      3  C   UNL A   1      39.949  19.819  26.272  1.00  0.00     0.202 C 
BRANCH   3   4
ATOM      4  C   UNL A   1      38.710  21.491  25.616  1.00  0.00     0.261 C 
BRANCH   4   5
ATOM      5  O   UNL A   1      37.178  21.588  25.713  1.00  0.00    -0.460 OA
BRANCH   5   6
ATOM      6  C   UNL A   1      36.643  22.362  24.765  1.00  0.00     0.338 C 
ATOM      7  O   UNL A   1      37.175  22.956  23.863  1.00  0.00    -0.246 OA
BRANCH   6   8
ATOM      8  C   UNL A   1      35.365  22.524  25.419  1.00  0.00     0.087 C 
ATOM      9  C   UNL A   1      35.198  23.892  25.960  1.00  0.00     0.027 C 
ATOM     10  C   UNL A   1      34.301  21.761  23.991  1.00  0.00     0.316 C 
ATOM     11  C   UNL A   1      34.107  25.134  25.217  1.00  0.00     0.020 A 
ATOM     12  O   UNL A   1      33.192  23.096  23.138  1.00  0.00    -0.474 OA
ATOM     13  C   UNL A   1      34.144  26.409  25.704  1.00  0.00     0.034 A 
ATOM     14  C   UNL A   1      33.205  24.815  23.769  1.00  0.00     0.148 A 
ATOM     15  C   UNL A   1      33.500  27.376  24.914  1.00  0.00     0.062 A 
ATOM     16  C   UNL A   1      32.787  25.848  22.969  1.00  0.00     0.103 A 
ATOM     17  Cl  UNL A   1      33.503  28.975  25.620  1.00  0.00    -0.083 Cl
ATOM     18  C   UNL A   1      32.921  27.134  23.587  1.00  0.00     0.082 A 
ATOM     19  Cl  UNL A   1      32.526  25.616  21.294  1.00  0.00    -0.079 Cl
ATOM     20  Cl  UNL A   1      32.469  28.559  22.693  1.00  0.00    -0.081 Cl
BRANCH  10  21
ATOM     21  C   UNL A   1      33.949  20.391  24.718  1.00  0.00     0.430 C 
ATOM     22  F   UNL A   1      33.512  20.491  25.985  1.00  0.00    -0.167 F 
ATOM     23  F   UNL A   1      32.899  19.837  24.037  1.00  0.00    -0.167 F 
ATOM     24  F   UNL A   1      34.919  19.450  24.660  1.00  0.00    -0.167 F 
ENDBRANCH  10  21
ENDBRANCH   6   8
ENDBRANCH   5   6
ENDBRANCH   4   5
ENDBRANCH   3   4
ENDBRANCH   2   3
ENDBRANCH   1   2
BRANCH   1  25
ATOM     25  C   UNL A   1      43.514  20.621  25.437  1.00  0.00     0.261 C 
BRANCH  25  26
ATOM     26  O   UNL A   1      42.703  21.732  25.108  1.00  0.00    -0.460 OA
BRANCH  26  27
ATOM     27  C   UNL A   1      43.403  22.868  24.900  1.00  0.00     0.338 C 
ATOM     28  O   UNL A   1      44.170  23.116  23.985  1.00  0.00    -0.246 OA
BRANCH  27  29
ATOM     29  C   UNL A   1      43.075  23.806  25.981  1.00  0.00     0.060 A 
ATOM     30  C   UNL A   1      43.607  25.094  25.902  1.00  0.00     0.016 A 
ATOM     31  C   UNL A   1      42.230  23.433  27.038  1.00  0.00     0.016 A 
ATOM     32  C   UNL A   1      43.280  26.022  26.879  1.00  0.00     0.010 A 
ATOM     33  C   UNL A   1      41.889  24.367  28.006  1.00  0.00     0.010 A 
ATOM     34  C   UNL A   1      42.429  25.657  27.933  1.00  0.00    -0.014 A 
BRANCH  34  35
ATOM     35  C   UNL A   1      42.313  26.556  29.090  1.00  0.00     0.031 A 
ATOM     36  C   UNL A   1      43.382  26.452  30.130  1.00  0.00     0.074 A 
ATOM     37  C   UNL A   1      41.321  27.456  29.182  1.00  0.00     0.049 A 
ATOM     38  N   UNL A   1      43.572  27.184  31.191  1.00  0.00    -0.248 NA
ATOM     39  C   UNL A   1      44.367  25.370  29.951  1.00  0.00     0.031 C 
ATOM     40  C   UNL A   1      40.237  27.618  28.219  1.00  0.00     0.029 A 
ATOM     41  N   UNL A   1      41.079  28.421  30.122  1.00  0.00    -0.354 N 
ATOM     42  C   UNL A   1      44.698  26.657  31.802  1.00  0.00     0.074 A 
ATOM     43  C   UNL A   1      45.126  25.518  31.023  1.00  0.00     0.031 C 
ATOM     44  C   UNL A   1      39.483  28.671  28.576  1.00  0.00     0.029 A 
ATOM     45  C   UNL A   1      39.988  29.206  29.836  1.00  0.00     0.049 A 
ATOM     46  H   UNL A   1      41.635  28.542  30.926  1.00  0.00     0.167 HD
ATOM     47  C   UNL A   1      45.324  27.093  32.916  1.00  0.00     0.031 A 
ATOM     48  C   UNL A   1      39.455  30.229  30.531  1.00  0.00     0.031 A 
ATOM     49  C   UNL A   1      44.847  28.193  33.707  1.00  0.00     0.049 A 
ATOM     50  C   UNL A   1      40.121  30.634  31.821  1.00  0.00     0.074 A 
ATOM     51  C   UNL A   1      45.391  28.718  34.862  1.00  0.00     0.029 A 
ATOM     52  N   UNL A   1      43.696  28.920  33.432  1.00  0.00    -0.354 N 
ATOM     53  N   UNL A   1      41.217  30.162  32.370  1.00  0.00    -0.248 NA
ATOM     54  C   UNL A   1      39.481  31.713  32.584  1.00  0.00     0.031 C 
ATOM     55  C   UNL A   1      44.525  29.711  35.330  1.00  0.00     0.029 A 
ATOM     56  C   UNL A   1      43.492  29.868  34.418  1.00  0.00     0.049 A 
ATOM     57  H   UNL A   1      43.113  28.781  32.651  1.00  0.00     0.167 HD
ATOM     58  C   UNL A   1      41.417  30.911  33.524  1.00  0.00     0.074 A 
ATOM     59  C   UNL A   1      40.338  31.878  33.581  1.00  0.00     0.031 C 
ATOM     60  C   UNL A   1      42.405  30.817  34.450  1.00  0.00     0.031 A 
BRANCH  47  61
ATOM     61  C   UNL A   1      46.539  26.327  33.359  1.00  0.00    -0.014 A 
ATOM     62  C   UNL A   1      47.831  26.691  32.935  1.00  0.00     0.010 A 
ATOM     63  C   UNL A   1      46.382  25.212  34.199  1.00  0.00     0.010 A 
ATOM     64  C   UNL A   1      48.937  25.926  33.306  1.00  0.00     0.020 A 
ATOM     65  C   UNL A   1      47.489  24.465  34.604  1.00  0.00     0.020 A 
ATOM     66  C   UNL A   1      48.759  24.817  34.140  1.00  0.00     0.054 A 
BRANCH  66  67
ATOM     67  S   UNL A   1      50.216  23.852  34.621  1.00  0.00     0.124 S 
ATOM     68  O   UNL A   1      50.357  22.935  33.493  1.00  0.00    -0.237 OA
ATOM     69  O   UNL A   1      51.252  24.876  34.731  1.00  0.00    -0.237 OA
ATOM     70  O   UNL A   1      49.820  23.231  35.882  1.00  0.00    -0.744 OA
ENDBRANCH  66  67
ENDBRANCH  47  61
BRANCH  48  71
ATOM     71  C   UNL A   1      38.236  30.930  30.040  1.00  0.00    -0.014 A 
ATOM     72  C   UNL A   1      36.956  30.385  30.252  1.00  0.00     0.010 A 
ATOM     73  C   UNL A   1      38.346  32.145  29.336  1.00  0.00     0.010 A 
ATOM     74  C   UNL A   1      35.818  31.024  29.749  1.00  0.00     0.020 A 
ATOM     75  C   UNL A   1      37.208  32.804  28.861  1.00  0.00     0.020 A 
ATOM     76  C   UNL A   1      35.951  32.232  29.060  1.00  0.00     0.054 A 
BRANCH  76  77
ATOM     77  S   UNL A   1      34.456  33.059  28.448  1.00  0.00     0.124 S 
ATOM     78  O   UNL A   1      33.848  33.543  29.683  1.00  0.00    -0.237 OA
ATOM     79  O   UNL A   1      35.005  34.084  27.565  1.00  0.00    -0.237 OA
ATOM     80  O   UNL A   1      33.726  31.990  27.770  1.00  0.00    -0.744 OA
ENDBRANCH  76  77
ENDBRANCH  48  71
BRANCH  60  81
ATOM     81  C   UNL A   1      42.396  31.818  35.577  1.00  0.00    -0.014 A 
ATOM     82  C   UNL A   1      41.780  31.539  36.810  1.00  0.00     0.010 A 
ATOM     83  C   UNL A   1      43.066  33.044  35.406  1.00  0.00     0.010 A 
ATOM     84  C   UNL A   1      41.799  32.487  37.835  1.00  0.00     0.020 A 
ATOM     85  C   UNL A   1      43.123  33.975  36.443  1.00  0.00     0.020 A 
ATOM     86  C   UNL A   1      42.472  33.698  37.646  1.00  0.00     0.054 A 
BRANCH  86  87
ATOM     87  S   UNL A   1      42.511  34.895  39.006  1.00  0.00     0.124 S 
ATOM     88  O   UNL A   1      41.995  36.102  38.364  1.00  0.00    -0.237 OA
ATOM     89  O   UNL A   1      41.626  34.283  39.994  1.00  0.00    -0.237 OA
ATOM     90  O   UNL A   1      43.920  34.946  39.385  1.00  0.00    -0.744 OA
ENDBRANCH  86  87
ENDBRANCH  60  81
ENDBRANCH  34  35
ENDBRANCH  27  29
ENDBRANCH  26  27
ENDBRANCH  25  26
ENDBRANCH   1  25
TORSDOF 18
ENDMDL
