MODEL 1
REMARK VINA RESULT:     -11.2      0.000      0.000
REMARK SMILES O=C(OCCOCCOC(=O)c1ccc(-c2c3nc(c(-c4ccc(S(=O)(=O)[O-])cc4)c4ccc([nH]4)c(-c4ccc(S(=O)(=O)[O-])cc4)c4nc(c(-c5ccc(S(=O)(=O)[O-])cc5)c5ccc2[nH]5)C=C4)C=C3)cc1)C1=Cc2cc(S(F)(F)(F)(F)F)ccc2O[C@H]1C(F)(F)F
REMARK SMILES IDX 7 1 6 2 5 3 4 4 3 5 2 6 1 7 72 8 73 9 87 10 74 11 86 12
REMARK SMILES IDX 75 13 85 14 76 15 84 16 83 17 88 18 89 19 90 20 91 21 77 22
REMARK SMILES IDX 78 23 79 24 80 25 81 26 82 27 8 28 9 29 10 30 11 31 12 32
REMARK SMILES IDX 13 33 71 34 14 35 70 36 15 37 16 38 17 39 64 40 18 41 69 42
REMARK SMILES IDX 63 43 65 44 19 45 68 46 62 47 61 48 20 50 50 51 31 52 49 53
REMARK SMILES IDX 32 54 35 55 48 56 66 57 33 58 34 59 47 61 67 62 36 63 21 64
REMARK SMILES IDX 22 65 30 66 23 67 29 68 24 69 25 70 26 71 27 72 28 73 51 74
REMARK SMILES IDX 52 75 60 76 53 77 59 78 54 79 55 80 56 81 57 82 58 83 37 84
REMARK SMILES IDX 38 85 46 86 39 87 45 88 40 89 41 90 42 91 43 92 44 93
REMARK H PARENT 65 49 35 60
REMARK Flexibility Score: inf
ROOT
ATOM      1  C   UNL A   1      32.520  28.184  27.577  1.00  0.00     0.202 C 
ENDROOT
BRANCH   1   2
ATOM      2  O   UNL A   1      32.960  27.283  26.571  1.00  0.00    -0.374 OA
BRANCH   2   3
ATOM      3  C   UNL A   1      32.004  26.246  26.414  1.00  0.00     0.202 C 
BRANCH   3   4
ATOM      4  C   UNL A   1      32.712  24.958  26.024  1.00  0.00     0.261 C 
BRANCH   4   5
ATOM      5  O   UNL A   1      33.664  25.231  25.007  1.00  0.00    -0.460 OA
BRANCH   5   6
ATOM      6  C   UNL A   1      33.572  24.572  23.752  1.00  0.00     0.338 C 
ATOM      7  O   UNL A   1      34.611  24.417  23.037  1.00  0.00    -0.246 OA
BRANCH   6   8
ATOM      8  C   UNL A   1      32.229  24.052  23.264  1.00  0.00     0.087 C 
ATOM      9  C   UNL A   1      31.284  24.923  22.816  1.00  0.00     0.027 C 
ATOM     10  C   UNL A   1      31.943  22.560  23.276  1.00  0.00     0.316 C 
ATOM     11  C   UNL A   1      31.571  26.416  22.804  1.00  0.00     0.019 A 
ATOM     12  O   UNL A   1      33.771  26.049  21.985  1.00  0.00    -0.475 OA
ATOM     13  C   UNL A   1      30.580  27.230  23.326  1.00  0.00     0.036 A 
ATOM     14  C   UNL A   1      32.717  26.921  22.362  1.00  0.00     0.128 A 
ATOM     15  C   UNL A   1      30.777  28.607  23.072  1.00  0.00     0.107 A 
ATOM     16  C   UNL A   1      32.890  28.281  22.268  1.00  0.00     0.048 A 
ATOM     17  C   UNL A   1      31.928  29.146  22.711  1.00  0.00     0.028 A 
BRANCH  10  18
ATOM     18  C   UNL A   1      33.152  21.815  23.817  1.00  0.00     0.430 C 
ATOM     19  F   UNL A   1      34.228  22.097  23.090  1.00  0.00    -0.167 F 
ATOM     20  F   UNL A   1      33.370  22.162  25.083  1.00  0.00    -0.167 F 
ATOM     21  F   UNL A   1      32.902  20.511  23.752  1.00  0.00    -0.167 F 
ENDBRANCH  10  18
BRANCH  15  22
ATOM     22  S   UNL A   1      29.352  29.709  23.256  1.00  0.00     0.310 S 
ATOM     23  F   UNL A   1      29.943  30.737  22.203  1.00  0.00    -0.094 F 
ATOM     24  F   UNL A   1      30.139  30.501  24.368  1.00  0.00    -0.094 F 
ATOM     25  F   UNL A   1      28.131  30.659  23.405  1.00  0.00    -0.094 F 
ATOM     26  F   UNL A   1      28.636  28.991  22.044  1.00  0.00    -0.094 F 
ATOM     27  F   UNL A   1      30.628  28.809  23.015  1.00  0.00    -0.094 F 
ENDBRANCH  15  22
ENDBRANCH   6   8
ENDBRANCH   5   6
ENDBRANCH   4   5
ENDBRANCH   3   4
ENDBRANCH   2   3
ENDBRANCH   1   2
BRANCH   1  28
ATOM     28  C   UNL A   1      32.398  29.580  26.990  1.00  0.00     0.261 C 
BRANCH  28  29
ATOM     29  O   UNL A   1      33.694  30.107  26.749  1.00  0.00    -0.460 OA
BRANCH  29  30
ATOM     30  C   UNL A   1      34.421  30.714  27.807  1.00  0.00     0.338 C 
ATOM     31  O   UNL A   1      33.922  31.697  28.440  1.00  0.00    -0.246 OA
BRANCH  30  32
ATOM     32  C   UNL A   1      35.796  30.187  28.185  1.00  0.00     0.060 A 
ATOM     33  C   UNL A   1      36.771  30.346  27.214  1.00  0.00     0.016 A 
ATOM     34  C   UNL A   1      36.086  29.672  29.375  1.00  0.00     0.016 A 
ATOM     35  C   UNL A   1      37.975  29.659  27.493  1.00  0.00     0.010 A 
ATOM     36  C   UNL A   1      37.329  29.140  29.622  1.00  0.00     0.010 A 
ATOM     37  C   UNL A   1      38.322  29.210  28.686  1.00  0.00    -0.014 A 
BRANCH  37  38
ATOM     38  C   UNL A   1      39.750  28.791  29.000  1.00  0.00     0.031 A 
ATOM     39  C   UNL A   1      40.220  27.521  28.663  1.00  0.00     0.074 A 
ATOM     40  C   UNL A   1      40.490  29.732  29.694  1.00  0.00     0.049 A 
ATOM     41  N   UNL A   1      41.428  27.010  28.907  1.00  0.00    -0.248 NA
ATOM     42  C   UNL A   1      39.424  26.507  27.955  1.00  0.00     0.031 C 
ATOM     43  C   UNL A   1      40.025  31.019  30.030  1.00  0.00     0.029 A 
ATOM     44  N   UNL A   1      41.773  29.607  30.179  1.00  0.00    -0.354 N 
ATOM     45  C   UNL A   1      41.512  25.771  28.417  1.00  0.00     0.074 A 
ATOM     46  C   UNL A   1      40.222  25.427  27.804  1.00  0.00     0.031 C 
ATOM     47  C   UNL A   1      41.010  31.657  30.716  1.00  0.00     0.029 A 
ATOM     48  C   UNL A   1      42.106  30.780  30.822  1.00  0.00     0.049 A 
ATOM     49  H   UNL A   1      42.352  28.817  30.083  1.00  0.00     0.167 HD
ATOM     50  C   UNL A   1      42.613  24.916  28.457  1.00  0.00     0.031 A 
ATOM     51  C   UNL A   1      43.293  31.085  31.469  1.00  0.00     0.031 A 
ATOM     52  C   UNL A   1      43.816  25.237  29.067  1.00  0.00     0.049 A 
ATOM     53  C   UNL A   1      44.374  30.207  31.560  1.00  0.00     0.074 A 
ATOM     54  C   UNL A   1      44.939  24.389  29.110  1.00  0.00     0.029 A 
ATOM     55  N   UNL A   1      44.140  26.400  29.731  1.00  0.00    -0.354 N 
ATOM     56  N   UNL A   1      44.472  28.984  31.036  1.00  0.00    -0.248 NA
ATOM     57  C   UNL A   1      45.624  30.508  32.271  1.00  0.00     0.031 C 
ATOM     58  C   UNL A   1      45.924  25.027  29.797  1.00  0.00     0.029 A 
ATOM     59  C   UNL A   1      45.431  26.284  30.196  1.00  0.00     0.049 A 
ATOM     60  H   UNL A   1      43.550  27.180  29.852  1.00  0.00     0.167 HD
ATOM     61  C   UNL A   1      45.666  28.458  31.316  1.00  0.00     0.074 A 
ATOM     62  C   UNL A   1      46.422  29.428  32.120  1.00  0.00     0.031 C 
ATOM     63  C   UNL A   1      46.157  27.210  30.930  1.00  0.00     0.031 A 
BRANCH  50  64
ATOM     64  C   UNL A   1      42.489  23.553  27.794  1.00  0.00    -0.014 A 
ATOM     65  C   UNL A   1      42.858  23.370  26.471  1.00  0.00     0.010 A 
ATOM     66  C   UNL A   1      42.118  22.530  28.554  1.00  0.00     0.010 A 
ATOM     67  C   UNL A   1      42.524  22.095  25.955  1.00  0.00     0.020 A 
ATOM     68  C   UNL A   1      41.942  21.282  28.009  1.00  0.00     0.020 A 
ATOM     69  C   UNL A   1      42.230  21.041  26.694  1.00  0.00     0.054 A 
BRANCH  69  70
ATOM     70  S   UNL A   1      42.212  19.367  26.004  1.00  0.00     0.124 S 
ATOM     71  O   UNL A   1      42.727  18.378  27.052  1.00  0.00    -0.237 OA
ATOM     72  O   UNL A   1      40.782  18.993  25.609  1.00  0.00    -0.237 OA
ATOM     73  O   UNL A   1      43.219  19.309  24.623  1.00  0.00    -0.744 OA
ENDBRANCH  69  70
ENDBRANCH  50  64
BRANCH  51  74
ATOM     74  C   UNL A   1      43.423  32.454  32.119  1.00  0.00    -0.014 A 
ATOM     75  C   UNL A   1      44.052  33.485  31.441  1.00  0.00     0.010 A 
ATOM     76  C   UNL A   1      43.024  32.598  33.377  1.00  0.00     0.010 A 
ATOM     77  C   UNL A   1      44.478  34.543  32.278  1.00  0.00     0.020 A 
ATOM     78  C   UNL A   1      43.362  33.721  34.093  1.00  0.00     0.020 A 
ATOM     79  C   UNL A   1      44.036  34.754  33.505  1.00  0.00     0.054 A 
BRANCH  79  80
ATOM     80  S   UNL A   1      44.305  36.327  34.360  1.00  0.00     0.124 S 
ATOM     81  O   UNL A   1      45.116  36.081  35.634  1.00  0.00    -0.237 OA
ATOM     82  O   UNL A   1      45.073  37.281  33.442  1.00  0.00    -0.237 OA
ATOM     83  O   UNL A   1      42.797  37.019  34.768  1.00  0.00    -0.744 OA
ENDBRANCH  79  80
ENDBRANCH  51  74
BRANCH  63  84
ATOM     84  C   UNL A   1      47.575  26.843  31.339  1.00  0.00    -0.014 A 
ATOM     85  C   UNL A   1      48.582  27.235  30.473  1.00  0.00     0.010 A 
ATOM     86  C   UNL A   1      47.849  26.212  32.475  1.00  0.00     0.010 A 
ATOM     87  C   UNL A   1      49.841  26.656  30.759  1.00  0.00     0.020 A 
ATOM     88  C   UNL A   1      49.128  25.794  32.750  1.00  0.00     0.020 A 
ATOM     89  C   UNL A   1      50.164  26.094  31.910  1.00  0.00     0.054 A 
BRANCH  89  90
ATOM     90  S   UNL A   1      51.884  25.744  32.351  1.00  0.00     0.124 S 
ATOM     91  O   UNL A   1      52.341  26.721  33.436  1.00  0.00    -0.237 OA
ATOM     92  O   UNL A   1      51.994  24.310  32.876  1.00  0.00    -0.237 OA
ATOM     93  O   UNL A   1      52.875  25.923  30.969  1.00  0.00    -0.744 OA
ENDBRANCH  89  90
ENDBRANCH  63  84
ENDBRANCH  37  38
ENDBRANCH  30  32
ENDBRANCH  29  30
ENDBRANCH  28  29
ENDBRANCH   1  28
TORSDOF 19
ENDMDL
MODEL 2
REMARK VINA RESULT:     -11.0      3.591      5.475
REMARK SMILES O=C(OCCOCCOC(=O)c1ccc(-c2c3nc(c(-c4ccc(S(=O)(=O)[O-])cc4)c4ccc([nH]4)c(-c4ccc(S(=O)(=O)[O-])cc4)c4nc(c(-c5ccc(S(=O)(=O)[O-])cc5)c5ccc2[nH]5)C=C4)C=C3)cc1)C1=Cc2cc(S(F)(F)(F)(F)F)ccc2O[C@H]1C(F)(F)F
REMARK SMILES IDX 7 1 6 2 5 3 4 4 3 5 2 6 1 7 72 8 73 9 87 10 74 11 86 12
REMARK SMILES IDX 75 13 85 14 76 15 84 16 83 17 88 18 89 19 90 20 91 21 77 22
REMARK SMILES IDX 78 23 79 24 80 25 81 26 82 27 8 28 9 29 10 30 11 31 12 32
REMARK SMILES IDX 13 33 71 34 14 35 70 36 15 37 16 38 17 39 64 40 18 41 69 42
REMARK SMILES IDX 63 43 65 44 19 45 68 46 62 47 61 48 20 50 50 51 31 52 49 53
REMARK SMILES IDX 32 54 35 55 48 56 66 57 33 58 34 59 47 61 67 62 36 63 21 64
REMARK SMILES IDX 22 65 30 66 23 67 29 68 24 69 25 70 26 71 27 72 28 73 51 74
REMARK SMILES IDX 52 75 60 76 53 77 59 78 54 79 55 80 56 81 57 82 58 83 37 84
REMARK SMILES IDX 38 85 46 86 39 87 45 88 40 89 41 90 42 91 43 92 44 93
REMARK H PARENT 65 49 35 60
REMARK Flexibility Score: inf
ROOT
ATOM      1  C   UNL A   1      33.701  29.395  26.862  1.00  0.00     0.202 C 
ENDROOT
BRANCH   1   2
ATOM      2  O   UNL A   1      32.375  29.512  27.358  1.00  0.00    -0.374 OA
BRANCH   2   3
ATOM      3  C   UNL A   1      31.774  28.227  27.408  1.00  0.00     0.202 C 
BRANCH   3   4
ATOM      4  C   UNL A   1      32.169  27.434  26.172  1.00  0.00     0.261 C 
BRANCH   4   5
ATOM      5  O   UNL A   1      31.054  26.683  25.715  1.00  0.00    -0.460 OA
BRANCH   5   6
ATOM      6  C   UNL A   1      30.716  26.681  24.336  1.00  0.00     0.338 C 
ATOM      7  O   UNL A   1      29.600  26.206  23.956  1.00  0.00    -0.246 OA
BRANCH   6   8
ATOM      8  C   UNL A   1      31.688  27.246  23.314  1.00  0.00     0.087 C 
ATOM      9  C   UNL A   1      32.757  26.507  22.910  1.00  0.00     0.027 C 
ATOM     10  C   UNL A   1      31.467  28.637  22.743  1.00  0.00     0.316 C 
ATOM     11  C   UNL A   1      32.979  25.116  23.481  1.00  0.00     0.019 A 
ATOM     12  O   UNL A   1      30.663  24.610  23.310  1.00  0.00    -0.475 OA
ATOM     13  C   UNL A   1      34.265  24.831  23.910  1.00  0.00     0.036 A 
ATOM     14  C   UNL A   1      31.998  24.230  23.609  1.00  0.00     0.128 A 
ATOM     15  C   UNL A   1      34.483  23.464  24.199  1.00  0.00     0.107 A 
ATOM     16  C   UNL A   1      32.264  22.948  24.027  1.00  0.00     0.048 A 
ATOM     17  C   UNL A   1      33.525  22.581  24.410  1.00  0.00     0.028 A 
BRANCH  10  18
ATOM     18  C   UNL A   1      30.214  29.242  23.354  1.00  0.00     0.430 C 
ATOM     19  F   UNL A   1      29.193  28.398  23.241  1.00  0.00    -0.167 F 
ATOM     20  F   UNL A   1      30.421  29.517  24.639  1.00  0.00    -0.167 F 
ATOM     21  F   UNL A   1      29.933  30.367  22.701  1.00  0.00    -0.167 F 
ENDBRANCH  10  18
BRANCH  15  22
ATOM     22  S   UNL A   1      36.197  22.886  24.287  1.00  0.00     0.310 S 
ATOM     23  F   UNL A   1      35.737  21.373  24.403  1.00  0.00    -0.094 F 
ATOM     24  F   UNL A   1      36.115  22.960  25.858  1.00  0.00    -0.094 F 
ATOM     25  F   UNL A   1      37.665  22.381  24.358  1.00  0.00    -0.094 F 
ATOM     26  F   UNL A   1      36.212  22.685  22.720  1.00  0.00    -0.094 F 
ATOM     27  F   UNL A   1      34.671  23.289  24.204  1.00  0.00    -0.094 F 
ENDBRANCH  15  22
ENDBRANCH   6   8
ENDBRANCH   5   6
ENDBRANCH   4   5
ENDBRANCH   3   4
ENDBRANCH   2   3
ENDBRANCH   1   2
BRANCH   1  28
ATOM     28  C   UNL A   1      34.667  30.046  27.839  1.00  0.00     0.261 C 
BRANCH  28  29
ATOM     29  O   UNL A   1      35.969  29.515  27.642  1.00  0.00    -0.460 OA
BRANCH  29  30
ATOM     30  C   UNL A   1      36.881  29.452  28.728  1.00  0.00     0.338 C 
ATOM     31  O   UNL A   1      36.467  29.622  29.917  1.00  0.00    -0.246 OA
BRANCH  30  32
ATOM     32  C   UNL A   1      38.354  29.178  28.469  1.00  0.00     0.060 A 
ATOM     33  C   UNL A   1      38.775  29.424  27.172  1.00  0.00     0.016 A 
ATOM     34  C   UNL A   1      39.209  28.799  29.412  1.00  0.00     0.016 A 
ATOM     35  C   UNL A   1      40.082  28.959  26.897  1.00  0.00     0.010 A 
ATOM     36  C   UNL A   1      40.510  28.491  29.091  1.00  0.00     0.010 A 
ATOM     37  C   UNL A   1      40.978  28.654  27.818  1.00  0.00    -0.014 A 
BRANCH  37  38
ATOM     38  C   UNL A   1      42.451  28.492  27.479  1.00  0.00     0.031 A 
ATOM     39  C   UNL A   1      42.961  27.267  27.043  1.00  0.00     0.074 A 
ATOM     40  C   UNL A   1      43.226  29.616  27.707  1.00  0.00     0.049 A 
ATOM     41  N   UNL A   1      44.228  26.973  26.746  1.00  0.00    -0.248 NA
ATOM     42  C   UNL A   1      42.145  26.062  26.832  1.00  0.00     0.031 C 
ATOM     43  C   UNL A   1      42.718  30.856  28.139  1.00  0.00     0.029 A 
ATOM     44  N   UNL A   1      44.590  29.744  27.568  1.00  0.00    -0.354 N 
ATOM     45  C   UNL A   1      44.325  25.703  26.346  1.00  0.00     0.074 A 
ATOM     46  C   UNL A   1      42.988  25.098  26.402  1.00  0.00     0.031 C 
ATOM     47  C   UNL A   1      43.762  31.718  28.268  1.00  0.00     0.029 A 
ATOM     48  C   UNL A   1      44.939  31.030  27.920  1.00  0.00     0.049 A 
ATOM     49  H   UNL A   1      45.209  29.039  27.269  1.00  0.00     0.167 HD
ATOM     50  C   UNL A   1      45.475  25.028  25.935  1.00  0.00     0.031 A 
ATOM     51  C   UNL A   1      46.208  31.588  27.943  1.00  0.00     0.031 A 
ATOM     52  C   UNL A   1      46.737  25.600  25.917  1.00  0.00     0.049 A 
ATOM     53  C   UNL A   1      47.366  30.895  27.588  1.00  0.00     0.074 A 
ATOM     54  C   UNL A   1      47.907  24.935  25.499  1.00  0.00     0.029 A 
ATOM     55  N   UNL A   1      47.090  26.878  26.293  1.00  0.00    -0.354 N 
ATOM     56  N   UNL A   1      47.458  29.638  27.151  1.00  0.00    -0.248 NA
ATOM     57  C   UNL A   1      48.719  31.466  27.640  1.00  0.00     0.031 C 
ATOM     58  C   UNL A   1      48.951  25.797  25.629  1.00  0.00     0.029 A 
ATOM     59  C   UNL A   1      48.451  27.013  26.131  1.00  0.00     0.049 A 
ATOM     60  H   UNL A   1      46.475  27.574  26.620  1.00  0.00     0.167 HD
ATOM     61  C   UNL A   1      48.731  29.332  26.893  1.00  0.00     0.074 A 
ATOM     62  C   UNL A   1      49.561  30.502  27.211  1.00  0.00     0.031 C 
ATOM     63  C   UNL A   1      49.233  28.125  26.402  1.00  0.00     0.031 A 
BRANCH  50  64
ATOM     64  C   UNL A   1      45.336  23.584  25.482  1.00  0.00    -0.014 A 
ATOM     65  C   UNL A   1      45.448  22.540  26.386  1.00  0.00     0.010 A 
ATOM     66  C   UNL A   1      45.000  23.366  24.216  1.00  0.00     0.010 A 
ATOM     67  C   UNL A   1      45.465  21.260  25.784  1.00  0.00     0.020 A 
ATOM     68  C   UNL A   1      44.902  22.085  23.730  1.00  0.00     0.020 A 
ATOM     69  C   UNL A   1      45.060  21.005  24.554  1.00  0.00     0.054 A 
BRANCH  69  70
ATOM     70  S   UNL A   1      44.727  19.317  23.989  1.00  0.00     0.124 S 
ATOM     71  O   UNL A   1      45.900  18.412  24.372  1.00  0.00    -0.237 OA
ATOM     72  O   UNL A   1      43.447  18.800  24.649  1.00  0.00    -0.237 OA
ATOM     73  O   UNL A   1      44.535  19.312  22.290  1.00  0.00    -0.744 OA
ENDBRANCH  69  70
ENDBRANCH  50  64
BRANCH  51  74
ATOM     74  C   UNL A   1      46.344  33.037  28.381  1.00  0.00    -0.014 A 
ATOM     75  C   UNL A   1      46.439  33.348  29.728  1.00  0.00     0.010 A 
ATOM     76  C   UNL A   1      46.255  33.988  27.459  1.00  0.00     0.010 A 
ATOM     77  C   UNL A   1      46.140  34.699  30.026  1.00  0.00     0.020 A 
ATOM     78  C   UNL A   1      46.100  35.304  27.824  1.00  0.00     0.020 A 
ATOM     79  C   UNL A   1      46.124  35.677  29.139  1.00  0.00     0.054 A 
BRANCH  79  80
ATOM     80  S   UNL A   1      46.137  37.417  29.637  1.00  0.00     0.124 S 
ATOM     81  O   UNL A   1      47.572  37.847  29.952  1.00  0.00    -0.237 OA
ATOM     82  O   UNL A   1      45.585  38.278  28.497  1.00  0.00    -0.237 OA
ATOM     83  O   UNL A   1      45.163  37.620  31.027  1.00  0.00    -0.744 OA
ENDBRANCH  79  80
ENDBRANCH  51  74
BRANCH  63  84
ATOM     84  C   UNL A   1      50.729  28.025  26.149  1.00  0.00    -0.014 A 
ATOM     85  C   UNL A   1      51.162  28.397  24.888  1.00  0.00     0.010 A 
ATOM     86  C   UNL A   1      51.586  27.637  27.086  1.00  0.00     0.010 A 
ATOM     87  C   UNL A   1      52.506  28.048  24.617  1.00  0.00     0.020 A 
ATOM     88  C   UNL A   1      52.913  27.446  26.782  1.00  0.00     0.020 A 
ATOM     89  C   UNL A   1      53.399  27.736  25.538  1.00  0.00     0.054 A 
BRANCH  89  90
ATOM     90  S   UNL A   1      55.172  27.698  25.174  1.00  0.00     0.124 S 
ATOM     91  O   UNL A   1      55.556  28.949  24.380  1.00  0.00    -0.237 OA
ATOM     92  O   UNL A   1      55.962  27.663  26.485  1.00  0.00    -0.237 OA
ATOM     93  O   UNL A   1      55.534  26.304  24.252  1.00  0.00    -0.744 OA
ENDBRANCH  89  90
ENDBRANCH  63  84
ENDBRANCH  37  38
ENDBRANCH  30  32
ENDBRANCH  29  30
ENDBRANCH  28  29
ENDBRANCH   1  28
TORSDOF 19
ENDMDL
MODEL 3
REMARK VINA RESULT:     -11.0      0.715      7.990
REMARK SMILES O=C(OCCOCCOC(=O)c1ccc(-c2c3nc(c(-c4ccc(S(=O)(=O)[O-])cc4)c4ccc([nH]4)c(-c4ccc(S(=O)(=O)[O-])cc4)c4nc(c(-c5ccc(S(=O)(=O)[O-])cc5)c5ccc2[nH]5)C=C4)C=C3)cc1)C1=Cc2cc(S(F)(F)(F)(F)F)ccc2O[C@H]1C(F)(F)F
REMARK SMILES IDX 7 1 6 2 5 3 4 4 3 5 2 6 1 7 72 8 73 9 87 10 74 11 86 12
REMARK SMILES IDX 75 13 85 14 76 15 84 16 83 17 88 18 89 19 90 20 91 21 77 22
REMARK SMILES IDX 78 23 79 24 80 25 81 26 82 27 8 28 9 29 10 30 11 31 12 32
REMARK SMILES IDX 13 33 71 34 14 35 70 36 15 37 16 38 17 39 64 40 18 41 69 42
REMARK SMILES IDX 63 43 65 44 19 45 68 46 62 47 61 48 20 50 50 51 31 52 49 53
REMARK SMILES IDX 32 54 35 55 48 56 66 57 33 58 34 59 47 61 67 62 36 63 21 64
REMARK SMILES IDX 22 65 30 66 23 67 29 68 24 69 25 70 26 71 27 72 28 73 51 74
REMARK SMILES IDX 52 75 60 76 53 77 59 78 54 79 55 80 56 81 57 82 58 83 37 84
REMARK SMILES IDX 38 85 46 86 39 87 45 88 40 89 41 90 42 91 43 92 44 93
REMARK H PARENT 65 49 35 60
REMARK Flexibility Score: inf
ROOT
ATOM      1  C   UNL A   1      31.675  28.580  26.175  1.00  0.00     0.202 C 
ENDROOT
BRANCH   1   2
ATOM      2  O   UNL A   1      32.485  27.414  26.163  1.00  0.00    -0.374 OA
BRANCH   2   3
ATOM      3  C   UNL A   1      31.731  26.309  26.638  1.00  0.00     0.202 C 
BRANCH   3   4
ATOM      4  C   UNL A   1      32.285  25.024  26.045  1.00  0.00     0.261 C 
BRANCH   4   5
ATOM      5  O   UNL A   1      33.307  25.336  25.110  1.00  0.00    -0.460 OA
BRANCH   5   6
ATOM      6  C   UNL A   1      33.381  24.633  23.878  1.00  0.00     0.338 C 
ATOM      7  O   UNL A   1      34.512  24.376  23.360  1.00  0.00    -0.246 OA
BRANCH   6   8
ATOM      8  C   UNL A   1      32.106  24.188  23.179  1.00  0.00     0.087 C 
ATOM      9  C   UNL A   1      31.297  25.109  22.588  1.00  0.00     0.027 C 
ATOM     10  C   UNL A   1      31.736  22.715  23.141  1.00  0.00     0.316 C 
ATOM     11  C   UNL A   1      31.668  26.582  22.626  1.00  0.00     0.019 A 
ATOM     12  O   UNL A   1      33.946  26.085  22.170  1.00  0.00    -0.475 OA
ATOM     13  C   UNL A   1      30.654  27.456  22.985  1.00  0.00     0.036 A 
ATOM     14  C   UNL A   1      32.897  27.018  22.376  1.00  0.00     0.128 A 
ATOM     15  C   UNL A   1      30.969  28.818  22.769  1.00  0.00     0.107 A 
ATOM     16  C   UNL A   1      33.161  28.365  22.314  1.00  0.00     0.048 A 
ATOM     17  C   UNL A   1      32.192  29.287  22.599  1.00  0.00     0.028 A 
BRANCH  10  18
ATOM     18  C   UNL A   1      32.797  21.906  23.867  1.00  0.00     0.430 C 
ATOM     19  F   UNL A   1      32.492  20.612  23.835  1.00  0.00    -0.167 F 
ATOM     20  F   UNL A   1      33.984  22.095  23.295  1.00  0.00    -0.167 F 
ATOM     21  F   UNL A   1      32.845  22.319  25.131  1.00  0.00    -0.167 F 
ENDBRANCH  10  18
BRANCH  15  22
ATOM     22  S   UNL A   1      29.599  30.001  22.725  1.00  0.00     0.310 S 
ATOM     23  F   UNL A   1      28.571  28.913  23.246  1.00  0.00    -0.094 F 
ATOM     24  F   UNL A   1      29.263  29.520  21.264  1.00  0.00    -0.094 F 
ATOM     25  F   UNL A   1      28.419  31.012  22.694  1.00  0.00    -0.094 F 
ATOM     26  F   UNL A   1      29.865  30.369  24.239  1.00  0.00    -0.094 F 
ATOM     27  F   UNL A   1      30.729  28.900  22.812  1.00  0.00    -0.094 F 
ENDBRANCH  15  22
ENDBRANCH   6   8
ENDBRANCH   5   6
ENDBRANCH   4   5
ENDBRANCH   3   4
ENDBRANCH   2   3
ENDBRANCH   1   2
BRANCH   1  28
ATOM     28  C   UNL A   1      32.264  29.597  27.139  1.00  0.00     0.261 C 
BRANCH  28  29
ATOM     29  O   UNL A   1      33.654  29.353  27.294  1.00  0.00    -0.460 OA
BRANCH  29  30
ATOM     30  C   UNL A   1      34.475  30.309  27.948  1.00  0.00     0.338 C 
ATOM     31  O   UNL A   1      34.023  31.471  28.196  1.00  0.00    -0.246 OA
BRANCH  30  32
ATOM     32  C   UNL A   1      35.893  29.943  28.354  1.00  0.00     0.060 A 
ATOM     33  C   UNL A   1      36.845  30.098  27.360  1.00  0.00     0.016 A 
ATOM     34  C   UNL A   1      36.234  29.568  29.582  1.00  0.00     0.016 A 
ATOM     35  C   UNL A   1      38.108  29.550  27.684  1.00  0.00     0.010 A 
ATOM     36  C   UNL A   1      37.521  29.174  29.860  1.00  0.00     0.010 A 
ATOM     37  C   UNL A   1      38.500  29.245  28.908  1.00  0.00    -0.014 A 
BRANCH  37  38
ATOM     38  C   UNL A   1      39.960  28.986  29.240  1.00  0.00     0.031 A 
ATOM     39  C   UNL A   1      40.758  29.978  29.811  1.00  0.00     0.074 A 
ATOM     40  C   UNL A   1      40.427  27.738  28.866  1.00  0.00     0.049 A 
ATOM     41  N   UNL A   1      42.054  29.903  30.121  1.00  0.00    -0.248 NA
ATOM     42  C   UNL A   1      40.272  31.317  30.179  1.00  0.00     0.031 C 
ATOM     43  C   UNL A   1      39.626  26.728  28.297  1.00  0.00     0.029 A 
ATOM     44  N   UNL A   1      41.712  27.251  28.967  1.00  0.00    -0.354 N 
ATOM     45  C   UNL A   1      42.464  31.049  30.669  1.00  0.00     0.074 A 
ATOM     46  C   UNL A   1      41.326  31.977  30.707  1.00  0.00     0.031 C 
ATOM     47  C   UNL A   1      40.419  25.651  28.048  1.00  0.00     0.029 A 
ATOM     48  C   UNL A   1      41.728  25.971  28.457  1.00  0.00     0.049 A 
ATOM     49  H   UNL A   1      42.485  27.734  29.338  1.00  0.00     0.167 HD
ATOM     50  C   UNL A   1      43.741  31.356  31.138  1.00  0.00     0.031 A 
ATOM     51  C   UNL A   1      42.813  25.115  28.346  1.00  0.00     0.031 A 
ATOM     52  C   UNL A   1      44.817  30.484  31.067  1.00  0.00     0.049 A 
ATOM     53  C   UNL A   1      44.104  25.443  28.763  1.00  0.00     0.074 A 
ATOM     54  C   UNL A   1      46.110  30.775  31.542  1.00  0.00     0.029 A 
ATOM     55  N   UNL A   1      44.839  29.213  30.535  1.00  0.00    -0.354 N 
ATOM     56  N   UNL A   1      44.506  26.574  29.346  1.00  0.00    -0.248 NA
ATOM     57  C   UNL A   1      45.268  24.558  28.621  1.00  0.00     0.031 C 
ATOM     58  C   UNL A   1      46.903  29.699  31.293  1.00  0.00     0.029 A 
ATOM     59  C   UNL A   1      46.118  28.718  30.657  1.00  0.00     0.049 A 
ATOM     60  H   UNL A   1      44.071  28.741  30.137  1.00  0.00     0.167 HD
ATOM     61  C   UNL A   1      45.810  26.513  29.618  1.00  0.00     0.074 A 
ATOM     62  C   UNL A   1      46.321  25.218  29.148  1.00  0.00     0.031 C 
ATOM     63  C   UNL A   1      46.596  27.485  30.241  1.00  0.00     0.031 A 
BRANCH  50  64
ATOM     64  C   UNL A   1      43.968  32.723  31.763  1.00  0.00    -0.014 A 
ATOM     65  C   UNL A   1      44.314  33.814  30.983  1.00  0.00     0.010 A 
ATOM     66  C   UNL A   1      43.718  32.855  33.061  1.00  0.00     0.010 A 
ATOM     67  C   UNL A   1      44.655  34.967  31.729  1.00  0.00     0.020 A 
ATOM     68  C   UNL A   1      43.945  34.051  33.698  1.00  0.00     0.020 A 
ATOM     69  C   UNL A   1      44.346  35.155  32.999  1.00  0.00     0.054 A 
BRANCH  69  70
ATOM     70  S   UNL A   1      44.446  36.790  33.773  1.00  0.00     0.124 S 
ATOM     71  O   UNL A   1      45.867  37.022  34.290  1.00  0.00    -0.237 OA
ATOM     72  O   UNL A   1      44.096  37.865  32.742  1.00  0.00    -0.237 OA
ATOM     73  O   UNL A   1      43.344  36.870  35.078  1.00  0.00    -0.744 OA
ENDBRANCH  69  70
ENDBRANCH  50  64
BRANCH  51  74
ATOM     74  C   UNL A   1      42.583  23.743  27.735  1.00  0.00    -0.014 A 
ATOM     75  C   UNL A   1      42.132  22.699  28.527  1.00  0.00     0.010 A 
ATOM     76  C   UNL A   1      42.929  23.547  26.469  1.00  0.00     0.010 A 
ATOM     77  C   UNL A   1      42.358  21.418  27.968  1.00  0.00     0.020 A 
ATOM     78  C   UNL A   1      42.996  22.276  25.950  1.00  0.00     0.020 A 
ATOM     79  C   UNL A   1      42.624  21.192  26.695  1.00  0.00     0.054 A 
BRANCH  79  80
ATOM     80  S   UNL A   1      42.501  19.537  25.973  1.00  0.00     0.124 S 
ATOM     81  O   UNL A   1      42.999  18.501  26.984  1.00  0.00    -0.237 OA
ATOM     82  O   UNL A   1      41.041  19.242  25.618  1.00  0.00    -0.237 OA
ATOM     83  O   UNL A   1      43.458  19.458  24.559  1.00  0.00    -0.744 OA
ENDBRANCH  79  80
ENDBRANCH  51  74
BRANCH  63  84
ATOM     84  C   UNL A   1      48.064  27.171  30.480  1.00  0.00    -0.014 A 
ATOM     85  C   UNL A   1      48.962  27.727  29.586  1.00  0.00     0.010 A 
ATOM     86  C   UNL A   1      48.478  26.433  31.504  1.00  0.00     0.010 A 
ATOM     87  C   UNL A   1      50.273  27.206  29.691  1.00  0.00     0.020 A 
ATOM     88  C   UNL A   1      49.799  26.073  31.616  1.00  0.00     0.020 A 
ATOM     89  C   UNL A   1      50.733  26.539  30.733  1.00  0.00     0.054 A 
BRANCH  89  90
ATOM     90  S   UNL A   1      52.504  26.257  30.981  1.00  0.00     0.124 S 
ATOM     91  O   UNL A   1      53.124  27.479  31.662  1.00  0.00    -0.237 OA
ATOM     92  O   UNL A   1      52.706  25.023  31.863  1.00  0.00    -0.237 OA
ATOM     93  O   UNL A   1      53.258  26.006  29.467  1.00  0.00    -0.744 OA
ENDBRANCH  89  90
ENDBRANCH  63  84
ENDBRANCH  37  38
ENDBRANCH  30  32
ENDBRANCH  29  30
ENDBRANCH  28  29
ENDBRANCH   1  28
TORSDOF 19
ENDMDL
