MODEL 1
REMARK VINA RESULT:     -11.2      0.000      0.000
REMARK SMILES O=C(OCCOCCOC(=O)c1ccccc1Nc1cccc(S(F)(F)(F)(F)F)c1)c1ccc(-c2c3nc(c(-c4ccc(S(=O)(=O)[O-])cc4)c4ccc([nH]4)c(-c4ccc(S(=O)(=O)[O-])cc4)c4nc(c(-c5ccc(S(=O)(=O)[O-])cc5)c5ccc2[nH]5)C=C4)C=C3)cc1
REMARK SMILES IDX 6 1 5 2 4 3 3 4 2 5 1 6 31 7 32 8 90 9 33 10 89 11 34 12
REMARK SMILES IDX 35 13 36 14 83 15 37 16 88 17 82 18 84 19 38 20 87 21 81 22
REMARK SMILES IDX 80 23 39 25 69 26 50 27 68 28 51 29 54 30 67 31 85 32 52 33
REMARK SMILES IDX 53 34 66 36 86 37 55 38 40 39 41 40 49 41 42 42 48 43 43 44
REMARK SMILES IDX 44 45 45 46 46 47 47 48 70 49 71 50 79 51 72 52 78 53 73 54
REMARK SMILES IDX 74 55 75 56 76 57 77 58 56 59 57 60 65 61 58 62 64 63 59 64
REMARK SMILES IDX 60 65 61 66 62 67 63 68 7 69 8 70 9 71 10 72 11 73 12 74
REMARK SMILES IDX 13 75 17 76 14 77 16 78 15 79 18 80 19 82 20 83 30 84 21 85
REMARK SMILES IDX 23 86 22 87 24 88 25 89 26 90 27 91 28 92 29 93
REMARK H PARENT 84 24 54 35 18 81
REMARK Flexibility Score: inf
ROOT
ATOM      1  O   UNL A   1      31.467  27.927  26.410  1.00  0.00    -0.374 OA
ENDROOT
BRANCH   1   2
ATOM      2  C   UNL A   1      32.438  27.946  25.375  1.00  0.00     0.202 C 
BRANCH   2   3
ATOM      3  C   UNL A   1      33.532  28.943  25.726  1.00  0.00     0.261 C 
BRANCH   3   4
ATOM      4  O   UNL A   1      33.666  29.021  27.137  1.00  0.00    -0.460 OA
BRANCH   4   5
ATOM      5  C   UNL A   1      34.465  30.041  27.719  1.00  0.00     0.338 C 
ATOM      6  O   UNL A   1      33.980  31.202  27.901  1.00  0.00    -0.246 OA
BRANCH   5   7
ATOM      7  C   UNL A   1      35.900  29.745  28.124  1.00  0.00     0.060 A 
ATOM      8  C   UNL A   1      36.187  29.306  29.405  1.00  0.00     0.016 A 
ATOM      9  C   UNL A   1      36.851  29.861  27.205  1.00  0.00     0.016 A 
ATOM     10  C   UNL A   1      37.570  29.284  29.706  1.00  0.00     0.010 A 
ATOM     11  C   UNL A   1      38.172  29.693  27.541  1.00  0.00     0.010 A 
ATOM     12  C   UNL A   1      38.534  29.315  28.805  1.00  0.00    -0.014 A 
BRANCH  12  13
ATOM     13  C   UNL A   1      39.968  28.951  29.153  1.00  0.00     0.031 A 
ATOM     14  C   UNL A   1      40.738  29.933  29.779  1.00  0.00     0.074 A 
ATOM     15  C   UNL A   1      40.451  27.709  28.779  1.00  0.00     0.049 A 
ATOM     16  N   UNL A   1      42.018  29.850  30.148  1.00  0.00    -0.248 NA
ATOM     17  C   UNL A   1      40.237  31.264  30.147  1.00  0.00     0.031 C 
ATOM     18  C   UNL A   1      39.678  26.711  28.155  1.00  0.00     0.029 A 
ATOM     19  N   UNL A   1      41.729  27.218  28.932  1.00  0.00    -0.354 N 
ATOM     20  C   UNL A   1      42.403  30.985  30.735  1.00  0.00     0.074 A 
ATOM     21  C   UNL A   1      41.264  31.914  30.737  1.00  0.00     0.031 C 
ATOM     22  C   UNL A   1      40.480  25.639  27.924  1.00  0.00     0.029 A 
ATOM     23  C   UNL A   1      41.768  25.947  28.402  1.00  0.00     0.049 A 
ATOM     24  H   UNL A   1      42.484  27.693  29.349  1.00  0.00     0.167 HD
ATOM     25  C   UNL A   1      43.656  31.280  31.271  1.00  0.00     0.031 A 
ATOM     26  C   UNL A   1      42.856  25.092  28.327  1.00  0.00     0.031 A 
ATOM     27  C   UNL A   1      44.733  30.408  31.235  1.00  0.00     0.049 A 
ATOM     28  C   UNL A   1      44.127  25.410  28.811  1.00  0.00     0.074 A 
ATOM     29  C   UNL A   1      46.003  30.688  31.777  1.00  0.00     0.029 A 
ATOM     30  N   UNL A   1      44.779  29.148  30.682  1.00  0.00    -0.354 N 
ATOM     31  N   UNL A   1      44.501  26.530  29.433  1.00  0.00    -0.248 NA
ATOM     32  C   UNL A   1      45.294  24.525  28.707  1.00  0.00     0.031 C 
ATOM     33  C   UNL A   1      46.805  29.615  31.546  1.00  0.00     0.029 A 
ATOM     34  C   UNL A   1      46.050  28.648  30.856  1.00  0.00     0.049 A 
ATOM     35  H   UNL A   1      44.031  28.684  30.240  1.00  0.00     0.167 HD
ATOM     36  C   UNL A   1      45.791  26.462  29.764  1.00  0.00     0.074 A 
ATOM     37  C   UNL A   1      46.323  25.175  29.296  1.00  0.00     0.031 C 
ATOM     38  C   UNL A   1      46.546  27.421  30.442  1.00  0.00     0.031 A 
BRANCH  25  39
ATOM     39  C   UNL A   1      43.854  32.636  31.932  1.00  0.00    -0.014 A 
ATOM     40  C   UNL A   1      44.361  33.702  31.208  1.00  0.00     0.010 A 
ATOM     41  C   UNL A   1      43.648  32.727  33.240  1.00  0.00     0.010 A 
ATOM     42  C   UNL A   1      44.895  34.738  32.011  1.00  0.00     0.020 A 
ATOM     43  C   UNL A   1      44.076  33.829  33.940  1.00  0.00     0.020 A 
ATOM     44  C   UNL A   1      44.639  34.895  33.296  1.00  0.00     0.054 A 
BRANCH  44  45
ATOM     45  S   UNL A   1      45.016  36.441  34.161  1.00  0.00     0.124 S 
ATOM     46  O   UNL A   1      45.465  36.130  35.590  1.00  0.00    -0.237 OA
ATOM     47  O   UNL A   1      46.137  37.177  33.423  1.00  0.00    -0.237 OA
ATOM     48  O   UNL A   1      43.618  37.425  34.202  1.00  0.00    -0.744 OA
ENDBRANCH  44  45
ENDBRANCH  25  39
BRANCH  26  49
ATOM     49  C   UNL A   1      42.655  23.730  27.681  1.00  0.00    -0.014 A 
ATOM     50  C   UNL A   1      42.804  23.497  26.324  1.00  0.00     0.010 A 
ATOM     51  C   UNL A   1      42.404  22.739  28.528  1.00  0.00     0.010 A 
ATOM     52  C   UNL A   1      42.379  22.211  25.914  1.00  0.00     0.020 A 
ATOM     53  C   UNL A   1      42.131  21.475  28.062  1.00  0.00     0.020 A 
ATOM     54  C   UNL A   1      42.201  21.186  26.728  1.00  0.00     0.054 A 
BRANCH  54  55
ATOM     55  S   UNL A   1      42.058  19.492  26.110  1.00  0.00     0.124 S 
ATOM     56  O   UNL A   1      42.511  18.512  27.195  1.00  0.00    -0.237 OA
ATOM     57  O   UNL A   1      40.601  19.204  25.739  1.00  0.00    -0.237 OA
ATOM     58  O   UNL A   1      43.046  19.304  24.726  1.00  0.00    -0.744 OA
ENDBRANCH  54  55
ENDBRANCH  26  49
BRANCH  38  59
ATOM     59  C   UNL A   1      48.001  27.100  30.745  1.00  0.00    -0.014 A 
ATOM     60  C   UNL A   1      49.015  27.624  29.960  1.00  0.00     0.010 A 
ATOM     61  C   UNL A   1      48.271  26.375  31.824  1.00  0.00     0.010 A 
ATOM     62  C   UNL A   1      50.292  27.081  30.236  1.00  0.00     0.020 A 
ATOM     63  C   UNL A   1      49.560  25.994  32.107  1.00  0.00     0.020 A 
ATOM     64  C   UNL A   1      50.605  26.427  31.340  1.00  0.00     0.054 A 
BRANCH  64  65
ATOM     65  S   UNL A   1      52.326  26.118  31.809  1.00  0.00     0.124 S 
ATOM     66  O   UNL A   1      52.440  24.733  32.449  1.00  0.00    -0.237 OA
ATOM     67  O   UNL A   1      53.214  26.181  30.565  1.00  0.00    -0.237 OA
ATOM     68  O   UNL A   1      52.832  27.307  32.930  1.00  0.00    -0.744 OA
ENDBRANCH  64  65
ENDBRANCH  38  59
ENDBRANCH  12  13
ENDBRANCH   5   7
ENDBRANCH   4   5
ENDBRANCH   3   4
ENDBRANCH   2   3
ENDBRANCH   1   2
BRANCH   1  69
ATOM     69  C   UNL A   1      30.774  26.687  26.386  1.00  0.00     0.202 C 
BRANCH  69  70
ATOM     70  C   UNL A   1      30.940  26.041  25.021  1.00  0.00     0.261 C 
BRANCH  70  71
ATOM     71  O   UNL A   1      30.900  24.628  25.157  1.00  0.00    -0.460 OA
BRANCH  71  72
ATOM     72  C   UNL A   1      31.706  23.987  26.135  1.00  0.00     0.340 C 
ATOM     73  O   UNL A   1      31.191  23.605  27.232  1.00  0.00    -0.246 OA
BRANCH  72  74
ATOM     74  C   UNL A   1      33.184  23.756  25.868  1.00  0.00     0.083 A 
ATOM     75  C   UNL A   1      34.057  24.826  25.980  1.00  0.00     0.018 A 
ATOM     76  C   UNL A   1      33.600  22.570  25.439  1.00  0.00     0.053 A 
ATOM     77  C   UNL A   1      35.300  24.620  25.336  1.00  0.00     0.001 A 
ATOM     78  C   UNL A   1      34.873  22.410  24.949  1.00  0.00     0.027 A 
ATOM     79  C   UNL A   1      35.770  23.441  24.974  1.00  0.00     0.002 A 
BRANCH  76  80
ATOM     80  N   UNL A   1      32.689  21.417  25.490  1.00  0.00    -0.355 N 
ATOM     81  H   UNL A   1      31.989  21.372  26.182  1.00  0.00     0.167 HD
BRANCH  80  82
ATOM     82  C   UNL A   1      32.822  20.331  24.508  1.00  0.00     0.040 A 
ATOM     83  C   UNL A   1      32.263  20.412  23.243  1.00  0.00     0.026 A 
ATOM     84  C   UNL A   1      33.412  19.219  24.931  1.00  0.00     0.050 A 
ATOM     85  C   UNL A   1      32.122  19.161  22.598  1.00  0.00     0.004 A 
ATOM     86  C   UNL A   1      33.350  18.067  24.185  1.00  0.00     0.109 A 
ATOM     87  C   UNL A   1      32.760  18.060  22.951  1.00  0.00     0.024 A 
BRANCH  86  88
ATOM     88  S   UNL A   1      34.057  16.537  24.844  1.00  0.00     0.310 S 
ATOM     89  F   UNL A   1      34.238  15.969  23.374  1.00  0.00    -0.094 F 
ATOM     90  F   UNL A   1      32.618  15.897  24.841  1.00  0.00    -0.094 F 
ATOM     91  F   UNL A   1      34.677  15.211  25.368  1.00  0.00    -0.094 F 
ATOM     92  F   UNL A   1      35.507  17.151  24.707  1.00  0.00    -0.094 F 
ATOM     93  F   UNL A   1      33.457  17.852  24.206  1.00  0.00    -0.094 F 
ENDBRANCH  86  88
ENDBRANCH  80  82
ENDBRANCH  76  80
ENDBRANCH  72  74
ENDBRANCH  71  72
ENDBRANCH  70  71
ENDBRANCH  69  70
ENDBRANCH   1  69
TORSDOF 20
ENDMDL
MODEL 2
REMARK VINA RESULT:     -11.1      6.351     11.324
REMARK SMILES O=C(OCCOCCOC(=O)c1ccccc1Nc1cccc(S(F)(F)(F)(F)F)c1)c1ccc(-c2c3nc(c(-c4ccc(S(=O)(=O)[O-])cc4)c4ccc([nH]4)c(-c4ccc(S(=O)(=O)[O-])cc4)c4nc(c(-c5ccc(S(=O)(=O)[O-])cc5)c5ccc2[nH]5)C=C4)C=C3)cc1
REMARK SMILES IDX 6 1 5 2 4 3 3 4 2 5 1 6 31 7 32 8 90 9 33 10 89 11 34 12
REMARK SMILES IDX 35 13 36 14 83 15 37 16 88 17 82 18 84 19 38 20 87 21 81 22
REMARK SMILES IDX 80 23 39 25 69 26 50 27 68 28 51 29 54 30 67 31 85 32 52 33
REMARK SMILES IDX 53 34 66 36 86 37 55 38 40 39 41 40 49 41 42 42 48 43 43 44
REMARK SMILES IDX 44 45 45 46 46 47 47 48 70 49 71 50 79 51 72 52 78 53 73 54
REMARK SMILES IDX 74 55 75 56 76 57 77 58 56 59 57 60 65 61 58 62 64 63 59 64
REMARK SMILES IDX 60 65 61 66 62 67 63 68 7 69 8 70 9 71 10 72 11 73 12 74
REMARK SMILES IDX 13 75 17 76 14 77 16 78 15 79 18 80 19 82 20 83 30 84 21 85
REMARK SMILES IDX 23 86 22 87 24 88 25 89 26 90 27 91 28 92 29 93
REMARK H PARENT 84 24 54 35 18 81
REMARK Flexibility Score: inf
ROOT
ATOM      1  O   UNL A   1      40.035  21.400  26.877  1.00  0.00    -0.374 OA
ENDROOT
BRANCH   1   2
ATOM      2  C   UNL A   1      39.497  22.603  26.347  1.00  0.00     0.202 C 
BRANCH   2   3
ATOM      3  C   UNL A   1      39.868  23.766  27.253  1.00  0.00     0.261 C 
BRANCH   3   4
ATOM      4  O   UNL A   1      39.370  24.975  26.700  1.00  0.00    -0.460 OA
BRANCH   4   5
ATOM      5  C   UNL A   1      40.152  26.159  26.760  1.00  0.00     0.338 C 
ATOM      6  O   UNL A   1      40.791  26.551  25.734  1.00  0.00    -0.246 OA
BRANCH   5   7
ATOM      7  C   UNL A   1      40.225  26.956  28.052  1.00  0.00     0.060 A 
ATOM      8  C   UNL A   1      41.117  28.008  28.174  1.00  0.00     0.016 A 
ATOM      9  C   UNL A   1      39.374  26.657  29.027  1.00  0.00     0.016 A 
ATOM     10  C   UNL A   1      41.232  28.512  29.491  1.00  0.00     0.010 A 
ATOM     11  C   UNL A   1      39.458  27.286  30.246  1.00  0.00     0.010 A 
ATOM     12  C   UNL A   1      40.357  28.296  30.456  1.00  0.00    -0.014 A 
BRANCH  12  13
ATOM     13  C   UNL A   1      40.348  29.124  31.730  1.00  0.00     0.031 A 
ATOM     14  C   UNL A   1      39.364  30.108  31.841  1.00  0.00     0.074 A 
ATOM     15  C   UNL A   1      41.340  28.911  32.672  1.00  0.00     0.049 A 
ATOM     16  N   UNL A   1      39.182  30.967  32.847  1.00  0.00    -0.248 NA
ATOM     17  C   UNL A   1      38.330  30.359  30.827  1.00  0.00     0.031 C 
ATOM     18  C   UNL A   1      42.330  27.915  32.570  1.00  0.00     0.029 A 
ATOM     19  N   UNL A   1      41.552  29.598  33.846  1.00  0.00    -0.354 N 
ATOM     20  C   UNL A   1      38.125  31.744  32.603  1.00  0.00     0.074 A 
ATOM     21  C   UNL A   1      37.566  31.369  31.297  1.00  0.00     0.031 C 
ATOM     22  C   UNL A   1      43.135  28.009  33.661  1.00  0.00     0.029 A 
ATOM     23  C   UNL A   1      42.660  29.063  34.464  1.00  0.00     0.049 A 
ATOM     24  H   UNL A   1      41.006  30.343  34.186  1.00  0.00     0.167 HD
ATOM     25  C   UNL A   1      37.604  32.748  33.419  1.00  0.00     0.031 A 
ATOM     26  C   UNL A   1      43.240  29.459  35.659  1.00  0.00     0.031 A 
ATOM     27  C   UNL A   1      38.159  33.116  34.635  1.00  0.00     0.049 A 
ATOM     28  C   UNL A   1      42.754  30.504  36.448  1.00  0.00     0.074 A 
ATOM     29  C   UNL A   1      37.642  34.122  35.474  1.00  0.00     0.029 A 
ATOM     30  N   UNL A   1      39.282  32.597  35.240  1.00  0.00    -0.354 N 
ATOM     31  N   UNL A   1      41.674  31.254  36.223  1.00  0.00    -0.248 NA
ATOM     32  C   UNL A   1      43.379  30.954  37.698  1.00  0.00     0.031 C 
ATOM     33  C   UNL A   1      38.447  34.215  36.566  1.00  0.00     0.029 A 
ATOM     34  C   UNL A   1      39.480  33.269  36.426  1.00  0.00     0.049 A 
ATOM     35  H   UNL A   1      39.845  31.871  34.887  1.00  0.00     0.167 HD
ATOM     36  C   UNL A   1      41.517  32.140  37.209  1.00  0.00     0.074 A 
ATOM     37  C   UNL A   1      42.615  31.965  38.168  1.00  0.00     0.031 C 
ATOM     38  C   UNL A   1      40.499  33.085  37.348  1.00  0.00     0.031 A 
BRANCH  25  39
ATOM     39  C   UNL A   1      36.358  33.482  32.950  1.00  0.00    -0.014 A 
ATOM     40  C   UNL A   1      36.459  34.730  32.358  1.00  0.00     0.010 A 
ATOM     41  C   UNL A   1      35.176  32.950  33.238  1.00  0.00     0.010 A 
ATOM     42  C   UNL A   1      35.253  35.470  32.372  1.00  0.00     0.020 A 
ATOM     43  C   UNL A   1      34.025  33.687  33.099  1.00  0.00     0.020 A 
ATOM     44  C   UNL A   1      34.057  34.949  32.576  1.00  0.00     0.054 A 
BRANCH  44  45
ATOM     45  S   UNL A   1      32.541  35.859  32.185  1.00  0.00     0.124 S 
ATOM     46  O   UNL A   1      32.608  37.254  32.809  1.00  0.00    -0.237 OA
ATOM     47  O   UNL A   1      32.401  35.986  30.666  1.00  0.00    -0.237 OA
ATOM     48  O   UNL A   1      31.193  35.015  32.813  1.00  0.00    -0.744 OA
ENDBRANCH  44  45
ENDBRANCH  25  39
BRANCH  26  49
ATOM     49  C   UNL A   1      44.477  28.715  36.137  1.00  0.00    -0.014 A 
ATOM     50  C   UNL A   1      45.771  29.112  35.844  1.00  0.00     0.010 A 
ATOM     51  C   UNL A   1      44.237  27.686  36.941  1.00  0.00     0.010 A 
ATOM     52  C   UNL A   1      46.758  28.172  36.221  1.00  0.00     0.020 A 
ATOM     53  C   UNL A   1      45.267  26.889  37.381  1.00  0.00     0.020 A 
ATOM     54  C   UNL A   1      46.567  27.188  37.081  1.00  0.00     0.054 A 
BRANCH  54  55
ATOM     55  S   UNL A   1      47.949  26.285  37.820  1.00  0.00     0.124 S 
ATOM     56  O   UNL A   1      48.828  27.256  38.612  1.00  0.00    -0.237 OA
ATOM     57  O   UNL A   1      47.410  25.203  38.759  1.00  0.00    -0.237 OA
ATOM     58  O   UNL A   1      48.879  25.555  36.584  1.00  0.00    -0.744 OA
ENDBRANCH  54  55
ENDBRANCH  26  49
BRANCH  38  59
ATOM     59  C   UNL A   1      40.508  33.966  38.587  1.00  0.00    -0.014 A 
ATOM     60  C   UNL A   1      41.110  35.213  38.560  1.00  0.00     0.010 A 
ATOM     61  C   UNL A   1      39.856  33.540  39.663  1.00  0.00     0.010 A 
ATOM     62  C   UNL A   1      41.216  35.827  39.830  1.00  0.00     0.020 A 
ATOM     63  C   UNL A   1      39.890  34.260  40.833  1.00  0.00     0.020 A 
ATOM     64  C   UNL A   1      40.517  35.473  40.893  1.00  0.00     0.054 A 
BRANCH  64  65
ATOM     65  S   UNL A   1      40.398  36.537  42.352  1.00  0.00     0.124 S 
ATOM     66  O   UNL A   1      39.050  36.311  43.040  1.00  0.00    -0.237 OA
ATOM     67  O   UNL A   1      41.530  36.199  43.325  1.00  0.00    -0.237 OA
ATOM     68  O   UNL A   1      40.528  38.174  41.875  1.00  0.00    -0.744 OA
ENDBRANCH  64  65
ENDBRANCH  38  59
ENDBRANCH  12  13
ENDBRANCH   5   7
ENDBRANCH   4   5
ENDBRANCH   3   4
ENDBRANCH   2   3
ENDBRANCH   1   2
BRANCH   1  69
ATOM     69  C   UNL A   1      39.582  20.298  26.105  1.00  0.00     0.202 C 
BRANCH  69  70
ATOM     70  C   UNL A   1      40.576  19.154  26.224  1.00  0.00     0.261 C 
BRANCH  70  71
ATOM     71  O   UNL A   1      41.664  19.377  25.338  1.00  0.00    -0.460 OA
BRANCH  71  72
ATOM     72  C   UNL A   1      42.968  18.944  25.694  1.00  0.00     0.340 C 
ATOM     73  O   UNL A   1      43.119  17.948  26.468  1.00  0.00    -0.246 OA
BRANCH  72  74
ATOM     74  C   UNL A   1      44.186  19.672  25.147  1.00  0.00     0.083 A 
ATOM     75  C   UNL A   1      45.231  18.926  24.629  1.00  0.00     0.018 A 
ATOM     76  C   UNL A   1      44.273  20.993  25.263  1.00  0.00     0.053 A 
ATOM     77  C   UNL A   1      46.449  19.640  24.526  1.00  0.00     0.001 A 
ATOM     78  C   UNL A   1      45.458  21.640  25.016  1.00  0.00     0.027 A 
ATOM     79  C   UNL A   1      46.550  20.956  24.558  1.00  0.00     0.002 A 
BRANCH  76  80
ATOM     80  N   UNL A   1      43.088  21.768  25.660  1.00  0.00    -0.355 N 
ATOM     81  H   UNL A   1      42.207  21.330  25.713  1.00  0.00     0.167 HD
BRANCH  80  82
ATOM     82  C   UNL A   1      43.218  23.198  25.976  1.00  0.00     0.040 A 
ATOM     83  C   UNL A   1      43.325  24.162  24.987  1.00  0.00     0.026 A 
ATOM     84  C   UNL A   1      43.340  23.512  27.260  1.00  0.00     0.050 A 
ATOM     85  C   UNL A   1      43.852  25.393  25.441  1.00  0.00     0.004 A 
ATOM     86  C   UNL A   1      43.727  24.775  27.637  1.00  0.00     0.109 A 
ATOM     87  C   UNL A   1      43.909  25.762  26.708  1.00  0.00     0.024 A 
BRANCH  86  88
ATOM     88  S   UNL A   1      44.003  25.138  29.390  1.00  0.00     0.310 S 
ATOM     89  F   UNL A   1      44.088  26.689  29.070  1.00  0.00    -0.094 F 
ATOM     90  F   UNL A   1      45.555  25.071  29.135  1.00  0.00    -0.094 F 
ATOM     91  F   UNL A   1      44.233  25.495  30.885  1.00  0.00    -0.094 F 
ATOM     92  F   UNL A   1      42.448  25.339  29.590  1.00  0.00    -0.094 F 
ATOM     93  F   UNL A   1      43.756  24.888  27.848  1.00  0.00    -0.094 F 
ENDBRANCH  86  88
ENDBRANCH  80  82
ENDBRANCH  76  80
ENDBRANCH  72  74
ENDBRANCH  71  72
ENDBRANCH  70  71
ENDBRANCH  69  70
ENDBRANCH   1  69
TORSDOF 20
ENDMDL
MODEL 3
REMARK VINA RESULT:     -11.0      3.288      7.799
REMARK SMILES O=C(OCCOCCOC(=O)c1ccccc1Nc1cccc(S(F)(F)(F)(F)F)c1)c1ccc(-c2c3nc(c(-c4ccc(S(=O)(=O)[O-])cc4)c4ccc([nH]4)c(-c4ccc(S(=O)(=O)[O-])cc4)c4nc(c(-c5ccc(S(=O)(=O)[O-])cc5)c5ccc2[nH]5)C=C4)C=C3)cc1
REMARK SMILES IDX 6 1 5 2 4 3 3 4 2 5 1 6 31 7 32 8 90 9 33 10 89 11 34 12
REMARK SMILES IDX 35 13 36 14 83 15 37 16 88 17 82 18 84 19 38 20 87 21 81 22
REMARK SMILES IDX 80 23 39 25 69 26 50 27 68 28 51 29 54 30 67 31 85 32 52 33
REMARK SMILES IDX 53 34 66 36 86 37 55 38 40 39 41 40 49 41 42 42 48 43 43 44
REMARK SMILES IDX 44 45 45 46 46 47 47 48 70 49 71 50 79 51 72 52 78 53 73 54
REMARK SMILES IDX 74 55 75 56 76 57 77 58 56 59 57 60 65 61 58 62 64 63 59 64
REMARK SMILES IDX 60 65 61 66 62 67 63 68 7 69 8 70 9 71 10 72 11 73 12 74
REMARK SMILES IDX 13 75 17 76 14 77 16 78 15 79 18 80 19 82 20 83 30 84 21 85
REMARK SMILES IDX 23 86 22 87 24 88 25 89 26 90 27 91 28 92 29 93
REMARK H PARENT 84 24 54 35 18 81
REMARK Flexibility Score: inf
ROOT
ATOM      1  O   UNL A   1      37.669  21.006  24.633  1.00  0.00    -0.374 OA
ENDROOT
BRANCH   1   2
ATOM      2  C   UNL A   1      38.258  19.872  25.252  1.00  0.00     0.202 C 
BRANCH   2   3
ATOM      3  C   UNL A   1      39.565  20.279  25.915  1.00  0.00     0.261 C 
BRANCH   3   4
ATOM      4  O   UNL A   1      40.511  19.229  25.778  1.00  0.00    -0.460 OA
BRANCH   4   5
ATOM      5  C   UNL A   1      41.816  19.375  26.319  1.00  0.00     0.338 C 
ATOM      6  O   UNL A   1      42.500  18.346  26.616  1.00  0.00    -0.246 OA
BRANCH   5   7
ATOM      7  C   UNL A   1      42.395  20.762  26.543  1.00  0.00     0.060 A 
ATOM      8  C   UNL A   1      42.782  21.540  25.465  1.00  0.00     0.016 A 
ATOM      9  C   UNL A   1      42.461  21.226  27.786  1.00  0.00     0.016 A 
ATOM     10  C   UNL A   1      43.501  22.704  25.827  1.00  0.00     0.010 A 
ATOM     11  C   UNL A   1      43.058  22.434  28.052  1.00  0.00     0.010 A 
ATOM     12  C   UNL A   1      43.516  23.230  27.037  1.00  0.00    -0.014 A 
BRANCH  12  13
ATOM     13  C   UNL A   1      44.015  24.643  27.291  1.00  0.00     0.031 A 
ATOM     14  C   UNL A   1      43.072  25.584  27.710  1.00  0.00     0.074 A 
ATOM     15  C   UNL A   1      45.342  24.939  27.035  1.00  0.00     0.049 A 
ATOM     16  N   UNL A   1      43.272  26.879  27.963  1.00  0.00    -0.248 NA
ATOM     17  C   UNL A   1      41.654  25.280  27.950  1.00  0.00     0.031 C 
ATOM     18  C   UNL A   1      46.301  23.994  26.621  1.00  0.00     0.029 A 
ATOM     19  N   UNL A   1      45.969  26.162  27.127  1.00  0.00    -0.354 N 
ATOM     20  C   UNL A   1      42.133  27.452  28.360  1.00  0.00     0.074 A 
ATOM     21  C   UNL A   1      41.075  26.433  28.351  1.00  0.00     0.031 C 
ATOM     22  C   UNL A   1      47.485  24.639  26.454  1.00  0.00     0.029 A 
ATOM     23  C   UNL A   1      47.287  25.998  26.763  1.00  0.00     0.049 A 
ATOM     24  H   UNL A   1      45.548  27.007  27.406  1.00  0.00     0.167 HD
ATOM     25  C   UNL A   1      41.938  28.782  28.731  1.00  0.00     0.031 A 
ATOM     26  C   UNL A   1      48.275  26.967  26.695  1.00  0.00     0.031 A 
ATOM     27  C   UNL A   1      42.937  29.743  28.706  1.00  0.00     0.049 A 
ATOM     28  C   UNL A   1      48.066  28.312  27.011  1.00  0.00     0.074 A 
ATOM     29  C   UNL A   1      42.758  31.087  29.084  1.00  0.00     0.029 A 
ATOM     30  N   UNL A   1      44.249  29.584  28.317  1.00  0.00    -0.354 N 
ATOM     31  N   UNL A   1      46.937  28.876  27.446  1.00  0.00    -0.248 NA
ATOM     32  C   UNL A   1      49.097  29.353  26.911  1.00  0.00     0.031 C 
ATOM     33  C   UNL A   1      43.943  31.733  28.918  1.00  0.00     0.029 A 
ATOM     34  C   UNL A   1      44.881  30.802  28.431  1.00  0.00     0.049 A 
ATOM     35  H   UNL A   1      44.663  28.745  28.011  1.00  0.00     0.167 HD
ATOM     36  C   UNL A   1      47.128  30.179  27.659  1.00  0.00     0.074 A 
ATOM     37  C   UNL A   1      48.517  30.507  27.311  1.00  0.00     0.031 C 
ATOM     38  C   UNL A   1      46.200  31.108  28.133  1.00  0.00     0.031 A 
BRANCH  25  39
ATOM     39  C   UNL A   1      40.551  29.203  29.191  1.00  0.00    -0.014 A 
ATOM     40  C   UNL A   1      39.565  29.500  28.265  1.00  0.00     0.010 A 
ATOM     41  C   UNL A   1      40.357  29.398  30.490  1.00  0.00     0.010 A 
ATOM     42  C   UNL A   1      38.503  30.276  28.788  1.00  0.00     0.020 A 
ATOM     43  C   UNL A   1      39.232  30.044  30.940  1.00  0.00     0.020 A 
ATOM     44  C   UNL A   1      38.242  30.419  30.074  1.00  0.00     0.054 A 
BRANCH  44  45
ATOM     45  S   UNL A   1      36.660  31.076  30.660  1.00  0.00     0.124 S 
ATOM     46  O   UNL A   1      35.737  31.325  29.465  1.00  0.00    -0.237 OA
ATOM     47  O   UNL A   1      36.008  30.065  31.606  1.00  0.00    -0.237 OA
ATOM     48  O   UNL A   1      36.928  32.546  31.491  1.00  0.00    -0.744 OA
ENDBRANCH  44  45
ENDBRANCH  25  39
BRANCH  26  49
ATOM     49  C   UNL A   1      49.667  26.544  26.252  1.00  0.00    -0.014 A 
ATOM     50  C   UNL A   1      50.132  26.681  24.954  1.00  0.00     0.010 A 
ATOM     51  C   UNL A   1      50.455  26.102  27.223  1.00  0.00     0.010 A 
ATOM     52  C   UNL A   1      51.374  26.046  24.721  1.00  0.00     0.020 A 
ATOM     53  C   UNL A   1      51.711  25.621  26.940  1.00  0.00     0.020 A 
ATOM     54  C   UNL A   1      52.213  25.670  25.669  1.00  0.00     0.054 A 
BRANCH  54  55
ATOM     55  S   UNL A   1      53.933  25.243  25.305  1.00  0.00     0.124 S 
ATOM     56  O   UNL A   1      54.800  25.520  26.537  1.00  0.00    -0.237 OA
ATOM     57  O   UNL A   1      54.026  23.760  24.939  1.00  0.00    -0.237 OA
ATOM     58  O   UNL A   1      54.491  26.190  23.994  1.00  0.00    -0.744 OA
ENDBRANCH  54  55
ENDBRANCH  26  49
BRANCH  38  59
ATOM     59  C   UNL A   1      46.664  32.541  28.335  1.00  0.00    -0.014 A 
ATOM     60  C   UNL A   1      47.178  32.949  29.554  1.00  0.00     0.010 A 
ATOM     61  C   UNL A   1      46.636  33.362  27.291  1.00  0.00     0.010 A 
ATOM     62  C   UNL A   1      47.378  34.346  29.655  1.00  0.00     0.020 A 
ATOM     63  C   UNL A   1      46.975  34.686  27.432  1.00  0.00     0.020 A 
ATOM     64  C   UNL A   1      47.436  35.170  28.624  1.00  0.00     0.054 A 
BRANCH  64  65
ATOM     65  S   UNL A   1      48.088  36.851  28.783  1.00  0.00     0.124 S 
ATOM     66  O   UNL A   1      48.450  37.391  27.398  1.00  0.00    -0.237 OA
ATOM     67  O   UNL A   1      47.028  37.751  29.422  1.00  0.00    -0.237 OA
ATOM     68  O   UNL A   1      49.485  36.828  29.769  1.00  0.00    -0.744 OA
ENDBRANCH  64  65
ENDBRANCH  38  59
ENDBRANCH  12  13
ENDBRANCH   5   7
ENDBRANCH   4   5
ENDBRANCH   3   4
ENDBRANCH   2   3
ENDBRANCH   1   2
BRANCH   1  69
ATOM     69  C   UNL A   1      36.482  21.362  25.327  1.00  0.00     0.202 C 
BRANCH  69  70
ATOM     70  C   UNL A   1      36.373  22.876  25.400  1.00  0.00     0.261 C 
BRANCH  70  71
ATOM     71  O   UNL A   1      35.039  23.270  25.116  1.00  0.00    -0.460 OA
BRANCH  71  72
ATOM     72  C   UNL A   1      34.620  23.436  23.769  1.00  0.00     0.340 C 
ATOM     73  O   UNL A   1      35.468  23.357  22.825  1.00  0.00    -0.246 OA
BRANCH  72  74
ATOM     74  C   UNL A   1      33.157  23.706  23.456  1.00  0.00     0.083 A 
ATOM     75  C   UNL A   1      32.833  24.813  22.690  1.00  0.00     0.018 A 
ATOM     76  C   UNL A   1      32.215  22.943  23.998  1.00  0.00     0.053 A 
ATOM     77  C   UNL A   1      31.477  25.203  22.792  1.00  0.00     0.001 A 
ATOM     78  C   UNL A   1      30.894  23.317  23.942  1.00  0.00     0.027 A 
ATOM     79  C   UNL A   1      30.508  24.433  23.252  1.00  0.00     0.002 A 
BRANCH  76  80
ATOM     80  N   UNL A   1      32.589  21.687  24.663  1.00  0.00    -0.355 N 
ATOM     81  H   UNL A   1      32.729  21.667  25.638  1.00  0.00     0.167 HD
BRANCH  80  82
ATOM     82  C   UNL A   1      32.755  20.458  23.872  1.00  0.00     0.040 A 
ATOM     83  C   UNL A   1      32.174  20.305  22.624  1.00  0.00     0.026 A 
ATOM     84  C   UNL A   1      33.397  19.456  24.460  1.00  0.00     0.050 A 
ATOM     85  C   UNL A   1      32.077  18.960  22.198  1.00  0.00     0.004 A 
ATOM     86  C   UNL A   1      33.374  18.195  23.917  1.00  0.00     0.109 A 
ATOM     87  C   UNL A   1      32.767  17.959  22.714  1.00  0.00     0.024 A 
BRANCH  86  88
ATOM     88  S   UNL A   1      34.156  16.825  24.805  1.00  0.00     0.310 S 
ATOM     89  F   UNL A   1      34.386  16.051  23.439  1.00  0.00    -0.094 F 
ATOM     90  F   UNL A   1      32.754  16.113  24.893  1.00  0.00    -0.094 F 
ATOM     91  F   UNL A   1      34.841  15.631  25.527  1.00  0.00    -0.094 F 
ATOM     92  F   UNL A   1      35.571  17.492  24.581  1.00  0.00    -0.094 F 
ATOM     93  F   UNL A   1      33.492  17.993  23.970  1.00  0.00    -0.094 F 
ENDBRANCH  86  88
ENDBRANCH  80  82
ENDBRANCH  76  80
ENDBRANCH  72  74
ENDBRANCH  71  72
ENDBRANCH  70  71
ENDBRANCH  69  70
ENDBRANCH   1  69
TORSDOF 20
ENDMDL
