MODEL 1
REMARK VINA RESULT:     -12.1      0.000      0.000
REMARK SMILES Cc1c(NC(=O)c2ccc(-c3cccc(Cl)c3)o2)cccc1C(=O)OCCOCCOC(=O)c1ccc(-c2c3nc(c(-c4ccc(S(=O)(=O)[O-])cc4)c4ccc([nH]4)c(-c4ccc(S(=O)(=O)[O-])cc4)c4nc(c(-c5ccc(S(=O)(=O)[O-])cc5)c5ccc2[nH]5)C=C4)C=C3)cc1
REMARK SMILES IDX 28 1 27 2 26 3 25 4 23 5 24 6 22 7 1 8 2 9 3 10 19 11 21 12
REMARK SMILES IDX 20 13 4 14 5 15 6 17 7 18 8 19 18 20 9 21 10 22 11 23 12 24
REMARK SMILES IDX 17 25 13 26 15 27 14 28 16 29 29 30 30 31 31 32 32 33 33 34
REMARK SMILES IDX 34 35 35 36 93 37 36 38 92 39 37 40 38 41 39 42 86 43 40 44
REMARK SMILES IDX 91 45 85 46 87 47 41 48 90 49 84 50 83 51 42 53 72 54 53 55
REMARK SMILES IDX 71 56 54 57 57 58 70 59 88 60 55 61 56 62 69 64 89 65 58 66
REMARK SMILES IDX 43 67 44 68 52 69 45 70 51 71 46 72 47 73 48 74 49 75 50 76
REMARK SMILES IDX 73 77 74 78 82 79 75 80 81 81 76 82 77 83 78 84 79 85 80 86
REMARK SMILES IDX 59 87 60 88 68 89 61 90 67 91 62 92 63 93 64 94 65 95 66 96
REMARK H PARENT 4 16 87 52 57 63
REMARK Flexibility Score: inf
ROOT
ATOM      1  O   UNL A   1      36.421  22.353  25.847  1.00  0.00    -0.374 OA
ENDROOT
BRANCH   1   2
ATOM      2  C   UNL A   1      35.830  21.776  24.693  1.00  0.00     0.202 C 
BRANCH   2   3
ATOM      3  C   UNL A   1      34.984  20.665  25.215  1.00  0.00     0.261 C 
BRANCH   3   4
ATOM      4  O   UNL A   1      33.873  20.370  24.346  1.00  0.00    -0.460 OA
BRANCH   4   5
ATOM      5  C   UNL A   1      32.605  20.300  24.782  1.00  0.00     0.338 C 
ATOM      6  O   UNL A   1      31.990  19.329  25.162  1.00  0.00    -0.246 OA
BRANCH   5   7
ATOM      7  C   UNL A   1      32.037  21.671  24.734  1.00  0.00     0.065 A 
ATOM      8  C   UNL A   1      32.601  22.185  22.239  1.00  0.00     0.047 C 
ATOM      9  C   UNL A   1      31.979  22.509  23.585  1.00  0.00    -0.013 A 
ATOM     10  C   UNL A   1      31.288  23.730  23.702  1.00  0.00     0.045 A 
ATOM     11  C   UNL A   1      30.721  24.095  24.932  1.00  0.00     0.026 A 
ATOM     12  C   UNL A   1      31.549  22.118  25.976  1.00  0.00     0.016 A 
ATOM     13  C   UNL A   1      30.901  23.334  26.079  1.00  0.00     0.003 A 
BRANCH  10  14
ATOM     14  N   UNL A   1      31.174  24.533  22.543  1.00  0.00    -0.319 N 
ATOM     15  C   UNL A   1      31.673  25.780  22.248  1.00  0.00     0.291 C 
ATOM     16  H   UNL A   1      30.644  24.127  21.819  1.00  0.00     0.170 HD
ATOM     17  O   UNL A   1      31.362  26.302  21.178  1.00  0.00    -0.265 OA
BRANCH  15  18
ATOM     18  C   UNL A   1      32.577  26.379  23.188  1.00  0.00     0.192 A 
ATOM     19  C   UNL A   1      33.708  25.898  23.822  1.00  0.00     0.057 A 
ATOM     20  O   UNL A   1      32.217  27.580  23.721  1.00  0.00    -0.451 OA
ATOM     21  C   UNL A   1      34.009  26.826  24.849  1.00  0.00     0.052 A 
ATOM     22  C   UNL A   1      33.064  27.827  24.751  1.00  0.00     0.135 A 
BRANCH  22  23
ATOM     23  C   UNL A   1      32.795  29.035  25.497  1.00  0.00     0.019 A 
ATOM     24  C   UNL A   1      31.604  29.728  25.259  1.00  0.00     0.012 A 
ATOM     25  C   UNL A   1      33.702  29.519  26.450  1.00  0.00     0.032 A 
ATOM     26  C   UNL A   1      31.313  30.891  25.968  1.00  0.00     0.002 A 
ATOM     27  C   UNL A   1      33.410  30.690  27.147  1.00  0.00     0.041 A 
ATOM     28  C   UNL A   1      32.219  31.374  26.910  1.00  0.00     0.020 A 
ATOM     29  Cl  UNL A   1      34.523  31.302  28.308  1.00  0.00    -0.084 Cl
ENDBRANCH  22  23
ENDBRANCH  15  18
ENDBRANCH  10  14
ENDBRANCH   5   7
ENDBRANCH   4   5
ENDBRANCH   3   4
ENDBRANCH   2   3
ENDBRANCH   1   2
BRANCH   1  30
ATOM     30  C   UNL A   1      37.793  22.638  25.769  1.00  0.00     0.202 C 
BRANCH  30  31
ATOM     31  C   UNL A   1      38.084  24.104  26.081  1.00  0.00     0.261 C 
BRANCH  31  32
ATOM     32  O   UNL A   1      39.026  24.217  27.174  1.00  0.00    -0.460 OA
BRANCH  32  33
ATOM     33  C   UNL A   1      40.116  25.019  26.972  1.00  0.00     0.338 C 
ATOM     34  O   UNL A   1      41.086  24.684  26.315  1.00  0.00    -0.246 OA
BRANCH  33  35
ATOM     35  C   UNL A   1      39.910  26.368  27.583  1.00  0.00     0.060 A 
ATOM     36  C   UNL A   1      40.548  27.523  27.086  1.00  0.00     0.016 A 
ATOM     37  C   UNL A   1      39.207  26.440  28.780  1.00  0.00     0.016 A 
ATOM     38  C   UNL A   1      40.603  28.703  27.863  1.00  0.00     0.010 A 
ATOM     39  C   UNL A   1      39.349  27.558  29.574  1.00  0.00     0.010 A 
ATOM     40  C   UNL A   1      40.065  28.690  29.148  1.00  0.00    -0.014 A 
BRANCH  40  41
ATOM     41  C   UNL A   1      40.221  29.702  30.206  1.00  0.00     0.031 A 
ATOM     42  C   UNL A   1      39.354  30.901  30.121  1.00  0.00     0.074 A 
ATOM     43  C   UNL A   1      40.820  29.398  31.387  1.00  0.00     0.049 A 
ATOM     44  N   UNL A   1      39.378  31.859  30.974  1.00  0.00    -0.248 NA
ATOM     45  C   UNL A   1      38.394  31.146  29.042  1.00  0.00     0.031 C 
ATOM     46  C   UNL A   1      40.526  29.911  32.730  1.00  0.00     0.029 A 
ATOM     47  N   UNL A   1      41.851  28.497  31.633  1.00  0.00    -0.354 N 
ATOM     48  C   UNL A   1      38.259  32.628  30.777  1.00  0.00     0.074 A 
ATOM     49  C   UNL A   1      37.743  32.221  29.497  1.00  0.00     0.031 C 
ATOM     50  C   UNL A   1      41.480  29.512  33.594  1.00  0.00     0.029 A 
ATOM     51  C   UNL A   1      42.502  28.815  32.830  1.00  0.00     0.049 A 
ATOM     52  H   UNL A   1      42.088  27.742  31.048  1.00  0.00     0.167 HD
ATOM     53  C   UNL A   1      37.850  33.429  31.799  1.00  0.00     0.031 A 
ATOM     54  C   UNL A   1      43.844  29.039  32.816  1.00  0.00     0.031 A 
ATOM     55  C   UNL A   1      38.850  33.438  32.876  1.00  0.00     0.049 A 
ATOM     56  C   UNL A   1      44.019  30.518  33.025  1.00  0.00     0.074 A 
ATOM     57  C   UNL A   1      38.896  32.879  34.141  1.00  0.00     0.029 A 
ATOM     58  N   UNL A   1      40.163  33.796  32.561  1.00  0.00    -0.354 N 
ATOM     59  N   UNL A   1      43.065  31.373  32.759  1.00  0.00    -0.248 NA
ATOM     60  C   UNL A   1      45.160  31.139  33.688  1.00  0.00     0.031 C 
ATOM     61  C   UNL A   1      40.273  32.793  34.524  1.00  0.00     0.029 A 
ATOM     62  C   UNL A   1      41.055  33.335  33.512  1.00  0.00     0.049 A 
ATOM     63  H   UNL A   1      40.420  34.311  31.763  1.00  0.00     0.167 HD
ATOM     64  C   UNL A   1      43.362  32.568  33.323  1.00  0.00     0.074 A 
ATOM     65  C   UNL A   1      44.716  32.402  33.831  1.00  0.00     0.031 C 
ATOM     66  C   UNL A   1      42.484  33.608  33.375  1.00  0.00     0.031 A 
BRANCH  53  67
ATOM     67  C   UNL A   1      36.483  34.071  31.906  1.00  0.00    -0.014 A 
ATOM     68  C   UNL A   1      35.563  33.906  30.852  1.00  0.00     0.010 A 
ATOM     69  C   UNL A   1      36.062  34.899  32.969  1.00  0.00     0.010 A 
ATOM     70  C   UNL A   1      34.298  34.520  30.862  1.00  0.00     0.020 A 
ATOM     71  C   UNL A   1      34.792  35.498  33.005  1.00  0.00     0.020 A 
ATOM     72  C   UNL A   1      33.916  35.308  31.945  1.00  0.00     0.054 A 
BRANCH  72  73
ATOM     73  S   UNL A   1      32.277  36.080  31.949  1.00  0.00     0.124 S 
ATOM     74  O   UNL A   1      31.443  35.040  32.546  1.00  0.00    -0.237 OA
ATOM     75  O   UNL A   1      32.489  37.268  32.771  1.00  0.00    -0.237 OA
ATOM     76  O   UNL A   1      32.013  36.345  30.536  1.00  0.00    -0.744 OA
ENDBRANCH  72  73
ENDBRANCH  53  67
BRANCH  54  77
ATOM     77  C   UNL A   1      44.567  28.079  31.910  1.00  0.00    -0.014 A 
ATOM     78  C   UNL A   1      44.416  26.700  32.210  1.00  0.00     0.010 A 
ATOM     79  C   UNL A   1      44.875  28.422  30.577  1.00  0.00     0.010 A 
ATOM     80  C   UNL A   1      44.398  25.725  31.199  1.00  0.00     0.020 A 
ATOM     81  C   UNL A   1      44.834  27.447  29.556  1.00  0.00     0.020 A 
ATOM     82  C   UNL A   1      44.548  26.113  29.867  1.00  0.00     0.054 A 
BRANCH  82  83
ATOM     83  S   UNL A   1      44.022  24.945  28.551  1.00  0.00     0.124 S 
ATOM     84  O   UNL A   1      43.829  25.824  27.405  1.00  0.00    -0.237 OA
ATOM     85  O   UNL A   1      45.160  24.029  28.452  1.00  0.00    -0.237 OA
ATOM     86  O   UNL A   1      42.817  24.341  29.108  1.00  0.00    -0.744 OA
ENDBRANCH  82  83
ENDBRANCH  54  77
BRANCH  66  87
ATOM     87  C   UNL A   1      42.974  35.022  33.330  1.00  0.00    -0.014 A 
ATOM     88  C   UNL A   1      43.775  35.498  32.279  1.00  0.00     0.010 A 
ATOM     89  C   UNL A   1      42.478  35.962  34.256  1.00  0.00     0.010 A 
ATOM     90  C   UNL A   1      44.167  36.831  32.220  1.00  0.00     0.020 A 
ATOM     91  C   UNL A   1      42.804  37.312  34.163  1.00  0.00     0.020 A 
ATOM     92  C   UNL A   1      43.688  37.725  33.173  1.00  0.00     0.054 A 
BRANCH  92  93
ATOM     93  S   UNL A   1      44.228  39.442  33.090  1.00  0.00     0.124 S 
ATOM     94  O   UNL A   1      45.680  39.292  33.133  1.00  0.00    -0.237 OA
ATOM     95  O   UNL A   1      43.682  39.893  31.813  1.00  0.00    -0.237 OA
ATOM     96  O   UNL A   1      43.623  40.052  34.271  1.00  0.00    -0.744 OA
ENDBRANCH  92  93
ENDBRANCH  66  87
ENDBRANCH  40  41
ENDBRANCH  33  35
ENDBRANCH  32  33
ENDBRANCH  31  32
ENDBRANCH  30  31
ENDBRANCH   1  30
TORSDOF 20
ENDMDL
MODEL 2
REMARK VINA RESULT:     -12.0      2.751      4.048
REMARK SMILES Cc1c(NC(=O)c2ccc(-c3cccc(Cl)c3)o2)cccc1C(=O)OCCOCCOC(=O)c1ccc(-c2c3nc(c(-c4ccc(S(=O)(=O)[O-])cc4)c4ccc([nH]4)c(-c4ccc(S(=O)(=O)[O-])cc4)c4nc(c(-c5ccc(S(=O)(=O)[O-])cc5)c5ccc2[nH]5)C=C4)C=C3)cc1
REMARK SMILES IDX 28 1 27 2 26 3 25 4 23 5 24 6 22 7 1 8 2 9 3 10 19 11 21 12
REMARK SMILES IDX 20 13 4 14 5 15 6 17 7 18 8 19 18 20 9 21 10 22 11 23 12 24
REMARK SMILES IDX 17 25 13 26 15 27 14 28 16 29 29 30 30 31 31 32 32 33 33 34
REMARK SMILES IDX 34 35 35 36 93 37 36 38 92 39 37 40 38 41 39 42 86 43 40 44
REMARK SMILES IDX 91 45 85 46 87 47 41 48 90 49 84 50 83 51 42 53 72 54 53 55
REMARK SMILES IDX 71 56 54 57 57 58 70 59 88 60 55 61 56 62 69 64 89 65 58 66
REMARK SMILES IDX 43 67 44 68 52 69 45 70 51 71 46 72 47 73 48 74 49 75 50 76
REMARK SMILES IDX 73 77 74 78 82 79 75 80 81 81 76 82 77 83 78 84 79 85 80 86
REMARK SMILES IDX 59 87 60 88 68 89 61 90 67 91 62 92 63 93 64 94 65 95 66 96
REMARK H PARENT 4 16 87 52 57 63
REMARK Flexibility Score: inf
ROOT
ATOM      1  O   UNL A   1      35.221  21.197  25.726  1.00  0.00    -0.374 OA
ENDROOT
BRANCH   1   2
ATOM      2  C   UNL A   1      33.933  20.787  25.296  1.00  0.00     0.202 C 
BRANCH   2   3
ATOM      3  C   UNL A   1      33.823  21.285  23.895  1.00  0.00     0.261 C 
BRANCH   3   4
ATOM      4  O   UNL A   1      33.051  22.498  23.806  1.00  0.00    -0.460 OA
BRANCH   4   5
ATOM      5  C   UNL A   1      33.610  23.711  23.667  1.00  0.00     0.338 C 
ATOM      6  O   UNL A   1      34.525  24.043  22.947  1.00  0.00    -0.246 OA
BRANCH   5   7
ATOM      7  C   UNL A   1      32.892  24.642  24.575  1.00  0.00     0.065 A 
ATOM      8  C   UNL A   1      32.662  26.634  22.906  1.00  0.00     0.047 C 
ATOM      9  C   UNL A   1      32.412  25.936  24.231  1.00  0.00    -0.013 A 
ATOM     10  C   UNL A   1      31.641  26.622  25.189  1.00  0.00     0.045 A 
ATOM     11  C   UNL A   1      31.407  26.038  26.443  1.00  0.00     0.026 A 
ATOM     12  C   UNL A   1      32.726  24.135  25.877  1.00  0.00     0.016 A 
ATOM     13  C   UNL A   1      31.993  24.837  26.815  1.00  0.00     0.003 A 
BRANCH  10  14
ATOM     14  N   UNL A   1      31.109  27.881  24.824  1.00  0.00    -0.319 N 
ATOM     15  C   UNL A   1      31.509  29.161  25.131  1.00  0.00     0.291 C 
ATOM     16  H   UNL A   1      30.312  27.833  24.248  1.00  0.00     0.170 HD
ATOM     17  O   UNL A   1      30.819  30.103  24.742  1.00  0.00    -0.265 OA
BRANCH  15  18
ATOM     18  C   UNL A   1      32.745  29.324  25.840  1.00  0.00     0.192 A 
ATOM     19  C   UNL A   1      33.645  28.411  26.358  1.00  0.00     0.057 A 
ATOM     20  O   UNL A   1      33.062  30.582  26.259  1.00  0.00    -0.451 OA
ATOM     21  C   UNL A   1      34.515  29.147  27.198  1.00  0.00     0.052 A 
ATOM     22  C   UNL A   1      34.110  30.463  27.112  1.00  0.00     0.135 A 
BRANCH  22  23
ATOM     23  C   UNL A   1      34.550  31.696  27.725  1.00  0.00     0.019 A 
ATOM     24  C   UNL A   1      35.919  31.916  27.901  1.00  0.00     0.012 A 
ATOM     25  C   UNL A   1      33.630  32.668  28.142  1.00  0.00     0.032 A 
ATOM     26  C   UNL A   1      36.374  33.097  28.482  1.00  0.00     0.002 A 
ATOM     27  C   UNL A   1      34.090  33.844  28.734  1.00  0.00     0.041 A 
ATOM     28  C   UNL A   1      35.458  34.061  28.902  1.00  0.00     0.020 A 
ATOM     29  Cl  UNL A   1      32.971  35.038  29.264  1.00  0.00    -0.084 Cl
ENDBRANCH  22  23
ENDBRANCH  15  18
ENDBRANCH  10  14
ENDBRANCH   5   7
ENDBRANCH   4   5
ENDBRANCH   3   4
ENDBRANCH   2   3
ENDBRANCH   1   2
BRANCH   1  30
ATOM     30  C   UNL A   1      36.312  20.653  25.030  1.00  0.00     0.202 C 
BRANCH  30  31
ATOM     31  C   UNL A   1      37.430  21.677  24.845  1.00  0.00     0.261 C 
BRANCH  31  32
ATOM     32  O   UNL A   1      37.771  22.295  26.109  1.00  0.00    -0.460 OA
BRANCH  32  33
ATOM     33  C   UNL A   1      39.101  22.497  26.361  1.00  0.00     0.338 C 
ATOM     34  O   UNL A   1      39.940  21.615  26.299  1.00  0.00    -0.246 OA
BRANCH  33  35
ATOM     35  C   UNL A   1      39.384  23.941  26.625  1.00  0.00     0.060 A 
ATOM     36  C   UNL A   1      40.216  24.710  25.786  1.00  0.00     0.016 A 
ATOM     37  C   UNL A   1      38.951  24.479  27.832  1.00  0.00     0.016 A 
ATOM     38  C   UNL A   1      40.728  25.952  26.225  1.00  0.00     0.010 A 
ATOM     39  C   UNL A   1      39.532  25.640  28.295  1.00  0.00     0.010 A 
ATOM     40  C   UNL A   1      40.444  26.378  27.521  1.00  0.00    -0.014 A 
BRANCH  40  41
ATOM     41  C   UNL A   1      41.055  27.493  28.263  1.00  0.00     0.031 A 
ATOM     42  C   UNL A   1      40.209  28.686  28.501  1.00  0.00     0.074 A 
ATOM     43  C   UNL A   1      42.169  27.307  29.019  1.00  0.00     0.049 A 
ATOM     44  N   UNL A   1      40.608  29.727  29.135  1.00  0.00    -0.248 NA
ATOM     45  C   UNL A   1      38.833  28.827  28.016  1.00  0.00     0.031 C 
ATOM     46  C   UNL A   1      42.550  27.960  30.276  1.00  0.00     0.029 A 
ATOM     47  N   UNL A   1      43.224  26.426  28.811  1.00  0.00    -0.354 N 
ATOM     48  C   UNL A   1      39.505  30.484  29.442  1.00  0.00     0.074 A 
ATOM     49  C   UNL A   1      38.444  29.951  28.627  1.00  0.00     0.031 C 
ATOM     50  C   UNL A   1      43.820  27.644  30.593  1.00  0.00     0.029 A 
ATOM     51  C   UNL A   1      44.364  26.860  29.496  1.00  0.00     0.049 A 
ATOM     52  H   UNL A   1      43.176  25.612  28.260  1.00  0.00     0.167 HD
ATOM     53  C   UNL A   1      39.615  31.390  30.451  1.00  0.00     0.031 A 
ATOM     54  C   UNL A   1      45.516  27.067  28.802  1.00  0.00     0.031 A 
ATOM     55  C   UNL A   1      41.014  31.501  30.890  1.00  0.00     0.049 A 
ATOM     56  C   UNL A   1      45.709  28.558  28.755  1.00  0.00     0.074 A 
ATOM     57  C   UNL A   1      41.698  31.077  32.016  1.00  0.00     0.029 A 
ATOM     58  N   UNL A   1      41.988  31.811  29.937  1.00  0.00    -0.354 N 
ATOM     59  N   UNL A   1      44.713  29.391  28.912  1.00  0.00    -0.248 NA
ATOM     60  C   UNL A   1      47.001  29.233  28.708  1.00  0.00     0.031 C 
ATOM     61  C   UNL A   1      43.087  31.016  31.677  1.00  0.00     0.029 A 
ATOM     62  C   UNL A   1      43.250  31.442  30.365  1.00  0.00     0.049 A 
ATOM     63  H   UNL A   1      41.798  32.237  29.070  1.00  0.00     0.167 HD
ATOM     64  C   UNL A   1      45.197  30.635  29.140  1.00  0.00     0.074 A 
ATOM     65  C   UNL A   1      46.632  30.508  28.929  1.00  0.00     0.031 C 
ATOM     66  C   UNL A   1      44.415  31.684  29.517  1.00  0.00     0.031 A 
BRANCH  53  67
ATOM     67  C   UNL A   1      38.452  32.055  31.155  1.00  0.00    -0.014 A 
ATOM     68  C   UNL A   1      38.460  33.454  31.322  1.00  0.00     0.010 A 
ATOM     69  C   UNL A   1      37.361  31.371  31.734  1.00  0.00     0.010 A 
ATOM     70  C   UNL A   1      37.440  34.129  32.014  1.00  0.00     0.020 A 
ATOM     71  C   UNL A   1      36.322  32.034  32.406  1.00  0.00     0.020 A 
ATOM     72  C   UNL A   1      36.369  33.414  32.547  1.00  0.00     0.054 A 
BRANCH  72  73
ATOM     73  S   UNL A   1      35.055  34.301  33.423  1.00  0.00     0.124 S 
ATOM     74  O   UNL A   1      33.867  33.938  32.655  1.00  0.00    -0.237 OA
ATOM     75  O   UNL A   1      35.134  33.737  34.767  1.00  0.00    -0.237 OA
ATOM     76  O   UNL A   1      35.451  35.705  33.318  1.00  0.00    -0.744 OA
ENDBRANCH  72  73
ENDBRANCH  53  67
BRANCH  54  77
ATOM     77  C   UNL A   1      45.742  26.011  27.754  1.00  0.00    -0.014 A 
ATOM     78  C   UNL A   1      46.004  24.700  28.233  1.00  0.00     0.010 A 
ATOM     79  C   UNL A   1      45.187  26.130  26.463  1.00  0.00     0.010 A 
ATOM     80  C   UNL A   1      45.572  23.561  27.532  1.00  0.00     0.020 A 
ATOM     81  C   UNL A   1      44.731  24.989  25.768  1.00  0.00     0.020 A 
ATOM     82  C   UNL A   1      44.882  23.716  26.329  1.00  0.00     0.054 A 
BRANCH  82  83
ATOM     83  S   UNL A   1      43.896  22.301  25.699  1.00  0.00     0.124 S 
ATOM     84  O   UNL A   1      44.923  21.339  25.323  1.00  0.00    -0.237 OA
ATOM     85  O   UNL A   1      43.082  21.926  26.857  1.00  0.00    -0.237 OA
ATOM     86  O   UNL A   1      43.137  22.890  24.602  1.00  0.00    -0.744 OA
ENDBRANCH  82  83
ENDBRANCH  54  77
BRANCH  66  87
ATOM     87  C   UNL A   1      44.759  33.080  29.102  1.00  0.00    -0.014 A 
ATOM     88  C   UNL A   1      45.011  33.416  27.762  1.00  0.00     0.010 A 
ATOM     89  C   UNL A   1      44.652  34.132  30.034  1.00  0.00     0.010 A 
ATOM     90  C   UNL A   1      45.266  34.730  27.386  1.00  0.00     0.020 A 
ATOM     91  C   UNL A   1      44.833  35.459  29.654  1.00  0.00     0.020 A 
ATOM     92  C   UNL A   1      45.188  35.741  28.339  1.00  0.00     0.054 A 
BRANCH  92  93
ATOM     93  S   UNL A   1      45.545  37.433  27.834  1.00  0.00     0.124 S 
ATOM     94  O   UNL A   1      46.827  37.268  27.154  1.00  0.00    -0.237 OA
ATOM     95  O   UNL A   1      44.414  37.758  26.968  1.00  0.00    -0.237 OA
ATOM     96  O   UNL A   1      45.591  38.167  29.094  1.00  0.00    -0.744 OA
ENDBRANCH  92  93
ENDBRANCH  66  87
ENDBRANCH  40  41
ENDBRANCH  33  35
ENDBRANCH  32  33
ENDBRANCH  31  32
ENDBRANCH  30  31
ENDBRANCH   1  30
TORSDOF 20
ENDMDL
MODEL 3
REMARK VINA RESULT:     -12.0      2.364      3.257
REMARK SMILES Cc1c(NC(=O)c2ccc(-c3cccc(Cl)c3)o2)cccc1C(=O)OCCOCCOC(=O)c1ccc(-c2c3nc(c(-c4ccc(S(=O)(=O)[O-])cc4)c4ccc([nH]4)c(-c4ccc(S(=O)(=O)[O-])cc4)c4nc(c(-c5ccc(S(=O)(=O)[O-])cc5)c5ccc2[nH]5)C=C4)C=C3)cc1
REMARK SMILES IDX 28 1 27 2 26 3 25 4 23 5 24 6 22 7 1 8 2 9 3 10 19 11 21 12
REMARK SMILES IDX 20 13 4 14 5 15 6 17 7 18 8 19 18 20 9 21 10 22 11 23 12 24
REMARK SMILES IDX 17 25 13 26 15 27 14 28 16 29 29 30 30 31 31 32 32 33 33 34
REMARK SMILES IDX 34 35 35 36 93 37 36 38 92 39 37 40 38 41 39 42 86 43 40 44
REMARK SMILES IDX 91 45 85 46 87 47 41 48 90 49 84 50 83 51 42 53 72 54 53 55
REMARK SMILES IDX 71 56 54 57 57 58 70 59 88 60 55 61 56 62 69 64 89 65 58 66
REMARK SMILES IDX 43 67 44 68 52 69 45 70 51 71 46 72 47 73 48 74 49 75 50 76
REMARK SMILES IDX 73 77 74 78 82 79 75 80 81 81 76 82 77 83 78 84 79 85 80 86
REMARK SMILES IDX 59 87 60 88 68 89 61 90 67 91 62 92 63 93 64 94 65 95 66 96
REMARK H PARENT 4 16 87 52 57 63
REMARK Flexibility Score: inf
ROOT
ATOM      1  O   UNL A   1      40.212  24.368  27.614  1.00  0.00    -0.374 OA
ENDROOT
BRANCH   1   2
ATOM      2  C   UNL A   1      38.834  24.701  27.563  1.00  0.00     0.202 C 
BRANCH   2   3
ATOM      3  C   UNL A   1      38.291  23.899  26.428  1.00  0.00     0.261 C 
BRANCH   3   4
ATOM      4  O   UNL A   1      36.850  23.891  26.406  1.00  0.00    -0.460 OA
BRANCH   4   5
ATOM      5  C   UNL A   1      36.133  22.840  25.977  1.00  0.00     0.338 C 
ATOM      6  O   UNL A   1      36.525  21.747  25.634  1.00  0.00    -0.246 OA
BRANCH   5   7
ATOM      7  C   UNL A   1      34.702  23.237  25.993  1.00  0.00     0.065 A 
ATOM      8  C   UNL A   1      34.852  25.124  24.198  1.00  0.00     0.047 C 
ATOM      9  C   UNL A   1      34.102  24.223  25.162  1.00  0.00    -0.013 A 
ATOM     10  C   UNL A   1      32.703  24.373  25.232  1.00  0.00     0.045 A 
ATOM     11  C   UNL A   1      31.963  23.588  26.130  1.00  0.00     0.026 A 
ATOM     12  C   UNL A   1      33.941  22.545  26.954  1.00  0.00     0.016 A 
ATOM     13  C   UNL A   1      32.574  22.728  27.030  1.00  0.00     0.003 A 
BRANCH  10  14
ATOM     14  N   UNL A   1      32.099  25.307  24.359  1.00  0.00    -0.319 N 
ATOM     15  C   UNL A   1      31.653  26.591  24.569  1.00  0.00     0.291 C 
ATOM     16  H   UNL A   1      31.974  24.980  23.439  1.00  0.00     0.170 HD
ATOM     17  O   UNL A   1      31.086  27.177  23.647  1.00  0.00    -0.265 OA
BRANCH  15  18
ATOM     18  C   UNL A   1      31.930  27.196  25.840  1.00  0.00     0.192 A 
ATOM     19  C   UNL A   1      31.177  27.317  26.994  1.00  0.00     0.057 A 
ATOM     20  O   UNL A   1      33.059  27.953  25.937  1.00  0.00    -0.451 OA
ATOM     21  C   UNL A   1      31.852  28.258  27.808  1.00  0.00     0.052 A 
ATOM     22  C   UNL A   1      32.987  28.624  27.114  1.00  0.00     0.135 A 
BRANCH  22  23
ATOM     23  C   UNL A   1      34.071  29.546  27.367  1.00  0.00     0.019 A 
ATOM     24  C   UNL A   1      35.369  29.046  27.506  1.00  0.00     0.012 A 
ATOM     25  C   UNL A   1      33.842  30.925  27.474  1.00  0.00     0.032 A 
ATOM     26  C   UNL A   1      36.435  29.910  27.743  1.00  0.00     0.002 A 
ATOM     27  C   UNL A   1      34.912  31.784  27.723  1.00  0.00     0.041 A 
ATOM     28  C   UNL A   1      36.206  31.280  27.855  1.00  0.00     0.020 A 
ATOM     29  Cl  UNL A   1      34.641  33.477  27.871  1.00  0.00    -0.084 Cl
ENDBRANCH  22  23
ENDBRANCH  15  18
ENDBRANCH  10  14
ENDBRANCH   5   7
ENDBRANCH   4   5
ENDBRANCH   3   4
ENDBRANCH   2   3
ENDBRANCH   1   2
BRANCH   1  30
ATOM     30  C   UNL A   1      40.845  24.145  26.381  1.00  0.00     0.202 C 
BRANCH  30  31
ATOM     31  C   UNL A   1      41.787  25.291  26.016  1.00  0.00     0.261 C 
BRANCH  31  32
ATOM     32  O   UNL A   1      41.039  26.498  25.736  1.00  0.00    -0.460 OA
BRANCH  32  33
ATOM     33  C   UNL A   1      41.761  27.644  25.542  1.00  0.00     0.338 C 
ATOM     34  O   UNL A   1      42.450  27.847  24.557  1.00  0.00    -0.246 OA
BRANCH  33  35
ATOM     35  C   UNL A   1      41.516  28.626  26.643  1.00  0.00     0.060 A 
ATOM     36  C   UNL A   1      42.566  29.326  27.272  1.00  0.00     0.016 A 
ATOM     37  C   UNL A   1      40.232  28.708  27.168  1.00  0.00     0.016 A 
ATOM     38  C   UNL A   1      42.352  29.983  28.505  1.00  0.00     0.010 A 
ATOM     39  C   UNL A   1      40.053  29.263  28.416  1.00  0.00     0.010 A 
ATOM     40  C   UNL A   1      41.104  29.881  29.116  1.00  0.00    -0.014 A 
BRANCH  40  41
ATOM     41  C   UNL A   1      40.732  30.268  30.487  1.00  0.00     0.031 A 
ATOM     42  C   UNL A   1      39.909  31.491  30.641  1.00  0.00     0.074 A 
ATOM     43  C   UNL A   1      40.791  29.375  31.510  1.00  0.00     0.049 A 
ATOM     44  N   UNL A   1      39.508  31.942  31.773  1.00  0.00    -0.248 NA
ATOM     45  C   UNL A   1      39.483  32.340  29.525  1.00  0.00     0.031 C 
ATOM     46  C   UNL A   1      39.924  29.262  32.687  1.00  0.00     0.029 A 
ATOM     47  N   UNL A   1      41.675  28.316  31.689  1.00  0.00    -0.354 N 
ATOM     48  C   UNL A   1      38.532  32.877  31.533  1.00  0.00     0.074 A 
ATOM     49  C   UNL A   1      38.635  33.177  30.129  1.00  0.00     0.031 C 
ATOM     50  C   UNL A   1      40.444  28.376  33.559  1.00  0.00     0.029 A 
ATOM     51  C   UNL A   1      41.736  27.955  33.039  1.00  0.00     0.049 A 
ATOM     52  H   UNL A   1      42.185  27.882  30.968  1.00  0.00     0.167 HD
ATOM     53  C   UNL A   1      37.678  33.179  32.549  1.00  0.00     0.031 A 
ATOM     54  C   UNL A   1      42.940  27.955  33.673  1.00  0.00     0.031 A 
ATOM     55  C   UNL A   1      38.125  32.547  33.799  1.00  0.00     0.049 A 
ATOM     56  C   UNL A   1      42.916  29.134  34.607  1.00  0.00     0.074 A 
ATOM     57  C   UNL A   1      37.665  31.477  34.546  1.00  0.00     0.029 A 
ATOM     58  N   UNL A   1      39.422  32.806  34.249  1.00  0.00    -0.354 N 
ATOM     59  N   UNL A   1      42.113  30.149  34.421  1.00  0.00    -0.248 NA
ATOM     60  C   UNL A   1      43.626  29.206  35.879  1.00  0.00     0.031 C 
ATOM     61  C   UNL A   1      38.752  31.019  35.357  1.00  0.00     0.029 A 
ATOM     62  C   UNL A   1      39.854  31.836  35.134  1.00  0.00     0.049 A 
ATOM     63  H   UNL A   1      39.960  33.582  33.970  1.00  0.00     0.167 HD
ATOM     64  C   UNL A   1      42.066  30.899  35.548  1.00  0.00     0.074 A 
ATOM     65  C   UNL A   1      43.085  30.318  36.411  1.00  0.00     0.031 C 
ATOM     66  C   UNL A   1      41.185  31.922  35.730  1.00  0.00     0.031 A 
BRANCH  53  67
ATOM     67  C   UNL A   1      36.358  33.901  32.389  1.00  0.00    -0.014 A 
ATOM     68  C   UNL A   1      36.045  34.959  33.266  1.00  0.00     0.010 A 
ATOM     69  C   UNL A   1      35.356  33.555  31.458  1.00  0.00     0.010 A 
ATOM     70  C   UNL A   1      34.814  35.636  33.209  1.00  0.00     0.020 A 
ATOM     71  C   UNL A   1      34.131  34.238  31.373  1.00  0.00     0.020 A 
ATOM     72  C   UNL A   1      33.865  35.275  32.255  1.00  0.00     0.054 A 
BRANCH  72  73
ATOM     73  S   UNL A   1      32.289  36.168  32.186  1.00  0.00     0.124 S 
ATOM     74  O   UNL A   1      32.453  37.172  33.234  1.00  0.00    -0.237 OA
ATOM     75  O   UNL A   1      32.276  36.679  30.819  1.00  0.00    -0.237 OA
ATOM     76  O   UNL A   1      31.292  35.137  32.470  1.00  0.00    -0.744 OA
ENDBRANCH  72  73
ENDBRANCH  53  67
BRANCH  54  77
ATOM     77  C   UNL A   1      44.039  27.413  32.798  1.00  0.00    -0.014 A 
ATOM     78  C   UNL A   1      44.100  26.001  32.675  1.00  0.00     0.010 A 
ATOM     79  C   UNL A   1      44.582  28.180  31.748  1.00  0.00     0.010 A 
ATOM     80  C   UNL A   1      44.523  25.384  31.485  1.00  0.00     0.020 A 
ATOM     81  C   UNL A   1      44.987  27.565  30.543  1.00  0.00     0.020 A 
ATOM     82  C   UNL A   1      44.908  26.175  30.401  1.00  0.00     0.054 A 
BRANCH  82  83
ATOM     83  S   UNL A   1      44.962  25.407  28.734  1.00  0.00     0.124 S 
ATOM     84  O   UNL A   1      46.308  24.854  28.681  1.00  0.00    -0.237 OA
ATOM     85  O   UNL A   1      43.881  24.420  28.793  1.00  0.00    -0.237 OA
ATOM     86  O   UNL A   1      44.694  26.531  27.844  1.00  0.00    -0.744 OA
ENDBRANCH  82  83
ENDBRANCH  54  77
BRANCH  66  87
ATOM     87  C   UNL A   1      41.558  33.110  36.559  1.00  0.00    -0.014 A 
ATOM     88  C   UNL A   1      40.950  33.373  37.798  1.00  0.00     0.010 A 
ATOM     89  C   UNL A   1      42.671  33.895  36.194  1.00  0.00     0.010 A 
ATOM     90  C   UNL A   1      41.354  34.446  38.584  1.00  0.00     0.020 A 
ATOM     91  C   UNL A   1      43.130  34.926  37.010  1.00  0.00     0.020 A 
ATOM     92  C   UNL A   1      42.434  35.223  38.176  1.00  0.00     0.054 A 
BRANCH  92  93
ATOM     93  S   UNL A   1      42.924  36.623  39.199  1.00  0.00     0.124 S 
ATOM     94  O   UNL A   1      43.832  35.984  40.149  1.00  0.00    -0.237 OA
ATOM     95  O   UNL A   1      43.556  37.522  38.237  1.00  0.00    -0.237 OA
ATOM     96  O   UNL A   1      41.664  37.101  39.758  1.00  0.00    -0.744 OA
ENDBRANCH  92  93
ENDBRANCH  66  87
ENDBRANCH  40  41
ENDBRANCH  33  35
ENDBRANCH  32  33
ENDBRANCH  31  32
ENDBRANCH  30  31
ENDBRANCH   1  30
TORSDOF 20
ENDMDL
