MODEL 1
REMARK VINA RESULT:     -10.8      0.000      0.000
REMARK SMILES Cc1cc(NC(=O)c2ccc3ncsc3c2)sc1C(=O)OCCOCCOC(=O)c1ccc(-c2c3nc(c(-c4ccc(S(=O)(=O)[O-])cc4)c4ccc([nH]4)c(-c4ccc(S(=O)(=O)[O-])cc4)c4nc(c(-c5ccc(S(=O)(=O)[O-])cc5)c5ccc2[nH]5)C=C4)C=C3)cc1
REMARK SMILES IDX 25 1 24 2 23 3 22 4 21 5 19 6 20 7 18 8 1 9 2 10 3 11 4 12
REMARK SMILES IDX 17 13 5 14 6 15 7 17 8 18 9 19 16 20 10 21 15 22 11 23 14 24
REMARK SMILES IDX 12 25 13 26 26 27 27 28 28 29 29 30 30 31 31 32 89 33 32 34
REMARK SMILES IDX 88 35 33 36 34 37 35 38 82 39 36 40 87 41 81 42 83 43 37 44
REMARK SMILES IDX 86 45 80 46 79 47 38 49 68 50 49 51 67 52 50 53 53 54 66 55
REMARK SMILES IDX 84 56 51 57 52 58 65 60 85 61 54 62 39 63 40 64 48 65 41 66
REMARK SMILES IDX 47 67 42 68 43 69 44 70 45 71 46 72 69 73 70 74 78 75 71 76
REMARK SMILES IDX 77 77 72 78 73 79 74 80 75 81 76 82 55 83 56 84 64 85 57 86
REMARK SMILES IDX 63 87 58 88 59 89 60 90 61 91 62 92
REMARK H PARENT 5 16 83 48 53 59
REMARK Flexibility Score: inf
ROOT
ATOM      1  C   UNL A   1      34.492  32.807  28.635  1.00  0.00     0.202 C 
ENDROOT
BRANCH   1   2
ATOM      2  O   UNL A   1      34.464  31.931  27.507  1.00  0.00    -0.374 OA
BRANCH   2   3
ATOM      3  C   UNL A   1      33.378  31.000  27.448  1.00  0.00     0.202 C 
BRANCH   3   4
ATOM      4  C   UNL A   1      33.739  29.652  26.817  1.00  0.00     0.261 C 
BRANCH   4   5
ATOM      5  O   UNL A   1      32.532  28.913  26.570  1.00  0.00    -0.459 OA
BRANCH   5   6
ATOM      6  C   UNL A   1      32.066  28.913  25.293  1.00  0.00     0.348 C 
ATOM      7  O   UNL A   1      32.376  29.744  24.446  1.00  0.00    -0.245 OA
BRANCH   6   8
ATOM      8  C   UNL A   1      31.266  27.718  25.063  1.00  0.00     0.117 A 
ATOM      9  C   UNL A   1      30.190  28.079  22.726  1.00  0.00     0.046 C 
ATOM     10  C   UNL A   1      30.424  27.348  24.014  1.00  0.00    -0.023 A 
ATOM     11  C   UNL A   1      29.787  26.092  24.291  1.00  0.00     0.042 A 
ATOM     12  C   UNL A   1      30.271  25.497  25.426  1.00  0.00     0.096 A 
ATOM     13  S   UNL A   1      31.252  26.537  26.323  1.00  0.00    -0.111 S 
BRANCH  12  14
ATOM     14  N   UNL A   1      30.134  24.242  25.967  1.00  0.00    -0.314 N 
ATOM     15  C   UNL A   1      30.835  23.107  25.616  1.00  0.00     0.256 C 
ATOM     16  H   UNL A   1      29.465  24.141  26.681  1.00  0.00     0.171 HD
ATOM     17  O   UNL A   1      30.487  21.998  26.014  1.00  0.00    -0.269 OA
BRANCH  15  18
ATOM     18  C   UNL A   1      32.069  23.219  24.802  1.00  0.00     0.041 A 
ATOM     19  C   UNL A   1      32.015  23.080  23.410  1.00  0.00     0.016 A 
ATOM     20  C   UNL A   1      33.286  23.409  25.467  1.00  0.00     0.035 A 
ATOM     21  C   UNL A   1      33.194  23.006  22.666  1.00  0.00     0.030 A 
ATOM     22  C   UNL A   1      34.461  23.333  24.701  1.00  0.00     0.055 A 
ATOM     23  C   UNL A   1      34.439  23.115  23.320  1.00  0.00     0.081 A 
ATOM     24  S   UNL A   1      36.101  23.446  25.220  1.00  0.00    -0.122 S 
ATOM     25  N   UNL A   1      35.677  23.009  22.715  1.00  0.00    -0.245 NA
ATOM     26  C   UNL A   1      36.620  23.152  23.615  1.00  0.00     0.176 A 
ENDBRANCH  15  18
ENDBRANCH  12  14
ENDBRANCH   6   8
ENDBRANCH   5   6
ENDBRANCH   4   5
ENDBRANCH   3   4
ENDBRANCH   2   3
ENDBRANCH   1   2
BRANCH   1  27
ATOM     27  C   UNL A   1      35.125  32.230  29.905  1.00  0.00     0.261 C 
BRANCH  27  28
ATOM     28  O   UNL A   1      35.852  31.020  29.630  1.00  0.00    -0.460 OA
BRANCH  28  29
ATOM     29  C   UNL A   1      36.562  30.538  30.679  1.00  0.00     0.338 C 
ATOM     30  O   UNL A   1      36.122  30.151  31.748  1.00  0.00    -0.246 OA
BRANCH  29  31
ATOM     31  C   UNL A   1      37.977  30.372  30.293  1.00  0.00     0.060 A 
ATOM     32  C   UNL A   1      38.264  30.281  28.926  1.00  0.00     0.016 A 
ATOM     33  C   UNL A   1      38.997  30.248  31.241  1.00  0.00     0.016 A 
ATOM     34  C   UNL A   1      39.564  30.016  28.501  1.00  0.00     0.010 A 
ATOM     35  C   UNL A   1      40.301  29.977  30.811  1.00  0.00     0.010 A 
ATOM     36  C   UNL A   1      40.584  29.826  29.442  1.00  0.00    -0.014 A 
BRANCH  36  37
ATOM     37  C   UNL A   1      41.913  29.344  28.994  1.00  0.00     0.031 A 
ATOM     38  C   UNL A   1      43.066  30.310  28.946  1.00  0.00     0.074 A 
ATOM     39  C   UNL A   1      42.099  28.053  28.662  1.00  0.00     0.049 A 
ATOM     40  N   UNL A   1      44.303  30.103  28.573  1.00  0.00    -0.248 NA
ATOM     41  C   UNL A   1      42.788  31.690  29.375  1.00  0.00     0.031 C 
ATOM     42  C   UNL A   1      41.073  27.012  28.705  1.00  0.00     0.029 A 
ATOM     43  N   UNL A   1      43.223  27.401  28.220  1.00  0.00    -0.354 N 
ATOM     44  C   UNL A   1      44.950  31.325  28.716  1.00  0.00     0.074 A 
ATOM     45  C   UNL A   1      43.962  32.274  29.182  1.00  0.00     0.031 C 
ATOM     46  C   UNL A   1      41.614  25.851  28.299  1.00  0.00     0.029 A 
ATOM     47  C   UNL A   1      43.013  26.072  27.939  1.00  0.00     0.049 A 
ATOM     48  H   UNL A   1      44.096  27.843  28.115  1.00  0.00     0.167 HD
ATOM     49  C   UNL A   1      46.250  31.628  28.488  1.00  0.00     0.031 A 
ATOM     50  C   UNL A   1      43.849  25.144  27.433  1.00  0.00     0.031 A 
ATOM     51  C   UNL A   1      47.229  30.687  28.013  1.00  0.00     0.049 A 
ATOM     52  C   UNL A   1      45.273  25.521  27.120  1.00  0.00     0.074 A 
ATOM     53  C   UNL A   1      48.574  30.898  27.763  1.00  0.00     0.029 A 
ATOM     54  N   UNL A   1      46.969  29.361  27.707  1.00  0.00    -0.354 N 
ATOM     55  N   UNL A   1      45.874  26.675  27.283  1.00  0.00    -0.248 NA
ATOM     56  C   UNL A   1      46.133  24.467  26.562  1.00  0.00     0.031 C 
ATOM     57  C   UNL A   1      49.115  29.711  27.255  1.00  0.00     0.029 A 
ATOM     58  C   UNL A   1      48.121  28.746  27.245  1.00  0.00     0.049 A 
ATOM     59  H   UNL A   1      46.094  28.920  27.803  1.00  0.00     0.167 HD
ATOM     60  C   UNL A   1      47.189  26.479  26.873  1.00  0.00     0.074 A 
ATOM     61  C   UNL A   1      47.298  25.093  26.467  1.00  0.00     0.031 C 
ATOM     62  C   UNL A   1      48.214  27.366  26.841  1.00  0.00     0.031 A 
BRANCH  49  63
ATOM     63  C   UNL A   1      46.681  33.053  28.720  1.00  0.00    -0.014 A 
ATOM     64  C   UNL A   1      47.106  33.488  29.988  1.00  0.00     0.010 A 
ATOM     65  C   UNL A   1      46.689  33.961  27.645  1.00  0.00     0.010 A 
ATOM     66  C   UNL A   1      47.494  34.816  30.185  1.00  0.00     0.020 A 
ATOM     67  C   UNL A   1      47.102  35.284  27.833  1.00  0.00     0.020 A 
ATOM     68  C   UNL A   1      47.485  35.707  29.107  1.00  0.00     0.054 A 
BRANCH  68  69
ATOM     69  S   UNL A   1      48.007  37.421  29.388  1.00  0.00     0.124 S 
ATOM     70  O   UNL A   1      47.661  37.614  30.794  1.00  0.00    -0.237 OA
ATOM     71  O   UNL A   1      49.437  37.373  29.095  1.00  0.00    -0.237 OA
ATOM     72  O   UNL A   1      47.206  38.188  28.439  1.00  0.00    -0.744 OA
ENDBRANCH  68  69
ENDBRANCH  49  63
BRANCH  50  73
ATOM     73  C   UNL A   1      43.352  23.765  27.171  1.00  0.00    -0.014 A 
ATOM     74  C   UNL A   1      43.227  22.836  28.217  1.00  0.00     0.010 A 
ATOM     75  C   UNL A   1      42.995  23.379  25.865  1.00  0.00     0.010 A 
ATOM     76  C   UNL A   1      42.765  21.540  27.962  1.00  0.00     0.020 A 
ATOM     77  C   UNL A   1      42.508  22.094  25.611  1.00  0.00     0.020 A 
ATOM     78  C   UNL A   1      42.406  21.179  26.660  1.00  0.00     0.054 A 
BRANCH  78  79
ATOM     79  S   UNL A   1      41.754  19.513  26.360  1.00  0.00     0.124 S 
ATOM     80  O   UNL A   1      40.322  19.764  26.249  1.00  0.00    -0.237 OA
ATOM     81  O   UNL A   1      42.429  19.127  25.124  1.00  0.00    -0.237 OA
ATOM     82  O   UNL A   1      42.170  18.766  27.546  1.00  0.00    -0.744 OA
ENDBRANCH  78  79
ENDBRANCH  50  73
BRANCH  62  83
ATOM     83  C   UNL A   1      49.557  26.861  26.381  1.00  0.00    -0.014 A 
ATOM     84  C   UNL A   1      50.413  26.164  27.251  1.00  0.00     0.010 A 
ATOM     85  C   UNL A   1      49.941  27.039  25.038  1.00  0.00     0.010 A 
ATOM     86  C   UNL A   1      51.643  25.680  26.795  1.00  0.00     0.020 A 
ATOM     87  C   UNL A   1      51.158  26.534  24.572  1.00  0.00     0.020 A 
ATOM     88  C   UNL A   1      52.008  25.869  25.458  1.00  0.00     0.054 A 
BRANCH  88  89
ATOM     89  S   UNL A   1      53.589  25.194  24.878  1.00  0.00     0.124 S 
ATOM     90  O   UNL A   1      53.489  23.795  25.284  1.00  0.00    -0.237 OA
ATOM     91  O   UNL A   1      53.533  25.437  23.440  1.00  0.00    -0.237 OA
ATOM     92  O   UNL A   1      54.586  25.981  25.599  1.00  0.00    -0.744 OA
ENDBRANCH  88  89
ENDBRANCH  62  83
ENDBRANCH  36  37
ENDBRANCH  29  31
ENDBRANCH  28  29
ENDBRANCH  27  28
ENDBRANCH   1  27
TORSDOF 19
ENDMDL
MODEL 2
REMARK VINA RESULT:     -10.5      5.834     11.617
REMARK SMILES Cc1cc(NC(=O)c2ccc3ncsc3c2)sc1C(=O)OCCOCCOC(=O)c1ccc(-c2c3nc(c(-c4ccc(S(=O)(=O)[O-])cc4)c4ccc([nH]4)c(-c4ccc(S(=O)(=O)[O-])cc4)c4nc(c(-c5ccc(S(=O)(=O)[O-])cc5)c5ccc2[nH]5)C=C4)C=C3)cc1
REMARK SMILES IDX 25 1 24 2 23 3 22 4 21 5 19 6 20 7 18 8 1 9 2 10 3 11 4 12
REMARK SMILES IDX 17 13 5 14 6 15 7 17 8 18 9 19 16 20 10 21 15 22 11 23 14 24
REMARK SMILES IDX 12 25 13 26 26 27 27 28 28 29 29 30 30 31 31 32 89 33 32 34
REMARK SMILES IDX 88 35 33 36 34 37 35 38 82 39 36 40 87 41 81 42 83 43 37 44
REMARK SMILES IDX 86 45 80 46 79 47 38 49 68 50 49 51 67 52 50 53 53 54 66 55
REMARK SMILES IDX 84 56 51 57 52 58 65 60 85 61 54 62 39 63 40 64 48 65 41 66
REMARK SMILES IDX 47 67 42 68 43 69 44 70 45 71 46 72 69 73 70 74 78 75 71 76
REMARK SMILES IDX 77 77 72 78 73 79 74 80 75 81 76 82 55 83 56 84 64 85 57 86
REMARK SMILES IDX 63 87 58 88 59 89 60 90 61 91 62 92
REMARK H PARENT 5 16 83 48 53 59
REMARK Flexibility Score: inf
ROOT
ATOM      1  C   UNL A   1      40.334  21.681  26.163  1.00  0.00     0.202 C 
ENDROOT
BRANCH   1   2
ATOM      2  O   UNL A   1      39.014  22.227  26.143  1.00  0.00    -0.374 OA
BRANCH   2   3
ATOM      3  C   UNL A   1      38.049  21.537  25.343  1.00  0.00     0.202 C 
BRANCH   3   4
ATOM      4  C   UNL A   1      36.601  21.972  25.588  1.00  0.00     0.261 C 
BRANCH   4   5
ATOM      5  O   UNL A   1      35.822  21.685  24.416  1.00  0.00    -0.459 OA
BRANCH   5   6
ATOM      6  C   UNL A   1      35.483  22.744  23.633  1.00  0.00     0.348 C 
ATOM      7  O   UNL A   1      36.271  23.347  22.911  1.00  0.00    -0.245 OA
BRANCH   6   8
ATOM      8  C   UNL A   1      34.043  22.955  23.689  1.00  0.00     0.117 A 
ATOM      9  C   UNL A   1      33.291  23.060  21.204  1.00  0.00     0.046 C 
ATOM     10  C   UNL A   1      33.089  23.139  22.687  1.00  0.00    -0.023 A 
ATOM     11  C   UNL A   1      31.796  23.393  23.257  1.00  0.00     0.042 A 
ATOM     12  C   UNL A   1      31.783  23.240  24.618  1.00  0.00     0.096 A 
ATOM     13  S   UNL A   1      33.337  23.091  25.258  1.00  0.00    -0.111 S 
BRANCH  12  14
ATOM     14  N   UNL A   1      30.778  23.171  25.551  1.00  0.00    -0.314 N 
ATOM     15  C   UNL A   1      30.264  24.213  26.295  1.00  0.00     0.256 C 
ATOM     16  H   UNL A   1      30.381  22.284  25.706  1.00  0.00     0.171 HD
ATOM     17  O   UNL A   1      29.516  24.004  27.246  1.00  0.00    -0.269 OA
BRANCH  15  18
ATOM     18  C   UNL A   1      30.555  25.614  25.908  1.00  0.00     0.041 A 
ATOM     19  C   UNL A   1      29.889  26.204  24.828  1.00  0.00     0.016 A 
ATOM     20  C   UNL A   1      31.548  26.303  26.614  1.00  0.00     0.035 A 
ATOM     21  C   UNL A   1      30.290  27.455  24.355  1.00  0.00     0.030 A 
ATOM     22  C   UNL A   1      31.937  27.560  26.123  1.00  0.00     0.055 A 
ATOM     23  C   UNL A   1      31.343  28.138  24.997  1.00  0.00     0.081 A 
ATOM     24  S   UNL A   1      33.167  28.618  26.708  1.00  0.00    -0.122 S 
ATOM     25  N   UNL A   1      31.871  29.354  24.604  1.00  0.00    -0.245 NA
ATOM     26  C   UNL A   1      32.842  29.696  25.418  1.00  0.00     0.176 A 
ENDBRANCH  15  18
ENDBRANCH  12  14
ENDBRANCH   6   8
ENDBRANCH   5   6
ENDBRANCH   4   5
ENDBRANCH   3   4
ENDBRANCH   2   3
ENDBRANCH   1   2
BRANCH   1  27
ATOM     27  C   UNL A   1      41.474  22.704  26.145  1.00  0.00     0.261 C 
BRANCH  27  28
ATOM     28  O   UNL A   1      40.977  24.050  26.241  1.00  0.00    -0.460 OA
BRANCH  28  29
ATOM     29  C   UNL A   1      41.930  25.011  26.160  1.00  0.00     0.338 C 
ATOM     30  O   UNL A   1      42.621  25.281  25.193  1.00  0.00    -0.246 OA
BRANCH  29  31
ATOM     31  C   UNL A   1      41.913  25.837  27.384  1.00  0.00     0.060 A 
ATOM     32  C   UNL A   1      40.944  25.538  28.348  1.00  0.00     0.016 A 
ATOM     33  C   UNL A   1      42.782  26.918  27.563  1.00  0.00     0.016 A 
ATOM     34  C   UNL A   1      40.805  26.347  29.474  1.00  0.00     0.010 A 
ATOM     35  C   UNL A   1      42.637  27.731  28.692  1.00  0.00     0.010 A 
ATOM     36  C   UNL A   1      41.626  27.470  29.636  1.00  0.00    -0.014 A 
BRANCH  36  37
ATOM     37  C   UNL A   1      41.339  28.437  30.723  1.00  0.00     0.031 A 
ATOM     38  C   UNL A   1      42.170  28.399  31.977  1.00  0.00     0.074 A 
ATOM     39  C   UNL A   1      40.369  29.359  30.583  1.00  0.00     0.049 A 
ATOM     40  N   UNL A   1      42.080  29.140  33.051  1.00  0.00    -0.248 NA
ATOM     41  C   UNL A   1      43.244  27.394  32.026  1.00  0.00     0.031 C 
ATOM     42  C   UNL A   1      39.522  29.523  29.402  1.00  0.00     0.029 A 
ATOM     43  N   UNL A   1      39.933  30.330  31.449  1.00  0.00    -0.354 N 
ATOM     44  C   UNL A   1      43.079  28.689  33.906  1.00  0.00     0.074 A 
ATOM     45  C   UNL A   1      43.744  27.591  33.237  1.00  0.00     0.031 C 
ATOM     46  C   UNL A   1      38.663  30.533  29.620  1.00  0.00     0.029 A 
ATOM     47  C   UNL A   1      38.878  31.065  30.965  1.00  0.00     0.049 A 
ATOM     48  H   UNL A   1      40.338  30.486  32.332  1.00  0.00     0.167 HD
ATOM     49  C   UNL A   1      43.417  29.151  35.134  1.00  0.00     0.031 A 
ATOM     50  C   UNL A   1      38.155  32.044  31.546  1.00  0.00     0.031 A 
ATOM     51  C   UNL A   1      42.748  30.234  35.803  1.00  0.00     0.049 A 
ATOM     52  C   UNL A   1      38.504  32.494  32.939  1.00  0.00     0.074 A 
ATOM     53  C   UNL A   1      43.026  30.782  37.043  1.00  0.00     0.029 A 
ATOM     54  N   UNL A   1      41.662  30.929  35.295  1.00  0.00    -0.354 N 
ATOM     55  N   UNL A   1      39.467  32.072  33.725  1.00  0.00    -0.248 NA
ATOM     56  C   UNL A   1      37.675  33.559  33.521  1.00  0.00     0.031 C 
ATOM     57  C   UNL A   1      42.074  31.773  37.307  1.00  0.00     0.029 A 
ATOM     58  C   UNL A   1      41.240  31.883  36.206  1.00  0.00     0.049 A 
ATOM     59  H   UNL A   1      41.250  30.768  34.415  1.00  0.00     0.167 HD
ATOM     60  C   UNL A   1      39.375  32.838  34.883  1.00  0.00     0.074 A 
ATOM     61  C   UNL A   1      38.271  33.756  34.690  1.00  0.00     0.031 C 
ATOM     62  C   UNL A   1      40.138  32.789  36.002  1.00  0.00     0.031 A 
BRANCH  49  63
ATOM     63  C   UNL A   1      44.548  28.459  35.847  1.00  0.00    -0.014 A 
ATOM     64  C   UNL A   1      44.314  27.348  36.678  1.00  0.00     0.010 A 
ATOM     65  C   UNL A   1      45.869  28.907  35.659  1.00  0.00     0.010 A 
ATOM     66  C   UNL A   1      45.376  26.724  37.338  1.00  0.00     0.020 A 
ATOM     67  C   UNL A   1      46.936  28.269  36.297  1.00  0.00     0.020 A 
ATOM     68  C   UNL A   1      46.680  27.192  37.147  1.00  0.00     0.054 A 
BRANCH  68  69
ATOM     69  S   UNL A   1      48.042  26.354  38.005  1.00  0.00     0.124 S 
ATOM     70  O   UNL A   1      49.212  26.955  37.370  1.00  0.00    -0.237 OA
ATOM     71  O   UNL A   1      47.823  26.731  39.399  1.00  0.00    -0.237 OA
ATOM     72  O   UNL A   1      47.826  24.942  37.703  1.00  0.00    -0.744 OA
ENDBRANCH  68  69
ENDBRANCH  49  63
BRANCH  50  73
ATOM     73  C   UNL A   1      37.011  32.653  30.813  1.00  0.00    -0.014 A 
ATOM     74  C   UNL A   1      37.228  33.627  29.825  1.00  0.00     0.010 A 
ATOM     75  C   UNL A   1      35.693  32.252  31.102  1.00  0.00     0.010 A 
ATOM     76  C   UNL A   1      36.148  34.199  29.145  1.00  0.00     0.020 A 
ATOM     77  C   UNL A   1      34.613  32.802  30.407  1.00  0.00     0.020 A 
ATOM     78  C   UNL A   1      34.847  33.780  29.440  1.00  0.00     0.054 A 
BRANCH  78  79
ATOM     79  S   UNL A   1      33.464  34.492  28.506  1.00  0.00     0.124 S 
ATOM     80  O   UNL A   1      34.107  35.601  27.810  1.00  0.00    -0.237 OA
ATOM     81  O   UNL A   1      33.041  33.374  27.667  1.00  0.00    -0.237 OA
ATOM     82  O   UNL A   1      32.511  34.873  29.546  1.00  0.00    -0.744 OA
ENDBRANCH  78  79
ENDBRANCH  50  73
BRANCH  62  83
ATOM     83  C   UNL A   1      39.831  33.775  37.098  1.00  0.00    -0.014 A 
ATOM     84  C   UNL A   1      39.081  33.402  38.227  1.00  0.00     0.010 A 
ATOM     85  C   UNL A   1      40.352  35.080  37.022  1.00  0.00     0.010 A 
ATOM     86  C   UNL A   1      38.833  34.327  39.247  1.00  0.00     0.020 A 
ATOM     87  C   UNL A   1      40.127  35.999  38.051  1.00  0.00     0.020 A 
ATOM     88  C   UNL A   1      39.357  35.619  39.151  1.00  0.00     0.054 A 
BRANCH  88  89
ATOM     89  S   UNL A   1      39.057  36.788  40.507  1.00  0.00     0.124 S 
ATOM     90  O   UNL A   1      40.393  36.942  41.076  1.00  0.00    -0.237 OA
ATOM     91  O   UNL A   1      38.532  37.958  39.810  1.00  0.00    -0.237 OA
ATOM     92  O   UNL A   1      38.094  36.092  41.357  1.00  0.00    -0.744 OA
ENDBRANCH  88  89
ENDBRANCH  62  83
ENDBRANCH  36  37
ENDBRANCH  29  31
ENDBRANCH  28  29
ENDBRANCH  27  28
ENDBRANCH   1  27
TORSDOF 19
ENDMDL
MODEL 3
REMARK VINA RESULT:     -10.3      1.932      8.868
REMARK SMILES Cc1cc(NC(=O)c2ccc3ncsc3c2)sc1C(=O)OCCOCCOC(=O)c1ccc(-c2c3nc(c(-c4ccc(S(=O)(=O)[O-])cc4)c4ccc([nH]4)c(-c4ccc(S(=O)(=O)[O-])cc4)c4nc(c(-c5ccc(S(=O)(=O)[O-])cc5)c5ccc2[nH]5)C=C4)C=C3)cc1
REMARK SMILES IDX 25 1 24 2 23 3 22 4 21 5 19 6 20 7 18 8 1 9 2 10 3 11 4 12
REMARK SMILES IDX 17 13 5 14 6 15 7 17 8 18 9 19 16 20 10 21 15 22 11 23 14 24
REMARK SMILES IDX 12 25 13 26 26 27 27 28 28 29 29 30 30 31 31 32 89 33 32 34
REMARK SMILES IDX 88 35 33 36 34 37 35 38 82 39 36 40 87 41 81 42 83 43 37 44
REMARK SMILES IDX 86 45 80 46 79 47 38 49 68 50 49 51 67 52 50 53 53 54 66 55
REMARK SMILES IDX 84 56 51 57 52 58 65 60 85 61 54 62 39 63 40 64 48 65 41 66
REMARK SMILES IDX 47 67 42 68 43 69 44 70 45 71 46 72 69 73 70 74 78 75 71 76
REMARK SMILES IDX 77 77 72 78 73 79 74 80 75 81 76 82 55 83 56 84 64 85 57 86
REMARK SMILES IDX 63 87 58 88 59 89 60 90 61 91 62 92
REMARK H PARENT 5 16 83 48 53 59
REMARK Flexibility Score: inf
ROOT
ATOM      1  C   UNL A   1      38.685  21.873  26.056  1.00  0.00     0.202 C 
ENDROOT
BRANCH   1   2
ATOM      2  O   UNL A   1      37.787  22.395  25.076  1.00  0.00    -0.374 OA
BRANCH   2   3
ATOM      3  C   UNL A   1      36.483  22.767  25.536  1.00  0.00     0.202 C 
BRANCH   3   4
ATOM      4  C   UNL A   1      35.403  21.710  25.289  1.00  0.00     0.261 C 
BRANCH   4   5
ATOM      5  O   UNL A   1      34.149  22.197  25.792  1.00  0.00    -0.459 OA
BRANCH   5   6
ATOM      6  C   UNL A   1      33.330  22.814  24.900  1.00  0.00     0.348 C 
ATOM      7  O   UNL A   1      32.993  22.329  23.825  1.00  0.00    -0.245 OA
BRANCH   6   8
ATOM      8  C   UNL A   1      32.825  24.054  25.473  1.00  0.00     0.117 A 
ATOM      9  C   UNL A   1      30.524  23.423  26.500  1.00  0.00     0.046 C 
ATOM     10  C   UNL A   1      31.626  24.363  26.116  1.00  0.00    -0.023 A 
ATOM     11  C   UNL A   1      31.562  25.763  26.428  1.00  0.00     0.042 A 
ATOM     12  C   UNL A   1      32.739  26.414  26.165  1.00  0.00     0.096 A 
ATOM     13  S   UNL A   1      33.813  25.458  25.283  1.00  0.00    -0.111 S 
BRANCH  12  14
ATOM     14  N   UNL A   1      33.219  27.661  26.481  1.00  0.00    -0.314 N 
ATOM     15  C   UNL A   1      33.069  28.818  25.744  1.00  0.00     0.256 C 
ATOM     16  H   UNL A   1      33.723  27.739  27.322  1.00  0.00     0.171 HD
ATOM     17  O   UNL A   1      33.715  29.828  26.010  1.00  0.00    -0.269 OA
BRANCH  15  18
ATOM     18  C   UNL A   1      32.067  28.878  24.653  1.00  0.00     0.041 A 
ATOM     19  C   UNL A   1      32.237  28.115  23.491  1.00  0.00     0.016 A 
ATOM     20  C   UNL A   1      30.986  29.755  24.794  1.00  0.00     0.035 A 
ATOM     21  C   UNL A   1      31.392  28.307  22.396  1.00  0.00     0.030 A 
ATOM     22  C   UNL A   1      30.147  29.934  23.682  1.00  0.00     0.055 A 
ATOM     23  C   UNL A   1      30.342  29.244  22.481  1.00  0.00     0.081 A 
ATOM     24  S   UNL A   1      28.791  30.985  23.505  1.00  0.00    -0.122 S 
ATOM     25  N   UNL A   1      29.469  29.568  21.460  1.00  0.00    -0.245 NA
ATOM     26  C   UNL A   1      28.622  30.480  21.878  1.00  0.00     0.176 A 
ENDBRANCH  15  18
ENDBRANCH  12  14
ENDBRANCH   6   8
ENDBRANCH   5   6
ENDBRANCH   4   5
ENDBRANCH   3   4
ENDBRANCH   2   3
ENDBRANCH   1   2
BRANCH   1  27
ATOM     27  C   UNL A   1      39.240  20.475  25.767  1.00  0.00     0.261 C 
BRANCH  27  28
ATOM     28  O   UNL A   1      40.160  20.051  26.789  1.00  0.00    -0.460 OA
BRANCH  28  29
ATOM     29  C   UNL A   1      41.415  19.794  26.346  1.00  0.00     0.338 C 
ATOM     30  O   UNL A   1      41.801  18.791  25.772  1.00  0.00    -0.246 OA
BRANCH  29  31
ATOM     31  C   UNL A   1      42.257  20.997  26.501  1.00  0.00     0.060 A 
ATOM     32  C   UNL A   1      42.522  21.433  27.805  1.00  0.00     0.016 A 
ATOM     33  C   UNL A   1      42.728  21.722  25.402  1.00  0.00     0.016 A 
ATOM     34  C   UNL A   1      43.218  22.621  28.017  1.00  0.00     0.010 A 
ATOM     35  C   UNL A   1      43.423  22.917  25.618  1.00  0.00     0.010 A 
ATOM     36  C   UNL A   1      43.641  23.390  26.925  1.00  0.00    -0.014 A 
BRANCH  36  37
ATOM     37  C   UNL A   1      44.195  24.746  27.155  1.00  0.00     0.031 A 
ATOM     38  C   UNL A   1      43.273  25.850  27.596  1.00  0.00     0.074 A 
ATOM     39  C   UNL A   1      45.510  24.986  27.000  1.00  0.00     0.049 A 
ATOM     40  N   UNL A   1      43.544  27.107  27.838  1.00  0.00    -0.248 NA
ATOM     41  C   UNL A   1      41.859  25.490  27.791  1.00  0.00     0.031 C 
ATOM     42  C   UNL A   1      46.512  23.992  26.615  1.00  0.00     0.029 A 
ATOM     43  N   UNL A   1      46.227  26.146  27.149  1.00  0.00    -0.354 N 
ATOM     44  C   UNL A   1      42.338  27.689  28.208  1.00  0.00     0.074 A 
ATOM     45  C   UNL A   1      41.328  26.655  28.130  1.00  0.00     0.031 C 
ATOM     46  C   UNL A   1      47.715  24.588  26.551  1.00  0.00     0.029 A 
ATOM     47  C   UNL A   1      47.564  26.009  26.861  1.00  0.00     0.049 A 
ATOM     48  H   UNL A   1      45.822  26.997  27.435  1.00  0.00     0.167 HD
ATOM     49  C   UNL A   1      42.093  28.967  28.585  1.00  0.00     0.031 A 
ATOM     50  C   UNL A   1      48.550  26.927  26.832  1.00  0.00     0.031 A 
ATOM     51  C   UNL A   1      43.095  29.997  28.650  1.00  0.00     0.049 A 
ATOM     52  C   UNL A   1      48.241  28.357  27.188  1.00  0.00     0.074 A 
ATOM     53  C   UNL A   1      42.946  31.319  29.033  1.00  0.00     0.029 A 
ATOM     54  N   UNL A   1      44.429  29.826  28.317  1.00  0.00    -0.354 N 
ATOM     55  N   UNL A   1      47.099  28.886  27.557  1.00  0.00    -0.248 NA
ATOM     56  C   UNL A   1      49.357  29.312  27.130  1.00  0.00     0.031 C 
ATOM     57  C   UNL A   1      44.180  31.960  28.880  1.00  0.00     0.029 A 
ATOM     58  C   UNL A   1      45.110  31.023  28.459  1.00  0.00     0.049 A 
ATOM     59  H   UNL A   1      44.833  28.978  28.022  1.00  0.00     0.167 HD
ATOM     60  C   UNL A   1      47.365  30.230  27.802  1.00  0.00     0.074 A 
ATOM     61  C   UNL A   1      48.777  30.429  27.550  1.00  0.00     0.031 C 
ATOM     62  C   UNL A   1      46.517  31.208  28.203  1.00  0.00     0.031 A 
BRANCH  49  63
ATOM     63  C   UNL A   1      40.672  29.329  28.926  1.00  0.00    -0.014 A 
ATOM     64  C   UNL A   1      39.696  29.473  27.923  1.00  0.00     0.010 A 
ATOM     65  C   UNL A   1      40.299  29.496  30.273  1.00  0.00     0.010 A 
ATOM     66  C   UNL A   1      38.384  29.818  28.258  1.00  0.00     0.020 A 
ATOM     67  C   UNL A   1      38.981  29.815  30.613  1.00  0.00     0.020 A 
ATOM     68  C   UNL A   1      38.036  29.991  29.602  1.00  0.00     0.054 A 
BRANCH  68  69
ATOM     69  S   UNL A   1      36.322  30.424  30.010  1.00  0.00     0.124 S 
ATOM     70  O   UNL A   1      36.117  29.691  31.257  1.00  0.00    -0.237 OA
ATOM     71  O   UNL A   1      36.380  31.877  30.140  1.00  0.00    -0.237 OA
ATOM     72  O   UNL A   1      35.558  29.933  28.867  1.00  0.00    -0.744 OA
ENDBRANCH  68  69
ENDBRANCH  49  63
BRANCH  50  73
ATOM     73  C   UNL A   1      49.926  26.522  26.432  1.00  0.00    -0.014 A 
ATOM     74  C   UNL A   1      50.339  26.609  25.092  1.00  0.00     0.010 A 
ATOM     75  C   UNL A   1      50.833  26.051  27.399  1.00  0.00     0.010 A 
ATOM     76  C   UNL A   1      51.631  26.221  24.723  1.00  0.00     0.020 A 
ATOM     77  C   UNL A   1      52.133  25.688  27.039  1.00  0.00     0.020 A 
ATOM     78  C   UNL A   1      52.521  25.765  25.701  1.00  0.00     0.054 A 
BRANCH  78  79
ATOM     79  S   UNL A   1      54.210  25.323  25.210  1.00  0.00     0.124 S 
ATOM     80  O   UNL A   1      54.067  23.913  24.866  1.00  0.00    -0.237 OA
ATOM     81  O   UNL A   1      54.461  26.228  24.091  1.00  0.00    -0.237 OA
ATOM     82  O   UNL A   1      54.997  25.598  26.411  1.00  0.00    -0.744 OA
ENDBRANCH  78  79
ENDBRANCH  50  73
BRANCH  62  83
ATOM     83  C   UNL A   1      47.094  32.581  28.428  1.00  0.00    -0.014 A 
ATOM     84  C   UNL A   1      47.645  32.947  29.669  1.00  0.00     0.010 A 
ATOM     85  C   UNL A   1      47.137  33.499  27.361  1.00  0.00     0.010 A 
ATOM     86  C   UNL A   1      48.201  34.218  29.847  1.00  0.00     0.020 A 
ATOM     87  C   UNL A   1      47.716  34.760  27.529  1.00  0.00     0.020 A 
ATOM     88  C   UNL A   1      48.233  35.116  28.776  1.00  0.00     0.054 A 
BRANCH  88  89
ATOM     89  S   UNL A   1      48.999  36.742  29.020  1.00  0.00     0.124 S 
ATOM     90  O   UNL A   1      48.943  37.309  27.676  1.00  0.00    -0.237 OA
ATOM     91  O   UNL A   1      48.118  37.367  30.002  1.00  0.00    -0.237 OA
ATOM     92  O   UNL A   1      50.339  36.425  29.507  1.00  0.00    -0.744 OA
ENDBRANCH  88  89
ENDBRANCH  62  83
ENDBRANCH  36  37
ENDBRANCH  29  31
ENDBRANCH  28  29
ENDBRANCH  27  28
ENDBRANCH   1  27
TORSDOF 19
ENDMDL
