MODEL 1
REMARK VINA RESULT:     -11.4      0.000      0.000
REMARK SMILES Cc1cc(C(=O)OCCOCCOC(=O)c2ccc(-c3c4nc(c(-c5ccc(S(=O)(=O)[O-])cc5)c5ccc([nH]5)c(-c5ccc(S(=O)(=O)[O-])cc5)c5nc(c(-c6ccc(S(=O)(=O)[O-])cc6)c6ccc3[nH]6)C=C5)C=C4)cc2)ccc1NS(=O)(=O)c1c(F)cccc1F
REMARK SMILES IDX 10 1 9 2 8 3 7 4 5 5 6 6 4 7 1 8 2 9 3 10 78 11 77 12 76 13
REMARK SMILES IDX 79 14 80 16 81 17 82 18 83 19 84 20 89 21 85 22 86 23 88 24
REMARK SMILES IDX 90 25 87 26 11 27 12 28 13 29 14 30 15 31 16 32 17 33 75 34
REMARK SMILES IDX 18 35 74 36 19 37 20 38 21 39 68 40 22 41 73 42 67 43 69 44
REMARK SMILES IDX 23 45 72 46 66 47 65 48 24 50 54 51 35 52 53 53 36 54 39 55
REMARK SMILES IDX 52 56 70 57 37 58 38 59 51 61 71 62 40 63 25 64 26 65 34 66
REMARK SMILES IDX 27 67 33 68 28 69 29 70 30 71 31 72 32 73 55 74 56 75 64 76
REMARK SMILES IDX 57 77 63 78 58 79 59 80 60 81 61 82 62 83 41 84 42 85 50 86
REMARK SMILES IDX 43 87 49 88 44 89 45 90 46 91 47 92 48 93
REMARK H PARENT 79 15 69 49 39 60
REMARK Flexibility Score: inf
ROOT
ATOM      1  O   UNL A   1      32.192  27.997  26.229  1.00  0.00    -0.374 OA
ENDROOT
BRANCH   1   2
ATOM      2  C   UNL A   1      31.000  27.234  26.347  1.00  0.00     0.202 C 
BRANCH   2   3
ATOM      3  C   UNL A   1      30.703  26.746  24.965  1.00  0.00     0.261 C 
BRANCH   3   4
ATOM      4  O   UNL A   1      31.886  26.340  24.226  1.00  0.00    -0.460 OA
BRANCH   4   5
ATOM      5  C   UNL A   1      32.197  25.024  24.026  1.00  0.00     0.338 C 
ATOM      6  O   UNL A   1      31.868  24.265  23.157  1.00  0.00    -0.246 OA
BRANCH   5   7
ATOM      7  C   UNL A   1      33.227  24.700  25.029  1.00  0.00     0.060 A 
ATOM      8  C   UNL A   1      33.353  22.211  27.845  1.00  0.00     0.046 C 
ATOM      9  C   UNL A   1      33.810  23.116  26.739  1.00  0.00    -0.026 A 
ATOM     10  C   UNL A   1      32.842  23.881  26.086  1.00  0.00     0.021 A 
ATOM     11  C   UNL A   1      35.137  23.190  26.277  1.00  0.00     0.052 A 
ATOM     12  C   UNL A   1      35.537  24.286  25.512  1.00  0.00     0.028 A 
ATOM     13  C   UNL A   1      34.571  25.009  24.825  1.00  0.00     0.018 A 
BRANCH  11  14
ATOM     14  N   UNL A   1      35.934  22.008  26.369  1.00  0.00    -0.279 N 
ATOM     15  H   UNL A   1      35.869  21.495  27.207  1.00  0.00     0.180 HD
BRANCH  14  16
ATOM     16  S   UNL A   1      36.971  21.407  25.197  1.00  0.00     0.267 S 
ATOM     17  O   UNL A   1      36.575  20.028  24.996  1.00  0.00    -0.201 OA
ATOM     18  O   UNL A   1      36.912  22.359  24.105  1.00  0.00    -0.201 OA
BRANCH  16  19
ATOM     19  C   UNL A   1      38.635  21.405  25.768  1.00  0.00     0.158 A 
ATOM     20  C   UNL A   1      39.325  20.197  25.719  1.00  0.00     0.146 A 
ATOM     21  C   UNL A   1      39.230  22.491  26.392  1.00  0.00     0.146 A 
ATOM     22  F   UNL A   1      38.840  19.148  25.041  1.00  0.00    -0.205 F 
ATOM     23  C   UNL A   1      40.548  20.039  26.369  1.00  0.00     0.041 A 
ATOM     24  C   UNL A   1      40.444  22.338  27.075  1.00  0.00     0.041 A 
ATOM     25  F   UNL A   1      38.647  23.697  26.400  1.00  0.00    -0.205 F 
ATOM     26  C   UNL A   1      41.096  21.103  27.080  1.00  0.00     0.006 A 
ENDBRANCH  16  19
ENDBRANCH  14  16
ENDBRANCH  11  14
ENDBRANCH   5   7
ENDBRANCH   4   5
ENDBRANCH   3   4
ENDBRANCH   2   3
ENDBRANCH   1   2
BRANCH   1  27
ATOM     27  C   UNL A   1      32.360  29.020  27.179  1.00  0.00     0.202 C 
BRANCH  27  28
ATOM     28  C   UNL A   1      33.452  30.020  26.793  1.00  0.00     0.261 C 
BRANCH  28  29
ATOM     29  O   UNL A   1      33.692  30.975  27.850  1.00  0.00    -0.460 OA
BRANCH  29  30
ATOM     30  C   UNL A   1      34.915  31.587  27.850  1.00  0.00     0.338 C 
ATOM     31  O   UNL A   1      35.081  32.762  27.574  1.00  0.00    -0.246 OA
BRANCH  30  32
ATOM     32  C   UNL A   1      35.972  30.656  28.334  1.00  0.00     0.060 A 
ATOM     33  C   UNL A   1      35.989  30.166  29.653  1.00  0.00     0.016 A 
ATOM     34  C   UNL A   1      37.049  30.398  27.495  1.00  0.00     0.016 A 
ATOM     35  C   UNL A   1      37.148  29.554  30.171  1.00  0.00     0.010 A 
ATOM     36  C   UNL A   1      38.208  29.886  28.032  1.00  0.00     0.010 A 
ATOM     37  C   UNL A   1      38.289  29.480  29.376  1.00  0.00    -0.014 A 
BRANCH  37  38
ATOM     38  C   UNL A   1      39.642  29.071  29.780  1.00  0.00     0.031 A 
ATOM     39  C   UNL A   1      40.123  27.747  29.308  1.00  0.00     0.074 A 
ATOM     40  C   UNL A   1      40.543  29.977  30.244  1.00  0.00     0.049 A 
ATOM     41  N   UNL A   1      41.280  27.268  29.589  1.00  0.00    -0.248 NA
ATOM     42  C   UNL A   1      39.331  26.821  28.490  1.00  0.00     0.031 C 
ATOM     43  C   UNL A   1      42.004  29.963  30.122  1.00  0.00     0.029 A 
ATOM     44  N   UNL A   1      40.321  31.165  30.941  1.00  0.00    -0.354 N 
ATOM     45  C   UNL A   1      41.518  26.206  28.751  1.00  0.00     0.074 A 
ATOM     46  C   UNL A   1      40.241  25.897  28.164  1.00  0.00     0.031 C 
ATOM     47  C   UNL A   1      42.539  30.895  30.933  1.00  0.00     0.029 A 
ATOM     48  C   UNL A   1      41.451  31.480  31.699  1.00  0.00     0.049 A 
ATOM     49  H   UNL A   1      39.494  31.699  30.903  1.00  0.00     0.167 HD
ATOM     50  C   UNL A   1      42.808  25.806  28.582  1.00  0.00     0.031 A 
ATOM     51  C   UNL A   1      41.342  31.601  33.049  1.00  0.00     0.031 A 
ATOM     52  C   UNL A   1      43.687  26.499  29.534  1.00  0.00     0.049 A 
ATOM     53  C   UNL A   1      42.092  30.443  33.641  1.00  0.00     0.074 A 
ATOM     54  C   UNL A   1      44.620  27.513  29.410  1.00  0.00     0.029 A 
ATOM     55  N   UNL A   1      43.400  26.397  30.896  1.00  0.00    -0.354 N 
ATOM     56  N   UNL A   1      42.301  29.339  32.972  1.00  0.00    -0.248 NA
ATOM     57  C   UNL A   1      42.797  30.474  34.915  1.00  0.00     0.031 C 
ATOM     58  C   UNL A   1      44.790  28.100  30.703  1.00  0.00     0.029 A 
ATOM     59  C   UNL A   1      43.992  27.419  31.613  1.00  0.00     0.049 A 
ATOM     60  H   UNL A   1      42.846  25.686  31.295  1.00  0.00     0.167 HD
ATOM     61  C   UNL A   1      43.250  28.607  33.605  1.00  0.00     0.074 A 
ATOM     62  C   UNL A   1      43.479  29.315  34.856  1.00  0.00     0.031 C 
ATOM     63  C   UNL A   1      43.821  27.496  33.062  1.00  0.00     0.031 A 
BRANCH  50  64
ATOM     64  C   UNL A   1      43.312  24.923  27.462  1.00  0.00    -0.014 A 
ATOM     65  C   UNL A   1      43.764  23.622  27.765  1.00  0.00     0.010 A 
ATOM     66  C   UNL A   1      43.445  25.323  26.115  1.00  0.00     0.010 A 
ATOM     67  C   UNL A   1      44.309  22.772  26.789  1.00  0.00     0.020 A 
ATOM     68  C   UNL A   1      43.966  24.476  25.122  1.00  0.00     0.020 A 
ATOM     69  C   UNL A   1      44.402  23.203  25.468  1.00  0.00     0.054 A 
BRANCH  69  70
ATOM     70  S   UNL A   1      45.105  22.093  24.220  1.00  0.00     0.124 S 
ATOM     71  O   UNL A   1      44.154  22.220  23.118  1.00  0.00    -0.237 OA
ATOM     72  O   UNL A   1      46.423  22.674  23.985  1.00  0.00    -0.237 OA
ATOM     73  O   UNL A   1      45.114  20.787  24.878  1.00  0.00    -0.744 OA
ENDBRANCH  69  70
ENDBRANCH  50  64
BRANCH  51  74
ATOM     74  C   UNL A   1      40.045  32.239  33.462  1.00  0.00    -0.014 A 
ATOM     75  C   UNL A   1      39.842  33.578  33.042  1.00  0.00     0.010 A 
ATOM     76  C   UNL A   1      38.905  31.460  33.740  1.00  0.00     0.010 A 
ATOM     77  C   UNL A   1      38.558  34.064  32.748  1.00  0.00     0.020 A 
ATOM     78  C   UNL A   1      37.616  31.941  33.429  1.00  0.00     0.020 A 
ATOM     79  C   UNL A   1      37.457  33.219  32.885  1.00  0.00     0.054 A 
BRANCH  79  80
ATOM     80  S   UNL A   1      35.891  33.700  32.068  1.00  0.00     0.124 S 
ATOM     81  O   UNL A   1      36.272  33.744  30.662  1.00  0.00    -0.237 OA
ATOM     82  O   UNL A   1      34.990  32.609  32.441  1.00  0.00    -0.237 OA
ATOM     83  O   UNL A   1      35.573  34.983  32.683  1.00  0.00    -0.744 OA
ENDBRANCH  79  80
ENDBRANCH  51  74
BRANCH  63  84
ATOM     84  C   UNL A   1      44.313  26.380  33.928  1.00  0.00    -0.014 A 
ATOM     85  C   UNL A   1      45.661  25.983  33.937  1.00  0.00     0.010 A 
ATOM     86  C   UNL A   1      43.458  25.823  34.901  1.00  0.00     0.010 A 
ATOM     87  C   UNL A   1      46.111  24.989  34.799  1.00  0.00     0.020 A 
ATOM     88  C   UNL A   1      43.916  24.879  35.816  1.00  0.00     0.020 A 
ATOM     89  C   UNL A   1      45.231  24.436  35.724  1.00  0.00     0.054 A 
BRANCH  89  90
ATOM     90  S   UNL A   1      45.834  23.138  36.819  1.00  0.00     0.124 S 
ATOM     91  O   UNL A   1      47.280  23.294  36.685  1.00  0.00    -0.237 OA
ATOM     92  O   UNL A   1      45.280  23.525  38.116  1.00  0.00    -0.237 OA
ATOM     93  O   UNL A   1      45.275  21.917  36.249  1.00  0.00    -0.744 OA
ENDBRANCH  89  90
ENDBRANCH  63  84
ENDBRANCH  37  38
ENDBRANCH  30  32
ENDBRANCH  29  30
ENDBRANCH  28  29
ENDBRANCH  27  28
ENDBRANCH   1  27
TORSDOF 20
ENDMDL
MODEL 2
REMARK VINA RESULT:     -11.3      3.959     10.337
REMARK SMILES Cc1cc(C(=O)OCCOCCOC(=O)c2ccc(-c3c4nc(c(-c5ccc(S(=O)(=O)[O-])cc5)c5ccc([nH]5)c(-c5ccc(S(=O)(=O)[O-])cc5)c5nc(c(-c6ccc(S(=O)(=O)[O-])cc6)c6ccc3[nH]6)C=C5)C=C4)cc2)ccc1NS(=O)(=O)c1c(F)cccc1F
REMARK SMILES IDX 10 1 9 2 8 3 7 4 5 5 6 6 4 7 1 8 2 9 3 10 78 11 77 12 76 13
REMARK SMILES IDX 79 14 80 16 81 17 82 18 83 19 84 20 89 21 85 22 86 23 88 24
REMARK SMILES IDX 90 25 87 26 11 27 12 28 13 29 14 30 15 31 16 32 17 33 75 34
REMARK SMILES IDX 18 35 74 36 19 37 20 38 21 39 68 40 22 41 73 42 67 43 69 44
REMARK SMILES IDX 23 45 72 46 66 47 65 48 24 50 54 51 35 52 53 53 36 54 39 55
REMARK SMILES IDX 52 56 70 57 37 58 38 59 51 61 71 62 40 63 25 64 26 65 34 66
REMARK SMILES IDX 27 67 33 68 28 69 29 70 30 71 31 72 32 73 55 74 56 75 64 76
REMARK SMILES IDX 57 77 63 78 58 79 59 80 60 81 61 82 62 83 41 84 42 85 50 86
REMARK SMILES IDX 43 87 49 88 44 89 45 90 46 91 47 92 48 93
REMARK H PARENT 79 15 69 49 39 60
REMARK Flexibility Score: inf
ROOT
ATOM      1  O   UNL A   1      33.697  20.911  25.900  1.00  0.00    -0.374 OA
ENDROOT
BRANCH   1   2
ATOM      2  C   UNL A   1      33.188  20.487  24.644  1.00  0.00     0.202 C 
BRANCH   2   3
ATOM      3  C   UNL A   1      32.082  21.442  24.322  1.00  0.00     0.261 C 
BRANCH   3   4
ATOM      4  O   UNL A   1      32.460  22.837  24.463  1.00  0.00    -0.460 OA
BRANCH   4   5
ATOM      5  C   UNL A   1      33.026  23.540  23.435  1.00  0.00     0.338 C 
ATOM      6  O   UNL A   1      32.897  23.430  22.247  1.00  0.00    -0.246 OA
BRANCH   5   7
ATOM      7  C   UNL A   1      33.741  24.663  24.066  1.00  0.00     0.060 A 
ATOM      8  C   UNL A   1      33.847  28.351  23.338  1.00  0.00     0.046 C 
ATOM      9  C   UNL A   1      33.899  27.060  24.101  1.00  0.00    -0.026 A 
ATOM     10  C   UNL A   1      33.739  25.875  23.382  1.00  0.00     0.021 A 
ATOM     11  C   UNL A   1      34.030  26.975  25.499  1.00  0.00     0.052 A 
ATOM     12  C   UNL A   1      34.421  25.768  26.080  1.00  0.00     0.028 A 
ATOM     13  C   UNL A   1      34.211  24.591  25.376  1.00  0.00     0.018 A 
BRANCH  11  14
ATOM     14  N   UNL A   1      33.482  28.040  26.279  1.00  0.00    -0.279 N 
ATOM     15  H   UNL A   1      34.125  28.658  26.698  1.00  0.00     0.180 HD
BRANCH  14  16
ATOM     16  S   UNL A   1      31.857  28.345  26.555  1.00  0.00     0.267 S 
ATOM     17  O   UNL A   1      31.588  27.845  27.888  1.00  0.00    -0.201 OA
ATOM     18  O   UNL A   1      31.668  29.747  26.240  1.00  0.00    -0.201 OA
BRANCH  16  19
ATOM     19  C   UNL A   1      30.847  27.440  25.434  1.00  0.00     0.158 A 
ATOM     20  C   UNL A   1      30.689  26.078  25.673  1.00  0.00     0.146 A 
ATOM     21  C   UNL A   1      30.334  27.979  24.263  1.00  0.00     0.146 A 
ATOM     22  F   UNL A   1      31.075  25.528  26.833  1.00  0.00    -0.205 F 
ATOM     23  C   UNL A   1      30.118  25.240  24.717  1.00  0.00     0.041 A 
ATOM     24  C   UNL A   1      29.786  27.144  23.280  1.00  0.00     0.041 A 
ATOM     25  F   UNL A   1      30.387  29.294  24.018  1.00  0.00    -0.205 F 
ATOM     26  C   UNL A   1      29.696  25.767  23.499  1.00  0.00     0.006 A 
ENDBRANCH  16  19
ENDBRANCH  14  16
ENDBRANCH  11  14
ENDBRANCH   5   7
ENDBRANCH   4   5
ENDBRANCH   3   4
ENDBRANCH   2   3
ENDBRANCH   1   2
BRANCH   1  27
ATOM     27  C   UNL A   1      35.088  21.102  25.963  1.00  0.00     0.202 C 
BRANCH  27  28
ATOM     28  C   UNL A   1      35.784  20.871  24.621  1.00  0.00     0.261 C 
BRANCH  28  29
ATOM     29  O   UNL A   1      37.006  21.636  24.519  1.00  0.00    -0.460 OA
BRANCH  29  30
ATOM     30  C   UNL A   1      38.079  21.165  25.223  1.00  0.00     0.338 C 
ATOM     31  O   UNL A   1      38.583  20.073  25.033  1.00  0.00    -0.246 OA
BRANCH  30  32
ATOM     32  C   UNL A   1      38.598  22.205  26.155  1.00  0.00     0.060 A 
ATOM     33  C   UNL A   1      38.056  23.502  26.204  1.00  0.00     0.016 A 
ATOM     34  C   UNL A   1      39.750  21.918  26.877  1.00  0.00     0.016 A 
ATOM     35  C   UNL A   1      38.753  24.542  26.851  1.00  0.00     0.010 A 
ATOM     36  C   UNL A   1      40.472  22.954  27.425  1.00  0.00     0.010 A 
ATOM     37  C   UNL A   1      40.005  24.279  27.401  1.00  0.00    -0.014 A 
BRANCH  37  38
ATOM     38  C   UNL A   1      40.974  25.247  27.936  1.00  0.00     0.031 A 
ATOM     39  C   UNL A   1      40.439  26.535  28.448  1.00  0.00     0.074 A 
ATOM     40  C   UNL A   1      42.232  24.866  28.282  1.00  0.00     0.049 A 
ATOM     41  N   UNL A   1      41.174  27.467  28.937  1.00  0.00    -0.248 NA
ATOM     42  C   UNL A   1      39.020  26.907  28.435  1.00  0.00     0.031 C 
ATOM     43  C   UNL A   1      43.102  25.417  29.325  1.00  0.00     0.029 A 
ATOM     44  N   UNL A   1      43.021  23.845  27.754  1.00  0.00    -0.354 N 
ATOM     45  C   UNL A   1      40.358  28.353  29.596  1.00  0.00     0.074 A 
ATOM     46  C   UNL A   1      39.024  28.027  29.165  1.00  0.00     0.031 C 
ATOM     47  C   UNL A   1      44.352  24.939  29.178  1.00  0.00     0.029 A 
ATOM     48  C   UNL A   1      44.371  24.142  27.962  1.00  0.00     0.049 A 
ATOM     49  H   UNL A   1      42.680  23.038  27.305  1.00  0.00     0.167 HD
ATOM     50  C   UNL A   1      40.927  29.177  30.518  1.00  0.00     0.031 A 
ATOM     51  C   UNL A   1      45.206  24.254  26.895  1.00  0.00     0.031 A 
ATOM     52  C   UNL A   1      42.391  29.074  30.461  1.00  0.00     0.049 A 
ATOM     53  C   UNL A   1      45.590  25.703  26.807  1.00  0.00     0.074 A 
ATOM     54  C   UNL A   1      43.342  28.494  31.282  1.00  0.00     0.029 A 
ATOM     55  N   UNL A   1      43.025  29.322  29.242  1.00  0.00    -0.354 N 
ATOM     56  N   UNL A   1      44.845  26.648  27.315  1.00  0.00    -0.248 NA
ATOM     57  C   UNL A   1      46.872  26.193  26.318  1.00  0.00     0.031 C 
ATOM     58  C   UNL A   1      44.516  28.281  30.494  1.00  0.00     0.029 A 
ATOM     59  C   UNL A   1      44.290  28.767  29.212  1.00  0.00     0.049 A 
ATOM     60  H   UNL A   1      42.622  29.828  28.500  1.00  0.00     0.167 HD
ATOM     61  C   UNL A   1      45.562  27.797  27.376  1.00  0.00     0.074 A 
ATOM     62  C   UNL A   1      46.799  27.490  26.672  1.00  0.00     0.031 C 
ATOM     63  C   UNL A   1      45.130  28.914  28.025  1.00  0.00     0.031 A 
BRANCH  50  64
ATOM     64  C   UNL A   1      40.179  29.949  31.583  1.00  0.00    -0.014 A 
ATOM     65  C   UNL A   1      40.345  29.587  32.936  1.00  0.00     0.010 A 
ATOM     66  C   UNL A   1      39.247  30.979  31.331  1.00  0.00     0.010 A 
ATOM     67  C   UNL A   1      39.631  30.213  33.972  1.00  0.00     0.020 A 
ATOM     68  C   UNL A   1      38.543  31.631  32.358  1.00  0.00     0.020 A 
ATOM     69  C   UNL A   1      38.736  31.238  33.676  1.00  0.00     0.054 A 
BRANCH  69  70
ATOM     70  S   UNL A   1      37.827  32.038  35.025  1.00  0.00     0.124 S 
ATOM     71  O   UNL A   1      37.778  30.985  36.036  1.00  0.00    -0.237 OA
ATOM     72  O   UNL A   1      38.677  33.180  35.345  1.00  0.00    -0.237 OA
ATOM     73  O   UNL A   1      36.538  32.376  34.424  1.00  0.00    -0.744 OA
ENDBRANCH  69  70
ENDBRANCH  50  64
BRANCH  51  74
ATOM     74  C   UNL A   1      44.886  23.261  25.813  1.00  0.00    -0.014 A 
ATOM     75  C   UNL A   1      45.985  22.783  25.054  1.00  0.00     0.010 A 
ATOM     76  C   UNL A   1      43.738  22.448  25.884  1.00  0.00     0.010 A 
ATOM     77  C   UNL A   1      46.001  21.480  24.533  1.00  0.00     0.020 A 
ATOM     78  C   UNL A   1      43.758  21.132  25.376  1.00  0.00     0.020 A 
ATOM     79  C   UNL A   1      44.909  20.640  24.752  1.00  0.00     0.054 A 
BRANCH  79  80
ATOM     80  S   UNL A   1      45.133  18.843  24.487  1.00  0.00     0.124 S 
ATOM     81  O   UNL A   1      46.383  18.577  25.187  1.00  0.00    -0.237 OA
ATOM     82  O   UNL A   1      43.933  18.278  25.107  1.00  0.00    -0.237 OA
ATOM     83  O   UNL A   1      45.176  18.722  23.034  1.00  0.00    -0.744 OA
ENDBRANCH  79  80
ENDBRANCH  51  74
BRANCH  63  84
ATOM     84  C   UNL A   1      45.537  30.279  27.568  1.00  0.00    -0.014 A 
ATOM     85  C   UNL A   1      46.866  30.727  27.655  1.00  0.00     0.010 A 
ATOM     86  C   UNL A   1      44.619  31.080  26.861  1.00  0.00     0.010 A 
ATOM     87  C   UNL A   1      47.237  31.973  27.162  1.00  0.00     0.020 A 
ATOM     88  C   UNL A   1      44.997  32.298  26.301  1.00  0.00     0.020 A 
ATOM     89  C   UNL A   1      46.295  32.755  26.500  1.00  0.00     0.054 A 
BRANCH  89  90
ATOM     90  S   UNL A   1      46.796  34.372  25.885  1.00  0.00     0.124 S 
ATOM     91  O   UNL A   1      48.196  34.133  25.544  1.00  0.00    -0.237 OA
ATOM     92  O   UNL A   1      45.901  34.578  24.747  1.00  0.00    -0.237 OA
ATOM     93  O   UNL A   1      46.566  35.260  27.020  1.00  0.00    -0.744 OA
ENDBRANCH  89  90
ENDBRANCH  63  84
ENDBRANCH  37  38
ENDBRANCH  30  32
ENDBRANCH  29  30
ENDBRANCH  28  29
ENDBRANCH  27  28
ENDBRANCH   1  27
TORSDOF 20
ENDMDL
MODEL 3
REMARK VINA RESULT:     -11.2      3.861     10.108
REMARK SMILES Cc1cc(C(=O)OCCOCCOC(=O)c2ccc(-c3c4nc(c(-c5ccc(S(=O)(=O)[O-])cc5)c5ccc([nH]5)c(-c5ccc(S(=O)(=O)[O-])cc5)c5nc(c(-c6ccc(S(=O)(=O)[O-])cc6)c6ccc3[nH]6)C=C5)C=C4)cc2)ccc1NS(=O)(=O)c1c(F)cccc1F
REMARK SMILES IDX 10 1 9 2 8 3 7 4 5 5 6 6 4 7 1 8 2 9 3 10 78 11 77 12 76 13
REMARK SMILES IDX 79 14 80 16 81 17 82 18 83 19 84 20 89 21 85 22 86 23 88 24
REMARK SMILES IDX 90 25 87 26 11 27 12 28 13 29 14 30 15 31 16 32 17 33 75 34
REMARK SMILES IDX 18 35 74 36 19 37 20 38 21 39 68 40 22 41 73 42 67 43 69 44
REMARK SMILES IDX 23 45 72 46 66 47 65 48 24 50 54 51 35 52 53 53 36 54 39 55
REMARK SMILES IDX 52 56 70 57 37 58 38 59 51 61 71 62 40 63 25 64 26 65 34 66
REMARK SMILES IDX 27 67 33 68 28 69 29 70 30 71 31 72 32 73 55 74 56 75 64 76
REMARK SMILES IDX 57 77 63 78 58 79 59 80 60 81 61 82 62 83 41 84 42 85 50 86
REMARK SMILES IDX 43 87 49 88 44 89 45 90 46 91 47 92 48 93
REMARK H PARENT 79 15 69 49 39 60
REMARK Flexibility Score: inf
ROOT
ATOM      1  O   UNL A   1      33.763  21.308  26.218  1.00  0.00    -0.374 OA
ENDROOT
BRANCH   1   2
ATOM      2  C   UNL A   1      33.125  20.915  25.011  1.00  0.00     0.202 C 
BRANCH   2   3
ATOM      3  C   UNL A   1      31.744  21.483  25.089  1.00  0.00     0.261 C 
BRANCH   3   4
ATOM      4  O   UNL A   1      31.718  22.906  25.379  1.00  0.00    -0.460 OA
BRANCH   4   5
ATOM      5  C   UNL A   1      31.205  23.396  26.548  1.00  0.00     0.338 C 
ATOM      6  O   UNL A   1      31.186  22.927  27.652  1.00  0.00    -0.246 OA
BRANCH   5   7
ATOM      7  C   UNL A   1      30.804  24.784  26.257  1.00  0.00     0.060 A 
ATOM      8  C   UNL A   1      32.219  28.115  27.279  1.00  0.00     0.046 C 
ATOM      9  C   UNL A   1      31.513  27.070  26.465  1.00  0.00    -0.026 A 
ATOM     10  C   UNL A   1      31.416  25.786  27.004  1.00  0.00     0.021 A 
ATOM     11  C   UNL A   1      31.007  27.286  25.171  1.00  0.00     0.052 A 
ATOM     12  C   UNL A   1      30.074  26.395  24.640  1.00  0.00     0.028 A 
ATOM     13  C   UNL A   1      30.021  25.104  25.150  1.00  0.00     0.018 A 
BRANCH  11  14
ATOM     14  N   UNL A   1      31.681  28.243  24.351  1.00  0.00    -0.279 N 
ATOM     15  H   UNL A   1      31.343  29.168  24.382  1.00  0.00     0.180 HD
BRANCH  14  16
ATOM     16  S   UNL A   1      32.985  27.952  23.339  1.00  0.00     0.267 S 
ATOM     17  O   UNL A   1      32.621  28.523  22.059  1.00  0.00    -0.201 OA
ATOM     18  O   UNL A   1      34.147  28.434  24.060  1.00  0.00    -0.201 OA
BRANCH  16  19
ATOM     19  C   UNL A   1      33.226  26.225  23.102  1.00  0.00     0.158 A 
ATOM     20  C   UNL A   1      34.010  25.556  24.037  1.00  0.00     0.146 A 
ATOM     21  C   UNL A   1      32.804  25.543  21.970  1.00  0.00     0.146 A 
ATOM     22  F   UNL A   1      34.358  26.136  25.194  1.00  0.00    -0.205 F 
ATOM     23  C   UNL A   1      34.456  24.256  23.803  1.00  0.00     0.041 A 
ATOM     24  C   UNL A   1      33.270  24.248  21.709  1.00  0.00     0.041 A 
ATOM     25  F   UNL A   1      31.983  26.113  21.078  1.00  0.00    -0.205 F 
ATOM     26  C   UNL A   1      34.115  23.609  22.619  1.00  0.00     0.006 A 
ENDBRANCH  16  19
ENDBRANCH  14  16
ENDBRANCH  11  14
ENDBRANCH   5   7
ENDBRANCH   4   5
ENDBRANCH   3   4
ENDBRANCH   2   3
ENDBRANCH   1   2
BRANCH   1  27
ATOM     27  C   UNL A   1      35.157  21.470  26.148  1.00  0.00     0.202 C 
BRANCH  27  28
ATOM     28  C   UNL A   1      35.744  21.026  24.807  1.00  0.00     0.261 C 
BRANCH  28  29
ATOM     29  O   UNL A   1      37.011  21.670  24.544  1.00  0.00    -0.460 OA
BRANCH  29  30
ATOM     30  C   UNL A   1      38.087  21.205  25.248  1.00  0.00     0.338 C 
ATOM     31  O   UNL A   1      38.599  20.117  25.056  1.00  0.00    -0.246 OA
BRANCH  30  32
ATOM     32  C   UNL A   1      38.596  22.247  26.184  1.00  0.00     0.060 A 
ATOM     33  C   UNL A   1      38.046  23.541  26.233  1.00  0.00     0.016 A 
ATOM     34  C   UNL A   1      39.746  21.965  26.911  1.00  0.00     0.016 A 
ATOM     35  C   UNL A   1      38.735  24.584  26.884  1.00  0.00     0.010 A 
ATOM     36  C   UNL A   1      40.459  23.005  27.464  1.00  0.00     0.010 A 
ATOM     37  C   UNL A   1      39.985  24.327  27.439  1.00  0.00    -0.014 A 
BRANCH  37  38
ATOM     38  C   UNL A   1      40.947  25.300  27.979  1.00  0.00     0.031 A 
ATOM     39  C   UNL A   1      40.406  26.596  28.464  1.00  0.00     0.074 A 
ATOM     40  C   UNL A   1      42.197  24.920  28.354  1.00  0.00     0.049 A 
ATOM     41  N   UNL A   1      41.134  27.532  28.955  1.00  0.00    -0.248 NA
ATOM     42  C   UNL A   1      38.988  26.971  28.419  1.00  0.00     0.031 C 
ATOM     43  C   UNL A   1      43.049  25.482  29.407  1.00  0.00     0.029 A 
ATOM     44  N   UNL A   1      42.994  23.890  27.855  1.00  0.00    -0.354 N 
ATOM     45  C   UNL A   1      40.307  28.429  29.586  1.00  0.00     0.074 A 
ATOM     46  C   UNL A   1      38.982  28.101  29.134  1.00  0.00     0.031 C 
ATOM     47  C   UNL A   1      44.300  25.000  29.289  1.00  0.00     0.029 A 
ATOM     48  C   UNL A   1      44.340  24.187  28.084  1.00  0.00     0.049 A 
ATOM     49  H   UNL A   1      42.658  23.078  27.410  1.00  0.00     0.167 HD
ATOM     50  C   UNL A   1      40.861  29.263  30.508  1.00  0.00     0.031 A 
ATOM     51  C   UNL A   1      45.196  24.283  27.032  1.00  0.00     0.031 A 
ATOM     52  C   UNL A   1      42.326  29.156  30.480  1.00  0.00     0.049 A 
ATOM     53  C   UNL A   1      45.585  25.729  26.932  1.00  0.00     0.074 A 
ATOM     54  C   UNL A   1      43.260  28.585  31.326  1.00  0.00     0.029 A 
ATOM     55  N   UNL A   1      42.984  29.387  29.271  1.00  0.00    -0.354 N 
ATOM     56  N   UNL A   1      44.833  26.683  27.413  1.00  0.00    -0.248 NA
ATOM     57  C   UNL A   1      46.877  26.210  26.461  1.00  0.00     0.031 C 
ATOM     58  C   UNL A   1      44.448  28.359  30.564  1.00  0.00     0.029 A 
ATOM     59  C   UNL A   1      44.248  28.828  29.272  1.00  0.00     0.049 A 
ATOM     60  H   UNL A   1      42.596  29.884  28.514  1.00  0.00     0.167 HD
ATOM     61  C   UNL A   1      45.551  27.831  27.473  1.00  0.00     0.074 A 
ATOM     62  C   UNL A   1      46.801  27.512  26.797  1.00  0.00     0.031 C 
ATOM     63  C   UNL A   1      45.110  28.957  28.099  1.00  0.00     0.031 A 
BRANCH  50  64
ATOM     64  C   UNL A   1      40.095  30.052  31.548  1.00  0.00    -0.014 A 
ATOM     65  C   UNL A   1      40.603  30.126  32.862  1.00  0.00     0.010 A 
ATOM     66  C   UNL A   1      38.847  30.674  31.334  1.00  0.00     0.010 A 
ATOM     67  C   UNL A   1      39.912  30.781  33.896  1.00  0.00     0.020 A 
ATOM     68  C   UNL A   1      38.155  31.353  32.352  1.00  0.00     0.020 A 
ATOM     69  C   UNL A   1      38.692  31.397  33.633  1.00  0.00     0.054 A 
BRANCH  69  70
ATOM     70  S   UNL A   1      37.816  32.241  34.976  1.00  0.00     0.124 S 
ATOM     71  O   UNL A   1      37.786  31.219  36.020  1.00  0.00    -0.237 OA
ATOM     72  O   UNL A   1      38.677  33.389  35.243  1.00  0.00    -0.237 OA
ATOM     73  O   UNL A   1      36.514  32.566  34.394  1.00  0.00    -0.744 OA
ENDBRANCH  69  70
ENDBRANCH  50  64
BRANCH  51  74
ATOM     74  C   UNL A   1      44.893  23.276  25.958  1.00  0.00    -0.014 A 
ATOM     75  C   UNL A   1      45.991  22.859  25.160  1.00  0.00     0.010 A 
ATOM     76  C   UNL A   1      43.794  22.402  26.063  1.00  0.00     0.010 A 
ATOM     77  C   UNL A   1      46.059  21.560  24.634  1.00  0.00     0.020 A 
ATOM     78  C   UNL A   1      43.868  21.091  25.550  1.00  0.00     0.020 A 
ATOM     79  C   UNL A   1      45.021  20.663  24.886  1.00  0.00     0.054 A 
BRANCH  79  80
ATOM     80  S   UNL A   1      45.332  18.881  24.606  1.00  0.00     0.124 S 
ATOM     81  O   UNL A   1      46.498  18.631  25.445  1.00  0.00    -0.237 OA
ATOM     82  O   UNL A   1      44.086  18.264  25.064  1.00  0.00    -0.237 OA
ATOM     83  O   UNL A   1      45.553  18.801  23.167  1.00  0.00    -0.744 OA
ENDBRANCH  79  80
ENDBRANCH  51  74
BRANCH  63  84
ATOM     84  C   UNL A   1      45.530  30.315  27.632  1.00  0.00    -0.014 A 
ATOM     85  C   UNL A   1      46.847  30.779  27.782  1.00  0.00     0.010 A 
ATOM     86  C   UNL A   1      44.645  31.089  26.856  1.00  0.00     0.010 A 
ATOM     87  C   UNL A   1      47.234  32.017  27.280  1.00  0.00     0.020 A 
ATOM     88  C   UNL A   1      45.042  32.297  26.288  1.00  0.00     0.020 A 
ATOM     89  C   UNL A   1      46.323  32.773  26.547  1.00  0.00     0.054 A 
BRANCH  89  90
ATOM     90  S   UNL A   1      46.843  34.380  25.921  1.00  0.00     0.124 S 
ATOM     91  O   UNL A   1      45.955  34.545  24.772  1.00  0.00    -0.237 OA
ATOM     92  O   UNL A   1      46.578  35.269  27.051  1.00  0.00    -0.237 OA
ATOM     93  O   UNL A   1      48.254  34.187  25.604  1.00  0.00    -0.744 OA
ENDBRANCH  89  90
ENDBRANCH  63  84
ENDBRANCH  37  38
ENDBRANCH  30  32
ENDBRANCH  29  30
ENDBRANCH  28  29
ENDBRANCH  27  28
ENDBRANCH   1  27
TORSDOF 20
ENDMDL
