MODEL 1
REMARK VINA RESULT:     -11.9      0.000      0.000
REMARK SMILES COc1cc(CC(=O)N2CCC[C@H]2C(=O)OCCOCCOC(=O)c2ccc(-c3c4nc(c(-c5ccc(S(=O)(=O)[O-])cc5)c5ccc([nH]5)c(-c5ccc(S(=O)(=O)[O-])cc5)c5nc(c(-c6ccc(S(=O)(=O)[O-])cc6)c6ccc3[nH]6)C=C5)C=C4)cc2)ccc1C
REMARK SMILES IDX 18 1 17 2 16 3 14 4 15 5 13 6 9 7 10 8 11 9 12 10 7 11 8 12
REMARK SMILES IDX 6 13 5 14 3 15 4 16 87 17 86 18 88 19 85 20 2 21 1 22 19 23
REMARK SMILES IDX 20 24 21 25 22 26 23 27 24 28 25 29 26 30 84 31 27 32 83 33
REMARK SMILES IDX 28 34 29 35 30 36 77 37 31 38 82 39 76 40 78 41 32 42 81 43
REMARK SMILES IDX 75 44 74 45 33 47 63 48 44 49 62 50 45 51 48 52 61 53 79 54
REMARK SMILES IDX 46 55 47 56 60 58 80 59 49 60 34 61 35 62 43 63 36 64 42 65
REMARK SMILES IDX 37 66 38 67 39 68 40 69 41 70 64 71 65 72 73 73 66 74 72 75
REMARK SMILES IDX 67 76 68 77 69 78 70 79 71 80 50 81 51 82 59 83 52 84 58 85
REMARK SMILES IDX 53 86 54 87 55 88 56 89 57 90
REMARK H PARENT 78 46 48 57
REMARK Flexibility Score: inf
ROOT
ATOM      1  C   UNL A   1      33.773  23.377  25.091  1.00  0.00     0.202 C 
ENDROOT
BRANCH   1   2
ATOM      2  C   UNL A   1      32.900  24.270  25.913  1.00  0.00     0.261 C 
BRANCH   2   3
ATOM      3  O   UNL A   1      33.226  25.633  25.617  1.00  0.00    -0.462 OA
BRANCH   3   4
ATOM      4  C   UNL A   1      32.498  26.601  26.239  1.00  0.00     0.328 C 
ATOM      5  O   UNL A   1      31.406  26.474  26.753  1.00  0.00    -0.250 OA
BRANCH   4   6
ATOM      6  C   UNL A   1      33.269  27.912  26.177  1.00  0.00     0.195 C 
ATOM      7  N   UNL A   1      32.767  28.751  25.087  1.00  0.00    -0.329 N 
ATOM      8  C   UNL A   1      31.877  29.756  25.638  1.00  0.00     0.120 C 
ATOM      9  C   UNL A   1      32.457  30.031  27.016  1.00  0.00     0.024 C 
ATOM     10  C   UNL A   1      33.000  28.687  27.476  1.00  0.00     0.039 C 
BRANCH   7  11
ATOM     11  C   UNL A   1      33.129  28.432  23.803  1.00  0.00     0.227 C 
ATOM     12  O   UNL A   1      34.315  28.570  23.460  1.00  0.00    -0.275 OA
BRANCH  11  13
ATOM     13  C   UNL A   1      32.184  28.012  22.690  1.00  0.00     0.135 C 
BRANCH  13  14
ATOM     14  C   UNL A   1      30.697  28.003  22.864  1.00  0.00    -0.035 A 
ATOM     15  C   UNL A   1      28.555  29.143  22.660  1.00  0.00     0.122 A 
ATOM     16  C   UNL A   1      29.936  29.099  22.440  1.00  0.00     0.051 A 
ATOM     17  C   UNL A   1      27.918  28.079  23.311  1.00  0.00    -0.009 A 
ATOM     18  C   UNL A   1      28.670  26.951  23.661  1.00  0.00     0.007 A 
ATOM     19  C   UNL A   1      26.460  28.088  23.666  1.00  0.00     0.048 C 
ATOM     20  C   UNL A   1      30.043  26.911  23.430  1.00  0.00     0.005 A 
BRANCH  15  21
ATOM     21  O   UNL A   1      27.798  30.235  22.323  1.00  0.00    -0.496 OA
ATOM     22  C   UNL A   1      27.911  31.317  23.242  1.00  0.00     0.278 C 
ENDBRANCH  15  21
ENDBRANCH  13  14
ENDBRANCH  11  13
ENDBRANCH   7  11
ENDBRANCH   4   6
ENDBRANCH   3   4
ENDBRANCH   2   3
ENDBRANCH   1   2
BRANCH   1  23
ATOM     23  O   UNL A   1      34.685  22.794  26.028  1.00  0.00    -0.374 OA
BRANCH  23  24
ATOM     24  C   UNL A   1      34.715  21.386  26.044  1.00  0.00     0.202 C 
BRANCH  24  25
ATOM     25  C   UNL A   1      35.652  20.776  24.998  1.00  0.00     0.261 C 
BRANCH  25  26
ATOM     26  O   UNL A   1      36.799  21.622  24.767  1.00  0.00    -0.460 OA
BRANCH  26  27
ATOM     27  C   UNL A   1      37.975  21.202  25.319  1.00  0.00     0.338 C 
ATOM     28  O   UNL A   1      38.507  20.135  25.048  1.00  0.00    -0.246 OA
BRANCH  27  29
ATOM     29  C   UNL A   1      38.556  22.256  26.192  1.00  0.00     0.060 A 
ATOM     30  C   UNL A   1      38.046  23.568  26.208  1.00  0.00     0.016 A 
ATOM     31  C   UNL A   1      39.724  21.958  26.886  1.00  0.00     0.016 A 
ATOM     32  C   UNL A   1      38.770  24.603  26.824  1.00  0.00     0.010 A 
ATOM     33  C   UNL A   1      40.474  22.987  27.407  1.00  0.00     0.010 A 
ATOM     34  C   UNL A   1      40.013  24.314  27.380  1.00  0.00    -0.014 A 
BRANCH  34  35
ATOM     35  C   UNL A   1      40.977  25.261  27.947  1.00  0.00     0.031 A 
ATOM     36  C   UNL A   1      40.440  26.563  28.418  1.00  0.00     0.074 A 
ATOM     37  C   UNL A   1      42.184  24.822  28.378  1.00  0.00     0.049 A 
ATOM     38  N   UNL A   1      41.139  27.471  28.995  1.00  0.00    -0.248 NA
ATOM     39  C   UNL A   1      39.035  26.954  28.284  1.00  0.00     0.031 C 
ATOM     40  C   UNL A   1      43.018  25.360  29.450  1.00  0.00     0.029 A 
ATOM     41  N   UNL A   1      42.961  23.763  27.898  1.00  0.00    -0.354 N 
ATOM     42  C   UNL A   1      40.279  28.361  29.592  1.00  0.00     0.074 A 
ATOM     43  C   UNL A   1      38.982  28.049  29.049  1.00  0.00     0.031 C 
ATOM     44  C   UNL A   1      44.265  24.874  29.328  1.00  0.00     0.029 A 
ATOM     45  C   UNL A   1      44.305  24.081  28.115  1.00  0.00     0.049 A 
ATOM     46  H   UNL A   1      42.622  22.938  27.481  1.00  0.00     0.167 HD
ATOM     47  C   UNL A   1      40.776  29.168  30.572  1.00  0.00     0.031 A 
ATOM     48  C   UNL A   1      45.158  24.220  27.067  1.00  0.00     0.031 A 
ATOM     49  C   UNL A   1      42.238  29.027  30.646  1.00  0.00     0.049 A 
ATOM     50  C   UNL A   1      45.566  25.670  27.032  1.00  0.00     0.074 A 
ATOM     51  C   UNL A   1      43.090  28.380  31.525  1.00  0.00     0.029 A 
ATOM     52  N   UNL A   1      42.987  29.285  29.494  1.00  0.00    -0.354 N 
ATOM     53  N   UNL A   1      44.805  26.632  27.498  1.00  0.00    -0.248 NA
ATOM     54  C   UNL A   1      46.912  26.131  26.706  1.00  0.00     0.031 C 
ATOM     55  C   UNL A   1      44.313  28.137  30.830  1.00  0.00     0.029 A 
ATOM     56  C   UNL A   1      44.215  28.653  29.545  1.00  0.00     0.049 A 
ATOM     57  H   UNL A   1      42.679  29.845  28.744  1.00  0.00     0.167 HD
ATOM     58  C   UNL A   1      45.571  27.737  27.722  1.00  0.00     0.074 A 
ATOM     59  C   UNL A   1      46.860  27.408  27.130  1.00  0.00     0.031 C 
ATOM     60  C   UNL A   1      45.182  28.818  28.464  1.00  0.00     0.031 A 
BRANCH  47  61
ATOM     61  C   UNL A   1      39.943  29.928  31.586  1.00  0.00    -0.014 A 
ATOM     62  C   UNL A   1      40.021  31.336  31.635  1.00  0.00     0.010 A 
ATOM     63  C   UNL A   1      39.102  29.333  32.550  1.00  0.00     0.010 A 
ATOM     64  C   UNL A   1      39.317  32.097  32.587  1.00  0.00     0.020 A 
ATOM     65  C   UNL A   1      38.396  30.077  33.510  1.00  0.00     0.020 A 
ATOM     66  C   UNL A   1      38.507  31.459  33.522  1.00  0.00     0.054 A 
BRANCH  66  67
ATOM     67  S   UNL A   1      37.590  32.450  34.733  1.00  0.00     0.124 S 
ATOM     68  O   UNL A   1      36.272  32.562  34.115  1.00  0.00    -0.237 OA
ATOM     69  O   UNL A   1      37.656  31.620  35.933  1.00  0.00    -0.237 OA
ATOM     70  O   UNL A   1      38.344  33.700  34.804  1.00  0.00    -0.744 OA
ENDBRANCH  66  67
ENDBRANCH  47  61
BRANCH  48  71
ATOM     71  C   UNL A   1      44.875  23.213  25.987  1.00  0.00    -0.014 A 
ATOM     72  C   UNL A   1      45.996  22.800  25.216  1.00  0.00     0.010 A 
ATOM     73  C   UNL A   1      43.782  22.331  26.060  1.00  0.00     0.010 A 
ATOM     74  C   UNL A   1      46.093  21.505  24.682  1.00  0.00     0.020 A 
ATOM     75  C   UNL A   1      43.879  21.023  25.530  1.00  0.00     0.020 A 
ATOM     76  C   UNL A   1      45.051  20.600  24.889  1.00  0.00     0.054 A 
BRANCH  76  77
ATOM     77  S   UNL A   1      45.365  18.814  24.613  1.00  0.00     0.124 S 
ATOM     78  O   UNL A   1      45.648  18.758  23.184  1.00  0.00    -0.237 OA
ATOM     79  O   UNL A   1      46.504  18.530  25.488  1.00  0.00    -0.237 OA
ATOM     80  O   UNL A   1      44.117  18.186  25.040  1.00  0.00    -0.744 OA
ENDBRANCH  76  77
ENDBRANCH  48  71
BRANCH  60  81
ATOM     81  C   UNL A   1      45.761  30.184  28.247  1.00  0.00    -0.014 A 
ATOM     82  C   UNL A   1      46.560  30.816  29.211  1.00  0.00     0.010 A 
ATOM     83  C   UNL A   1      45.703  30.762  26.958  1.00  0.00     0.010 A 
ATOM     84  C   UNL A   1      47.232  32.000  28.920  1.00  0.00     0.020 A 
ATOM     85  C   UNL A   1      46.425  31.909  26.639  1.00  0.00     0.020 A 
ATOM     86  C   UNL A   1      47.167  32.534  27.633  1.00  0.00     0.054 A 
BRANCH  86  87
ATOM     87  S   UNL A   1      48.118  34.020  27.262  1.00  0.00     0.124 S 
ATOM     88  O   UNL A   1      47.329  35.049  27.935  1.00  0.00    -0.237 OA
ATOM     89  O   UNL A   1      49.417  33.730  27.865  1.00  0.00    -0.237 OA
ATOM     90  O   UNL A   1      48.114  34.078  25.803  1.00  0.00    -0.744 OA
ENDBRANCH  86  87
ENDBRANCH  60  81
ENDBRANCH  34  35
ENDBRANCH  27  29
ENDBRANCH  26  27
ENDBRANCH  25  26
ENDBRANCH  24  25
ENDBRANCH  23  24
ENDBRANCH   1  23
TORSDOF 21
ENDMDL
MODEL 2
REMARK VINA RESULT:     -11.6      1.469      3.184
REMARK SMILES COc1cc(CC(=O)N2CCC[C@H]2C(=O)OCCOCCOC(=O)c2ccc(-c3c4nc(c(-c5ccc(S(=O)(=O)[O-])cc5)c5ccc([nH]5)c(-c5ccc(S(=O)(=O)[O-])cc5)c5nc(c(-c6ccc(S(=O)(=O)[O-])cc6)c6ccc3[nH]6)C=C5)C=C4)cc2)ccc1C
REMARK SMILES IDX 18 1 17 2 16 3 14 4 15 5 13 6 9 7 10 8 11 9 12 10 7 11 8 12
REMARK SMILES IDX 6 13 5 14 3 15 4 16 87 17 86 18 88 19 85 20 2 21 1 22 19 23
REMARK SMILES IDX 20 24 21 25 22 26 23 27 24 28 25 29 26 30 84 31 27 32 83 33
REMARK SMILES IDX 28 34 29 35 30 36 77 37 31 38 82 39 76 40 78 41 32 42 81 43
REMARK SMILES IDX 75 44 74 45 33 47 63 48 44 49 62 50 45 51 48 52 61 53 79 54
REMARK SMILES IDX 46 55 47 56 60 58 80 59 49 60 34 61 35 62 43 63 36 64 42 65
REMARK SMILES IDX 37 66 38 67 39 68 40 69 41 70 64 71 65 72 73 73 66 74 72 75
REMARK SMILES IDX 67 76 68 77 69 78 70 79 71 80 50 81 51 82 59 83 52 84 58 85
REMARK SMILES IDX 53 86 54 87 55 88 56 89 57 90
REMARK H PARENT 78 46 48 57
REMARK Flexibility Score: inf
ROOT
ATOM      1  C   UNL A   1      33.758  23.472  23.992  1.00  0.00     0.202 C 
ENDROOT
BRANCH   1   2
ATOM      2  C   UNL A   1      33.965  24.828  24.586  1.00  0.00     0.261 C 
BRANCH   2   3
ATOM      3  O   UNL A   1      34.074  25.784  23.526  1.00  0.00    -0.462 OA
BRANCH   3   4
ATOM      4  C   UNL A   1      32.917  26.266  22.994  1.00  0.00     0.328 C 
ATOM      5  O   UNL A   1      32.642  26.361  21.816  1.00  0.00    -0.250 OA
BRANCH   4   6
ATOM      6  C   UNL A   1      31.998  26.700  24.127  1.00  0.00     0.195 C 
ATOM      7  N   UNL A   1      32.142  28.135  24.383  1.00  0.00    -0.329 N 
ATOM      8  C   UNL A   1      31.045  28.839  23.749  1.00  0.00     0.120 C 
ATOM      9  C   UNL A   1      29.891  27.852  23.830  1.00  0.00     0.024 C 
ATOM     10  C   UNL A   1      30.546  26.489  23.672  1.00  0.00     0.039 C 
BRANCH   7  11
ATOM     11  C   UNL A   1      33.253  28.563  25.067  1.00  0.00     0.227 C 
ATOM     12  O   UNL A   1      34.299  28.786  24.435  1.00  0.00    -0.275 OA
BRANCH  11  13
ATOM     13  C   UNL A   1      33.372  28.698  26.575  1.00  0.00     0.135 C 
BRANCH  13  14
ATOM     14  C   UNL A   1      34.318  29.663  27.219  1.00  0.00    -0.035 A 
ATOM     15  C   UNL A   1      34.917  31.956  27.781  1.00  0.00     0.122 A 
ATOM     16  C   UNL A   1      34.014  31.029  27.250  1.00  0.00     0.051 A 
ATOM     17  C   UNL A   1      36.146  31.517  28.292  1.00  0.00    -0.009 A 
ATOM     18  C   UNL A   1      36.412  30.144  28.332  1.00  0.00     0.007 A 
ATOM     19  C   UNL A   1      37.207  32.453  28.795  1.00  0.00     0.048 C 
ATOM     20  C   UNL A   1      35.503  29.227  27.810  1.00  0.00     0.005 A 
BRANCH  15  21
ATOM     21  O   UNL A   1      34.677  33.305  27.755  1.00  0.00    -0.496 OA
ATOM     22  C   UNL A   1      33.324  33.652  28.032  1.00  0.00     0.278 C 
ENDBRANCH  15  21
ENDBRANCH  13  14
ENDBRANCH  11  13
ENDBRANCH   7  11
ENDBRANCH   4   6
ENDBRANCH   3   4
ENDBRANCH   2   3
ENDBRANCH   1   2
BRANCH   1  23
ATOM     23  O   UNL A   1      34.306  22.564  24.953  1.00  0.00    -0.374 OA
BRANCH  23  24
ATOM     24  C   UNL A   1      34.502  21.246  24.493  1.00  0.00     0.202 C 
BRANCH  24  25
ATOM     25  C   UNL A   1      35.813  20.615  24.969  1.00  0.00     0.261 C 
BRANCH  25  26
ATOM     26  O   UNL A   1      36.928  21.511  24.771  1.00  0.00    -0.460 OA
BRANCH  26  27
ATOM     27  C   UNL A   1      38.106  21.139  25.351  1.00  0.00     0.338 C 
ATOM     28  O   UNL A   1      38.655  20.066  25.143  1.00  0.00    -0.246 OA
BRANCH  27  29
ATOM     29  C   UNL A   1      38.669  22.250  26.164  1.00  0.00     0.060 A 
ATOM     30  C   UNL A   1      38.115  23.543  26.135  1.00  0.00     0.016 A 
ATOM     31  C   UNL A   1      39.861  22.022  26.845  1.00  0.00     0.016 A 
ATOM     32  C   UNL A   1      38.815  24.628  26.690  1.00  0.00     0.010 A 
ATOM     33  C   UNL A   1      40.586  23.097  27.304  1.00  0.00     0.010 A 
ATOM     34  C   UNL A   1      40.079  24.406  27.231  1.00  0.00    -0.014 A 
BRANCH  34  35
ATOM     35  C   UNL A   1      41.021  25.408  27.735  1.00  0.00     0.031 A 
ATOM     36  C   UNL A   1      40.446  26.700  28.187  1.00  0.00     0.074 A 
ATOM     37  C   UNL A   1      42.260  25.032  28.133  1.00  0.00     0.049 A 
ATOM     38  N   UNL A   1      41.126  27.653  28.712  1.00  0.00    -0.248 NA
ATOM     39  C   UNL A   1      39.022  27.029  28.093  1.00  0.00     0.031 C 
ATOM     40  C   UNL A   1      43.107  25.636  29.159  1.00  0.00     0.029 A 
ATOM     41  N   UNL A   1      43.064  23.992  27.656  1.00  0.00    -0.354 N 
ATOM     42  C   UNL A   1      40.250  28.525  29.315  1.00  0.00     0.074 A 
ATOM     43  C   UNL A   1      38.949  28.143  28.828  1.00  0.00     0.031 C 
ATOM     44  C   UNL A   1      44.369  25.199  29.005  1.00  0.00     0.029 A 
ATOM     45  C   UNL A   1      44.400  24.372  27.815  1.00  0.00     0.049 A 
ATOM     46  H   UNL A   1      42.745  23.142  27.275  1.00  0.00     0.167 HD
ATOM     47  C   UNL A   1      40.747  29.380  30.252  1.00  0.00     0.031 A 
ATOM     48  C   UNL A   1      45.208  24.514  26.733  1.00  0.00     0.031 A 
ATOM     49  C   UNL A   1      42.215  29.302  30.277  1.00  0.00     0.049 A 
ATOM     50  C   UNL A   1      45.553  25.979  26.642  1.00  0.00     0.074 A 
ATOM     51  C   UNL A   1      43.124  28.718  31.142  1.00  0.00     0.029 A 
ATOM     52  N   UNL A   1      42.911  29.557  29.091  1.00  0.00    -0.354 N 
ATOM     53  N   UNL A   1      44.769  26.922  27.107  1.00  0.00    -0.248 NA
ATOM     54  C   UNL A   1      46.866  26.485  26.254  1.00  0.00     0.031 C 
ATOM     55  C   UNL A   1      44.332  28.505  30.411  1.00  0.00     0.029 A 
ATOM     56  C   UNL A   1      44.166  28.978  29.116  1.00  0.00     0.049 A 
ATOM     57  H   UNL A   1      42.554  30.080  28.338  1.00  0.00     0.167 HD
ATOM     58  C   UNL A   1      45.494  28.064  27.272  1.00  0.00     0.074 A 
ATOM     59  C   UNL A   1      46.776  27.771  26.643  1.00  0.00     0.031 C 
ATOM     60  C   UNL A   1      45.087  29.149  27.996  1.00  0.00     0.031 A 
BRANCH  47  61
ATOM     61  C   UNL A   1      39.919  30.136  31.274  1.00  0.00    -0.014 A 
ATOM     62  C   UNL A   1      40.560  30.996  32.190  1.00  0.00     0.010 A 
ATOM     63  C   UNL A   1      38.522  30.018  31.428  1.00  0.00     0.010 A 
ATOM     64  C   UNL A   1      39.857  31.683  33.198  1.00  0.00     0.020 A 
ATOM     65  C   UNL A   1      37.805  30.693  32.430  1.00  0.00     0.020 A 
ATOM     66  C   UNL A   1      38.479  31.526  33.311  1.00  0.00     0.054 A 
BRANCH  66  67
ATOM     67  S   UNL A   1      37.581  32.430  34.601  1.00  0.00     0.124 S 
ATOM     68  O   UNL A   1      36.248  32.568  34.020  1.00  0.00    -0.237 OA
ATOM     69  O   UNL A   1      37.680  31.527  35.745  1.00  0.00    -0.237 OA
ATOM     70  O   UNL A   1      38.326  33.680  34.735  1.00  0.00    -0.744 OA
ENDBRANCH  66  67
ENDBRANCH  47  61
BRANCH  48  71
ATOM     71  C   UNL A   1      44.930  23.464  25.693  1.00  0.00    -0.014 A 
ATOM     72  C   UNL A   1      46.075  22.855  25.109  1.00  0.00     0.010 A 
ATOM     73  C   UNL A   1      43.729  22.734  25.676  1.00  0.00     0.010 A 
ATOM     74  C   UNL A   1      46.063  21.517  24.679  1.00  0.00     0.020 A 
ATOM     75  C   UNL A   1      43.716  21.384  25.250  1.00  0.00     0.020 A 
ATOM     76  C   UNL A   1      44.892  20.769  24.802  1.00  0.00     0.054 A 
BRANCH  76  77
ATOM     77  S   UNL A   1      44.997  18.941  24.689  1.00  0.00     0.124 S 
ATOM     78  O   UNL A   1      45.994  18.616  25.702  1.00  0.00    -0.237 OA
ATOM     79  O   UNL A   1      43.633  18.503  24.993  1.00  0.00    -0.237 OA
ATOM     80  O   UNL A   1      45.399  18.714  23.304  1.00  0.00    -0.744 OA
ENDBRANCH  76  77
ENDBRANCH  48  71
BRANCH  60  81
ATOM     81  C   UNL A   1      45.600  30.532  27.719  1.00  0.00    -0.014 A 
ATOM     82  C   UNL A   1      46.922  30.905  28.000  1.00  0.00     0.010 A 
ATOM     83  C   UNL A   1      44.814  31.417  26.946  1.00  0.00     0.010 A 
ATOM     84  C   UNL A   1      47.426  32.131  27.572  1.00  0.00     0.020 A 
ATOM     85  C   UNL A   1      45.330  32.615  26.458  1.00  0.00     0.020 A 
ATOM     86  C   UNL A   1      46.629  32.973  26.797  1.00  0.00     0.054 A 
BRANCH  86  87
ATOM     87  S   UNL A   1      47.337  34.514  26.183  1.00  0.00     0.124 S 
ATOM     88  O   UNL A   1      46.162  35.173  25.621  1.00  0.00    -0.237 OA
ATOM     89  O   UNL A   1      47.879  35.124  27.396  1.00  0.00    -0.237 OA
ATOM     90  O   UNL A   1      48.337  34.074  25.215  1.00  0.00    -0.744 OA
ENDBRANCH  86  87
ENDBRANCH  60  81
ENDBRANCH  34  35
ENDBRANCH  27  29
ENDBRANCH  26  27
ENDBRANCH  25  26
ENDBRANCH  24  25
ENDBRANCH  23  24
ENDBRANCH   1  23
TORSDOF 21
ENDMDL
MODEL 3
REMARK VINA RESULT:     -11.0      4.302      6.997
REMARK SMILES COc1cc(CC(=O)N2CCC[C@H]2C(=O)OCCOCCOC(=O)c2ccc(-c3c4nc(c(-c5ccc(S(=O)(=O)[O-])cc5)c5ccc([nH]5)c(-c5ccc(S(=O)(=O)[O-])cc5)c5nc(c(-c6ccc(S(=O)(=O)[O-])cc6)c6ccc3[nH]6)C=C5)C=C4)cc2)ccc1C
REMARK SMILES IDX 18 1 17 2 16 3 14 4 15 5 13 6 9 7 10 8 11 9 12 10 7 11 8 12
REMARK SMILES IDX 6 13 5 14 3 15 4 16 87 17 86 18 88 19 85 20 2 21 1 22 19 23
REMARK SMILES IDX 20 24 21 25 22 26 23 27 24 28 25 29 26 30 84 31 27 32 83 33
REMARK SMILES IDX 28 34 29 35 30 36 77 37 31 38 82 39 76 40 78 41 32 42 81 43
REMARK SMILES IDX 75 44 74 45 33 47 63 48 44 49 62 50 45 51 48 52 61 53 79 54
REMARK SMILES IDX 46 55 47 56 60 58 80 59 49 60 34 61 35 62 43 63 36 64 42 65
REMARK SMILES IDX 37 66 38 67 39 68 40 69 41 70 64 71 65 72 73 73 66 74 72 75
REMARK SMILES IDX 67 76 68 77 69 78 70 79 71 80 50 81 51 82 59 83 52 84 58 85
REMARK SMILES IDX 53 86 54 87 55 88 56 89 57 90
REMARK H PARENT 78 46 48 57
REMARK Flexibility Score: inf
ROOT
ATOM      1  C   UNL A   1      36.436  23.493  24.888  1.00  0.00     0.202 C 
ENDROOT
BRANCH   1   2
ATOM      2  C   UNL A   1      35.483  23.429  26.038  1.00  0.00     0.261 C 
BRANCH   2   3
ATOM      3  O   UNL A   1      34.618  22.302  25.857  1.00  0.00    -0.462 OA
BRANCH   3   4
ATOM      4  C   UNL A   1      33.477  22.262  26.600  1.00  0.00     0.328 C 
ATOM      5  O   UNL A   1      33.383  22.417  27.800  1.00  0.00    -0.250 OA
BRANCH   4   6
ATOM      6  C   UNL A   1      32.301  21.966  25.680  1.00  0.00     0.195 C 
ATOM      7  N   UNL A   1      32.334  22.843  24.508  1.00  0.00    -0.329 N 
ATOM      8  C   UNL A   1      32.889  22.110  23.386  1.00  0.00     0.120 C 
ATOM      9  C   UNL A   1      32.440  20.679  23.636  1.00  0.00     0.024 C 
ATOM     10  C   UNL A   1      32.459  20.533  25.149  1.00  0.00     0.039 C 
BRANCH   7  11
ATOM     11  C   UNL A   1      31.936  24.147  24.662  1.00  0.00     0.227 C 
ATOM     12  O   UNL A   1      30.912  24.389  25.324  1.00  0.00    -0.275 OA
BRANCH  11  13
ATOM     13  C   UNL A   1      32.575  25.357  24.003  1.00  0.00     0.135 C 
BRANCH  13  14
ATOM     14  C   UNL A   1      31.832  26.641  23.798  1.00  0.00    -0.035 A 
ATOM     15  C   UNL A   1      31.264  28.881  24.565  1.00  0.00     0.122 A 
ATOM     16  C   UNL A   1      32.002  27.700  24.696  1.00  0.00     0.051 A 
ATOM     17  C   UNL A   1      30.340  29.012  23.520  1.00  0.00    -0.009 A 
ATOM     18  C   UNL A   1      30.232  27.984  22.577  1.00  0.00     0.007 A 
ATOM     19  C   UNL A   1      29.444  30.206  23.361  1.00  0.00     0.048 C 
ATOM     20  C   UNL A   1      30.978  26.815  22.710  1.00  0.00     0.005 A 
BRANCH  15  21
ATOM     21  O   UNL A   1      31.355  29.903  25.473  1.00  0.00    -0.496 OA
ATOM     22  C   UNL A   1      32.534  29.857  26.272  1.00  0.00     0.278 C 
ENDBRANCH  15  21
ENDBRANCH  13  14
ENDBRANCH  11  13
ENDBRANCH   7  11
ENDBRANCH   4   6
ENDBRANCH   3   4
ENDBRANCH   2   3
ENDBRANCH   1   2
BRANCH   1  23
ATOM     23  O   UNL A   1      37.673  22.994  25.410  1.00  0.00    -0.374 OA
BRANCH  23  24
ATOM     24  C   UNL A   1      38.259  23.779  26.423  1.00  0.00     0.202 C 
BRANCH  24  25
ATOM     25  C   UNL A   1      39.777  23.614  26.531  1.00  0.00     0.261 C 
BRANCH  25  26
ATOM     26  O   UNL A   1      40.366  24.685  27.300  1.00  0.00    -0.460 OA
BRANCH  26  27
ATOM     27  C   UNL A   1      40.577  25.856  26.631  1.00  0.00     0.338 C 
ATOM     28  O   UNL A   1      40.776  25.922  25.426  1.00  0.00    -0.246 OA
BRANCH  27  29
ATOM     29  C   UNL A   1      40.419  27.021  27.542  1.00  0.00     0.060 A 
ATOM     30  C   UNL A   1      41.270  28.139  27.468  1.00  0.00     0.016 A 
ATOM     31  C   UNL A   1      39.499  26.918  28.581  1.00  0.00     0.016 A 
ATOM     32  C   UNL A   1      41.278  29.094  28.499  1.00  0.00     0.010 A 
ATOM     33  C   UNL A   1      39.575  27.802  29.632  1.00  0.00     0.010 A 
ATOM     34  C   UNL A   1      40.461  28.892  29.608  1.00  0.00    -0.014 A 
BRANCH  34  35
ATOM     35  C   UNL A   1      40.416  29.687  30.837  1.00  0.00     0.031 A 
ATOM     36  C   UNL A   1      39.652  30.960  30.785  1.00  0.00     0.074 A 
ATOM     37  C   UNL A   1      40.702  29.109  32.029  1.00  0.00     0.049 A 
ATOM     38  N   UNL A   1      39.464  31.736  31.789  1.00  0.00    -0.248 NA
ATOM     39  C   UNL A   1      39.014  31.470  29.569  1.00  0.00     0.031 C 
ATOM     40  C   UNL A   1      40.184  29.449  33.352  1.00  0.00     0.029 A 
ATOM     41  N   UNL A   1      41.582  28.060  32.312  1.00  0.00    -0.354 N 
ATOM     42  C   UNL A   1      38.451  32.610  31.472  1.00  0.00     0.074 A 
ATOM     43  C   UNL A   1      38.263  32.465  30.052  1.00  0.00     0.031 C 
ATOM     44  C   UNL A   1      40.966  28.888  34.291  1.00  0.00     0.029 A 
ATOM     45  C   UNL A   1      42.072  28.247  33.608  1.00  0.00     0.049 A 
ATOM     46  H   UNL A   1      41.815  27.320  31.706  1.00  0.00     0.167 HD
ATOM     47  C   UNL A   1      37.821  33.252  32.496  1.00  0.00     0.031 A 
ATOM     48  C   UNL A   1      43.399  28.446  33.820  1.00  0.00     0.031 A 
ATOM     49  C   UNL A   1      38.524  32.993  33.761  1.00  0.00     0.049 A 
ATOM     50  C   UNL A   1      43.546  29.855  34.335  1.00  0.00     0.074 A 
ATOM     51  C   UNL A   1      38.257  32.181  34.852  1.00  0.00     0.029 A 
ATOM     52  N   UNL A   1      39.878  33.331  33.847  1.00  0.00    -0.354 N 
ATOM     53  N   UNL A   1      42.693  30.809  34.045  1.00  0.00    -0.248 NA
ATOM     54  C   UNL A   1      44.492  30.248  35.375  1.00  0.00     0.031 C 
ATOM     55  C   UNL A   1      39.499  31.932  35.510  1.00  0.00     0.029 A 
ATOM     56  C   UNL A   1      40.511  32.606  34.840  1.00  0.00     0.049 A 
ATOM     57  H   UNL A   1      40.322  33.999  33.276  1.00  0.00     0.167 HD
ATOM     58  C   UNL A   1      42.827  31.817  34.953  1.00  0.00     0.074 A 
ATOM     59  C   UNL A   1      44.021  31.465  35.709  1.00  0.00     0.031 C 
ATOM     60  C   UNL A   1      41.924  32.826  35.136  1.00  0.00     0.031 A 
BRANCH  47  61
ATOM     61  C   UNL A   1      36.475  33.945  32.399  1.00  0.00    -0.014 A 
ATOM     62  C   UNL A   1      35.709  33.815  31.221  1.00  0.00     0.010 A 
ATOM     63  C   UNL A   1      35.919  34.774  33.396  1.00  0.00     0.010 A 
ATOM     64  C   UNL A   1      34.479  34.476  31.045  1.00  0.00     0.020 A 
ATOM     65  C   UNL A   1      34.695  35.444  33.235  1.00  0.00     0.020 A 
ATOM     66  C   UNL A   1      33.979  35.289  32.058  1.00  0.00     0.054 A 
BRANCH  66  67
ATOM     67  S   UNL A   1      32.384  36.121  31.829  1.00  0.00     0.124 S 
ATOM     68  O   UNL A   1      32.250  36.152  30.375  1.00  0.00    -0.237 OA
ATOM     69  O   UNL A   1      31.461  35.230  32.528  1.00  0.00    -0.237 OA
ATOM     70  O   UNL A   1      32.577  37.427  32.457  1.00  0.00    -0.744 OA
ENDBRANCH  66  67
ENDBRANCH  47  61
BRANCH  48  71
ATOM     71  C   UNL A   1      44.238  27.601  32.903  1.00  0.00    -0.014 A 
ATOM     72  C   UNL A   1      44.249  26.207  33.183  1.00  0.00     0.010 A 
ATOM     73  C   UNL A   1      44.531  27.997  31.585  1.00  0.00     0.010 A 
ATOM     74  C   UNL A   1      44.381  25.247  32.165  1.00  0.00     0.020 A 
ATOM     75  C   UNL A   1      44.656  27.034  30.557  1.00  0.00     0.020 A 
ATOM     76  C   UNL A   1      44.530  25.668  30.844  1.00  0.00     0.054 A 
BRANCH  76  77
ATOM     77  S   UNL A   1      44.232  24.461  29.495  1.00  0.00     0.124 S 
ATOM     78  O   UNL A   1      43.302  25.175  28.629  1.00  0.00    -0.237 OA
ATOM     79  O   UNL A   1      45.567  24.244  28.932  1.00  0.00    -0.237 OA
ATOM     80  O   UNL A   1      43.687  23.303  30.196  1.00  0.00    -0.744 OA
ENDBRANCH  76  77
ENDBRANCH  48  71
BRANCH  60  81
ATOM     81  C   UNL A   1      42.320  34.161  35.693  1.00  0.00    -0.014 A 
ATOM     82  C   UNL A   1      41.891  34.598  36.954  1.00  0.00     0.010 A 
ATOM     83  C   UNL A   1      43.335  34.905  35.048  1.00  0.00     0.010 A 
ATOM     84  C   UNL A   1      42.412  35.756  37.527  1.00  0.00     0.020 A 
ATOM     85  C   UNL A   1      43.909  36.025  35.642  1.00  0.00     0.020 A 
ATOM     86  C   UNL A   1      43.424  36.456  36.871  1.00  0.00     0.054 A 
BRANCH  86  87
ATOM     87  S   UNL A   1      44.142  37.901  37.677  1.00  0.00     0.124 S 
ATOM     88  O   UNL A   1      45.389  37.354  38.203  1.00  0.00    -0.237 OA
ATOM     89  O   UNL A   1      44.287  38.846  36.572  1.00  0.00    -0.237 OA
ATOM     90  O   UNL A   1      43.144  38.270  38.677  1.00  0.00    -0.744 OA
ENDBRANCH  86  87
ENDBRANCH  60  81
ENDBRANCH  34  35
ENDBRANCH  27  29
ENDBRANCH  26  27
ENDBRANCH  25  26
ENDBRANCH  24  25
ENDBRANCH  23  24
ENDBRANCH   1  23
TORSDOF 21
ENDMDL
