MODEL 1
REMARK VINA RESULT:     -13.8      0.000      0.000
REMARK SMILES Cc1ccccc1NC(=S)NN1C(=O)CS[C@H]1c1ccccc1C(=O)OCCOCCOC(=O)c1ccc(-c2c3nc(c(-c4ccc(S(=O)(=O)[O-])cc4)c4ccc([nH]4)c(-c4ccc(S(=O)(=O)[O-])cc4)c4nc(c(-c5ccc(S(=O)(=O)[O-])cc5)c5ccc2[nH]5)C=C4)C=C3)cc1
REMARK SMILES IDX 28 1 27 2 26 3 24 4 25 5 23 6 18 7 19 8 20 9 22 10 21 11
REMARK SMILES IDX 17 12 12 13 13 14 14 15 15 16 16 17 11 18 9 20 10 21 8 22
REMARK SMILES IDX 7 24 1 25 2 26 3 27 4 28 6 29 5 30 29 31 30 32 31 33 32 34
REMARK SMILES IDX 33 35 34 36 35 37 36 38 94 39 37 40 93 41 38 42 39 43 40 44
REMARK SMILES IDX 87 45 41 46 92 47 86 48 88 49 42 50 91 51 85 52 84 53 43 55
REMARK SMILES IDX 73 56 54 57 72 58 55 59 58 60 71 61 89 62 56 63 57 64 70 66
REMARK SMILES IDX 90 67 59 68 44 69 45 70 53 71 46 72 52 73 47 74 48 75 49 76
REMARK SMILES IDX 50 77 51 78 74 79 75 80 83 81 76 82 82 83 77 84 78 85 79 86
REMARK SMILES IDX 80 87 81 88 60 89 61 90 69 91 62 92 68 93 63 94 64 95 65 96
REMARK SMILES IDX 66 97 67 98
REMARK H PARENT 11 19 8 23 88 54 58 65
REMARK Flexibility Score: inf
ROOT
ATOM      1  C   UNL A   1      33.403  31.237  27.303  1.00  0.00     0.202 C 
ENDROOT
BRANCH   1   2
ATOM      2  C   UNL A   1      32.039  30.084  26.922  1.00  0.00     0.261 C 
BRANCH   2   3
ATOM      3  O   UNL A   1      32.076  28.541  26.045  1.00  0.00    -0.460 OA
BRANCH   3   4
ATOM      4  C   UNL A   1      31.390  27.390  25.487  1.00  0.00     0.338 C 
ATOM      5  O   UNL A   1      30.478  27.581  24.673  1.00  0.00    -0.246 OA
BRANCH   4   6
ATOM      6  C   UNL A   1      31.506  25.801  25.675  1.00  0.00     0.066 A 
ATOM      7  C   UNL A   1      32.686  25.027  25.747  1.00  0.00     0.001 A 
ATOM      8  C   UNL A   1      32.742  23.859  26.541  1.00  0.00     0.008 A 
ATOM      9  C   UNL A   1      31.575  23.214  26.897  1.00  0.00     0.000 A 
ATOM     10  C   UNL A   1      30.329  25.067  25.953  1.00  0.00     0.016 A 
ATOM     11  C   UNL A   1      30.369  23.758  26.480  1.00  0.00     0.001 A 
BRANCH   7  12
ATOM     12  C   UNL A   1      33.744  25.202  24.673  1.00  0.00     0.197 C 
ATOM     13  N   UNL A   1      33.891  23.941  24.043  1.00  0.00    -0.236 N 
ATOM     14  C   UNL A   1      32.559  23.891  23.285  1.00  0.00     0.252 C 
ATOM     15  O   UNL A   1      31.586  23.146  23.360  1.00  0.00    -0.272 OA
ATOM     16  C   UNL A   1      32.365  25.161  22.493  1.00  0.00     0.174 C 
ATOM     17  S   UNL A   1      33.297  26.397  23.383  1.00  0.00    -0.120 SA
BRANCH  13  18
ATOM     18  N   UNL A   1      34.826  22.832  25.078  1.00  0.00    -0.270 N 
ATOM     19  H   UNL A   1      34.864  23.215  25.984  1.00  0.00     0.191 HD
BRANCH  18  20
ATOM     20  C   UNL A   1      35.575  21.537  25.087  1.00  0.00     0.189 C 
ATOM     21  S   UNL A   1      37.169  22.000  25.560  1.00  0.00    -0.039 S 
BRANCH  20  22
ATOM     22  N   UNL A   1      35.272  20.083  24.849  1.00  0.00    -0.331 N 
ATOM     23  H   UNL A   1      36.152  19.729  24.585  1.00  0.00     0.169 HD
BRANCH  22  24
ATOM     24  C   UNL A   1      34.296  18.699  24.771  1.00  0.00     0.043 A 
ATOM     25  C   UNL A   1      34.209  16.614  22.907  1.00  0.00     0.046 C 
ATOM     26  C   UNL A   1      34.775  17.371  24.263  1.00  0.00    -0.028 A 
ATOM     27  C   UNL A   1      34.496  16.201  25.041  1.00  0.00     0.005 A 
ATOM     28  C   UNL A   1      33.228  16.112  25.587  1.00  0.00     0.000 A 
ATOM     29  C   UNL A   1      33.025  18.557  25.306  1.00  0.00     0.026 A 
ATOM     30  C   UNL A   1      32.477  17.282  25.649  1.00  0.00     0.002 A 
ENDBRANCH  22  24
ENDBRANCH  20  22
ENDBRANCH  18  20
ENDBRANCH  13  18
ENDBRANCH   7  12
ENDBRANCH   4   6
ENDBRANCH   3   4
ENDBRANCH   2   3
ENDBRANCH   1   2
BRANCH   1  31
ATOM     31  O   UNL A   1      34.861  30.904  27.255  1.00  0.00    -0.374 OA
BRANCH  31  32
ATOM     32  C   UNL A   1      35.837  31.602  28.056  1.00  0.00     0.202 C 
BRANCH  32  33
ATOM     33  C   UNL A   1      35.956  31.016  29.472  1.00  0.00     0.261 C 
BRANCH  33  34
ATOM     34  O   UNL A   1      37.190  30.262  29.582  1.00  0.00    -0.460 OA
BRANCH  34  35
ATOM     35  C   UNL A   1      37.260  29.333  30.563  1.00  0.00     0.338 C 
ATOM     36  O   UNL A   1      36.592  29.338  31.600  1.00  0.00    -0.246 OA
BRANCH  35  37
ATOM     37  C   UNL A   1      38.388  28.391  30.270  1.00  0.00     0.060 A 
ATOM     38  C   UNL A   1      39.422  28.221  31.185  1.00  0.00     0.016 A 
ATOM     39  C   UNL A   1      38.567  27.824  29.012  1.00  0.00     0.016 A 
ATOM     40  C   UNL A   1      40.694  27.770  30.746  1.00  0.00     0.010 A 
ATOM     41  C   UNL A   1      39.849  27.405  28.609  1.00  0.00     0.010 A 
ATOM     42  C   UNL A   1      40.974  27.599  29.421  1.00  0.00    -0.014 A 
BRANCH  42  43
ATOM     43  C   UNL A   1      42.369  27.736  28.868  1.00  0.00     0.031 A 
ATOM     44  C   UNL A   1      43.168  26.468  28.846  1.00  0.00     0.074 A 
ATOM     45  C   UNL A   1      42.973  28.796  28.201  1.00  0.00     0.049 A 
ATOM     46  N   UNL A   1      44.401  26.359  28.462  1.00  0.00    -0.248 NA
ATOM     47  C   UNL A   1      42.620  25.189  29.303  1.00  0.00     0.031 C 
ATOM     48  C   UNL A   1      43.729  28.462  26.992  1.00  0.00     0.029 A 
ATOM     49  N   UNL A   1      42.935  30.216  28.075  1.00  0.00    -0.354 N 
ATOM     50  C   UNL A   1      44.535  25.051  28.071  1.00  0.00     0.074 A 
ATOM     51  C   UNL A   1      43.551  24.344  28.854  1.00  0.00     0.031 C 
ATOM     52  C   UNL A   1      44.199  29.557  26.412  1.00  0.00     0.029 A 
ATOM     53  C   UNL A   1      43.904  30.739  27.204  1.00  0.00     0.049 A 
ATOM     54  H   UNL A   1      42.286  30.780  28.555  1.00  0.00     0.167 HD
ATOM     55  C   UNL A   1      45.246  24.739  26.949  1.00  0.00     0.031 A 
ATOM     56  C   UNL A   1      44.514  31.945  26.910  1.00  0.00     0.031 A 
ATOM     57  C   UNL A   1      46.010  25.872  26.377  1.00  0.00     0.049 A 
ATOM     58  C   UNL A   1      46.020  31.604  26.843  1.00  0.00     0.074 A 
ATOM     59  C   UNL A   1      46.079  26.428  25.109  1.00  0.00     0.029 A 
ATOM     60  N   UNL A   1      46.736  26.743  27.204  1.00  0.00    -0.354 N 
ATOM     61  N   UNL A   1      46.400  30.368  26.679  1.00  0.00    -0.248 NA
ATOM     62  C   UNL A   1      47.204  32.434  27.083  1.00  0.00     0.031 C 
ATOM     63  C   UNL A   1      46.829  27.635  25.186  1.00  0.00     0.029 A 
ATOM     64  C   UNL A   1      47.252  27.818  26.492  1.00  0.00     0.049 A 
ATOM     65  H   UNL A   1      46.863  26.609  28.171  1.00  0.00     0.167 HD
ATOM     66  C   UNL A   1      47.683  30.151  26.997  1.00  0.00     0.074 A 
ATOM     67  C   UNL A   1      48.183  31.500  27.196  1.00  0.00     0.031 C 
ATOM     68  C   UNL A   1      48.099  28.855  27.125  1.00  0.00     0.031 A 
BRANCH  55  69
ATOM     69  C   UNL A   1      45.086  23.400  26.227  1.00  0.00    -0.014 A 
ATOM     70  C   UNL A   1      46.218  22.733  25.719  1.00  0.00     0.010 A 
ATOM     71  C   UNL A   1      43.848  22.765  25.976  1.00  0.00     0.010 A 
ATOM     72  C   UNL A   1      46.125  21.487  25.067  1.00  0.00     0.020 A 
ATOM     73  C   UNL A   1      43.741  21.501  25.377  1.00  0.00     0.020 A 
ATOM     74  C   UNL A   1      44.887  20.862  24.927  1.00  0.00     0.054 A 
BRANCH  74  75
ATOM     75  S   UNL A   1      44.782  19.217  24.174  1.00  0.00     0.124 S 
ATOM     76  O   UNL A   1      43.798  18.547  25.020  1.00  0.00    -0.237 OA
ATOM     77  O   UNL A   1      44.348  19.518  22.813  1.00  0.00    -0.237 OA
ATOM     78  O   UNL A   1      46.145  18.698  24.284  1.00  0.00    -0.744 OA
ENDBRANCH  74  75
ENDBRANCH  55  69
BRANCH  56  79
ATOM     79  C   UNL A   1      43.891  33.314  27.114  1.00  0.00    -0.014 A 
ATOM     80  C   UNL A   1      43.561  33.863  28.382  1.00  0.00     0.010 A 
ATOM     81  C   UNL A   1      43.982  34.246  26.097  1.00  0.00     0.010 A 
ATOM     82  C   UNL A   1      43.563  35.280  28.647  1.00  0.00     0.020 A 
ATOM     83  C   UNL A   1      44.011  35.639  26.363  1.00  0.00     0.020 A 
ATOM     84  C   UNL A   1      43.883  36.169  27.632  1.00  0.00     0.054 A 
BRANCH  84  85
ATOM     85  S   UNL A   1      44.575  37.868  27.954  1.00  0.00     0.124 S 
ATOM     86  O   UNL A   1      45.962  37.606  28.308  1.00  0.00    -0.237 OA
ATOM     87  O   UNL A   1      44.364  38.566  26.690  1.00  0.00    -0.237 OA
ATOM     88  O   UNL A   1      43.757  38.402  29.037  1.00  0.00    -0.744 OA
ENDBRANCH  84  85
ENDBRANCH  56  79
BRANCH  68  89
ATOM     89  C   UNL A   1      49.385  28.453  27.771  1.00  0.00    -0.014 A 
ATOM     90  C   UNL A   1      50.386  27.735  27.102  1.00  0.00     0.010 A 
ATOM     91  C   UNL A   1      49.655  28.892  29.086  1.00  0.00     0.010 A 
ATOM     92  C   UNL A   1      51.562  27.369  27.759  1.00  0.00     0.020 A 
ATOM     93  C   UNL A   1      50.844  28.572  29.736  1.00  0.00     0.020 A 
ATOM     94  C   UNL A   1      51.770  27.769  29.081  1.00  0.00     0.054 A 
BRANCH  94  95
ATOM     95  S   UNL A   1      53.262  27.221  29.938  1.00  0.00     0.124 S 
ATOM     96  O   UNL A   1      52.880  25.877  30.367  1.00  0.00    -0.237 OA
ATOM     97  O   UNL A   1      54.278  27.279  28.891  1.00  0.00    -0.237 OA
ATOM     98  O   UNL A   1      53.426  28.198  31.012  1.00  0.00    -0.744 OA
ENDBRANCH  94  95
ENDBRANCH  68  89
ENDBRANCH  42  43
ENDBRANCH  35  37
ENDBRANCH  34  35
ENDBRANCH  33  34
ENDBRANCH  32  33
ENDBRANCH  31  32
ENDBRANCH   1  31
TORSDOF 22
ENDMDL
MODEL 2
REMARK VINA RESULT:     -13.7      1.945      2.808
REMARK SMILES Cc1ccccc1NC(=S)NN1C(=O)CS[C@H]1c1ccccc1C(=O)OCCOCCOC(=O)c1ccc(-c2c3nc(c(-c4ccc(S(=O)(=O)[O-])cc4)c4ccc([nH]4)c(-c4ccc(S(=O)(=O)[O-])cc4)c4nc(c(-c5ccc(S(=O)(=O)[O-])cc5)c5ccc2[nH]5)C=C4)C=C3)cc1
REMARK SMILES IDX 28 1 27 2 26 3 24 4 25 5 23 6 18 7 19 8 20 9 22 10 21 11
REMARK SMILES IDX 17 12 12 13 13 14 14 15 15 16 16 17 11 18 9 20 10 21 8 22
REMARK SMILES IDX 7 24 1 25 2 26 3 27 4 28 6 29 5 30 29 31 30 32 31 33 32 34
REMARK SMILES IDX 33 35 34 36 35 37 36 38 94 39 37 40 93 41 38 42 39 43 40 44
REMARK SMILES IDX 87 45 41 46 92 47 86 48 88 49 42 50 91 51 85 52 84 53 43 55
REMARK SMILES IDX 73 56 54 57 72 58 55 59 58 60 71 61 89 62 56 63 57 64 70 66
REMARK SMILES IDX 90 67 59 68 44 69 45 70 53 71 46 72 52 73 47 74 48 75 49 76
REMARK SMILES IDX 50 77 51 78 74 79 75 80 83 81 76 82 82 83 77 84 78 85 79 86
REMARK SMILES IDX 80 87 81 88 60 89 61 90 69 91 62 92 68 93 63 94 64 95 65 96
REMARK SMILES IDX 66 97 67 98
REMARK H PARENT 11 19 8 23 88 54 58 65
REMARK Flexibility Score: inf
ROOT
ATOM      1  C   UNL A   1      33.856  31.647  27.624  1.00  0.00     0.202 C 
ENDROOT
BRANCH   1   2
ATOM      2  C   UNL A   1      32.386  30.848  26.889  1.00  0.00     0.261 C 
BRANCH   2   3
ATOM      3  O   UNL A   1      32.288  29.462  25.784  1.00  0.00    -0.460 OA
BRANCH   3   4
ATOM      4  C   UNL A   1      31.541  28.363  25.202  1.00  0.00     0.338 C 
ATOM      5  O   UNL A   1      30.645  28.621  24.388  1.00  0.00    -0.246 OA
BRANCH   4   6
ATOM      6  C   UNL A   1      31.564  26.767  25.362  1.00  0.00     0.066 A 
ATOM      7  C   UNL A   1      32.684  25.943  25.613  1.00  0.00     0.001 A 
ATOM      8  C   UNL A   1      32.560  24.757  26.371  1.00  0.00     0.008 A 
ATOM      9  C   UNL A   1      31.326  24.154  26.503  1.00  0.00     0.000 A 
ATOM     10  C   UNL A   1      30.331  26.076  25.413  1.00  0.00     0.016 A 
ATOM     11  C   UNL A   1      30.231  24.755  25.901  1.00  0.00     0.001 A 
BRANCH   7  12
ATOM     12  C   UNL A   1      33.918  26.099  24.742  1.00  0.00     0.197 C 
ATOM     13  N   UNL A   1      34.265  24.797  24.300  1.00  0.00    -0.236 N 
ATOM     14  C   UNL A   1      33.113  24.557  23.319  1.00  0.00     0.252 C 
ATOM     15  O   UNL A   1      32.193  23.743  23.297  1.00  0.00    -0.272 OA
ATOM     16  C   UNL A   1      32.995  25.719  22.363  1.00  0.00     0.174 C 
ATOM     17  S   UNL A   1      33.655  27.114  23.262  1.00  0.00    -0.120 SA
BRANCH  13  18
ATOM     18  N   UNL A   1      35.051  23.883  25.613  1.00  0.00    -0.270 N 
ATOM     19  H   UNL A   1      34.695  24.208  26.471  1.00  0.00     0.191 HD
BRANCH  18  20
ATOM     20  C   UNL A   1      36.048  22.805  25.901  1.00  0.00     0.189 C 
ATOM     21  S   UNL A   1      35.091  21.369  25.917  1.00  0.00    -0.039 S 
BRANCH  20  22
ATOM     22  N   UNL A   1      37.534  22.701  26.109  1.00  0.00    -0.331 N 
ATOM     23  H   UNL A   1      37.720  21.780  25.813  1.00  0.00     0.169 HD
BRANCH  22  24
ATOM     24  C   UNL A   1      39.075  23.247  26.558  1.00  0.00     0.043 A 
ATOM     25  C   UNL A   1      41.079  22.038  28.090  1.00  0.00     0.046 C 
ATOM     26  C   UNL A   1      40.271  22.351  26.683  1.00  0.00    -0.028 A 
ATOM     27  C   UNL A   1      41.497  22.756  26.060  1.00  0.00     0.005 A 
ATOM     28  C   UNL A   1      41.842  24.088  26.189  1.00  0.00     0.000 A 
ATOM     29  C   UNL A   1      39.472  24.568  26.694  1.00  0.00     0.026 A 
ATOM     30  C   UNL A   1      40.838  24.973  26.575  1.00  0.00     0.002 A 
ENDBRANCH  22  24
ENDBRANCH  20  22
ENDBRANCH  18  20
ENDBRANCH  13  18
ENDBRANCH   7  12
ENDBRANCH   4   6
ENDBRANCH   3   4
ENDBRANCH   2   3
ENDBRANCH   1   2
BRANCH   1  31
ATOM     31  O   UNL A   1      35.185  30.994  27.835  1.00  0.00    -0.374 OA
BRANCH  31  32
ATOM     32  C   UNL A   1      36.121  31.458  28.830  1.00  0.00     0.202 C 
BRANCH  32  33
ATOM     33  C   UNL A   1      36.149  30.551  30.071  1.00  0.00     0.261 C 
BRANCH  33  34
ATOM     34  O   UNL A   1      37.503  30.082  30.298  1.00  0.00    -0.460 OA
BRANCH  34  35
ATOM     35  C   UNL A   1      37.676  29.126  31.239  1.00  0.00     0.338 C 
ATOM     36  O   UNL A   1      37.047  29.045  32.297  1.00  0.00    -0.246 OA
BRANCH  35  37
ATOM     37  C   UNL A   1      38.858  28.282  30.873  1.00  0.00     0.060 A 
ATOM     38  C   UNL A   1      39.991  28.265  31.681  1.00  0.00     0.016 A 
ATOM     39  C   UNL A   1      38.966  27.663  29.632  1.00  0.00     0.016 A 
ATOM     40  C   UNL A   1      41.251  27.913  31.130  1.00  0.00     0.010 A 
ATOM     41  C   UNL A   1      40.237  27.346  29.115  1.00  0.00     0.010 A 
ATOM     42  C   UNL A   1      41.412  27.694  29.793  1.00  0.00    -0.014 A 
BRANCH  42  43
ATOM     43  C   UNL A   1      42.723  27.933  29.088  1.00  0.00     0.031 A 
ATOM     44  C   UNL A   1      43.586  26.717  28.932  1.00  0.00     0.074 A 
ATOM     45  C   UNL A   1      43.183  29.045  28.394  1.00  0.00     0.049 A 
ATOM     46  N   UNL A   1      44.770  26.695  28.406  1.00  0.00    -0.248 NA
ATOM     47  C   UNL A   1      43.170  25.395  29.404  1.00  0.00     0.031 C 
ATOM     48  C   UNL A   1      43.810  28.792  27.095  1.00  0.00     0.029 A 
ATOM     49  N   UNL A   1      43.047  30.463  28.322  1.00  0.00    -0.354 N 
ATOM     50  C   UNL A   1      44.934  25.409  27.956  1.00  0.00     0.074 A 
ATOM     51  C   UNL A   1      44.090  24.621  28.822  1.00  0.00     0.031 C 
ATOM     52  C   UNL A   1      44.145  29.930  26.504  1.00  0.00     0.029 A 
ATOM     53  C   UNL A   1      43.876  31.069  27.364  1.00  0.00     0.049 A 
ATOM     54  H   UNL A   1      42.427  30.973  28.893  1.00  0.00     0.167 HD
ATOM     55  C   UNL A   1      45.526  25.173  26.750  1.00  0.00     0.031 A 
ATOM     56  C   UNL A   1      44.377  32.318  27.044  1.00  0.00     0.031 A 
ATOM     57  C   UNL A   1      46.152  26.365  26.134  1.00  0.00     0.049 A 
ATOM     58  C   UNL A   1      45.883  32.073  26.794  1.00  0.00     0.074 A 
ATOM     59  C   UNL A   1      46.040  26.960  24.886  1.00  0.00     0.029 A 
ATOM     60  N   UNL A   1      46.917  27.257  26.902  1.00  0.00    -0.354 N 
ATOM     61  N   UNL A   1      46.311  30.867  26.545  1.00  0.00    -0.248 NA
ATOM     62  C   UNL A   1      47.036  32.967  26.924  1.00  0.00     0.031 C 
ATOM     63  C   UNL A   1      46.722  28.208  24.918  1.00  0.00     0.029 A 
ATOM     64  C   UNL A   1      47.283  28.381  26.173  1.00  0.00     0.049 A 
ATOM     65  H   UNL A   1      47.163  27.105  27.843  1.00  0.00     0.167 HD
ATOM     66  C   UNL A   1      47.634  30.721  26.706  1.00  0.00     0.074 A 
ATOM     67  C   UNL A   1      48.074  32.092  26.893  1.00  0.00     0.031 C 
ATOM     68  C   UNL A   1      48.136  29.450  26.740  1.00  0.00     0.031 A 
BRANCH  55  69
ATOM     69  C   UNL A   1      45.362  23.846  26.006  1.00  0.00    -0.014 A 
ATOM     70  C   UNL A   1      45.727  22.637  26.630  1.00  0.00     0.010 A 
ATOM     71  C   UNL A   1      44.898  23.723  24.676  1.00  0.00     0.010 A 
ATOM     72  C   UNL A   1      45.574  21.389  25.994  1.00  0.00     0.020 A 
ATOM     73  C   UNL A   1      44.689  22.486  24.047  1.00  0.00     0.020 A 
ATOM     74  C   UNL A   1      45.025  21.319  24.715  1.00  0.00     0.054 A 
BRANCH  74  75
ATOM     75  S   UNL A   1      44.741  19.706  23.939  1.00  0.00     0.124 S 
ATOM     76  O   UNL A   1      43.549  19.229  24.635  1.00  0.00    -0.237 OA
ATOM     77  O   UNL A   1      44.556  20.058  22.534  1.00  0.00    -0.237 OA
ATOM     78  O   UNL A   1      45.965  18.960  24.230  1.00  0.00    -0.744 OA
ENDBRANCH  74  75
ENDBRANCH  55  69
BRANCH  56  79
ATOM     79  C   UNL A   1      43.704  33.639  27.365  1.00  0.00    -0.014 A 
ATOM     80  C   UNL A   1      43.776  34.290  28.627  1.00  0.00     0.010 A 
ATOM     81  C   UNL A   1      43.317  34.462  26.323  1.00  0.00     0.010 A 
ATOM     82  C   UNL A   1      43.698  35.721  28.775  1.00  0.00     0.020 A 
ATOM     83  C   UNL A   1      43.268  35.872  26.465  1.00  0.00     0.020 A 
ATOM     84  C   UNL A   1      43.530  36.521  27.655  1.00  0.00     0.054 A 
BRANCH  84  85
ATOM     85  S   UNL A   1      44.079  38.301  27.589  1.00  0.00     0.124 S 
ATOM     86  O   UNL A   1      45.348  38.236  26.880  1.00  0.00    -0.237 OA
ATOM     87  O   UNL A   1      42.991  38.966  26.881  1.00  0.00    -0.237 OA
ATOM     88  O   UNL A   1      44.177  38.710  28.986  1.00  0.00    -0.744 OA
ENDBRANCH  84  85
ENDBRANCH  56  79
BRANCH  68  89
ATOM     89  C   UNL A   1      49.509  29.111  27.221  1.00  0.00    -0.014 A 
ATOM     90  C   UNL A   1      50.594  28.904  26.356  1.00  0.00     0.010 A 
ATOM     91  C   UNL A   1      49.761  29.087  28.611  1.00  0.00     0.010 A 
ATOM     92  C   UNL A   1      51.854  28.571  26.858  1.00  0.00     0.020 A 
ATOM     93  C   UNL A   1      51.024  28.801  29.122  1.00  0.00     0.020 A 
ATOM     94  C   UNL A   1      52.052  28.497  28.238  1.00  0.00     0.054 A 
BRANCH  94  95
ATOM     95  S   UNL A   1      53.667  27.990  28.866  1.00  0.00     0.124 S 
ATOM     96  O   UNL A   1      53.297  27.231  30.058  1.00  0.00    -0.237 OA
ATOM     97  O   UNL A   1      54.209  27.198  27.764  1.00  0.00    -0.237 OA
ATOM     98  O   UNL A   1      54.356  29.253  29.115  1.00  0.00    -0.744 OA
ENDBRANCH  94  95
ENDBRANCH  68  89
ENDBRANCH  42  43
ENDBRANCH  35  37
ENDBRANCH  34  35
ENDBRANCH  33  34
ENDBRANCH  32  33
ENDBRANCH  31  32
ENDBRANCH   1  31
TORSDOF 22
ENDMDL
MODEL 3
REMARK VINA RESULT:     -12.8      2.299      2.947
REMARK SMILES Cc1ccccc1NC(=S)NN1C(=O)CS[C@H]1c1ccccc1C(=O)OCCOCCOC(=O)c1ccc(-c2c3nc(c(-c4ccc(S(=O)(=O)[O-])cc4)c4ccc([nH]4)c(-c4ccc(S(=O)(=O)[O-])cc4)c4nc(c(-c5ccc(S(=O)(=O)[O-])cc5)c5ccc2[nH]5)C=C4)C=C3)cc1
REMARK SMILES IDX 28 1 27 2 26 3 24 4 25 5 23 6 18 7 19 8 20 9 22 10 21 11
REMARK SMILES IDX 17 12 12 13 13 14 14 15 15 16 16 17 11 18 9 20 10 21 8 22
REMARK SMILES IDX 7 24 1 25 2 26 3 27 4 28 6 29 5 30 29 31 30 32 31 33 32 34
REMARK SMILES IDX 33 35 34 36 35 37 36 38 94 39 37 40 93 41 38 42 39 43 40 44
REMARK SMILES IDX 87 45 41 46 92 47 86 48 88 49 42 50 91 51 85 52 84 53 43 55
REMARK SMILES IDX 73 56 54 57 72 58 55 59 58 60 71 61 89 62 56 63 57 64 70 66
REMARK SMILES IDX 90 67 59 68 44 69 45 70 53 71 46 72 52 73 47 74 48 75 49 76
REMARK SMILES IDX 50 77 51 78 74 79 75 80 83 81 76 82 82 83 77 84 78 85 79 86
REMARK SMILES IDX 80 87 81 88 60 89 61 90 69 91 62 92 68 93 63 94 64 95 65 96
REMARK SMILES IDX 66 97 67 98
REMARK H PARENT 11 19 8 23 88 54 58 65
REMARK Flexibility Score: inf
ROOT
ATOM      1  C   UNL A   1      33.008  32.246  27.607  1.00  0.00     0.202 C 
ENDROOT
BRANCH   1   2
ATOM      2  C   UNL A   1      31.647  31.372  26.759  1.00  0.00     0.261 C 
BRANCH   2   3
ATOM      3  O   UNL A   1      31.705  30.273  25.367  1.00  0.00    -0.460 OA
BRANCH   3   4
ATOM      4  C   UNL A   1      31.060  29.316  24.487  1.00  0.00     0.338 C 
ATOM      5  O   UNL A   1      30.345  29.742  23.571  1.00  0.00    -0.246 OA
BRANCH   4   6
ATOM      6  C   UNL A   1      31.015  27.715  24.390  1.00  0.00     0.066 A 
ATOM      7  C   UNL A   1      31.990  26.799  24.846  1.00  0.00     0.001 A 
ATOM      8  C   UNL A   1      31.619  25.523  25.330  1.00  0.00     0.008 A 
ATOM      9  C   UNL A   1      30.401  24.981  24.971  1.00  0.00     0.000 A 
ATOM     10  C   UNL A   1      29.824  27.099  23.943  1.00  0.00     0.016 A 
ATOM     11  C   UNL A   1      29.561  25.729  24.160  1.00  0.00     0.001 A 
BRANCH   7  12
ATOM     12  C   UNL A   1      33.438  27.007  24.441  1.00  0.00     0.197 C 
ATOM     13  N   UNL A   1      33.891  25.769  23.918  1.00  0.00    -0.236 N 
ATOM     14  C   UNL A   1      33.107  25.759  22.602  1.00  0.00     0.252 C 
ATOM     15  O   UNL A   1      32.232  25.020  22.159  1.00  0.00    -0.272 OA
ATOM     16  C   UNL A   1      33.314  27.060  21.865  1.00  0.00     0.174 C 
ATOM     17  S   UNL A   1      33.671  28.253  23.144  1.00  0.00    -0.120 SA
BRANCH  13  18
ATOM     18  N   UNL A   1      34.208  24.614  25.239  1.00  0.00    -0.270 N 
ATOM     19  H   UNL A   1      33.369  24.475  25.733  1.00  0.00     0.191 HD
BRANCH  18  20
ATOM     20  C   UNL A   1      35.271  23.775  25.876  1.00  0.00     0.189 C 
ATOM     21  S   UNL A   1      34.373  22.572  26.727  1.00  0.00    -0.039 S 
BRANCH  20  22
ATOM     22  N   UNL A   1      36.774  23.726  25.900  1.00  0.00    -0.331 N 
ATOM     23  H   UNL A   1      37.014  24.671  25.763  1.00  0.00     0.169 HD
BRANCH  22  24
ATOM     24  C   UNL A   1      38.296  22.989  26.025  1.00  0.00     0.043 A 
ATOM     25  C   UNL A   1      40.874  24.073  25.952  1.00  0.00     0.046 C 
ATOM     26  C   UNL A   1      39.473  23.622  26.705  1.00  0.00    -0.028 A 
ATOM     27  C   UNL A   1      40.220  22.841  27.645  1.00  0.00     0.005 A 
ATOM     28  C   UNL A   1      40.482  21.531  27.288  1.00  0.00     0.000 A 
ATOM     29  C   UNL A   1      38.607  21.680  25.687  1.00  0.00     0.026 A 
ATOM     30  C   UNL A   1      39.716  20.985  26.261  1.00  0.00     0.002 A 
ENDBRANCH  22  24
ENDBRANCH  20  22
ENDBRANCH  18  20
ENDBRANCH  13  18
ENDBRANCH   7  12
ENDBRANCH   4   6
ENDBRANCH   3   4
ENDBRANCH   2   3
ENDBRANCH   1   2
BRANCH   1  31
ATOM     31  O   UNL A   1      34.466  32.066  27.325  1.00  0.00    -0.374 OA
BRANCH  31  32
ATOM     32  C   UNL A   1      35.464  32.120  28.365  1.00  0.00     0.202 C 
BRANCH  32  33
ATOM     33  C   UNL A   1      36.554  31.051  28.184  1.00  0.00     0.261 C 
BRANCH  33  34
ATOM     34  O   UNL A   1      37.557  31.201  29.221  1.00  0.00    -0.460 OA
BRANCH  34  35
ATOM     35  C   UNL A   1      37.814  30.119  29.991  1.00  0.00     0.338 C 
ATOM     36  O   UNL A   1      37.475  29.984  31.169  1.00  0.00    -0.246 OA
BRANCH  35  37
ATOM     37  C   UNL A   1      38.715  29.185  29.242  1.00  0.00     0.060 A 
ATOM     38  C   UNL A   1      39.298  28.098  29.885  1.00  0.00     0.016 A 
ATOM     39  C   UNL A   1      39.175  29.473  27.961  1.00  0.00     0.016 A 
ATOM     40  C   UNL A   1      40.497  27.531  29.379  1.00  0.00     0.010 A 
ATOM     41  C   UNL A   1      40.378  28.902  27.503  1.00  0.00     0.010 A 
ATOM     42  C   UNL A   1      41.166  28.092  28.330  1.00  0.00    -0.014 A 
BRANCH  42  43
ATOM     43  C   UNL A   1      42.656  27.949  28.155  1.00  0.00     0.031 A 
ATOM     44  C   UNL A   1      43.191  26.569  28.392  1.00  0.00     0.074 A 
ATOM     45  C   UNL A   1      43.590  28.834  27.629  1.00  0.00     0.049 A 
ATOM     46  N   UNL A   1      44.440  26.225  28.347  1.00  0.00    -0.248 NA
ATOM     47  C   UNL A   1      42.323  25.441  28.739  1.00  0.00     0.031 C 
ATOM     48  C   UNL A   1      44.550  28.278  26.673  1.00  0.00     0.029 A 
ATOM     49  N   UNL A   1      43.843  30.225  27.442  1.00  0.00    -0.354 N 
ATOM     50  C   UNL A   1      44.427  24.885  28.055  1.00  0.00     0.074 A 
ATOM     51  C   UNL A   1      43.167  24.419  28.581  1.00  0.00     0.031 C 
ATOM     52  C   UNL A   1      45.341  29.228  26.194  1.00  0.00     0.029 A 
ATOM     53  C   UNL A   1      45.078  30.505  26.835  1.00  0.00     0.049 A 
ATOM     54  H   UNL A   1      43.209  30.927  27.715  1.00  0.00     0.167 HD
ATOM     55  C   UNL A   1      45.328  24.366  27.170  1.00  0.00     0.031 A 
ATOM     56  C   UNL A   1      45.950  31.564  26.664  1.00  0.00     0.031 A 
ATOM     57  C   UNL A   1      46.403  25.304  26.775  1.00  0.00     0.049 A 
ATOM     58  C   UNL A   1      47.338  30.974  27.006  1.00  0.00     0.074 A 
ATOM     59  C   UNL A   1      46.887  25.732  25.548  1.00  0.00     0.029 A 
ATOM     60  N   UNL A   1      47.045  26.110  27.728  1.00  0.00    -0.354 N 
ATOM     61  N   UNL A   1      47.515  29.683  26.995  1.00  0.00    -0.248 NA
ATOM     62  C   UNL A   1      48.554  31.613  27.514  1.00  0.00     0.031 C 
ATOM     63  C   UNL A   1      47.800  26.800  25.771  1.00  0.00     0.029 A 
ATOM     64  C   UNL A   1      47.910  27.021  27.135  1.00  0.00     0.049 A 
ATOM     65  H   UNL A   1      46.900  26.038  28.700  1.00  0.00     0.167 HD
ATOM     66  C   UNL A   1      48.617  29.283  27.645  1.00  0.00     0.074 A 
ATOM     67  C   UNL A   1      49.288  30.543  27.915  1.00  0.00     0.031 C 
ATOM     68  C   UNL A   1      48.745  27.952  27.926  1.00  0.00     0.031 A 
BRANCH  55  69
ATOM     69  C   UNL A   1      45.113  23.015  26.485  1.00  0.00    -0.014 A 
ATOM     70  C   UNL A   1      46.152  22.432  25.733  1.00  0.00     0.010 A 
ATOM     71  C   UNL A   1      43.899  22.290  26.502  1.00  0.00     0.010 A 
ATOM     72  C   UNL A   1      46.009  21.181  25.101  1.00  0.00     0.020 A 
ATOM     73  C   UNL A   1      43.757  21.018  25.925  1.00  0.00     0.020 A 
ATOM     74  C   UNL A   1      44.820  20.465  25.228  1.00  0.00     0.054 A 
BRANCH  74  75
ATOM     75  S   UNL A   1      44.674  18.814  24.495  1.00  0.00     0.124 S 
ATOM     76  O   UNL A   1      44.743  19.099  23.064  1.00  0.00    -0.237 OA
ATOM     77  O   UNL A   1      45.824  18.113  25.058  1.00  0.00    -0.237 OA
ATOM     78  O   UNL A   1      43.373  18.340  24.966  1.00  0.00    -0.744 OA
ENDBRANCH  74  75
ENDBRANCH  55  69
BRANCH  56  79
ATOM     79  C   UNL A   1      45.556  33.029  26.646  1.00  0.00    -0.014 A 
ATOM     80  C   UNL A   1      44.573  33.584  25.783  1.00  0.00     0.010 A 
ATOM     81  C   UNL A   1      45.859  33.816  27.742  1.00  0.00     0.010 A 
ATOM     82  C   UNL A   1      43.780  34.735  26.136  1.00  0.00     0.020 A 
ATOM     83  C   UNL A   1      45.062  34.932  28.102  1.00  0.00     0.020 A 
ATOM     84  C   UNL A   1      43.978  35.357  27.360  1.00  0.00     0.054 A 
BRANCH  84  85
ATOM     85  S   UNL A   1      42.655  36.351  28.217  1.00  0.00     0.124 S 
ATOM     86  O   UNL A   1      43.406  37.388  28.906  1.00  0.00    -0.237 OA
ATOM     87  O   UNL A   1      41.806  36.804  27.120  1.00  0.00    -0.237 OA
ATOM     88  O   UNL A   1      41.984  35.396  29.092  1.00  0.00    -0.744 OA
ENDBRANCH  84  85
ENDBRANCH  56  79
BRANCH  68  89
ATOM     89  C   UNL A   1      49.733  27.398  28.900  1.00  0.00    -0.014 A 
ATOM     90  C   UNL A   1      49.429  27.165  30.250  1.00  0.00     0.010 A 
ATOM     91  C   UNL A   1      51.005  26.999  28.432  1.00  0.00     0.010 A 
ATOM     92  C   UNL A   1      50.397  26.662  31.122  1.00  0.00     0.020 A 
ATOM     93  C   UNL A   1      51.961  26.454  29.284  1.00  0.00     0.020 A 
ATOM     94  C   UNL A   1      51.665  26.335  30.636  1.00  0.00     0.054 A 
BRANCH  94  95
ATOM     95  S   UNL A   1      52.925  25.760  31.794  1.00  0.00     0.124 S 
ATOM     96  O   UNL A   1      52.549  24.359  31.969  1.00  0.00    -0.237 OA
ATOM     97  O   UNL A   1      54.168  25.987  31.061  1.00  0.00    -0.237 OA
ATOM     98  O   UNL A   1      52.735  26.610  32.967  1.00  0.00    -0.744 OA
ENDBRANCH  94  95
ENDBRANCH  68  89
ENDBRANCH  42  43
ENDBRANCH  35  37
ENDBRANCH  34  35
ENDBRANCH  33  34
ENDBRANCH  32  33
ENDBRANCH  31  32
ENDBRANCH   1  31
TORSDOF 22
ENDMDL
