MODEL 1
REMARK VINA RESULT:     -10.2      0.000      0.000
REMARK SMILES O=C(OCCOCCOC(=O)c1ccc(S(=O)(=O)NCC[NH+]2CCCC2)c(F)c1)c1ccc(-c2c3nc(c(-c4ccc(S(=O)(=O)[O-])cc4)c4ccc([nH]4)c(-c4ccc(S(=O)(=O)[O-])cc4)c4nc(c(-c5ccc(S(=O)(=O)[O-])cc5)c5ccc2[nH]5)C=C4)C=C3)cc1
REMARK SMILES IDX 7 1 6 2 5 3 4 4 3 5 2 6 1 7 30 8 31 9 89 10 32 11 88 12
REMARK SMILES IDX 33 13 34 14 35 15 82 16 36 17 87 18 81 19 83 20 37 21 86 22
REMARK SMILES IDX 80 23 79 24 38 26 68 27 49 28 67 29 50 30 53 31 66 32 84 33
REMARK SMILES IDX 51 34 52 35 65 37 85 38 54 39 39 40 40 41 48 42 41 43 47 44
REMARK SMILES IDX 42 45 43 46 44 47 45 48 46 49 69 50 70 51 78 52 71 53 77 54
REMARK SMILES IDX 72 55 73 56 74 57 75 58 76 59 55 60 56 61 64 62 57 63 63 64
REMARK SMILES IDX 58 65 59 66 60 67 61 68 62 69 8 70 9 71 10 72 11 73 12 74
REMARK SMILES IDX 13 75 29 76 14 77 27 78 15 79 28 80 16 81 17 82 18 83 19 84
REMARK SMILES IDX 20 86 21 87 22 88 23 89 26 90 24 92 25 93
REMARK H PARENT 83 25 53 36 19 85 22 91
REMARK Flexibility Score: inf
ROOT
ATOM      1  C   UNL A   1      37.085  22.616  24.334  1.00  0.00     0.202 C 
ENDROOT
BRANCH   1   2
ATOM      2  O   UNL A   1      37.851  22.878  25.517  1.00  0.00    -0.374 OA
BRANCH   2   3
ATOM      3  C   UNL A   1      38.713  21.833  25.961  1.00  0.00     0.202 C 
BRANCH   3   4
ATOM      4  C   UNL A   1      40.016  22.311  26.610  1.00  0.00     0.261 C 
BRANCH   4   5
ATOM      5  O   UNL A   1      40.353  23.627  26.145  1.00  0.00    -0.460 OA
BRANCH   5   6
ATOM      6  C   UNL A   1      41.344  24.438  26.589  1.00  0.00     0.338 C 
ATOM      7  O   UNL A   1      42.485  24.251  26.170  1.00  0.00    -0.246 OA
BRANCH   6   8
ATOM      8  C   UNL A   1      41.131  25.533  27.583  1.00  0.00     0.060 A 
ATOM      9  C   UNL A   1      40.076  25.579  28.497  1.00  0.00     0.016 A 
ATOM     10  C   UNL A   1      42.129  26.516  27.682  1.00  0.00     0.016 A 
ATOM     11  C   UNL A   1      39.983  26.571  29.458  1.00  0.00     0.010 A 
ATOM     12  C   UNL A   1      42.069  27.497  28.677  1.00  0.00     0.010 A 
ATOM     13  C   UNL A   1      40.994  27.516  29.571  1.00  0.00    -0.014 A 
BRANCH  13  14
ATOM     14  C   UNL A   1      40.872  28.515  30.642  1.00  0.00     0.031 A 
ATOM     15  C   UNL A   1      41.833  28.463  31.783  1.00  0.00     0.074 A 
ATOM     16  C   UNL A   1      39.974  29.509  30.501  1.00  0.00     0.049 A 
ATOM     17  N   UNL A   1      41.872  29.205  32.853  1.00  0.00    -0.248 NA
ATOM     18  C   UNL A   1      42.903  27.452  31.706  1.00  0.00     0.031 C 
ATOM     19  C   UNL A   1      39.090  29.691  29.343  1.00  0.00     0.029 A 
ATOM     20  N   UNL A   1      39.668  30.563  31.318  1.00  0.00    -0.354 N 
ATOM     21  C   UNL A   1      42.943  28.727  33.598  1.00  0.00     0.074 A 
ATOM     22  C   UNL A   1      43.540  27.643  32.851  1.00  0.00     0.031 C 
ATOM     23  C   UNL A   1      38.349  30.795  29.524  1.00  0.00     0.029 A 
ATOM     24  C   UNL A   1      38.646  31.350  30.838  1.00  0.00     0.049 A 
ATOM     25  H   UNL A   1      40.134  30.743  32.167  1.00  0.00     0.167 HD
ATOM     26  C   UNL A   1      43.360  29.153  34.810  1.00  0.00     0.031 A 
ATOM     27  C   UNL A   1      37.992  32.368  31.428  1.00  0.00     0.031 A 
ATOM     28  C   UNL A   1      42.731  30.232  35.520  1.00  0.00     0.049 A 
ATOM     29  C   UNL A   1      38.415  32.748  32.823  1.00  0.00     0.074 A 
ATOM     30  C   UNL A   1      43.040  30.738  36.767  1.00  0.00     0.029 A 
ATOM     31  N   UNL A   1      41.651  30.963  35.041  1.00  0.00    -0.354 N 
ATOM     32  N   UNL A   1      39.415  32.277  33.534  1.00  0.00    -0.248 NA
ATOM     33  C   UNL A   1      37.617  33.772  33.505  1.00  0.00     0.031 C 
ATOM     34  C   UNL A   1      42.104  31.731  37.070  1.00  0.00     0.029 A 
ATOM     35  C   UNL A   1      41.253  31.888  35.986  1.00  0.00     0.049 A 
ATOM     36  H   UNL A   1      41.234  30.840  34.157  1.00  0.00     0.167 HD
ATOM     37  C   UNL A   1      39.367  32.950  34.747  1.00  0.00     0.074 A 
ATOM     38  C   UNL A   1      38.262  33.886  34.658  1.00  0.00     0.031 C 
ATOM     39  C   UNL A   1      40.148  32.803  35.844  1.00  0.00     0.031 A 
BRANCH  26  40
ATOM     40  C   UNL A   1      44.476  28.397  35.472  1.00  0.00    -0.014 A 
ATOM     41  C   UNL A   1      44.233  27.278  36.287  1.00  0.00     0.010 A 
ATOM     42  C   UNL A   1      45.803  28.802  35.239  1.00  0.00     0.010 A 
ATOM     43  C   UNL A   1      45.301  26.583  36.865  1.00  0.00     0.020 A 
ATOM     44  C   UNL A   1      46.872  28.098  35.796  1.00  0.00     0.020 A 
ATOM     45  C   UNL A   1      46.614  26.996  36.611  1.00  0.00     0.054 A 
BRANCH  45  46
ATOM     46  S   UNL A   1      47.981  26.042  37.326  1.00  0.00     0.124 S 
ATOM     47  O   UNL A   1      48.952  26.041  36.234  1.00  0.00    -0.237 OA
ATOM     48  O   UNL A   1      48.351  26.840  38.493  1.00  0.00    -0.237 OA
ATOM     49  O   UNL A   1      47.382  24.744  37.626  1.00  0.00    -0.744 OA
ENDBRANCH  45  46
ENDBRANCH  26  40
BRANCH  27  50
ATOM     50  C   UNL A   1      36.815  33.006  30.771  1.00  0.00    -0.014 A 
ATOM     51  C   UNL A   1      36.972  33.982  29.771  1.00  0.00     0.010 A 
ATOM     52  C   UNL A   1      35.511  32.667  31.185  1.00  0.00     0.010 A 
ATOM     53  C   UNL A   1      35.855  34.633  29.233  1.00  0.00     0.020 A 
ATOM     54  C   UNL A   1      34.392  33.289  30.625  1.00  0.00     0.020 A 
ATOM     55  C   UNL A   1      34.572  34.287  29.669  1.00  0.00     0.054 A 
BRANCH  55  56
ATOM     56  S   UNL A   1      33.139  35.152  28.970  1.00  0.00     0.124 S 
ATOM     57  O   UNL A   1      32.312  35.369  30.152  1.00  0.00    -0.237 OA
ATOM     58  O   UNL A   1      33.742  36.348  28.389  1.00  0.00    -0.237 OA
ATOM     59  O   UNL A   1      32.604  34.199  28.000  1.00  0.00    -0.744 OA
ENDBRANCH  55  56
ENDBRANCH  27  50
BRANCH  39  60
ATOM     60  C   UNL A   1      39.838  33.680  37.023  1.00  0.00    -0.014 A 
ATOM     61  C   UNL A   1      38.896  33.282  37.986  1.00  0.00     0.010 A 
ATOM     62  C   UNL A   1      40.559  34.873  37.207  1.00  0.00     0.010 A 
ATOM     63  C   UNL A   1      38.669  34.072  39.113  1.00  0.00     0.020 A 
ATOM     64  C   UNL A   1      40.357  35.649  38.348  1.00  0.00     0.020 A 
ATOM     65  C   UNL A   1      39.407  35.248  39.290  1.00  0.00     0.054 A 
BRANCH  65  66
ATOM     66  S   UNL A   1      39.150  36.216  40.799  1.00  0.00     0.124 S 
ATOM     67  O   UNL A   1      38.438  37.386  40.291  1.00  0.00    -0.237 OA
ATOM     68  O   UNL A   1      38.359  35.311  41.628  1.00  0.00    -0.237 OA
ATOM     69  O   UNL A   1      40.504  36.471  41.283  1.00  0.00    -0.744 OA
ENDBRANCH  65  66
ENDBRANCH  39  60
ENDBRANCH  13  14
ENDBRANCH   6   8
ENDBRANCH   5   6
ENDBRANCH   4   5
ENDBRANCH   3   4
ENDBRANCH   2   3
ENDBRANCH   1   2
BRANCH   1  70
ATOM     70  C   UNL A   1      36.001  21.585  24.663  1.00  0.00     0.261 C 
BRANCH  70  71
ATOM     71  O   UNL A   1      34.879  22.294  25.212  1.00  0.00    -0.460 OA
BRANCH  71  72
ATOM     72  C   UNL A   1      33.834  22.429  24.349  1.00  0.00     0.338 C 
ATOM     73  O   UNL A   1      33.010  21.600  24.044  1.00  0.00    -0.246 OA
BRANCH  72  74
ATOM     74  C   UNL A   1      33.735  23.861  23.979  1.00  0.00     0.063 A 
ATOM     75  C   UNL A   1      33.942  24.868  24.923  1.00  0.00     0.017 A 
ATOM     76  C   UNL A   1      33.384  24.188  22.661  1.00  0.00     0.056 A 
ATOM     77  C   UNL A   1      33.839  26.200  24.536  1.00  0.00     0.026 A 
ATOM     78  C   UNL A   1      33.277  25.524  22.281  1.00  0.00     0.144 A 
ATOM     79  C   UNL A   1      33.528  26.525  23.205  1.00  0.00     0.118 A 
ATOM     80  F   UNL A   1      32.924  25.799  21.019  1.00  0.00    -0.205 F 
BRANCH  79  81
ATOM     81  S   UNL A   1      33.511  28.231  22.787  1.00  0.00     0.243 S 
ATOM     82  O   UNL A   1      33.723  28.944  24.028  1.00  0.00    -0.207 OA
ATOM     83  O   UNL A   1      34.432  28.391  21.684  1.00  0.00    -0.207 OA
BRANCH  81  84
ATOM     84  N   UNL A   1      31.998  28.625  22.204  1.00  0.00    -0.205 NA
ATOM     85  H   UNL A   1      31.917  28.167  21.297  1.00  0.00     0.141 HD
BRANCH  84  86
ATOM     86  C   UNL A   1      30.762  28.309  22.932  1.00  0.00     0.160 C 
BRANCH  86  87
ATOM     87  C   UNL A   1      30.225  29.471  23.788  1.00  0.00     0.278 C 
BRANCH  87  88
ATOM     88  N   UNL A   1      29.930  30.670  22.969  1.00  0.00    -0.334 N 
ATOM     89  C   UNL A   1      29.095  31.633  23.715  1.00  0.00     0.262 C 
ATOM     90  C   UNL A   1      29.106  30.335  21.790  1.00  0.00     0.262 C 
ATOM     91  H   UNL A   1      30.842  31.050  22.713  1.00  0.00     0.348 HD
ATOM     92  C   UNL A   1      27.685  31.090  23.596  1.00  0.00     0.067 C 
ATOM     93  C   UNL A   1      27.644  30.573  22.171  1.00  0.00     0.067 C 
ENDBRANCH  87  88
ENDBRANCH  86  87
ENDBRANCH  84  86
ENDBRANCH  81  84
ENDBRANCH  79  81
ENDBRANCH  72  74
ENDBRANCH  71  72
ENDBRANCH  70  71
ENDBRANCH   1  70
TORSDOF 22
ENDMDL
MODEL 2
REMARK VINA RESULT:     -10.0      2.055      8.515
REMARK SMILES O=C(OCCOCCOC(=O)c1ccc(S(=O)(=O)NCC[NH+]2CCCC2)c(F)c1)c1ccc(-c2c3nc(c(-c4ccc(S(=O)(=O)[O-])cc4)c4ccc([nH]4)c(-c4ccc(S(=O)(=O)[O-])cc4)c4nc(c(-c5ccc(S(=O)(=O)[O-])cc5)c5ccc2[nH]5)C=C4)C=C3)cc1
REMARK SMILES IDX 7 1 6 2 5 3 4 4 3 5 2 6 1 7 30 8 31 9 89 10 32 11 88 12
REMARK SMILES IDX 33 13 34 14 35 15 82 16 36 17 87 18 81 19 83 20 37 21 86 22
REMARK SMILES IDX 80 23 79 24 38 26 68 27 49 28 67 29 50 30 53 31 66 32 84 33
REMARK SMILES IDX 51 34 52 35 65 37 85 38 54 39 39 40 40 41 48 42 41 43 47 44
REMARK SMILES IDX 42 45 43 46 44 47 45 48 46 49 69 50 70 51 78 52 71 53 77 54
REMARK SMILES IDX 72 55 73 56 74 57 75 58 76 59 55 60 56 61 64 62 57 63 63 64
REMARK SMILES IDX 58 65 59 66 60 67 61 68 62 69 8 70 9 71 10 72 11 73 12 74
REMARK SMILES IDX 13 75 29 76 14 77 27 78 15 79 28 80 16 81 17 82 18 83 19 84
REMARK SMILES IDX 20 86 21 87 22 88 23 89 26 90 24 92 25 93
REMARK H PARENT 83 25 53 36 19 85 22 91
REMARK Flexibility Score: inf
ROOT
ATOM      1  C   UNL A   1      39.215  23.087  26.676  1.00  0.00     0.202 C 
ENDROOT
BRANCH   1   2
ATOM      2  O   UNL A   1      40.576  22.861  27.064  1.00  0.00    -0.374 OA
BRANCH   2   3
ATOM      3  C   UNL A   1      41.470  22.445  26.036  1.00  0.00     0.202 C 
BRANCH   3   4
ATOM      4  C   UNL A   1      42.490  23.506  25.607  1.00  0.00     0.261 C 
BRANCH   4   5
ATOM      5  O   UNL A   1      42.463  24.620  26.513  1.00  0.00    -0.460 OA
BRANCH   5   6
ATOM      6  C   UNL A   1      41.771  25.779  26.385  1.00  0.00     0.338 C 
ATOM      7  O   UNL A   1      41.422  26.131  25.259  1.00  0.00    -0.246 OA
BRANCH   6   8
ATOM      8  C   UNL A   1      41.427  26.666  27.538  1.00  0.00     0.060 A 
ATOM      9  C   UNL A   1      40.494  26.352  28.528  1.00  0.00     0.016 A 
ATOM     10  C   UNL A   1      42.185  27.837  27.697  1.00  0.00     0.016 A 
ATOM     11  C   UNL A   1      40.286  27.171  29.623  1.00  0.00     0.010 A 
ATOM     12  C   UNL A   1      42.016  28.651  28.822  1.00  0.00     0.010 A 
ATOM     13  C   UNL A   1      41.067  28.308  29.791  1.00  0.00    -0.014 A 
BRANCH  13  14
ATOM     14  C   UNL A   1      40.842  29.115  30.999  1.00  0.00     0.031 A 
ATOM     15  C   UNL A   1      39.702  30.078  31.014  1.00  0.00     0.074 A 
ATOM     16  C   UNL A   1      41.599  28.877  32.087  1.00  0.00     0.049 A 
ATOM     17  N   UNL A   1      39.357  30.922  31.945  1.00  0.00    -0.248 NA
ATOM     18  C   UNL A   1      38.821  30.085  29.832  1.00  0.00     0.031 C 
ATOM     19  C   UNL A   1      42.649  27.855  32.179  1.00  0.00     0.029 A 
ATOM     20  N   UNL A   1      41.593  29.455  33.327  1.00  0.00    -0.354 N 
ATOM     21  C   UNL A   1      38.246  31.590  31.448  1.00  0.00     0.074 A 
ATOM     22  C   UNL A   1      37.960  31.043  30.142  1.00  0.00     0.031 C 
ATOM     23  C   UNL A   1      43.178  27.876  33.412  1.00  0.00     0.029 A 
ATOM     24  C   UNL A   1      42.564  28.959  34.167  1.00  0.00     0.049 A 
ATOM     25  H   UNL A   1      40.956  30.156  33.593  1.00  0.00     0.167 HD
ATOM     26  C   UNL A   1      37.553  32.588  32.037  1.00  0.00     0.031 A 
ATOM     27  C   UNL A   1      42.944  29.380  35.388  1.00  0.00     0.031 A 
ATOM     28  C   UNL A   1      37.877  33.107  33.337  1.00  0.00     0.049 A 
ATOM     29  C   UNL A   1      42.217  30.564  35.970  1.00  0.00     0.074 A 
ATOM     30  C   UNL A   1      37.271  34.136  34.030  1.00  0.00     0.029 A 
ATOM     31  N   UNL A   1      38.912  32.634  34.134  1.00  0.00    -0.354 N 
ATOM     32  N   UNL A   1      41.179  31.209  35.486  1.00  0.00    -0.248 NA
ATOM     33  C   UNL A   1      42.719  31.094  37.242  1.00  0.00     0.031 C 
ATOM     34  C   UNL A   1      37.982  34.330  35.218  1.00  0.00     0.029 A 
ATOM     35  C   UNL A   1      38.990  33.379  35.295  1.00  0.00     0.049 A 
ATOM     36  H   UNL A   1      39.500  31.878  33.907  1.00  0.00     0.167 HD
ATOM     37  C   UNL A   1      40.903  32.219  36.397  1.00  0.00     0.074 A 
ATOM     38  C   UNL A   1      41.860  32.076  37.477  1.00  0.00     0.031 C 
ATOM     39  C   UNL A   1      39.959  33.191  36.344  1.00  0.00     0.031 A 
BRANCH  26  40
ATOM     40  C   UNL A   1      36.452  33.238  31.248  1.00  0.00    -0.014 A 
ATOM     41  C   UNL A   1      35.168  33.430  31.784  1.00  0.00     0.010 A 
ATOM     42  C   UNL A   1      36.730  33.699  29.948  1.00  0.00     0.010 A 
ATOM     43  C   UNL A   1      34.177  34.064  31.027  1.00  0.00     0.020 A 
ATOM     44  C   UNL A   1      35.750  34.351  29.197  1.00  0.00     0.020 A 
ATOM     45  C   UNL A   1      34.476  34.525  29.740  1.00  0.00     0.054 A 
BRANCH  45  46
ATOM     46  S   UNL A   1      33.189  35.395  28.804  1.00  0.00     0.124 S 
ATOM     47  O   UNL A   1      33.971  36.380  28.061  1.00  0.00    -0.237 OA
ATOM     48  O   UNL A   1      32.602  34.325  28.000  1.00  0.00    -0.237 OA
ATOM     49  O   UNL A   1      32.317  35.945  29.838  1.00  0.00    -0.744 OA
ENDBRANCH  45  46
ENDBRANCH  26  40
BRANCH  27  50
ATOM     50  C   UNL A   1      44.120  28.773  36.076  1.00  0.00    -0.014 A 
ATOM     51  C   UNL A   1      45.421  29.266  35.877  1.00  0.00     0.010 A 
ATOM     52  C   UNL A   1      43.942  27.650  36.910  1.00  0.00     0.010 A 
ATOM     53  C   UNL A   1      46.520  28.625  36.461  1.00  0.00     0.020 A 
ATOM     54  C   UNL A   1      45.034  27.029  37.523  1.00  0.00     0.020 A 
ATOM     55  C   UNL A   1      46.320  27.505  37.274  1.00  0.00     0.054 A 
BRANCH  55  56
ATOM     56  S   UNL A   1      47.758  26.678  38.009  1.00  0.00     0.124 S 
ATOM     57  O   UNL A   1      47.165  26.011  39.163  1.00  0.00    -0.237 OA
ATOM     58  O   UNL A   1      48.206  25.802  36.931  1.00  0.00    -0.237 OA
ATOM     59  O   UNL A   1      48.663  27.782  38.322  1.00  0.00    -0.744 OA
ENDBRANCH  55  56
ENDBRANCH  27  50
BRANCH  39  60
ATOM     60  C   UNL A   1      39.915  34.159  37.492  1.00  0.00    -0.014 A 
ATOM     61  C   UNL A   1      40.571  35.398  37.411  1.00  0.00     0.010 A 
ATOM     62  C   UNL A   1      39.139  33.855  38.624  1.00  0.00     0.010 A 
ATOM     63  C   UNL A   1      40.463  36.317  38.455  1.00  0.00     0.020 A 
ATOM     64  C   UNL A   1      39.003  34.784  39.655  1.00  0.00     0.020 A 
ATOM     65  C   UNL A   1      39.673  36.006  39.567  1.00  0.00     0.054 A 
BRANCH  65  66
ATOM     66  S   UNL A   1      39.486  37.248  40.873  1.00  0.00     0.124 S 
ATOM     67  O   UNL A   1      38.449  38.115  40.320  1.00  0.00    -0.237 OA
ATOM     68  O   UNL A   1      39.084  36.443  42.024  1.00  0.00    -0.237 OA
ATOM     69  O   UNL A   1      40.813  37.849  40.973  1.00  0.00    -0.744 OA
ENDBRANCH  65  66
ENDBRANCH  39  60
ENDBRANCH  13  14
ENDBRANCH   6   8
ENDBRANCH   5   6
ENDBRANCH   4   5
ENDBRANCH   3   4
ENDBRANCH   2   3
ENDBRANCH   1   2
BRANCH   1  70
ATOM     70  C   UNL A   1      38.724  21.883  25.865  1.00  0.00     0.261 C 
BRANCH  70  71
ATOM     71  O   UNL A   1      37.443  22.223  25.314  1.00  0.00    -0.460 OA
BRANCH  71  72
ATOM     72  C   UNL A   1      36.595  21.164  25.191  1.00  0.00     0.338 C 
ATOM     73  O   UNL A   1      36.878  19.996  25.063  1.00  0.00    -0.246 OA
BRANCH  72  74
ATOM     74  C   UNL A   1      35.220  21.653  25.451  1.00  0.00     0.063 A 
ATOM     75  C   UNL A   1      34.955  22.556  26.482  1.00  0.00     0.017 A 
ATOM     76  C   UNL A   1      34.173  21.153  24.662  1.00  0.00     0.056 A 
ATOM     77  C   UNL A   1      33.651  22.989  26.694  1.00  0.00     0.026 A 
ATOM     78  C   UNL A   1      32.868  21.587  24.883  1.00  0.00     0.144 A 
ATOM     79  C   UNL A   1      32.610  22.519  25.875  1.00  0.00     0.118 A 
ATOM     80  F   UNL A   1      31.891  21.076  24.123  1.00  0.00    -0.205 F 
BRANCH  79  81
ATOM     81  S   UNL A   1      31.013  23.192  26.157  1.00  0.00     0.243 S 
ATOM     82  O   UNL A   1      30.140  22.059  26.376  1.00  0.00    -0.207 OA
ATOM     83  O   UNL A   1      31.169  24.204  27.178  1.00  0.00    -0.207 OA
BRANCH  81  84
ATOM     84  N   UNL A   1      30.513  23.984  24.777  1.00  0.00    -0.205 NA
ATOM     85  H   UNL A   1      29.540  23.715  24.634  1.00  0.00     0.141 HD
BRANCH  84  86
ATOM     86  C   UNL A   1      30.556  25.446  24.644  1.00  0.00     0.160 C 
BRANCH  86  87
ATOM     87  C   UNL A   1      31.899  25.988  24.121  1.00  0.00     0.278 C 
BRANCH  87  88
ATOM     88  N   UNL A   1      31.765  26.589  22.773  1.00  0.00    -0.334 N 
ATOM     89  C   UNL A   1      33.053  26.568  22.050  1.00  0.00     0.262 C 
ATOM     90  C   UNL A   1      31.432  28.026  22.847  1.00  0.00     0.262 C 
ATOM     91  H   UNL A   1      31.039  26.043  22.308  1.00  0.00     0.348 HD
ATOM     92  C   UNL A   1      33.822  27.751  22.603  1.00  0.00     0.067 C 
ATOM     93  C   UNL A   1      32.745  28.805  22.765  1.00  0.00     0.067 C 
ENDBRANCH  87  88
ENDBRANCH  86  87
ENDBRANCH  84  86
ENDBRANCH  81  84
ENDBRANCH  79  81
ENDBRANCH  72  74
ENDBRANCH  71  72
ENDBRANCH  70  71
ENDBRANCH   1  70
TORSDOF 22
ENDMDL
MODEL 3
REMARK VINA RESULT:     -10.0      3.773      8.979
REMARK SMILES O=C(OCCOCCOC(=O)c1ccc(S(=O)(=O)NCC[NH+]2CCCC2)c(F)c1)c1ccc(-c2c3nc(c(-c4ccc(S(=O)(=O)[O-])cc4)c4ccc([nH]4)c(-c4ccc(S(=O)(=O)[O-])cc4)c4nc(c(-c5ccc(S(=O)(=O)[O-])cc5)c5ccc2[nH]5)C=C4)C=C3)cc1
REMARK SMILES IDX 7 1 6 2 5 3 4 4 3 5 2 6 1 7 30 8 31 9 89 10 32 11 88 12
REMARK SMILES IDX 33 13 34 14 35 15 82 16 36 17 87 18 81 19 83 20 37 21 86 22
REMARK SMILES IDX 80 23 79 24 38 26 68 27 49 28 67 29 50 30 53 31 66 32 84 33
REMARK SMILES IDX 51 34 52 35 65 37 85 38 54 39 39 40 40 41 48 42 41 43 47 44
REMARK SMILES IDX 42 45 43 46 44 47 45 48 46 49 69 50 70 51 78 52 71 53 77 54
REMARK SMILES IDX 72 55 73 56 74 57 75 58 76 59 55 60 56 61 64 62 57 63 63 64
REMARK SMILES IDX 58 65 59 66 60 67 61 68 62 69 8 70 9 71 10 72 11 73 12 74
REMARK SMILES IDX 13 75 29 76 14 77 27 78 15 79 28 80 16 81 17 82 18 83 19 84
REMARK SMILES IDX 20 86 21 87 22 88 23 89 26 90 24 92 25 93
REMARK H PARENT 83 25 53 36 19 85 22 91
REMARK Flexibility Score: inf
ROOT
ATOM      1  C   UNL A   1      33.808  21.147  26.316  1.00  0.00     0.202 C 
ENDROOT
BRANCH   1   2
ATOM      2  O   UNL A   1      34.641  20.672  25.251  1.00  0.00    -0.374 OA
BRANCH   2   3
ATOM      3  C   UNL A   1      36.009  21.071  25.288  1.00  0.00     0.202 C 
BRANCH   3   4
ATOM      4  C   UNL A   1      36.244  22.507  25.767  1.00  0.00     0.261 C 
BRANCH   4   5
ATOM      5  O   UNL A   1      37.540  22.967  25.352  1.00  0.00    -0.460 OA
BRANCH   5   6
ATOM      6  C   UNL A   1      38.671  23.046  26.095  1.00  0.00     0.338 C 
ATOM      7  O   UNL A   1      39.371  22.040  26.204  1.00  0.00    -0.246 OA
BRANCH   6   8
ATOM      8  C   UNL A   1      39.105  24.285  26.810  1.00  0.00     0.060 A 
ATOM      9  C   UNL A   1      38.832  24.561  28.151  1.00  0.00     0.016 A 
ATOM     10  C   UNL A   1      39.946  25.168  26.115  1.00  0.00     0.016 A 
ATOM     11  C   UNL A   1      39.341  25.680  28.785  1.00  0.00     0.010 A 
ATOM     12  C   UNL A   1      40.502  26.279  26.757  1.00  0.00     0.010 A 
ATOM     13  C   UNL A   1      40.202  26.528  28.101  1.00  0.00    -0.014 A 
BRANCH  13  14
ATOM     14  C   UNL A   1      40.756  27.673  28.837  1.00  0.00     0.031 A 
ATOM     15  C   UNL A   1      39.872  28.845  29.108  1.00  0.00     0.074 A 
ATOM     16  C   UNL A   1      42.003  27.579  29.337  1.00  0.00     0.049 A 
ATOM     17  N   UNL A   1      40.168  29.975  29.686  1.00  0.00    -0.248 NA
ATOM     18  C   UNL A   1      38.464  28.727  28.689  1.00  0.00     0.031 C 
ATOM     19  C   UNL A   1      42.876  26.405  29.217  1.00  0.00     0.029 A 
ATOM     20  N   UNL A   1      42.747  28.469  30.064  1.00  0.00    -0.354 N 
ATOM     21  C   UNL A   1      38.996  30.720  29.664  1.00  0.00     0.074 A 
ATOM     22  C   UNL A   1      37.978  29.910  29.034  1.00  0.00     0.031 C 
ATOM     23  C   UNL A   1      44.031  26.647  29.855  1.00  0.00     0.029 A 
ATOM     24  C   UNL A   1      44.012  28.015  30.358  1.00  0.00     0.049 A 
ATOM     25  H   UNL A   1      42.409  29.348  30.350  1.00  0.00     0.167 HD
ATOM     26  C   UNL A   1      38.812  31.980  30.115  1.00  0.00     0.031 A 
ATOM     27  C   UNL A   1      45.051  28.661  30.919  1.00  0.00     0.031 A 
ATOM     28  C   UNL A   1      39.856  32.752  30.730  1.00  0.00     0.049 A 
ATOM     29  C   UNL A   1      44.841  30.099  31.313  1.00  0.00     0.074 A 
ATOM     30  C   UNL A   1      39.805  34.050  31.201  1.00  0.00     0.029 A 
ATOM     31  N   UNL A   1      41.148  32.292  30.948  1.00  0.00    -0.354 N 
ATOM     32  N   UNL A   1      43.736  30.809  31.270  1.00  0.00    -0.248 NA
ATOM     33  C   UNL A   1      46.012  30.831  31.808  1.00  0.00     0.031 C 
ATOM     34  C   UNL A   1      41.084  34.396  31.642  1.00  0.00     0.029 A 
ATOM     35  C   UNL A   1      41.917  33.294  31.507  1.00  0.00     0.049 A 
ATOM     36  H   UNL A   1      41.468  31.384  30.737  1.00  0.00     0.167 HD
ATOM     37  C   UNL A   1      44.079  32.071  31.734  1.00  0.00     0.074 A 
ATOM     38  C   UNL A   1      45.484  32.015  32.087  1.00  0.00     0.031 C 
ATOM     39  C   UNL A   1      43.313  33.184  31.846  1.00  0.00     0.031 A 
BRANCH  26  40
ATOM     40  C   UNL A   1      37.476  32.623  29.874  1.00  0.00    -0.014 A 
ATOM     41  C   UNL A   1      36.495  32.694  30.877  1.00  0.00     0.010 A 
ATOM     42  C   UNL A   1      37.218  33.201  28.617  1.00  0.00     0.010 A 
ATOM     43  C   UNL A   1      35.273  33.326  30.621  1.00  0.00     0.020 A 
ATOM     44  C   UNL A   1      36.008  33.850  28.365  1.00  0.00     0.020 A 
ATOM     45  C   UNL A   1      35.040  33.904  29.368  1.00  0.00     0.054 A 
BRANCH  45  46
ATOM     46  S   UNL A   1      33.470  34.766  29.084  1.00  0.00     0.124 S 
ATOM     47  O   UNL A   1      33.923  36.052  28.559  1.00  0.00    -0.237 OA
ATOM     48  O   UNL A   1      32.798  33.897  28.121  1.00  0.00    -0.237 OA
ATOM     49  O   UNL A   1      32.855  34.817  30.408  1.00  0.00    -0.744 OA
ENDBRANCH  45  46
ENDBRANCH  26  40
BRANCH  27  50
ATOM     50  C   UNL A   1      46.389  28.011  31.027  1.00  0.00    -0.014 A 
ATOM     51  C   UNL A   1      47.368  28.177  30.032  1.00  0.00     0.010 A 
ATOM     52  C   UNL A   1      46.674  27.170  32.122  1.00  0.00     0.010 A 
ATOM     53  C   UNL A   1      48.583  27.485  30.109  1.00  0.00     0.020 A 
ATOM     54  C   UNL A   1      47.899  26.505  32.220  1.00  0.00     0.020 A 
ATOM     55  C   UNL A   1      48.838  26.648  31.200  1.00  0.00     0.054 A 
BRANCH  55  56
ATOM     56  S   UNL A   1      50.411  25.747  31.274  1.00  0.00     0.124 S 
ATOM     57  O   UNL A   1      50.629  25.403  29.873  1.00  0.00    -0.237 OA
ATOM     58  O   UNL A   1      51.321  26.744  31.832  1.00  0.00    -0.237 OA
ATOM     59  O   UNL A   1      50.118  24.620  32.156  1.00  0.00    -0.744 OA
ENDBRANCH  55  56
ENDBRANCH  27  50
BRANCH  39  60
ATOM     60  C   UNL A   1      43.982  34.419  32.379  1.00  0.00    -0.014 A 
ATOM     61  C   UNL A   1      44.526  35.374  31.506  1.00  0.00     0.010 A 
ATOM     62  C   UNL A   1      43.987  34.660  33.764  1.00  0.00     0.010 A 
ATOM     63  C   UNL A   1      45.081  36.551  32.011  1.00  0.00     0.020 A 
ATOM     64  C   UNL A   1      44.513  35.848  34.271  1.00  0.00     0.020 A 
ATOM     65  C   UNL A   1      45.063  36.783  33.391  1.00  0.00     0.054 A 
BRANCH  65  66
ATOM     66  S   UNL A   1      45.719  38.352  34.015  1.00  0.00     0.124 S 
ATOM     67  O   UNL A   1      46.920  38.524  33.202  1.00  0.00    -0.237 OA
ATOM     68  O   UNL A   1      44.632  39.286  33.736  1.00  0.00    -0.237 OA
ATOM     69  O   UNL A   1      45.958  38.088  35.432  1.00  0.00    -0.744 OA
ENDBRANCH  65  66
ENDBRANCH  39  60
ENDBRANCH  13  14
ENDBRANCH   6   8
ENDBRANCH   5   6
ENDBRANCH   4   5
ENDBRANCH   3   4
ENDBRANCH   2   3
ENDBRANCH   1   2
BRANCH   1  70
ATOM     70  C   UNL A   1      32.535  21.754  25.717  1.00  0.00     0.261 C 
BRANCH  70  71
ATOM     71  O   UNL A   1      32.892  22.370  24.470  1.00  0.00    -0.460 OA
BRANCH  71  72
ATOM     72  C   UNL A   1      31.921  23.171  23.951  1.00  0.00     0.338 C 
ATOM     73  O   UNL A   1      31.072  22.882  23.141  1.00  0.00    -0.246 OA
BRANCH  72  74
ATOM     74  C   UNL A   1      31.934  24.446  24.707  1.00  0.00     0.063 A 
ATOM     75  C   UNL A   1      30.813  24.879  25.417  1.00  0.00     0.017 A 
ATOM     76  C   UNL A   1      33.091  25.238  24.660  1.00  0.00     0.056 A 
ATOM     77  C   UNL A   1      30.866  26.082  26.113  1.00  0.00     0.026 A 
ATOM     78  C   UNL A   1      33.136  26.445  25.355  1.00  0.00     0.144 A 
ATOM     79  C   UNL A   1      32.040  26.853  26.098  1.00  0.00     0.118 A 
ATOM     80  F   UNL A   1      34.249  27.183  25.274  1.00  0.00    -0.205 F 
BRANCH  79  81
ATOM     81  S   UNL A   1      32.045  28.309  27.080  1.00  0.00     0.243 S 
ATOM     82  O   UNL A   1      30.937  28.170  28.000  1.00  0.00    -0.207 OA
ATOM     83  O   UNL A   1      33.395  28.463  27.577  1.00  0.00    -0.207 OA
BRANCH  81  84
ATOM     84  N   UNL A   1      31.750  29.622  26.094  1.00  0.00    -0.205 NA
ATOM     85  H   UNL A   1      32.447  30.323  26.342  1.00  0.00     0.141 HD
BRANCH  84  86
ATOM     86  C   UNL A   1      31.767  29.531  24.628  1.00  0.00     0.160 C 
BRANCH  86  87
ATOM     87  C   UNL A   1      30.370  29.407  23.992  1.00  0.00     0.278 C 
BRANCH  87  88
ATOM     88  N   UNL A   1      30.058  30.561  23.115  1.00  0.00    -0.334 N 
ATOM     89  C   UNL A   1      29.036  31.434  23.726  1.00  0.00     0.262 C 
ATOM     90  C   UNL A   1      29.434  30.129  21.848  1.00  0.00     0.262 C 
ATOM     91  H   UNL A   1      30.951  31.034  22.970  1.00  0.00     0.348 HD
ATOM     92  C   UNL A   1      27.719  30.742  23.440  1.00  0.00     0.067 C 
ATOM     93  C   UNL A   1      27.919  30.211  22.034  1.00  0.00     0.067 C 
ENDBRANCH  87  88
ENDBRANCH  86  87
ENDBRANCH  84  86
ENDBRANCH  81  84
ENDBRANCH  79  81
ENDBRANCH  72  74
ENDBRANCH  71  72
ENDBRANCH  70  71
ENDBRANCH   1  70
TORSDOF 22
ENDMDL
