MODEL 1
REMARK VINA RESULT:      -8.5      0.000      0.000
REMARK SMILES Cc1cccc(S(=O)(=O)Nc2cc(C(=O)OCCOCCOC(=O)c3ccc(-c4c5nc(c(-c6ccc(S(=O)(=O)[O-])cc6)c6ccc([nH]6)c(-c6ccc(S(=O)(=O)[O-])cc6)c6nc(c(-c7ccc(S(=O)(=O)[O-])cc7)c7ccc4[nH]7)C=C6)C=C5)cc3)ccc2N2CCC[C@H](C[NH+]3CCCC3)C2)c1
REMARK SMILES IDX 19 1 18 2 17 3 16 4 14 5 15 6 13 7 11 8 12 9 87 10 86 11
REMARK SMILES IDX 85 12 10 13 7 15 8 16 9 17 6 18 1 19 2 20 3 21 100 22 4 23
REMARK SMILES IDX 5 24 88 25 89 26 99 27 90 28 92 29 91 30 93 31 94 32 95 33
REMARK SMILES IDX 98 34 96 36 97 37 20 38 21 39 22 40 23 41 24 42 25 43 26 44
REMARK SMILES IDX 84 45 27 46 83 47 28 48 29 49 30 50 77 51 31 52 82 53 76 54
REMARK SMILES IDX 78 55 32 56 81 57 75 58 74 59 33 61 63 62 44 63 62 64 45 65
REMARK SMILES IDX 48 66 61 67 79 68 46 69 47 70 60 72 80 73 49 74 34 75 35 76
REMARK SMILES IDX 43 77 36 78 42 79 37 80 38 81 39 82 40 83 41 84 64 85 65 86
REMARK SMILES IDX 73 87 66 88 72 89 67 90 68 91 69 92 70 93 71 94 50 95 51 96
REMARK SMILES IDX 59 97 52 98 58 99 53 100 54 101 55 102 56 103 57 104
REMARK H PARENT 10 14 94 35 78 60 48 71
REMARK Flexibility Score: inf
ROOT
ATOM      1  O   UNL A   1      42.588  22.515  28.269  1.00  0.00    -0.374 OA
ENDROOT
BRANCH   1   2
ATOM      2  C   UNL A   1      43.104  22.891  29.525  1.00  0.00     0.202 C 
BRANCH   2   3
ATOM      3  C   UNL A   1      43.903  24.093  29.204  1.00  0.00     0.261 C 
BRANCH   3   4
ATOM      4  O   UNL A   1      44.711  24.400  30.329  1.00  0.00    -0.460 OA
BRANCH   4   5
ATOM      5  C   UNL A   1      44.489  24.147  31.632  1.00  0.00     0.338 C 
ATOM      6  O   UNL A   1      43.980  23.229  32.236  1.00  0.00    -0.246 OA
BRANCH   5   7
ATOM      7  C   UNL A   1      44.836  25.425  32.243  1.00  0.00     0.062 A 
ATOM      8  C   UNL A   1      43.796  26.872  33.784  1.00  0.00     0.073 A 
ATOM      9  C   UNL A   1      43.751  26.248  32.588  1.00  0.00     0.044 A 
ATOM     10  C   UNL A   1      45.064  27.149  34.312  1.00  0.00     0.061 A 
ATOM     11  C   UNL A   1      46.207  26.466  33.836  1.00  0.00     0.029 A 
ATOM     12  C   UNL A   1      46.083  25.525  32.844  1.00  0.00     0.018 A 
BRANCH   8  13
ATOM     13  N   UNL A   1      42.538  27.230  34.374  1.00  0.00    -0.277 N 
ATOM     14  H   UNL A   1      41.971  27.890  33.914  1.00  0.00     0.180 HD
BRANCH  13  15
ATOM     15  S   UNL A   1      41.973  26.538  35.876  1.00  0.00     0.261 S 
ATOM     16  O   UNL A   1      40.772  25.813  35.503  1.00  0.00    -0.201 OA
ATOM     17  O   UNL A   1      41.859  27.678  36.767  1.00  0.00    -0.201 OA
BRANCH  15  18
ATOM     18  C   UNL A   1      43.063  25.313  36.736  1.00  0.00     0.088 A 
ATOM     19  C   UNL A   1      45.540  21.543  34.889  1.00  0.00     0.044 C 
ATOM     20  C   UNL A   1      45.110  22.414  36.032  1.00  0.00    -0.050 A 
ATOM     21  C   UNL A   1      46.117  23.062  37.827  1.00  0.00     0.003 A 
ATOM     22  C   UNL A   1      43.599  23.700  35.554  1.00  0.00     0.025 A 
ATOM     23  C   UNL A   1      45.565  24.581  39.094  1.00  0.00     0.002 A 
ATOM     24  C   UNL A   1      43.995  25.909  38.467  1.00  0.00     0.022 A 
ENDBRANCH  15  18
ENDBRANCH  13  15
ENDBRANCH   8  13
BRANCH  10  25
ATOM     25  N   UNL A   1      45.224  28.203  35.185  1.00  0.00    -0.369 N 
ATOM     26  C   UNL A   1      44.931  29.518  34.626  1.00  0.00     0.116 C 
ATOM     27  C   UNL A   1      46.063  28.006  36.352  1.00  0.00     0.126 C 
ATOM     28  C   UNL A   1      46.200  30.341  34.532  1.00  0.00     0.022 C 
ATOM     29  C   UNL A   1      47.305  28.905  36.315  1.00  0.00     0.064 C 
ATOM     30  C   UNL A   1      46.870  30.323  35.898  1.00  0.00     0.013 C 
BRANCH  29  31
ATOM     31  C   UNL A   1      48.438  28.264  35.469  1.00  0.00     0.267 C 
BRANCH  31  32
ATOM     32  N   UNL A   1      49.525  27.543  36.144  1.00  0.00    -0.335 N 
ATOM     33  C   UNL A   1      49.449  26.088  36.033  1.00  0.00     0.262 C 
ATOM     34  C   UNL A   1      49.739  27.858  37.555  1.00  0.00     0.262 C 
ATOM     35  H   UNL A   1      50.320  27.899  35.614  1.00  0.00     0.348 HD
ATOM     36  C   UNL A   1      48.791  25.637  37.322  1.00  0.00     0.067 C 
ATOM     37  C   UNL A   1      49.312  26.625  38.352  1.00  0.00     0.067 C 
ENDBRANCH  31  32
ENDBRANCH  29  31
ENDBRANCH  10  25
ENDBRANCH   5   7
ENDBRANCH   4   5
ENDBRANCH   3   4
ENDBRANCH   2   3
ENDBRANCH   1   2
BRANCH   1  38
ATOM     38  C   UNL A   1      42.381  21.165  27.988  1.00  0.00     0.202 C 
BRANCH  38  39
ATOM     39  C   UNL A   1      41.404  21.130  26.843  1.00  0.00     0.261 C 
BRANCH  39  40
ATOM     40  O   UNL A   1      41.221  22.502  26.353  1.00  0.00    -0.460 OA
BRANCH  40  41
ATOM     41  C   UNL A   1      40.018  23.142  26.566  1.00  0.00     0.338 C 
ATOM     42  O   UNL A   1      38.951  22.551  26.500  1.00  0.00    -0.246 OA
BRANCH  41  43
ATOM     43  C   UNL A   1      40.147  24.621  26.907  1.00  0.00     0.060 A 
ATOM     44  C   UNL A   1      40.603  25.556  25.962  1.00  0.00     0.016 A 
ATOM     45  C   UNL A   1      40.134  25.033  28.229  1.00  0.00     0.016 A 
ATOM     46  C   UNL A   1      41.325  26.718  26.369  1.00  0.00     0.010 A 
ATOM     47  C   UNL A   1      40.974  26.097  28.610  1.00  0.00     0.010 A 
ATOM     48  C   UNL A   1      41.717  26.888  27.700  1.00  0.00    -0.014 A 
BRANCH  48  49
ATOM     49  C   UNL A   1      42.643  27.976  28.309  1.00  0.00     0.031 A 
ATOM     50  C   UNL A   1      41.524  29.264  28.511  1.00  0.00     0.074 A 
ATOM     51  C   UNL A   1      44.125  27.916  28.965  1.00  0.00     0.049 A 
ATOM     52  N   UNL A   1      41.627  30.334  29.246  1.00  0.00    -0.248 NA
ATOM     53  C   UNL A   1      40.128  29.207  27.980  1.00  0.00     0.031 C 
ATOM     54  C   UNL A   1      44.968  29.387  30.350  1.00  0.00     0.029 A 
ATOM     55  N   UNL A   1      45.000  27.121  29.239  1.00  0.00    -0.354 N 
ATOM     56  C   UNL A   1      40.353  30.829  29.569  1.00  0.00     0.074 A 
ATOM     57  C   UNL A   1      39.452  30.083  28.739  1.00  0.00     0.031 C 
ATOM     58  C   UNL A   1      45.883  29.169  31.304  1.00  0.00     0.029 A 
ATOM     59  C   UNL A   1      45.897  28.484  30.136  1.00  0.00     0.049 A 
ATOM     60  H   UNL A   1      45.165  26.167  29.063  1.00  0.00     0.167 HD
ATOM     61  C   UNL A   1      40.196  31.760  30.571  1.00  0.00     0.031 A 
ATOM     62  C   UNL A   1      46.432  28.931  29.163  1.00  0.00     0.031 A 
ATOM     63  C   UNL A   1      41.519  32.264  30.994  1.00  0.00     0.049 A 
ATOM     64  C   UNL A   1      46.884  30.676  29.193  1.00  0.00     0.074 A 
ATOM     65  C   UNL A   1      42.255  32.249  32.166  1.00  0.00     0.029 A 
ATOM     66  N   UNL A   1      42.393  32.719  30.018  1.00  0.00    -0.354 N 
ATOM     67  N   UNL A   1      46.257  31.511  30.013  1.00  0.00    -0.248 NA
ATOM     68  C   UNL A   1      47.476  31.415  28.068  1.00  0.00     0.031 C 
ATOM     69  C   UNL A   1      43.617  32.563  31.833  1.00  0.00     0.029 A 
ATOM     70  C   UNL A   1      43.692  32.891  30.489  1.00  0.00     0.049 A 
ATOM     71  H   UNL A   1      42.123  32.902  29.089  1.00  0.00     0.167 HD
ATOM     72  C   UNL A   1      45.826  32.578  29.260  1.00  0.00     0.074 A 
ATOM     73  C   UNL A   1      46.680  32.499  28.073  1.00  0.00     0.031 C 
ATOM     74  C   UNL A   1      44.704  33.341  29.514  1.00  0.00     0.031 A 
BRANCH  61  75
ATOM     75  C   UNL A   1      38.902  32.228  31.304  1.00  0.00    -0.014 A 
ATOM     76  C   UNL A   1      38.000  33.044  30.573  1.00  0.00     0.010 A 
ATOM     77  C   UNL A   1      38.504  31.994  32.644  1.00  0.00     0.010 A 
ATOM     78  C   UNL A   1      36.832  33.617  31.109  1.00  0.00     0.020 A 
ATOM     79  C   UNL A   1      37.305  32.550  33.199  1.00  0.00     0.020 A 
ATOM     80  C   UNL A   1      36.482  33.372  32.426  1.00  0.00     0.054 A 
BRANCH  80  81
ATOM     81  S   UNL A   1      34.952  34.140  33.058  1.00  0.00     0.124 S 
ATOM     82  O   UNL A   1      35.428  35.427  33.564  1.00  0.00    -0.237 OA
ATOM     83  O   UNL A   1      34.114  34.216  31.865  1.00  0.00    -0.237 OA
ATOM     84  O   UNL A   1      34.486  33.210  34.083  1.00  0.00    -0.744 OA
ENDBRANCH  80  81
ENDBRANCH  61  75
BRANCH  62  85
ATOM     85  C   UNL A   1      45.884  27.453  27.594  1.00  0.00    -0.014 A 
ATOM     86  C   UNL A   1      46.551  25.990  27.460  1.00  0.00     0.010 A 
ATOM     87  C   UNL A   1      45.037  27.532  26.352  1.00  0.00     0.010 A 
ATOM     88  C   UNL A   1      46.317  24.966  26.539  1.00  0.00     0.020 A 
ATOM     89  C   UNL A   1      44.786  26.447  25.442  1.00  0.00     0.020 A 
ATOM     90  C   UNL A   1      45.343  25.174  25.600  1.00  0.00     0.054 A 
BRANCH  90  91
ATOM     91  S   UNL A   1      44.595  23.687  24.857  1.00  0.00     0.124 S 
ATOM     92  O   UNL A   1      44.723  22.698  25.919  1.00  0.00    -0.237 OA
ATOM     93  O   UNL A   1      43.227  24.127  24.577  1.00  0.00    -0.237 OA
ATOM     94  O   UNL A   1      45.418  23.464  23.674  1.00  0.00    -0.744 OA
ENDBRANCH  90  91
ENDBRANCH  62  85
BRANCH  74  95
ATOM     95  C   UNL A   1      44.436  34.655  28.789  1.00  0.00    -0.014 A 
ATOM     96  C   UNL A   1      44.781  35.885  29.358  1.00  0.00     0.010 A 
ATOM     97  C   UNL A   1      43.634  34.714  27.619  1.00  0.00     0.010 A 
ATOM     98  C   UNL A   1      44.399  37.097  28.802  1.00  0.00     0.020 A 
ATOM     99  C   UNL A   1      43.191  35.926  27.077  1.00  0.00     0.020 A 
ATOM    100  C   UNL A   1      43.564  37.110  27.696  1.00  0.00     0.054 A 
BRANCH 100 101
ATOM    101  S   UNL A   1      42.821  38.691  27.264  1.00  0.00     0.124 S 
ATOM    102  O   UNL A   1      43.875  39.300  26.452  1.00  0.00    -0.237 OA
ATOM    103  O   UNL A   1      41.629  38.276  26.530  1.00  0.00    -0.237 OA
ATOM    104  O   UNL A   1      42.579  39.330  28.552  1.00  0.00    -0.744 OA
ENDBRANCH 100 101
ENDBRANCH  74  95
ENDBRANCH  48  49
ENDBRANCH  41  43
ENDBRANCH  40  41
ENDBRANCH  39  40
ENDBRANCH  38  39
ENDBRANCH   1  38
TORSDOF 23
ENDMDL
MODEL 2
REMARK VINA RESULT:      -7.9      1.718      3.312
REMARK SMILES Cc1cccc(S(=O)(=O)Nc2cc(C(=O)OCCOCCOC(=O)c3ccc(-c4c5nc(c(-c6ccc(S(=O)(=O)[O-])cc6)c6ccc([nH]6)c(-c6ccc(S(=O)(=O)[O-])cc6)c6nc(c(-c7ccc(S(=O)(=O)[O-])cc7)c7ccc4[nH]7)C=C6)C=C5)cc3)ccc2N2CCC[C@H](C[NH+]3CCCC3)C2)c1
REMARK SMILES IDX 19 1 18 2 17 3 16 4 14 5 15 6 13 7 11 8 12 9 87 10 86 11
REMARK SMILES IDX 85 12 10 13 7 15 8 16 9 17 6 18 1 19 2 20 3 21 100 22 4 23
REMARK SMILES IDX 5 24 88 25 89 26 99 27 90 28 92 29 91 30 93 31 94 32 95 33
REMARK SMILES IDX 98 34 96 36 97 37 20 38 21 39 22 40 23 41 24 42 25 43 26 44
REMARK SMILES IDX 84 45 27 46 83 47 28 48 29 49 30 50 77 51 31 52 82 53 76 54
REMARK SMILES IDX 78 55 32 56 81 57 75 58 74 59 33 61 63 62 44 63 62 64 45 65
REMARK SMILES IDX 48 66 61 67 79 68 46 69 47 70 60 72 80 73 49 74 34 75 35 76
REMARK SMILES IDX 43 77 36 78 42 79 37 80 38 81 39 82 40 83 41 84 64 85 65 86
REMARK SMILES IDX 73 87 66 88 72 89 67 90 68 91 69 92 70 93 71 94 50 95 51 96
REMARK SMILES IDX 59 97 52 98 58 99 53 100 54 101 55 102 56 103 57 104
REMARK H PARENT 10 14 94 35 78 60 48 71
REMARK Flexibility Score: inf
ROOT
ATOM      1  O   UNL A   1      42.726  22.625  28.359  1.00  0.00    -0.374 OA
ENDROOT
BRANCH   1   2
ATOM      2  C   UNL A   1      42.804  23.115  29.678  1.00  0.00     0.202 C 
BRANCH   2   3
ATOM      3  C   UNL A   1      44.232  23.476  29.809  1.00  0.00     0.261 C 
BRANCH   3   4
ATOM      4  O   UNL A   1      44.467  23.871  31.151  1.00  0.00    -0.460 OA
BRANCH   4   5
ATOM      5  C   UNL A   1      44.093  24.998  31.785  1.00  0.00     0.338 C 
ATOM      6  O   UNL A   1      43.537  26.016  31.435  1.00  0.00    -0.246 OA
BRANCH   5   7
ATOM      7  C   UNL A   1      44.737  24.832  33.083  1.00  0.00     0.062 A 
ATOM      8  C   UNL A   1      43.982  24.455  35.283  1.00  0.00     0.073 A 
ATOM      9  C   UNL A   1      43.985  25.252  34.193  1.00  0.00     0.044 A 
ATOM     10  C   UNL A   1      45.104  23.640  35.481  1.00  0.00     0.061 A 
ATOM     11  C   UNL A   1      45.990  23.363  34.415  1.00  0.00     0.029 A 
ATOM     12  C   UNL A   1      45.759  23.896  33.171  1.00  0.00     0.018 A 
BRANCH   8  13
ATOM     13  N   UNL A   1      42.845  24.555  36.153  1.00  0.00    -0.277 N 
ATOM     14  H   UNL A   1      42.328  23.742  36.350  1.00  0.00     0.180 HD
BRANCH  13  15
ATOM     15  S   UNL A   1      42.345  26.065  36.875  1.00  0.00     0.261 S 
ATOM     16  O   UNL A   1      42.905  26.021  38.214  1.00  0.00    -0.201 OA
ATOM     17  O   UNL A   1      40.903  26.071  36.715  1.00  0.00    -0.201 OA
BRANCH  15  18
ATOM     18  C   UNL A   1      42.958  27.639  36.118  1.00  0.00     0.088 A 
ATOM     19  C   UNL A   1      40.745  31.969  35.764  1.00  0.00     0.044 C 
ATOM     20  C   UNL A   1      41.911  31.052  35.532  1.00  0.00    -0.050 A 
ATOM     21  C   UNL A   1      44.043  31.387  35.510  1.00  0.00     0.003 A 
ATOM     22  C   UNL A   1      41.496  29.092  35.916  1.00  0.00     0.025 A 
ATOM     23  C   UNL A   1      45.532  29.976  35.593  1.00  0.00     0.002 A 
ATOM     24  C   UNL A   1      44.988  27.948  36.058  1.00  0.00     0.022 A 
ENDBRANCH  15  18
ENDBRANCH  13  15
ENDBRANCH   8  13
BRANCH  10  25
ATOM     25  N   UNL A   1      45.438  23.236  36.756  1.00  0.00    -0.369 N 
ATOM     26  C   UNL A   1      45.913  24.299  37.636  1.00  0.00     0.116 C 
ATOM     27  C   UNL A   1      45.730  21.833  36.976  1.00  0.00     0.126 C 
ATOM     28  C   UNL A   1      47.378  24.090  37.962  1.00  0.00     0.022 C 
ATOM     29  C   UNL A   1      47.188  21.618  37.402  1.00  0.00     0.064 C 
ATOM     30  C   UNL A   1      47.545  22.666  38.472  1.00  0.00     0.013 C 
BRANCH  29  31
ATOM     31  C   UNL A   1      48.130  21.557  36.168  1.00  0.00     0.267 C 
BRANCH  31  32
ATOM     32  N   UNL A   1      48.739  20.275  35.787  1.00  0.00    -0.335 N 
ATOM     33  C   UNL A   1      50.076  20.052  36.333  1.00  0.00     0.262 C 
ATOM     34  C   UNL A   1      48.803  19.984  34.357  1.00  0.00     0.262 C 
ATOM     35  H   UNL A   1      48.069  19.636  36.213  1.00  0.00     0.348 HD
ATOM     36  C   UNL A   1      51.020  20.457  35.218  1.00  0.00     0.067 C 
ATOM     37  C   UNL A   1      50.277  20.050  33.958  1.00  0.00     0.067 C 
ENDBRANCH  31  32
ENDBRANCH  29  31
ENDBRANCH  10  25
ENDBRANCH   5   7
ENDBRANCH   4   5
ENDBRANCH   3   4
ENDBRANCH   2   3
ENDBRANCH   1   2
BRANCH   1  38
ATOM     38  C   UNL A   1      42.536  21.260  28.145  1.00  0.00     0.202 C 
BRANCH  38  39
ATOM     39  C   UNL A   1      41.383  21.154  27.181  1.00  0.00     0.261 C 
BRANCH  39  40
ATOM     40  O   UNL A   1      41.235  22.446  26.498  1.00  0.00    -0.460 OA
BRANCH  40  41
ATOM     41  C   UNL A   1      40.032  23.117  26.572  1.00  0.00     0.338 C 
ATOM     42  O   UNL A   1      38.964  22.549  26.398  1.00  0.00    -0.246 OA
BRANCH  41  43
ATOM     43  C   UNL A   1      40.160  24.597  26.907  1.00  0.00     0.060 A 
ATOM     44  C   UNL A   1      40.629  25.526  25.964  1.00  0.00     0.016 A 
ATOM     45  C   UNL A   1      40.131  25.016  28.227  1.00  0.00     0.016 A 
ATOM     46  C   UNL A   1      41.348  26.689  26.374  1.00  0.00     0.010 A 
ATOM     47  C   UNL A   1      40.968  26.080  28.614  1.00  0.00     0.010 A 
ATOM     48  C   UNL A   1      41.725  26.865  27.709  1.00  0.00    -0.014 A 
BRANCH  48  49
ATOM     49  C   UNL A   1      42.645  27.954  28.324  1.00  0.00     0.031 A 
ATOM     50  C   UNL A   1      41.516  29.230  28.548  1.00  0.00     0.074 A 
ATOM     51  C   UNL A   1      44.132  27.900  28.969  1.00  0.00     0.049 A 
ATOM     52  N   UNL A   1      41.615  30.292  29.295  1.00  0.00    -0.248 NA
ATOM     53  C   UNL A   1      40.118  29.167  28.026  1.00  0.00     0.031 C 
ATOM     54  C   UNL A   1      44.972  29.362  30.365  1.00  0.00     0.029 A 
ATOM     55  N   UNL A   1      45.015  27.109  29.228  1.00  0.00    -0.354 N 
ATOM     56  C   UNL A   1      40.339  30.772  29.631  1.00  0.00     0.074 A 
ATOM     57  C   UNL A   1      39.439  30.028  28.799  1.00  0.00     0.031 C 
ATOM     58  C   UNL A   1      45.894  29.141  31.310  1.00  0.00     0.029 A 
ATOM     59  C   UNL A   1      45.907  28.469  30.134  1.00  0.00     0.049 A 
ATOM     60  H   UNL A   1      45.188  26.158  29.040  1.00  0.00     0.167 HD
ATOM     61  C   UNL A   1      40.181  31.690  30.645  1.00  0.00     0.031 A 
ATOM     62  C   UNL A   1      46.431  28.932  29.164  1.00  0.00     0.031 A 
ATOM     63  C   UNL A   1      41.502  32.201  31.065  1.00  0.00     0.049 A 
ATOM     64  C   UNL A   1      46.868  30.680  29.210  1.00  0.00     0.074 A 
ATOM     65  C   UNL A   1      42.246  32.180  32.231  1.00  0.00     0.029 A 
ATOM     66  N   UNL A   1      42.366  32.675  30.089  1.00  0.00    -0.354 N 
ATOM     67  N   UNL A   1      46.240  31.501  30.044  1.00  0.00    -0.248 NA
ATOM     68  C   UNL A   1      47.446  31.438  28.090  1.00  0.00     0.031 C 
ATOM     69  C   UNL A   1      43.603  32.509  31.893  1.00  0.00     0.029 A 
ATOM     70  C   UNL A   1      43.666  32.852  30.552  1.00  0.00     0.049 A 
ATOM     71  H   UNL A   1      42.087  32.866  29.163  1.00  0.00     0.167 HD
ATOM     72  C   UNL A   1      45.794  32.572  29.305  1.00  0.00     0.074 A 
ATOM     73  C   UNL A   1      46.641  32.515  28.112  1.00  0.00     0.031 C 
ATOM     74  C   UNL A   1      44.667  33.323  29.576  1.00  0.00     0.031 A 
BRANCH  61  75
ATOM     75  C   UNL A   1      38.888  32.138  31.393  1.00  0.00    -0.014 A 
ATOM     76  C   UNL A   1      37.941  32.896  30.655  1.00  0.00     0.010 A 
ATOM     77  C   UNL A   1      38.529  31.939  32.749  1.00  0.00     0.010 A 
ATOM     78  C   UNL A   1      36.766  33.447  31.199  1.00  0.00     0.020 A 
ATOM     79  C   UNL A   1      37.323  32.471  33.313  1.00  0.00     0.020 A 
ATOM     80  C   UNL A   1      36.455  33.236  32.532  1.00  0.00     0.054 A 
BRANCH  80  81
ATOM     81  S   UNL A   1      34.913  33.973  33.173  1.00  0.00     0.124 S 
ATOM     82  O   UNL A   1      35.060  33.809  34.618  1.00  0.00    -0.237 OA
ATOM     83  O   UNL A   1      34.991  35.350  32.695  1.00  0.00    -0.237 OA
ATOM     84  O   UNL A   1      33.857  33.167  32.566  1.00  0.00    -0.744 OA
ENDBRANCH  80  81
ENDBRANCH  61  75
BRANCH  62  85
ATOM     85  C   UNL A   1      45.885  27.467  27.581  1.00  0.00    -0.014 A 
ATOM     86  C   UNL A   1      46.511  25.984  27.470  1.00  0.00     0.010 A 
ATOM     87  C   UNL A   1      45.079  27.569  26.315  1.00  0.00     0.010 A 
ATOM     88  C   UNL A   1      46.274  24.965  26.544  1.00  0.00     0.020 A 
ATOM     89  C   UNL A   1      44.822  26.490  25.399  1.00  0.00     0.020 A 
ATOM     90  C   UNL A   1      45.335  25.201  25.576  1.00  0.00     0.054 A 
BRANCH  90  91
ATOM     91  S   UNL A   1      44.565  23.735  24.813  1.00  0.00     0.124 S 
ATOM     92  O   UNL A   1      43.213  24.195  24.524  1.00  0.00    -0.237 OA
ATOM     93  O   UNL A   1      45.410  23.508  23.639  1.00  0.00    -0.237 OA
ATOM     94  O   UNL A   1      44.686  22.724  25.856  1.00  0.00    -0.744 OA
ENDBRANCH  90  91
ENDBRANCH  62  85
BRANCH  74  95
ATOM     95  C   UNL A   1      44.383  34.642  28.868  1.00  0.00    -0.014 A 
ATOM     96  C   UNL A   1      44.732  35.869  29.444  1.00  0.00     0.010 A 
ATOM     97  C   UNL A   1      43.564  34.709  27.711  1.00  0.00     0.010 A 
ATOM     98  C   UNL A   1      44.336  37.084  28.905  1.00  0.00     0.020 A 
ATOM     99  C   UNL A   1      43.107  35.924  27.187  1.00  0.00     0.020 A 
ATOM    100  C   UNL A   1      43.484  37.104  27.812  1.00  0.00     0.054 A 
BRANCH 100 101
ATOM    101  S   UNL A   1      42.729  38.686  27.406  1.00  0.00     0.124 S 
ATOM    102  O   UNL A   1      41.554  38.265  26.644  1.00  0.00    -0.237 OA
ATOM    103  O   UNL A   1      42.450  39.238  28.728  1.00  0.00    -0.237 OA
ATOM    104  O   UNL A   1      43.755  39.379  26.636  1.00  0.00    -0.744 OA
ENDBRANCH 100 101
ENDBRANCH  74  95
ENDBRANCH  48  49
ENDBRANCH  41  43
ENDBRANCH  40  41
ENDBRANCH  39  40
ENDBRANCH  38  39
ENDBRANCH   1  38
TORSDOF 23
ENDMDL
MODEL 3
REMARK VINA RESULT:      -7.6      5.942     11.967
REMARK SMILES Cc1cccc(S(=O)(=O)Nc2cc(C(=O)OCCOCCOC(=O)c3ccc(-c4c5nc(c(-c6ccc(S(=O)(=O)[O-])cc6)c6ccc([nH]6)c(-c6ccc(S(=O)(=O)[O-])cc6)c6nc(c(-c7ccc(S(=O)(=O)[O-])cc7)c7ccc4[nH]7)C=C6)C=C5)cc3)ccc2N2CCC[C@H](C[NH+]3CCCC3)C2)c1
REMARK SMILES IDX 19 1 18 2 17 3 16 4 14 5 15 6 13 7 11 8 12 9 87 10 86 11
REMARK SMILES IDX 85 12 10 13 7 15 8 16 9 17 6 18 1 19 2 20 3 21 100 22 4 23
REMARK SMILES IDX 5 24 88 25 89 26 99 27 90 28 92 29 91 30 93 31 94 32 95 33
REMARK SMILES IDX 98 34 96 36 97 37 20 38 21 39 22 40 23 41 24 42 25 43 26 44
REMARK SMILES IDX 84 45 27 46 83 47 28 48 29 49 30 50 77 51 31 52 82 53 76 54
REMARK SMILES IDX 78 55 32 56 81 57 75 58 74 59 33 61 63 62 44 63 62 64 45 65
REMARK SMILES IDX 48 66 61 67 79 68 46 69 47 70 60 72 80 73 49 74 34 75 35 76
REMARK SMILES IDX 43 77 36 78 42 79 37 80 38 81 39 82 40 83 41 84 64 85 65 86
REMARK SMILES IDX 73 87 66 88 72 89 67 90 68 91 69 92 70 93 71 94 50 95 51 96
REMARK SMILES IDX 59 97 52 98 58 99 53 100 54 101 55 102 56 103 57 104
REMARK H PARENT 10 14 94 35 78 60 48 71
REMARK Flexibility Score: inf
ROOT
ATOM      1  O   UNL A   1      46.539  29.655  25.100  1.00  0.00    -0.374 OA
ENDROOT
BRANCH   1   2
ATOM      2  C   UNL A   1      46.807  28.274  25.030  1.00  0.00     0.202 C 
BRANCH   2   3
ATOM      3  C   UNL A   1      47.790  28.077  26.117  1.00  0.00     0.261 C 
BRANCH   3   4
ATOM      4  O   UNL A   1      47.294  27.068  26.983  1.00  0.00    -0.460 OA
BRANCH   4   5
ATOM      5  C   UNL A   1      46.965  27.149  28.286  1.00  0.00     0.338 C 
ATOM      6  O   UNL A   1      47.488  27.653  29.256  1.00  0.00    -0.246 OA
BRANCH   5   7
ATOM      7  C   UNL A   1      45.829  26.239  28.360  1.00  0.00     0.062 A 
ATOM      8  C   UNL A   1      43.586  26.311  27.639  1.00  0.00     0.073 A 
ATOM      9  C   UNL A   1      44.564  26.848  28.400  1.00  0.00     0.044 A 
ATOM     10  C   UNL A   1      43.682  24.943  27.351  1.00  0.00     0.061 A 
ATOM     11  C   UNL A   1      44.912  24.261  27.494  1.00  0.00     0.029 A 
ATOM     12  C   UNL A   1      46.028  24.936  27.923  1.00  0.00     0.018 A 
BRANCH   8  13
ATOM     13  N   UNL A   1      42.524  27.187  27.239  1.00  0.00    -0.277 N 
ATOM     14  H   UNL A   1      42.645  27.740  26.433  1.00  0.00     0.180 HD
BRANCH  13  15
ATOM     15  S   UNL A   1      41.023  27.311  28.124  1.00  0.00     0.261 S 
ATOM     16  O   UNL A   1      41.337  26.768  29.433  1.00  0.00    -0.201 OA
ATOM     17  O   UNL A   1      40.062  26.617  27.286  1.00  0.00    -0.201 OA
BRANCH  15  18
ATOM     18  C   UNL A   1      40.325  28.999  28.425  1.00  0.00     0.088 A 
ATOM     19  C   UNL A   1      35.732  30.572  27.982  1.00  0.00     0.044 C 
ATOM     20  C   UNL A   1      37.182  30.786  28.304  1.00  0.00    -0.050 A 
ATOM     21  C   UNL A   1      38.180  32.036  29.753  1.00  0.00     0.003 A 
ATOM     22  C   UNL A   1      38.379  29.228  27.755  1.00  0.00     0.025 A 
ATOM     23  C   UNL A   1      40.136  31.923  30.367  1.00  0.00     0.002 A 
ATOM     24  C   UNL A   1      41.292  30.210  29.773  1.00  0.00     0.022 A 
ENDBRANCH  15  18
ENDBRANCH  13  15
ENDBRANCH   8  13
BRANCH  10  25
ATOM     25  N   UNL A   1      42.540  24.221  27.081  1.00  0.00    -0.369 N 
ATOM     26  C   UNL A   1      41.851  23.693  28.254  1.00  0.00     0.116 C 
ATOM     27  C   UNL A   1      42.375  23.670  25.749  1.00  0.00     0.126 C 
ATOM     28  C   UNL A   1      41.938  22.180  28.273  1.00  0.00     0.022 C 
ATOM     29  C   UNL A   1      42.364  22.137  25.767  1.00  0.00     0.064 C 
ATOM     30  C   UNL A   1      41.459  21.668  26.923  1.00  0.00     0.013 C 
BRANCH  29  31
ATOM     31  C   UNL A   1      43.807  21.564  25.758  1.00  0.00     0.267 C 
BRANCH  31  32
ATOM     32  N   UNL A   1      44.176  20.551  24.760  1.00  0.00    -0.335 N 
ATOM     33  C   UNL A   1      43.638  19.217  25.022  1.00  0.00     0.262 C 
ATOM     34  C   UNL A   1      45.602  20.395  24.486  1.00  0.00     0.262 C 
ATOM     35  H   UNL A   1      43.735  20.957  23.935  1.00  0.00     0.348 HD
ATOM     36  C   UNL A   1      44.767  18.476  25.711  1.00  0.00     0.067 C 
ATOM     37  C   UNL A   1      46.015  19.036  25.052  1.00  0.00     0.067 C 
ENDBRANCH  31  32
ENDBRANCH  29  31
ENDBRANCH  10  25
ENDBRANCH   5   7
ENDBRANCH   4   5
ENDBRANCH   3   4
ENDBRANCH   2   3
ENDBRANCH   1   2
BRANCH   1  38
ATOM     38  C   UNL A   1      45.789  30.155  26.164  1.00  0.00     0.202 C 
BRANCH  38  39
ATOM     39  C   UNL A   1      45.970  31.650  26.126  1.00  0.00     0.261 C 
BRANCH  39  40
ATOM     40  O   UNL A   1      44.662  32.265  25.867  1.00  0.00    -0.460 OA
BRANCH  40  41
ATOM     41  C   UNL A   1      44.599  33.596  25.508  1.00  0.00     0.338 C 
ATOM     42  O   UNL A   1      44.802  33.967  24.362  1.00  0.00    -0.246 OA
BRANCH  41  43
ATOM     43  C   UNL A   1      44.236  34.536  26.651  1.00  0.00     0.060 A 
ATOM     44  C   UNL A   1      43.247  35.522  26.506  1.00  0.00     0.016 A 
ATOM     45  C   UNL A   1      45.081  34.662  27.742  1.00  0.00     0.016 A 
ATOM     46  C   UNL A   1      43.325  36.751  27.227  1.00  0.00     0.010 A 
ATOM     47  C   UNL A   1      45.233  35.931  28.332  1.00  0.00     0.010 A 
ATOM     48  C   UNL A   1      44.454  37.065  27.990  1.00  0.00    -0.014 A 
BRANCH  48  49
ATOM     49  C   UNL A   1      44.808  38.400  28.699  1.00  0.00     0.031 A 
ATOM     50  C   UNL A   1      45.681  39.197  27.451  1.00  0.00     0.074 A 
ATOM     51  C   UNL A   1      44.255  39.108  30.048  1.00  0.00     0.049 A 
ATOM     52  N   UNL A   1      45.976  40.459  27.334  1.00  0.00    -0.248 NA
ATOM     53  C   UNL A   1      46.061  38.517  26.176  1.00  0.00     0.031 C 
ATOM     54  C   UNL A   1      44.376  41.244  30.512  1.00  0.00     0.029 A 
ATOM     55  N   UNL A   1      43.440  38.938  30.932  1.00  0.00    -0.354 N 
ATOM     56  C   UNL A   1      46.188  40.787  25.984  1.00  0.00     0.074 A 
ATOM     57  C   UNL A   1      46.234  39.524  25.306  1.00  0.00     0.031 C 
ATOM     58  C   UNL A   1      43.533  41.957  31.269  1.00  0.00     0.029 A 
ATOM     59  C   UNL A   1      43.806  40.659  31.541  1.00  0.00     0.049 A 
ATOM     60  H   UNL A   1      42.843  38.206  31.209  1.00  0.00     0.167 HD
ATOM     61  C   UNL A   1      46.213  42.102  25.579  1.00  0.00     0.031 A 
ATOM     62  C   UNL A   1      44.764  40.352  32.189  1.00  0.00     0.031 A 
ATOM     63  C   UNL A   1      46.240  42.988  26.760  1.00  0.00     0.049 A 
ATOM     64  C   UNL A   1      46.015  41.618  32.473  1.00  0.00     0.074 A 
ATOM     65  C   UNL A   1      45.410  43.961  27.287  1.00  0.00     0.029 A 
ATOM     66  N   UNL A   1      47.190  42.747  27.742  1.00  0.00    -0.354 N 
ATOM     67  N   UNL A   1      46.114  42.652  31.645  1.00  0.00    -0.248 NA
ATOM     68  C   UNL A   1      47.288  41.406  33.177  1.00  0.00     0.031 C 
ATOM     69  C   UNL A   1      45.801  44.181  28.652  1.00  0.00     0.029 A 
ATOM     70  C   UNL A   1      46.940  43.440  28.923  1.00  0.00     0.049 A 
ATOM     71  H   UNL A   1      47.961  42.146  27.617  1.00  0.00     0.167 HD
ATOM     72  C   UNL A   1      47.430  42.737  31.253  1.00  0.00     0.074 A 
ATOM     73  C   UNL A   1      48.127  41.985  32.298  1.00  0.00     0.031 C 
ATOM     74  C   UNL A   1      47.879  43.222  30.040  1.00  0.00     0.031 A 
BRANCH  61  75
ATOM     75  C   UNL A   1      46.130  42.705  24.143  1.00  0.00    -0.014 A 
ATOM     76  C   UNL A   1      44.835  42.915  23.601  1.00  0.00     0.010 A 
ATOM     77  C   UNL A   1      47.182  43.039  23.254  1.00  0.00     0.010 A 
ATOM     78  C   UNL A   1      44.584  43.372  22.294  1.00  0.00     0.020 A 
ATOM     79  C   UNL A   1      46.944  43.528  21.928  1.00  0.00     0.020 A 
ATOM     80  C   UNL A   1      45.640  43.678  21.453  1.00  0.00     0.054 A 
BRANCH  80  81
ATOM     81  S   UNL A   1      45.246  44.271  19.772  1.00  0.00     0.124 S 
ATOM     82  O   UNL A   1      46.383  43.787  18.990  1.00  0.00    -0.237 OA
ATOM     83  O   UNL A   1      43.974  43.612  19.489  1.00  0.00    -0.237 OA
ATOM     84  O   UNL A   1      45.172  45.723  19.918  1.00  0.00    -0.744 OA
ENDBRANCH  80  81
ENDBRANCH  61  75
BRANCH  62  85
ATOM     85  C   UNL A   1      44.746  38.133  32.048  1.00  0.00    -0.014 A 
ATOM     86  C   UNL A   1      43.499  37.210  32.492  1.00  0.00     0.010 A 
ATOM     87  C   UNL A   1      45.807  37.109  31.742  1.00  0.00     0.010 A 
ATOM     88  C   UNL A   1      43.341  35.822  32.466  1.00  0.00     0.020 A 
ATOM     89  C   UNL A   1      45.603  35.686  31.687  1.00  0.00     0.020 A 
ATOM     90  C   UNL A   1      44.371  35.081  31.951  1.00  0.00     0.054 A 
BRANCH  90  91
ATOM     91  S   UNL A   1      43.946  33.424  31.319  1.00  0.00     0.124 S 
ATOM     92  O   UNL A   1      43.003  33.720  30.249  1.00  0.00    -0.237 OA
ATOM     93  O   UNL A   1      45.245  32.910  30.880  1.00  0.00    -0.237 OA
ATOM     94  O   UNL A   1      43.392  32.760  32.493  1.00  0.00    -0.744 OA
ENDBRANCH  90  91
ENDBRANCH  62  85
BRANCH  74  95
ATOM     95  C   UNL A   1      49.350  43.523  29.782  1.00  0.00    -0.014 A 
ATOM     96  C   UNL A   1      49.793  44.823  29.515  1.00  0.00     0.010 A 
ATOM     97  C   UNL A   1      50.301  42.489  29.582  1.00  0.00     0.010 A 
ATOM     98  C   UNL A   1      51.091  45.100  29.112  1.00  0.00     0.020 A 
ATOM     99  C   UNL A   1      51.598  42.744  29.119  1.00  0.00     0.020 A 
ATOM    100  C   UNL A   1      51.969  44.056  28.866  1.00  0.00     0.054 A 
BRANCH 100 101
ATOM    101  S   UNL A   1      53.493  44.470  28.002  1.00  0.00     0.124 S 
ATOM    102  O   UNL A   1      53.751  43.240  27.253  1.00  0.00    -0.237 OA
ATOM    103  O   UNL A   1      53.084  45.617  27.197  1.00  0.00    -0.237 OA
ATOM    104  O   UNL A   1      54.439  44.756  29.075  1.00  0.00    -0.744 OA
ENDBRANCH 100 101
ENDBRANCH  74  95
ENDBRANCH  48  49
ENDBRANCH  41  43
ENDBRANCH  40  41
ENDBRANCH  39  40
ENDBRANCH  38  39
ENDBRANCH   1  38
TORSDOF 23
ENDMDL
