MODEL 1
REMARK VINA RESULT:     -10.4      0.000      0.000
REMARK SMILES O=C(C[C@H](NC(=O)[C@]12C[C@H]3C[C@H](C[C@H](C3)C1)C2)c1cccc([N+](=O)[O-])c1)OCCOCCOC(=O)c1ccc(-c2c3nc(c(-c4ccc(S(=O)(=O)[O-])cc4)c4ccc([nH]4)c(-c4ccc(S(=O)(=O)[O-])cc4)c4nc(c(-c5ccc(S(=O)(=O)[O-])cc5)c5ccc2[nH]5)C=C4)C=C3)cc1
REMARK SMILES IDX 30 1 29 2 28 3 27 4 2 5 1 6 3 7 4 8 18 9 19 10 26 11 20 12
REMARK SMILES IDX 22 13 21 14 23 15 24 16 25 17 5 18 6 19 7 21 8 22 9 23 16 24
REMARK SMILES IDX 17 25 10 26 14 27 12 28 11 29 15 30 13 31 31 32 32 33 33 34
REMARK SMILES IDX 34 35 35 36 36 37 37 38 95 39 38 40 94 41 39 42 40 43 41 44
REMARK SMILES IDX 88 45 42 46 93 47 87 48 89 49 43 50 92 51 86 52 85 53 44 55
REMARK SMILES IDX 74 56 55 57 73 58 56 59 59 60 72 61 90 62 57 63 58 64 71 66
REMARK SMILES IDX 91 67 60 68 45 69 46 70 54 71 47 72 53 73 48 74 49 75 50 76
REMARK SMILES IDX 51 77 52 78 75 79 76 80 84 81 77 82 83 83 78 84 79 85 80 86
REMARK SMILES IDX 81 87 82 88 61 89 62 90 70 91 63 92 69 93 64 94 65 95 66 96
REMARK SMILES IDX 67 97 68 98
REMARK H PARENT 5 20 89 54 59 65
REMARK Flexibility Score: inf
ROOT
ATOM      1  O   UNL A   1      36.235  24.128  25.343  1.00  0.00    -0.374 OA
ENDROOT
BRANCH   1   2
ATOM      2  C   UNL A   1      34.847  24.178  25.652  1.00  0.00     0.202 C 
BRANCH   2   3
ATOM      3  C   UNL A   1      33.990  25.422  25.392  1.00  0.00     0.261 C 
BRANCH   3   4
ATOM      4  O   UNL A   1      32.874  25.787  26.238  1.00  0.00    -0.463 OA
BRANCH   4   5
ATOM      5  C   UNL A   1      31.657  26.290  25.996  1.00  0.00     0.308 C 
ATOM      6  O   UNL A   1      30.845  25.628  25.347  1.00  0.00    -0.252 OA
BRANCH   5   7
ATOM      7  C   UNL A   1      31.277  27.634  26.520  1.00  0.00     0.152 C 
BRANCH   7   8
ATOM      8  C   UNL A   1      31.808  28.792  25.686  1.00  0.00     0.123 C 
BRANCH   8   9
ATOM      9  C   UNL A   1      32.926  29.529  26.404  1.00  0.00    -0.018 A 
ATOM     10  C   UNL A   1      34.120  28.909  26.800  1.00  0.00     0.006 A 
ATOM     11  C   UNL A   1      32.718  30.874  26.766  1.00  0.00     0.091 A 
ATOM     12  C   UNL A   1      35.045  29.585  27.599  1.00  0.00     0.007 A 
ATOM     13  C   UNL A   1      33.628  31.534  27.597  1.00  0.00     0.269 A 
ATOM     14  C   UNL A   1      34.795  30.891  28.019  1.00  0.00     0.085 A 
BRANCH  13  15
ATOM     15  N   UNL A   1      33.328  32.895  28.057  1.00  0.00     0.062 N 
ATOM     16  O   UNL A   1      34.074  33.397  28.908  1.00  0.00    -0.258 OA
ATOM     17  O   UNL A   1      32.350  33.471  27.555  1.00  0.00    -0.258 OA
ENDBRANCH  13  15
ENDBRANCH   8   9
BRANCH   8  18
ATOM     18  N   UNL A   1      32.162  28.368  24.329  1.00  0.00    -0.348 N 
ATOM     19  C   UNL A   1      31.550  28.527  23.119  1.00  0.00     0.226 C 
ATOM     20  H   UNL A   1      33.009  27.870  24.281  1.00  0.00     0.164 HD
ATOM     21  O   UNL A   1      32.054  27.919  22.170  1.00  0.00    -0.274 OA
BRANCH  19  22
ATOM     22  C   UNL A   1      30.286  29.377  22.952  1.00  0.00     0.050 C 
ATOM     23  C   UNL A   1      30.210  30.514  24.020  1.00  0.00     0.020 C 
ATOM     24  C   UNL A   1      29.026  28.510  23.182  1.00  0.00     0.020 C 
ATOM     25  C   UNL A   1      30.297  30.098  21.582  1.00  0.00     0.020 C 
ATOM     26  C   UNL A   1      28.915  31.343  23.842  1.00  0.00    -0.010 C 
ATOM     27  C   UNL A   1      27.756  29.317  22.909  1.00  0.00    -0.010 C 
ATOM     28  C   UNL A   1      29.003  30.889  21.372  1.00  0.00    -0.010 C 
ATOM     29  C   UNL A   1      28.901  31.983  22.446  1.00  0.00     0.007 C 
ATOM     30  C   UNL A   1      27.680  30.431  23.960  1.00  0.00     0.007 C 
ATOM     31  C   UNL A   1      27.820  29.917  21.493  1.00  0.00     0.007 C 
ENDBRANCH  19  22
ENDBRANCH   8  18
ENDBRANCH   7   8
ENDBRANCH   5   7
ENDBRANCH   4   5
ENDBRANCH   3   4
ENDBRANCH   2   3
ENDBRANCH   1   2
BRANCH   1  32
ATOM     32  C   UNL A   1      37.217  24.044  26.363  1.00  0.00     0.202 C 
BRANCH  32  33
ATOM     33  C   UNL A   1      38.648  23.957  25.861  1.00  0.00     0.261 C 
BRANCH  33  34
ATOM     34  O   UNL A   1      39.546  24.339  26.905  1.00  0.00    -0.460 OA
BRANCH  34  35
ATOM     35  C   UNL A   1      40.193  25.503  26.684  1.00  0.00     0.338 C 
ATOM     36  O   UNL A   1      40.893  25.793  25.726  1.00  0.00    -0.246 OA
BRANCH  35  37
ATOM     37  C   UNL A   1      39.783  26.473  27.711  1.00  0.00     0.060 A 
ATOM     38  C   UNL A   1      40.159  27.810  27.530  1.00  0.00     0.016 A 
ATOM     39  C   UNL A   1      39.090  26.066  28.855  1.00  0.00     0.016 A 
ATOM     40  C   UNL A   1      39.935  28.728  28.542  1.00  0.00     0.010 A 
ATOM     41  C   UNL A   1      38.874  26.986  29.876  1.00  0.00     0.010 A 
ATOM     42  C   UNL A   1      39.365  28.294  29.745  1.00  0.00    -0.014 A 
BRANCH  42  43
ATOM     43  C   UNL A   1      39.560  29.129  30.945  1.00  0.00     0.031 A 
ATOM     44  C   UNL A   1      40.806  28.898  31.759  1.00  0.00     0.074 A 
ATOM     45  C   UNL A   1      38.693  30.105  31.247  1.00  0.00     0.049 A 
ATOM     46  N   UNL A   1      41.218  29.515  32.834  1.00  0.00    -0.248 NA
ATOM     47  C   UNL A   1      41.708  27.826  31.300  1.00  0.00     0.031 C 
ATOM     48  C   UNL A   1      37.493  30.440  30.482  1.00  0.00     0.029 A 
ATOM     49  N   UNL A   1      38.702  31.005  32.279  1.00  0.00    -0.354 N 
ATOM     50  C   UNL A   1      42.413  28.896  33.186  1.00  0.00     0.074 A 
ATOM     51  C   UNL A   1      42.644  27.835  32.235  1.00  0.00     0.031 C 
ATOM     52  C   UNL A   1      36.880  31.481  31.071  1.00  0.00     0.029 A 
ATOM     53  C   UNL A   1      37.629  31.861  32.266  1.00  0.00     0.049 A 
ATOM     54  H   UNL A   1      39.409  31.035  32.962  1.00  0.00     0.167 HD
ATOM     55  C   UNL A   1      43.246  29.194  34.208  1.00  0.00     0.031 A 
ATOM     56  C   UNL A   1      37.293  32.832  33.135  1.00  0.00     0.031 A 
ATOM     57  C   UNL A   1      42.995  30.253  35.147  1.00  0.00     0.049 A 
ATOM     58  C   UNL A   1      38.207  33.107  34.300  1.00  0.00     0.074 A 
ATOM     59  C   UNL A   1      43.773  30.659  36.216  1.00  0.00     0.029 A 
ATOM     60  N   UNL A   1      41.874  31.072  35.130  1.00  0.00    -0.354 N 
ATOM     61  N   UNL A   1      39.342  32.525  34.616  1.00  0.00    -0.248 NA
ATOM     62  C   UNL A   1      37.804  34.181  35.215  1.00  0.00     0.031 C 
ATOM     63  C   UNL A   1      43.089  31.679  36.885  1.00  0.00     0.029 A 
ATOM     64  C   UNL A   1      41.925  31.964  36.185  1.00  0.00     0.049 A 
ATOM     65  H   UNL A   1      41.150  31.024  34.465  1.00  0.00     0.167 HD
ATOM     66  C   UNL A   1      39.809  33.193  35.743  1.00  0.00     0.074 A 
ATOM     67  C   UNL A   1      38.838  34.227  36.043  1.00  0.00     0.031 C 
ATOM     68  C   UNL A   1      40.942  32.982  36.461  1.00  0.00     0.031 A 
BRANCH  55  69
ATOM     69  C   UNL A   1      44.469  28.334  34.388  1.00  0.00    -0.014 A 
ATOM     70  C   UNL A   1      45.655  28.571  33.668  1.00  0.00     0.010 A 
ATOM     71  C   UNL A   1      44.436  27.275  35.314  1.00  0.00     0.010 A 
ATOM     72  C   UNL A   1      46.769  27.745  33.842  1.00  0.00     0.020 A 
ATOM     73  C   UNL A   1      45.557  26.466  35.516  1.00  0.00     0.020 A 
ATOM     74  C   UNL A   1      46.712  26.698  34.766  1.00  0.00     0.054 A 
BRANCH  74  75
ATOM     75  S   UNL A   1      48.181  25.657  34.995  1.00  0.00     0.124 S 
ATOM     76  O   UNL A   1      49.241  26.655  35.116  1.00  0.00    -0.237 OA
ATOM     77  O   UNL A   1      47.865  24.925  36.219  1.00  0.00    -0.237 OA
ATOM     78  O   UNL A   1      48.225  24.847  33.781  1.00  0.00    -0.744 OA
ENDBRANCH  74  75
ENDBRANCH  55  69
BRANCH  56  79
ATOM     79  C   UNL A   1      36.044  33.613  32.929  1.00  0.00    -0.014 A 
ATOM     80  C   UNL A   1      36.070  34.850  32.260  1.00  0.00     0.010 A 
ATOM     81  C   UNL A   1      34.814  33.117  33.401  1.00  0.00     0.010 A 
ATOM     82  C   UNL A   1      34.893  35.584  32.086  1.00  0.00     0.020 A 
ATOM     83  C   UNL A   1      33.632  33.835  33.201  1.00  0.00     0.020 A 
ATOM     84  C   UNL A   1      33.681  35.071  32.556  1.00  0.00     0.054 A 
BRANCH  84  85
ATOM     85  S   UNL A   1      32.162  36.024  32.281  1.00  0.00     0.124 S 
ATOM     86  O   UNL A   1      31.128  35.044  32.599  1.00  0.00    -0.237 OA
ATOM     87  O   UNL A   1      32.306  37.124  33.232  1.00  0.00    -0.237 OA
ATOM     88  O   UNL A   1      32.250  36.410  30.875  1.00  0.00    -0.744 OA
ENDBRANCH  84  85
ENDBRANCH  56  79
BRANCH  68  89
ATOM     89  C   UNL A   1      41.219  33.925  37.603  1.00  0.00    -0.014 A 
ATOM     90  C   UNL A   1      40.642  33.743  38.870  1.00  0.00     0.010 A 
ATOM     91  C   UNL A   1      42.105  35.000  37.400  1.00  0.00     0.010 A 
ATOM     92  C   UNL A   1      40.901  34.651  39.900  1.00  0.00     0.020 A 
ATOM     93  C   UNL A   1      42.397  35.888  38.437  1.00  0.00     0.020 A 
ATOM     94  C   UNL A   1      41.775  35.720  39.675  1.00  0.00     0.054 A 
BRANCH  94  95
ATOM     95  S   UNL A   1      42.103  36.878  41.030  1.00  0.00     0.124 S 
ATOM     96  O   UNL A   1      43.421  37.395  40.675  1.00  0.00    -0.237 OA
ATOM     97  O   UNL A   1      41.000  37.829  40.911  1.00  0.00    -0.237 OA
ATOM     98  O   UNL A   1      42.066  36.036  42.223  1.00  0.00    -0.744 OA
ENDBRANCH  94  95
ENDBRANCH  68  89
ENDBRANCH  42  43
ENDBRANCH  35  37
ENDBRANCH  34  35
ENDBRANCH  33  34
ENDBRANCH  32  33
ENDBRANCH   1  32
TORSDOF 22
ENDMDL
MODEL 2
REMARK VINA RESULT:     -10.3      4.327      8.773
REMARK SMILES O=C(C[C@H](NC(=O)[C@]12C[C@H]3C[C@H](C[C@H](C3)C1)C2)c1cccc([N+](=O)[O-])c1)OCCOCCOC(=O)c1ccc(-c2c3nc(c(-c4ccc(S(=O)(=O)[O-])cc4)c4ccc([nH]4)c(-c4ccc(S(=O)(=O)[O-])cc4)c4nc(c(-c5ccc(S(=O)(=O)[O-])cc5)c5ccc2[nH]5)C=C4)C=C3)cc1
REMARK SMILES IDX 30 1 29 2 28 3 27 4 2 5 1 6 3 7 4 8 18 9 19 10 26 11 20 12
REMARK SMILES IDX 22 13 21 14 23 15 24 16 25 17 5 18 6 19 7 21 8 22 9 23 16 24
REMARK SMILES IDX 17 25 10 26 14 27 12 28 11 29 15 30 13 31 31 32 32 33 33 34
REMARK SMILES IDX 34 35 35 36 36 37 37 38 95 39 38 40 94 41 39 42 40 43 41 44
REMARK SMILES IDX 88 45 42 46 93 47 87 48 89 49 43 50 92 51 86 52 85 53 44 55
REMARK SMILES IDX 74 56 55 57 73 58 56 59 59 60 72 61 90 62 57 63 58 64 71 66
REMARK SMILES IDX 91 67 60 68 45 69 46 70 54 71 47 72 53 73 48 74 49 75 50 76
REMARK SMILES IDX 51 77 52 78 75 79 76 80 84 81 77 82 83 83 78 84 79 85 80 86
REMARK SMILES IDX 81 87 82 88 61 89 62 90 70 91 63 92 69 93 64 94 65 95 66 96
REMARK SMILES IDX 67 97 68 98
REMARK H PARENT 5 20 89 54 59 65
REMARK Flexibility Score: inf
ROOT
ATOM      1  O   UNL A   1      34.271  32.114  28.384  1.00  0.00    -0.374 OA
ENDROOT
BRANCH   1   2
ATOM      2  C   UNL A   1      33.900  31.016  27.560  1.00  0.00     0.202 C 
BRANCH   2   3
ATOM      3  C   UNL A   1      32.554  30.952  26.829  1.00  0.00     0.261 C 
BRANCH   3   4
ATOM      4  O   UNL A   1      32.244  29.920  25.863  1.00  0.00    -0.463 OA
BRANCH   4   5
ATOM      5  C   UNL A   1      32.990  29.155  25.057  1.00  0.00     0.308 C 
ATOM      6  O   UNL A   1      34.006  28.617  25.500  1.00  0.00    -0.252 OA
BRANCH   5   7
ATOM      7  C   UNL A   1      32.589  28.938  23.636  1.00  0.00     0.152 C 
BRANCH   7   8
ATOM      8  C   UNL A   1      31.866  27.619  23.396  1.00  0.00     0.123 C 
BRANCH   8   9
ATOM      9  C   UNL A   1      30.358  27.787  23.474  1.00  0.00    -0.018 A 
ATOM     10  C   UNL A   1      29.502  26.796  23.972  1.00  0.00     0.006 A 
ATOM     11  C   UNL A   1      29.786  28.959  22.940  1.00  0.00     0.091 A 
ATOM     12  C   UNL A   1      28.115  26.933  23.872  1.00  0.00     0.007 A 
ATOM     13  C   UNL A   1      28.400  29.075  22.807  1.00  0.00     0.269 A 
ATOM     14  C   UNL A   1      27.559  28.061  23.271  1.00  0.00     0.085 A 
BRANCH  13  15
ATOM     15  N   UNL A   1      27.837  30.254  22.139  1.00  0.00     0.062 N 
ATOM     16  O   UNL A   1      27.965  30.339  20.910  1.00  0.00    -0.258 OA
ATOM     17  O   UNL A   1      27.251  31.092  22.842  1.00  0.00    -0.258 OA
ENDBRANCH  13  15
ENDBRANCH   8   9
BRANCH   8  18
ATOM     18  N   UNL A   1      32.320  26.966  22.165  1.00  0.00    -0.348 N 
ATOM     19  C   UNL A   1      32.978  25.794  21.926  1.00  0.00     0.226 C 
ATOM     20  H   UNL A   1      32.108  27.473  21.349  1.00  0.00     0.164 HD
ATOM     21  O   UNL A   1      33.337  25.599  20.762  1.00  0.00    -0.274 OA
BRANCH  19  22
ATOM     22  C   UNL A   1      33.292  24.794  23.045  1.00  0.00     0.050 C 
ATOM     23  C   UNL A   1      31.992  24.281  23.742  1.00  0.00     0.020 C 
ATOM     24  C   UNL A   1      34.114  25.484  24.160  1.00  0.00     0.020 C 
ATOM     25  C   UNL A   1      33.975  23.532  22.465  1.00  0.00     0.020 C 
ATOM     26  C   UNL A   1      32.339  23.292  24.881  1.00  0.00    -0.010 C 
ATOM     27  C   UNL A   1      34.530  24.472  25.228  1.00  0.00    -0.010 C 
ATOM     28  C   UNL A   1      34.363  22.560  23.583  1.00  0.00    -0.010 C 
ATOM     29  C   UNL A   1      33.092  22.084  24.302  1.00  0.00     0.007 C 
ATOM     30  C   UNL A   1      33.254  23.971  25.915  1.00  0.00     0.007 C 
ATOM     31  C   UNL A   1      35.280  23.301  24.568  1.00  0.00     0.007 C 
ENDBRANCH  19  22
ENDBRANCH   8  18
ENDBRANCH   7   8
ENDBRANCH   5   7
ENDBRANCH   4   5
ENDBRANCH   3   4
ENDBRANCH   2   3
ENDBRANCH   1   2
BRANCH   1  32
ATOM     32  C   UNL A   1      34.779  33.317  27.831  1.00  0.00     0.202 C 
BRANCH  32  33
ATOM     33  C   UNL A   1      33.975  34.561  28.166  1.00  0.00     0.261 C 
BRANCH  33  34
ATOM     34  O   UNL A   1      33.044  34.262  29.208  1.00  0.00    -0.460 OA
BRANCH  34  35
ATOM     35  C   UNL A   1      32.989  35.189  30.187  1.00  0.00     0.338 C 
ATOM     36  O   UNL A   1      32.190  36.109  30.296  1.00  0.00    -0.246 OA
BRANCH  35  37
ATOM     37  C   UNL A   1      33.951  34.825  31.237  1.00  0.00     0.060 A 
ATOM     38  C   UNL A   1      34.415  35.844  32.078  1.00  0.00     0.016 A 
ATOM     39  C   UNL A   1      34.429  33.516  31.358  1.00  0.00     0.016 A 
ATOM     40  C   UNL A   1      35.436  35.582  32.976  1.00  0.00     0.010 A 
ATOM     41  C   UNL A   1      35.462  33.254  32.253  1.00  0.00     0.010 A 
ATOM     42  C   UNL A   1      36.011  34.306  33.002  1.00  0.00    -0.014 A 
BRANCH  42  43
ATOM     43  C   UNL A   1      37.358  34.164  33.587  1.00  0.00     0.031 A 
ATOM     44  C   UNL A   1      37.450  33.839  35.055  1.00  0.00     0.074 A 
ATOM     45  C   UNL A   1      38.451  34.248  32.816  1.00  0.00     0.049 A 
ATOM     46  N   UNL A   1      38.508  33.640  35.793  1.00  0.00    -0.248 NA
ATOM     47  C   UNL A   1      36.176  33.726  35.789  1.00  0.00     0.031 C 
ATOM     48  C   UNL A   1      38.455  34.500  31.375  1.00  0.00     0.029 A 
ATOM     49  N   UNL A   1      39.774  34.117  33.142  1.00  0.00    -0.354 N 
ATOM     50  C   UNL A   1      38.028  33.394  37.076  1.00  0.00     0.074 A 
ATOM     51  C   UNL A   1      36.590  33.505  37.026  1.00  0.00     0.031 C 
ATOM     52  C   UNL A   1      39.725  34.498  30.938  1.00  0.00     0.029 A 
ATOM     53  C   UNL A   1      40.619  34.277  32.073  1.00  0.00     0.049 A 
ATOM     54  H   UNL A   1      40.088  33.925  34.055  1.00  0.00     0.167 HD
ATOM     55  C   UNL A   1      38.729  33.096  38.193  1.00  0.00     0.031 A 
ATOM     56  C   UNL A   1      41.964  34.257  32.029  1.00  0.00     0.031 A 
ATOM     57  C   UNL A   1      40.162  32.996  38.223  1.00  0.00     0.049 A 
ATOM     58  C   UNL A   1      42.724  33.982  33.299  1.00  0.00     0.074 A 
ATOM     59  C   UNL A   1      40.982  32.687  39.293  1.00  0.00     0.029 A 
ATOM     60  N   UNL A   1      40.989  33.209  37.129  1.00  0.00    -0.354 N 
ATOM     61  N   UNL A   1      42.261  33.737  34.504  1.00  0.00    -0.248 NA
ATOM     62  C   UNL A   1      44.188  33.960  33.199  1.00  0.00     0.031 C 
ATOM     63  C   UNL A   1      42.309  32.778  38.861  1.00  0.00     0.029 A 
ATOM     64  C   UNL A   1      42.313  33.065  37.503  1.00  0.00     0.049 A 
ATOM     65  H   UNL A   1      40.679  33.430  36.221  1.00  0.00     0.167 HD
ATOM     66  C   UNL A   1      43.377  33.491  35.297  1.00  0.00     0.074 A 
ATOM     67  C   UNL A   1      44.533  33.607  34.429  1.00  0.00     0.031 C 
ATOM     68  C   UNL A   1      43.444  33.188  36.618  1.00  0.00     0.031 A 
BRANCH  55  69
ATOM     69  C   UNL A   1      37.957  32.912  39.475  1.00  0.00    -0.014 A 
ATOM     70  C   UNL A   1      37.876  33.930  40.443  1.00  0.00     0.010 A 
ATOM     71  C   UNL A   1      37.285  31.697  39.704  1.00  0.00     0.010 A 
ATOM     72  C   UNL A   1      37.168  33.724  41.631  1.00  0.00     0.020 A 
ATOM     73  C   UNL A   1      36.549  31.499  40.875  1.00  0.00     0.020 A 
ATOM     74  C   UNL A   1      36.509  32.509  41.839  1.00  0.00     0.054 A 
BRANCH  74  75
ATOM     75  S   UNL A   1      35.573  32.277  43.376  1.00  0.00     0.124 S 
ATOM     76  O   UNL A   1      35.648  33.605  43.978  1.00  0.00    -0.237 OA
ATOM     77  O   UNL A   1      34.254  31.881  42.889  1.00  0.00    -0.237 OA
ATOM     78  O   UNL A   1      36.314  31.232  44.079  1.00  0.00    -0.744 OA
ENDBRANCH  74  75
ENDBRANCH  55  69
BRANCH  56  79
ATOM     79  C   UNL A   1      42.668  34.498  30.740  1.00  0.00    -0.014 A 
ATOM     80  C   UNL A   1      43.058  35.796  30.366  1.00  0.00     0.010 A 
ATOM     81  C   UNL A   1      42.958  33.423  29.881  1.00  0.00     0.010 A 
ATOM     82  C   UNL A   1      43.705  36.016  29.146  1.00  0.00     0.020 A 
ATOM     83  C   UNL A   1      43.631  33.635  28.675  1.00  0.00     0.020 A 
ATOM     84  C   UNL A   1      43.990  34.933  28.309  1.00  0.00     0.054 A 
BRANCH  84  85
ATOM     85  S   UNL A   1      44.866  35.239  26.751  1.00  0.00     0.124 S 
ATOM     86  O   UNL A   1      45.154  36.667  26.839  1.00  0.00    -0.237 OA
ATOM     87  O   UNL A   1      46.022  34.352  26.863  1.00  0.00    -0.237 OA
ATOM     88  O   UNL A   1      43.893  34.858  25.730  1.00  0.00    -0.744 OA
ENDBRANCH  84  85
ENDBRANCH  56  79
BRANCH  68  89
ATOM     89  C   UNL A   1      44.808  32.900  37.189  1.00  0.00    -0.014 A 
ATOM     90  C   UNL A   1      45.595  33.908  37.770  1.00  0.00     0.010 A 
ATOM     91  C   UNL A   1      45.293  31.578  37.168  1.00  0.00     0.010 A 
ATOM     92  C   UNL A   1      46.867  33.611  38.269  1.00  0.00     0.020 A 
ATOM     93  C   UNL A   1      46.546  31.270  37.699  1.00  0.00     0.020 A 
ATOM     94  C   UNL A   1      47.335  32.293  38.227  1.00  0.00     0.054 A 
BRANCH  94  95
ATOM     95  S   UNL A   1      48.983  31.932  38.888  1.00  0.00     0.124 S 
ATOM     96  O   UNL A   1      49.073  32.868  40.005  1.00  0.00    -0.237 OA
ATOM     97  O   UNL A   1      48.878  30.522  39.254  1.00  0.00    -0.237 OA
ATOM     98  O   UNL A   1      49.876  32.214  37.766  1.00  0.00    -0.744 OA
ENDBRANCH  94  95
ENDBRANCH  68  89
ENDBRANCH  42  43
ENDBRANCH  35  37
ENDBRANCH  34  35
ENDBRANCH  33  34
ENDBRANCH  32  33
ENDBRANCH   1  32
TORSDOF 22
ENDMDL
MODEL 3
REMARK VINA RESULT:     -10.2      1.950      3.760
REMARK SMILES O=C(C[C@H](NC(=O)[C@]12C[C@H]3C[C@H](C[C@H](C3)C1)C2)c1cccc([N+](=O)[O-])c1)OCCOCCOC(=O)c1ccc(-c2c3nc(c(-c4ccc(S(=O)(=O)[O-])cc4)c4ccc([nH]4)c(-c4ccc(S(=O)(=O)[O-])cc4)c4nc(c(-c5ccc(S(=O)(=O)[O-])cc5)c5ccc2[nH]5)C=C4)C=C3)cc1
REMARK SMILES IDX 30 1 29 2 28 3 27 4 2 5 1 6 3 7 4 8 18 9 19 10 26 11 20 12
REMARK SMILES IDX 22 13 21 14 23 15 24 16 25 17 5 18 6 19 7 21 8 22 9 23 16 24
REMARK SMILES IDX 17 25 10 26 14 27 12 28 11 29 15 30 13 31 31 32 32 33 33 34
REMARK SMILES IDX 34 35 35 36 36 37 37 38 95 39 38 40 94 41 39 42 40 43 41 44
REMARK SMILES IDX 88 45 42 46 93 47 87 48 89 49 43 50 92 51 86 52 85 53 44 55
REMARK SMILES IDX 74 56 55 57 73 58 56 59 59 60 72 61 90 62 57 63 58 64 71 66
REMARK SMILES IDX 91 67 60 68 45 69 46 70 54 71 47 72 53 73 48 74 49 75 50 76
REMARK SMILES IDX 51 77 52 78 75 79 76 80 84 81 77 82 83 83 78 84 79 85 80 86
REMARK SMILES IDX 81 87 82 88 61 89 62 90 70 91 63 92 69 93 64 94 65 95 66 96
REMARK SMILES IDX 67 97 68 98
REMARK H PARENT 5 20 89 54 59 65
REMARK Flexibility Score: inf
ROOT
ATOM      1  O   UNL A   1      36.438  23.995  24.914  1.00  0.00    -0.374 OA
ENDROOT
BRANCH   1   2
ATOM      2  C   UNL A   1      35.018  23.925  24.871  1.00  0.00     0.202 C 
BRANCH   2   3
ATOM      3  C   UNL A   1      34.251  23.519  23.608  1.00  0.00     0.261 C 
BRANCH   3   4
ATOM      4  O   UNL A   1      33.007  24.150  23.219  1.00  0.00    -0.463 OA
BRANCH   4   5
ATOM      5  C   UNL A   1      31.756  23.703  23.061  1.00  0.00     0.308 C 
ATOM      6  O   UNL A   1      31.541  22.490  23.049  1.00  0.00    -0.252 OA
BRANCH   5   7
ATOM      7  C   UNL A   1      30.622  24.663  22.919  1.00  0.00     0.152 C 
BRANCH   7   8
ATOM      8  C   UNL A   1      30.688  25.839  23.885  1.00  0.00     0.123 C 
BRANCH   8   9
ATOM      9  C   UNL A   1      29.502  26.773  23.707  1.00  0.00    -0.018 A 
ATOM     10  C   UNL A   1      28.205  26.451  24.130  1.00  0.00     0.006 A 
ATOM     11  C   UNL A   1      29.698  27.979  23.006  1.00  0.00     0.091 A 
ATOM     12  C   UNL A   1      27.122  27.269  23.800  1.00  0.00     0.007 A 
ATOM     13  C   UNL A   1      28.607  28.775  22.644  1.00  0.00     0.269 A 
ATOM     14  C   UNL A   1      27.314  28.421  23.038  1.00  0.00     0.085 A 
BRANCH  13  15
ATOM     15  N   UNL A   1      28.827  29.963  21.812  1.00  0.00     0.062 N 
ATOM     16  O   UNL A   1      29.924  30.079  21.248  1.00  0.00    -0.258 OA
ATOM     17  O   UNL A   1      27.896  30.777  21.710  1.00  0.00    -0.258 OA
ENDBRANCH  13  15
ENDBRANCH   8   9
BRANCH   8  18
ATOM     18  N   UNL A   1      30.884  25.397  25.268  1.00  0.00    -0.348 N 
ATOM     19  C   UNL A   1      31.562  25.933  26.325  1.00  0.00     0.226 C 
ATOM     20  H   UNL A   1      30.439  24.545  25.475  1.00  0.00     0.164 HD
ATOM     21  O   UNL A   1      31.643  25.228  27.333  1.00  0.00    -0.274 OA
BRANCH  19  22
ATOM     22  C   UNL A   1      32.221  27.316  26.252  1.00  0.00     0.050 C 
ATOM     23  C   UNL A   1      32.857  27.724  27.618  1.00  0.00     0.020 C 
ATOM     24  C   UNL A   1      31.157  28.398  25.952  1.00  0.00     0.020 C 
ATOM     25  C   UNL A   1      33.391  27.303  25.239  1.00  0.00     0.020 C 
ATOM     26  C   UNL A   1      33.495  29.132  27.523  1.00  0.00    -0.010 C 
ATOM     27  C   UNL A   1      31.815  29.765  25.765  1.00  0.00    -0.010 C 
ATOM     28  C   UNL A   1      34.007  28.698  25.101  1.00  0.00    -0.010 C 
ATOM     29  C   UNL A   1      34.598  29.124  26.453  1.00  0.00     0.007 C 
ATOM     30  C   UNL A   1      32.437  30.169  27.107  1.00  0.00     0.007 C 
ATOM     31  C   UNL A   1      32.900  29.673  24.676  1.00  0.00     0.007 C 
ENDBRANCH  19  22
ENDBRANCH   8  18
ENDBRANCH   7   8
ENDBRANCH   5   7
ENDBRANCH   4   5
ENDBRANCH   3   4
ENDBRANCH   2   3
ENDBRANCH   1   2
BRANCH   1  32
ATOM     32  C   UNL A   1      37.184  23.308  25.905  1.00  0.00     0.202 C 
BRANCH  32  33
ATOM     33  C   UNL A   1      38.655  23.682  25.967  1.00  0.00     0.261 C 
BRANCH  33  34
ATOM     34  O   UNL A   1      38.791  25.001  26.499  1.00  0.00    -0.460 OA
BRANCH  34  35
ATOM     35  C   UNL A   1      40.048  25.491  26.457  1.00  0.00     0.338 C 
ATOM     36  O   UNL A   1      40.797  25.531  25.492  1.00  0.00    -0.246 OA
BRANCH  35  37
ATOM     37  C   UNL A   1      40.341  26.152  27.737  1.00  0.00     0.060 A 
ATOM     38  C   UNL A   1      39.527  25.839  28.833  1.00  0.00     0.016 A 
ATOM     39  C   UNL A   1      41.361  27.102  27.843  1.00  0.00     0.016 A 
ATOM     40  C   UNL A   1      39.662  26.550  30.013  1.00  0.00     0.010 A 
ATOM     41  C   UNL A   1      41.491  27.824  29.026  1.00  0.00     0.010 A 
ATOM     42  C   UNL A   1      40.591  27.596  30.078  1.00  0.00    -0.014 A 
BRANCH  42  43
ATOM     43  C   UNL A   1      40.409  28.621  31.123  1.00  0.00     0.031 A 
ATOM     44  C   UNL A   1      41.320  28.565  32.320  1.00  0.00     0.074 A 
ATOM     45  C   UNL A   1      39.513  29.606  30.965  1.00  0.00     0.049 A 
ATOM     46  N   UNL A   1      41.377  29.362  33.353  1.00  0.00    -0.248 NA
ATOM     47  C   UNL A   1      42.296  27.461  32.359  1.00  0.00     0.031 C 
ATOM     48  C   UNL A   1      38.632  29.773  29.810  1.00  0.00     0.029 A 
ATOM     49  N   UNL A   1      39.210  30.662  31.781  1.00  0.00    -0.354 N 
ATOM     50  C   UNL A   1      42.381  28.847  34.168  1.00  0.00     0.074 A 
ATOM     51  C   UNL A   1      42.881  27.652  33.531  1.00  0.00     0.031 C 
ATOM     52  C   UNL A   1      37.887  30.877  29.991  1.00  0.00     0.029 A 
ATOM     53  C   UNL A   1      38.219  31.470  31.284  1.00  0.00     0.049 A 
ATOM     54  H   UNL A   1      39.660  30.826  32.641  1.00  0.00     0.167 HD
ATOM     55  C   UNL A   1      42.846  29.334  35.340  1.00  0.00     0.031 A 
ATOM     56  C   UNL A   1      37.644  32.560  31.826  1.00  0.00     0.031 A 
ATOM     57  C   UNL A   1      42.331  30.524  35.961  1.00  0.00     0.049 A 
ATOM     58  C   UNL A   1      38.140  33.049  33.161  1.00  0.00     0.074 A 
ATOM     59  C   UNL A   1      42.732  31.122  37.141  1.00  0.00     0.029 A 
ATOM     60  N   UNL A   1      41.295  31.293  35.449  1.00  0.00    -0.354 N 
ATOM     61  N   UNL A   1      39.099  32.563  33.916  1.00  0.00    -0.248 NA
ATOM     62  C   UNL A   1      37.489  34.246  33.707  1.00  0.00     0.031 C 
ATOM     63  C   UNL A   1      41.894  32.217  37.376  1.00  0.00     0.029 A 
ATOM     64  C   UNL A   1      41.024  32.347  36.303  1.00  0.00     0.049 A 
ATOM     65  H   UNL A   1      40.823  31.114  34.604  1.00  0.00     0.167 HD
ATOM     66  C   UNL A   1      39.193  33.421  35.008  1.00  0.00     0.074 A 
ATOM     67  C   UNL A   1      38.201  34.458  34.804  1.00  0.00     0.031 C 
ATOM     68  C   UNL A   1      40.028  33.364  36.076  1.00  0.00     0.031 A 
BRANCH  55  69
ATOM     69  C   UNL A   1      43.926  28.553  36.043  1.00  0.00    -0.014 A 
ATOM     70  C   UNL A   1      45.291  28.813  35.823  1.00  0.00     0.010 A 
ATOM     71  C   UNL A   1      43.563  27.548  36.959  1.00  0.00     0.010 A 
ATOM     72  C   UNL A   1      46.271  28.060  36.476  1.00  0.00     0.020 A 
ATOM     73  C   UNL A   1      44.539  26.814  37.639  1.00  0.00     0.020 A 
ATOM     74  C   UNL A   1      45.888  27.066  37.380  1.00  0.00     0.054 A 
BRANCH  74  75
ATOM     75  S   UNL A   1      47.180  26.122  38.237  1.00  0.00     0.124 S 
ATOM     76  O   UNL A   1      48.040  27.185  38.750  1.00  0.00    -0.237 OA
ATOM     77  O   UNL A   1      46.420  25.385  39.244  1.00  0.00    -0.237 OA
ATOM     78  O   UNL A   1      47.768  25.301  37.181  1.00  0.00    -0.744 OA
ENDBRANCH  74  75
ENDBRANCH  55  69
BRANCH  56  79
ATOM     79  C   UNL A   1      36.546  33.257  31.104  1.00  0.00    -0.014 A 
ATOM     80  C   UNL A   1      36.802  33.966  29.917  1.00  0.00     0.010 A 
ATOM     81  C   UNL A   1      35.230  33.210  31.601  1.00  0.00     0.010 A 
ATOM     82  C   UNL A   1      35.767  34.633  29.254  1.00  0.00     0.020 A 
ATOM     83  C   UNL A   1      34.189  33.849  30.924  1.00  0.00     0.020 A 
ATOM     84  C   UNL A   1      34.466  34.568  29.760  1.00  0.00     0.054 A 
BRANCH  84  85
ATOM     85  S   UNL A   1      33.134  35.406  28.860  1.00  0.00     0.124 S 
ATOM     86  O   UNL A   1      32.495  34.296  28.160  1.00  0.00    -0.237 OA
ATOM     87  O   UNL A   1      32.355  36.006  29.940  1.00  0.00    -0.237 OA
ATOM     88  O   UNL A   1      33.842  36.359  28.008  1.00  0.00    -0.744 OA
ENDBRANCH  84  85
ENDBRANCH  56  79
BRANCH  68  89
ATOM     89  C   UNL A   1      39.945  34.490  37.074  1.00  0.00    -0.014 A 
ATOM     90  C   UNL A   1      40.719  35.655  36.942  1.00  0.00     0.010 A 
ATOM     91  C   UNL A   1      39.045  34.382  38.151  1.00  0.00     0.010 A 
ATOM     92  C   UNL A   1      40.635  36.669  37.900  1.00  0.00     0.020 A 
ATOM     93  C   UNL A   1      38.930  35.409  39.090  1.00  0.00     0.020 A 
ATOM     94  C   UNL A   1      39.743  36.537  38.970  1.00  0.00     0.054 A 
BRANCH  94  95
ATOM     95  S   UNL A   1      39.646  37.870  40.194  1.00  0.00     0.124 S 
ATOM     96  O   UNL A   1      40.995  38.425  40.145  1.00  0.00    -0.237 OA
ATOM     97  O   UNL A   1      38.592  38.725  39.653  1.00  0.00    -0.237 OA
ATOM     98  O   UNL A   1      39.303  37.177  41.435  1.00  0.00    -0.744 OA
ENDBRANCH  94  95
ENDBRANCH  68  89
ENDBRANCH  42  43
ENDBRANCH  35  37
ENDBRANCH  34  35
ENDBRANCH  33  34
ENDBRANCH  32  33
ENDBRANCH   1  32
TORSDOF 22
ENDMDL
