MODEL 1
REMARK VINA RESULT:      -9.8      0.000      0.000
REMARK SMILES Cc1nsc(NC(=O)CC[C@H](C)CC[NH3+])c1C(=O)OCCOCCOC(=O)c1ccc(-c2c3nc(c(-c4ccc(S(=O)(=O)[O-])cc4)c4ccc([nH]4)c(-c4ccc(S(=O)(=O)[O-])cc4)c4nc(c(-c5ccc(S(=O)(=O)[O-])cc5)c5ccc2[nH]5)C=C4)C=C3)cc1
REMARK SMILES IDX 20 1 19 2 17 3 18 4 16 5 1 6 2 7 3 8 4 9 5 10 6 11 7 12 8 14
REMARK SMILES IDX 9 15 10 16 11 17 12 18 13 19 14 20 15 21 21 25 22 26 23 27
REMARK SMILES IDX 24 28 25 29 26 30 27 31 28 32 29 33 87 34 30 35 86 36 31 37
REMARK SMILES IDX 32 38 33 39 80 40 34 41 85 42 79 43 81 44 35 45 84 46 78 47
REMARK SMILES IDX 77 48 36 50 66 51 47 52 65 53 48 54 51 55 64 56 82 57 49 58
REMARK SMILES IDX 50 59 63 61 83 62 52 63 37 64 38 65 46 66 39 67 45 68 40 69
REMARK SMILES IDX 41 70 42 71 43 72 44 73 67 74 68 75 76 76 69 77 75 78 70 79
REMARK SMILES IDX 71 80 72 81 73 82 74 83 53 84 54 85 62 86 55 87 61 88 56 89
REMARK SMILES IDX 57 90 58 91 59 92 60 93
REMARK H PARENT 6 13 15 22 15 23 15 24 81 49 51 60
REMARK Flexibility Score: inf
ROOT
ATOM      1  C   UNL A   1      36.350  23.506  24.240  1.00  0.00     0.261 C 
ENDROOT
BRANCH   1   2
ATOM      2  O   UNL A   1      35.292  24.466  24.053  1.00  0.00    -0.460 OA
BRANCH   2   3
ATOM      3  C   UNL A   1      34.231  24.094  23.262  1.00  0.00     0.343 C 
ATOM      4  O   UNL A   1      34.207  23.158  22.514  1.00  0.00    -0.246 OA
BRANCH   3   5
ATOM      5  C   UNL A   1      33.049  24.832  23.699  1.00  0.00     0.117 A 
ATOM      6  C   UNL A   1      32.249  25.932  21.428  1.00  0.00     0.069 C 
ATOM      7  C   UNL A   1      32.295  25.782  22.907  1.00  0.00     0.068 A 
ATOM      8  N   UNL A   1      31.674  26.722  23.611  1.00  0.00    -0.195 NA
ATOM      9  S   UNL A   1      32.052  26.506  25.193  1.00  0.00    -0.017 S 
ATOM     10  C   UNL A   1      32.641  24.918  25.029  1.00  0.00     0.130 A 
BRANCH  10  11
ATOM     11  N   UNL A   1      32.981  24.224  26.168  1.00  0.00    -0.316 N 
ATOM     12  C   UNL A   1      32.484  23.019  26.610  1.00  0.00     0.225 C 
ATOM     13  H   UNL A   1      33.667  24.641  26.738  1.00  0.00     0.170 HD
ATOM     14  O   UNL A   1      32.419  22.837  27.831  1.00  0.00    -0.275 OA
BRANCH  12  15
ATOM     15  C   UNL A   1      32.239  21.833  25.652  1.00  0.00     0.101 C 
BRANCH  15  16
ATOM     16  C   UNL A   1      33.413  20.931  25.227  1.00  0.00     0.013 C 
BRANCH  16  17
ATOM     17  C   UNL A   1      33.140  19.589  24.435  1.00  0.00    -0.008 C 
ATOM     18  C   UNL A   1      32.294  19.724  23.160  1.00  0.00     0.008 C 
BRANCH  17  19
ATOM     19  C   UNL A   1      32.809  18.423  25.438  1.00  0.00     0.064 C 
BRANCH  19  20
ATOM     20  C   UNL A   1      32.645  16.956  25.004  1.00  0.00     0.259 C 
BRANCH  20  21
ATOM     21  N   UNL A   1      33.554  16.483  23.969  1.00  0.00    -0.358 N 
ATOM     22  H   UNL A   1      33.636  15.468  24.026  1.00  0.00     0.344 HD
ATOM     23  H   UNL A   1      34.472  16.906  24.104  1.00  0.00     0.344 HD
ATOM     24  H   UNL A   1      33.191  16.744  23.052  1.00  0.00     0.344 HD
ENDBRANCH  20  21
ENDBRANCH  19  20
ENDBRANCH  17  19
ENDBRANCH  16  17
ENDBRANCH  15  16
ENDBRANCH  12  15
ENDBRANCH  10  11
ENDBRANCH   3   5
ENDBRANCH   2   3
ENDBRANCH   1   2
BRANCH   1  25
ATOM     25  C   UNL A   1      36.685  23.359  25.734  1.00  0.00     0.202 C 
BRANCH  25  26
ATOM     26  O   UNL A   1      36.983  22.015  26.126  1.00  0.00    -0.374 OA
BRANCH  26  27
ATOM     27  C   UNL A   1      37.879  21.311  25.272  1.00  0.00     0.202 C 
BRANCH  27  28
ATOM     28  C   UNL A   1      39.235  20.948  25.854  1.00  0.00     0.261 C 
BRANCH  28  29
ATOM     29  O   UNL A   1      39.689  21.986  26.721  1.00  0.00    -0.460 OA
BRANCH  29  30
ATOM     30  C   UNL A   1      40.977  22.353  26.559  1.00  0.00     0.338 C 
ATOM     31  O   UNL A   1      41.926  21.622  26.342  1.00  0.00    -0.246 OA
BRANCH  30  32
ATOM     32  C   UNL A   1      41.075  23.792  26.849  1.00  0.00     0.060 A 
ATOM     33  C   UNL A   1      42.144  24.189  27.652  1.00  0.00     0.016 A 
ATOM     34  C   UNL A   1      40.044  24.683  26.500  1.00  0.00     0.016 A 
ATOM     35  C   UNL A   1      42.100  25.440  28.232  1.00  0.00     0.010 A 
ATOM     36  C   UNL A   1      40.004  25.934  27.083  1.00  0.00     0.010 A 
ATOM     37  C   UNL A   1      41.000  26.276  27.991  1.00  0.00    -0.014 A 
BRANCH  37  38
ATOM     38  C   UNL A   1      41.005  27.574  28.634  1.00  0.00     0.031 A 
ATOM     39  C   UNL A   1      42.114  28.439  28.178  1.00  0.00     0.074 A 
ATOM     40  C   UNL A   1      40.090  27.983  29.529  1.00  0.00     0.049 A 
ATOM     41  N   UNL A   1      43.200  28.711  28.819  1.00  0.00    -0.248 NA
ATOM     42  C   UNL A   1      42.099  28.895  26.782  1.00  0.00     0.031 C 
ATOM     43  C   UNL A   1      38.822  27.345  29.889  1.00  0.00     0.029 A 
ATOM     44  N   UNL A   1      40.081  29.131  30.260  1.00  0.00    -0.354 N 
ATOM     45  C   UNL A   1      43.916  29.563  27.991  1.00  0.00     0.074 A 
ATOM     46  C   UNL A   1      43.291  29.488  26.694  1.00  0.00     0.031 C 
ATOM     47  C   UNL A   1      38.074  28.218  30.605  1.00  0.00     0.029 A 
ATOM     48  C   UNL A   1      38.869  29.403  30.881  1.00  0.00     0.049 A 
ATOM     49  H   UNL A   1      40.867  29.718  30.343  1.00  0.00     0.167 HD
ATOM     50  C   UNL A   1      44.798  30.465  28.501  1.00  0.00     0.031 A 
ATOM     51  C   UNL A   1      38.544  30.540  31.542  1.00  0.00     0.031 A 
ATOM     52  C   UNL A   1      45.122  30.176  29.874  1.00  0.00     0.049 A 
ATOM     53  C   UNL A   1      39.811  31.180  31.967  1.00  0.00     0.074 A 
ATOM     54  C   UNL A   1      45.764  29.154  30.540  1.00  0.00     0.029 A 
ATOM     55  N   UNL A   1      44.403  30.873  30.814  1.00  0.00    -0.354 N 
ATOM     56  N   UNL A   1      40.606  30.666  32.861  1.00  0.00    -0.248 NA
ATOM     57  C   UNL A   1      40.402  32.216  31.134  1.00  0.00     0.031 C 
ATOM     58  C   UNL A   1      45.109  29.053  31.802  1.00  0.00     0.029 A 
ATOM     59  C   UNL A   1      44.126  30.045  31.869  1.00  0.00     0.049 A 
ATOM     60  H   UNL A   1      44.130  31.817  30.742  1.00  0.00     0.167 HD
ATOM     61  C   UNL A   1      41.882  30.985  32.426  1.00  0.00     0.074 A 
ATOM     62  C   UNL A   1      41.690  32.057  31.455  1.00  0.00     0.031 C 
ATOM     63  C   UNL A   1      42.936  30.159  32.691  1.00  0.00     0.031 A 
BRANCH  50  64
ATOM     64  C   UNL A   1      44.989  31.842  27.914  1.00  0.00    -0.014 A 
ATOM     65  C   UNL A   1      46.282  32.237  27.517  1.00  0.00     0.010 A 
ATOM     66  C   UNL A   1      44.013  32.856  28.015  1.00  0.00     0.010 A 
ATOM     67  C   UNL A   1      46.594  33.587  27.303  1.00  0.00     0.020 A 
ATOM     68  C   UNL A   1      44.302  34.196  27.761  1.00  0.00     0.020 A 
ATOM     69  C   UNL A   1      45.602  34.558  27.441  1.00  0.00     0.054 A 
BRANCH  69  70
ATOM     70  S   UNL A   1      46.035  36.306  27.272  1.00  0.00     0.124 S 
ATOM     71  O   UNL A   1      46.885  36.289  26.087  1.00  0.00    -0.237 OA
ATOM     72  O   UNL A   1      44.727  36.933  27.108  1.00  0.00    -0.237 OA
ATOM     73  O   UNL A   1      46.714  36.611  28.529  1.00  0.00    -0.744 OA
ENDBRANCH  69  70
ENDBRANCH  50  64
BRANCH  51  74
ATOM     74  C   UNL A   1      37.242  31.242  31.608  1.00  0.00    -0.014 A 
ATOM     75  C   UNL A   1      36.606  31.463  32.844  1.00  0.00     0.010 A 
ATOM     76  C   UNL A   1      36.781  31.966  30.491  1.00  0.00     0.010 A 
ATOM     77  C   UNL A   1      35.600  32.433  32.975  1.00  0.00     0.020 A 
ATOM     78  C   UNL A   1      35.775  32.932  30.613  1.00  0.00     0.020 A 
ATOM     79  C   UNL A   1      35.209  33.182  31.862  1.00  0.00     0.054 A 
BRANCH  79  80
ATOM     80  S   UNL A   1      34.060  34.573  32.082  1.00  0.00     0.124 S 
ATOM     81  O   UNL A   1      34.944  35.635  32.551  1.00  0.00    -0.237 OA
ATOM     82  O   UNL A   1      33.516  34.752  30.738  1.00  0.00    -0.237 OA
ATOM     83  O   UNL A   1      33.105  34.078  33.070  1.00  0.00    -0.744 OA
ENDBRANCH  79  80
ENDBRANCH  51  74
BRANCH  63  84
ATOM     84  C   UNL A   1      42.771  29.143  33.797  1.00  0.00    -0.014 A 
ATOM     85  C   UNL A   1      42.412  27.798  33.589  1.00  0.00     0.010 A 
ATOM     86  C   UNL A   1      43.098  29.556  35.101  1.00  0.00     0.010 A 
ATOM     87  C   UNL A   1      42.353  26.898  34.665  1.00  0.00     0.020 A 
ATOM     88  C   UNL A   1      43.061  28.661  36.172  1.00  0.00     0.020 A 
ATOM     89  C   UNL A   1      42.678  27.339  35.952  1.00  0.00     0.054 A 
BRANCH  89  90
ATOM     90  S   UNL A   1      42.640  26.165  37.336  1.00  0.00     0.124 S 
ATOM     91  O   UNL A   1      41.259  26.267  37.801  1.00  0.00    -0.237 OA
ATOM     92  O   UNL A   1      42.999  24.900  36.699  1.00  0.00    -0.237 OA
ATOM     93  O   UNL A   1      43.644  26.688  38.263  1.00  0.00    -0.744 OA
ENDBRANCH  89  90
ENDBRANCH  63  84
ENDBRANCH  37  38
ENDBRANCH  30  32
ENDBRANCH  29  30
ENDBRANCH  28  29
ENDBRANCH  27  28
ENDBRANCH  26  27
ENDBRANCH  25  26
ENDBRANCH   1  25
TORSDOF 24
ENDMDL
MODEL 2
REMARK VINA RESULT:      -9.7      1.915      3.188
REMARK SMILES Cc1nsc(NC(=O)CC[C@H](C)CC[NH3+])c1C(=O)OCCOCCOC(=O)c1ccc(-c2c3nc(c(-c4ccc(S(=O)(=O)[O-])cc4)c4ccc([nH]4)c(-c4ccc(S(=O)(=O)[O-])cc4)c4nc(c(-c5ccc(S(=O)(=O)[O-])cc5)c5ccc2[nH]5)C=C4)C=C3)cc1
REMARK SMILES IDX 20 1 19 2 17 3 18 4 16 5 1 6 2 7 3 8 4 9 5 10 6 11 7 12 8 14
REMARK SMILES IDX 9 15 10 16 11 17 12 18 13 19 14 20 15 21 21 25 22 26 23 27
REMARK SMILES IDX 24 28 25 29 26 30 27 31 28 32 29 33 87 34 30 35 86 36 31 37
REMARK SMILES IDX 32 38 33 39 80 40 34 41 85 42 79 43 81 44 35 45 84 46 78 47
REMARK SMILES IDX 77 48 36 50 66 51 47 52 65 53 48 54 51 55 64 56 82 57 49 58
REMARK SMILES IDX 50 59 63 61 83 62 52 63 37 64 38 65 46 66 39 67 45 68 40 69
REMARK SMILES IDX 41 70 42 71 43 72 44 73 67 74 68 75 76 76 69 77 75 78 70 79
REMARK SMILES IDX 71 80 72 81 73 82 74 83 53 84 54 85 62 86 55 87 61 88 56 89
REMARK SMILES IDX 57 90 58 91 59 92 60 93
REMARK H PARENT 6 13 15 22 15 23 15 24 81 49 51 60
REMARK Flexibility Score: inf
ROOT
ATOM      1  C   UNL A   1      35.043  23.948  23.788  1.00  0.00     0.261 C 
ENDROOT
BRANCH   1   2
ATOM      2  O   UNL A   1      33.849  24.752  23.848  1.00  0.00    -0.460 OA
BRANCH   2   3
ATOM      3  C   UNL A   1      32.645  24.112  23.678  1.00  0.00     0.343 C 
ATOM      4  O   UNL A   1      32.313  23.088  24.205  1.00  0.00    -0.246 OA
BRANCH   3   5
ATOM      5  C   UNL A   1      31.729  25.025  22.998  1.00  0.00     0.117 A 
ATOM      6  C   UNL A   1      32.795  25.128  20.577  1.00  0.00     0.069 C 
ATOM      7  C   UNL A   1      31.919  25.601  21.682  1.00  0.00     0.068 A 
ATOM      8  N   UNL A   1      31.331  26.779  21.502  1.00  0.00    -0.195 NA
ATOM      9  S   UNL A   1      30.625  27.216  22.917  1.00  0.00    -0.017 S 
ATOM     10  C   UNL A   1      30.673  25.674  23.634  1.00  0.00     0.130 A 
BRANCH  10  11
ATOM     11  N   UNL A   1      30.049  25.496  24.848  1.00  0.00    -0.316 N 
ATOM     12  C   UNL A   1      30.627  25.331  26.085  1.00  0.00     0.225 C 
ATOM     13  H   UNL A   1      29.064  25.488  24.829  1.00  0.00     0.170 HD
ATOM     14  O   UNL A   1      30.033  24.625  26.908  1.00  0.00    -0.275 OA
BRANCH  12  15
ATOM     15  C   UNL A   1      31.839  26.172  26.543  1.00  0.00     0.101 C 
BRANCH  15  16
ATOM     16  C   UNL A   1      31.836  27.699  26.343  1.00  0.00     0.013 C 
BRANCH  16  17
ATOM     17  C   UNL A   1      33.144  28.441  25.853  1.00  0.00    -0.008 C 
ATOM     18  C   UNL A   1      33.675  28.022  24.473  1.00  0.00     0.008 C 
BRANCH  17  19
ATOM     19  C   UNL A   1      34.167  28.583  27.041  1.00  0.00     0.064 C 
BRANCH  19  20
ATOM     20  C   UNL A   1      34.674  29.938  27.561  1.00  0.00     0.259 C 
BRANCH  20  21
ATOM     21  N   UNL A   1      33.668  30.839  28.106  1.00  0.00    -0.358 N 
ATOM     22  H   UNL A   1      33.453  31.563  27.421  1.00  0.00     0.344 HD
ATOM     23  H   UNL A   1      34.024  31.272  28.958  1.00  0.00     0.344 HD
ATOM     24  H   UNL A   1      32.821  30.312  28.321  1.00  0.00     0.344 HD
ENDBRANCH  20  21
ENDBRANCH  19  20
ENDBRANCH  17  19
ENDBRANCH  16  17
ENDBRANCH  15  16
ENDBRANCH  12  15
ENDBRANCH  10  11
ENDBRANCH   3   5
ENDBRANCH   2   3
ENDBRANCH   1   2
BRANCH   1  25
ATOM     25  C   UNL A   1      35.750  23.931  25.154  1.00  0.00     0.202 C 
BRANCH  25  26
ATOM     26  O   UNL A   1      36.179  22.627  25.561  1.00  0.00    -0.374 OA
BRANCH  26  27
ATOM     27  C   UNL A   1      37.130  21.999  24.707  1.00  0.00     0.202 C 
BRANCH  27  28
ATOM     28  C   UNL A   1      38.381  21.444  25.368  1.00  0.00     0.261 C 
BRANCH  28  29
ATOM     29  O   UNL A   1      38.779  22.287  26.448  1.00  0.00    -0.460 OA
BRANCH  29  30
ATOM     30  C   UNL A   1      40.108  22.472  26.578  1.00  0.00     0.338 C 
ATOM     31  O   UNL A   1      40.972  21.614  26.577  1.00  0.00    -0.246 OA
BRANCH  30  32
ATOM     32  C   UNL A   1      40.337  23.892  26.885  1.00  0.00     0.060 A 
ATOM     33  C   UNL A   1      41.401  24.177  27.740  1.00  0.00     0.016 A 
ATOM     34  C   UNL A   1      39.418  24.884  26.497  1.00  0.00     0.016 A 
ATOM     35  C   UNL A   1      41.457  25.422  28.329  1.00  0.00     0.010 A 
ATOM     36  C   UNL A   1      39.477  26.130  27.090  1.00  0.00     0.010 A 
ATOM     37  C   UNL A   1      40.459  26.366  28.045  1.00  0.00    -0.014 A 
BRANCH  37  38
ATOM     38  C   UNL A   1      40.564  27.655  28.699  1.00  0.00     0.031 A 
ATOM     39  C   UNL A   1      41.735  28.436  28.248  1.00  0.00     0.074 A 
ATOM     40  C   UNL A   1      39.684  28.125  29.600  1.00  0.00     0.049 A 
ATOM     41  N   UNL A   1      42.840  28.619  28.889  1.00  0.00    -0.248 NA
ATOM     42  C   UNL A   1      41.753  28.904  26.856  1.00  0.00     0.031 C 
ATOM     43  C   UNL A   1      38.372  27.582  29.958  1.00  0.00     0.029 A 
ATOM     44  N   UNL A   1      39.764  29.263  30.341  1.00  0.00    -0.354 N 
ATOM     45  C   UNL A   1      43.617  29.421  28.066  1.00  0.00     0.074 A 
ATOM     46  C   UNL A   1      42.986  29.405  26.770  1.00  0.00     0.031 C 
ATOM     47  C   UNL A   1      37.694  28.503  30.683  1.00  0.00     0.029 A 
ATOM     48  C   UNL A   1      38.578  29.621  30.967  1.00  0.00     0.049 A 
ATOM     49  H   UNL A   1      40.593  29.788  30.427  1.00  0.00     0.167 HD
ATOM     50  C   UNL A   1      44.566  30.248  28.582  1.00  0.00     0.031 A 
ATOM     51  C   UNL A   1      38.343  30.774  31.639  1.00  0.00     0.031 A 
ATOM     52  C   UNL A   1      44.870  29.923  29.951  1.00  0.00     0.049 A 
ATOM     53  C   UNL A   1      39.655  31.312  32.066  1.00  0.00     0.074 A 
ATOM     54  C   UNL A   1      45.433  28.849  30.607  1.00  0.00     0.029 A 
ATOM     55  N   UNL A   1      44.208  30.665  30.899  1.00  0.00    -0.354 N 
ATOM     56  N   UNL A   1      40.410  30.730  32.953  1.00  0.00    -0.248 NA
ATOM     57  C   UNL A   1      40.322  32.307  31.241  1.00  0.00     0.031 C 
ATOM     58  C   UNL A   1      44.775  28.788  31.869  1.00  0.00     0.029 A 
ATOM     59  C   UNL A   1      43.870  29.851  31.948  1.00  0.00     0.049 A 
ATOM     60  H   UNL A   1      44.008  31.627  30.836  1.00  0.00     0.167 HD
ATOM     61  C   UNL A   1      41.706  30.955  32.519  1.00  0.00     0.074 A 
ATOM     62  C   UNL A   1      41.594  32.047  31.557  1.00  0.00     0.031 C 
ATOM     63  C   UNL A   1      42.694  30.048  32.774  1.00  0.00     0.031 A 
BRANCH  50  64
ATOM     64  C   UNL A   1      44.861  31.612  28.006  1.00  0.00    -0.014 A 
ATOM     65  C   UNL A   1      45.849  31.728  27.008  1.00  0.00     0.010 A 
ATOM     66  C   UNL A   1      44.422  32.807  28.614  1.00  0.00     0.010 A 
ATOM     67  C   UNL A   1      46.415  32.971  26.689  1.00  0.00     0.020 A 
ATOM     68  C   UNL A   1      44.946  34.053  28.273  1.00  0.00     0.020 A 
ATOM     69  C   UNL A   1      45.967  34.123  27.337  1.00  0.00     0.054 A 
BRANCH  69  70
ATOM     70  S   UNL A   1      46.776  35.705  27.002  1.00  0.00     0.124 S 
ATOM     71  O   UNL A   1      46.447  36.468  28.201  1.00  0.00    -0.237 OA
ATOM     72  O   UNL A   1      48.175  35.311  26.862  1.00  0.00    -0.237 OA
ATOM     73  O   UNL A   1      46.136  36.160  25.770  1.00  0.00    -0.744 OA
ENDBRANCH  69  70
ENDBRANCH  50  64
BRANCH  51  74
ATOM     74  C   UNL A   1      37.098  31.573  31.714  1.00  0.00    -0.014 A 
ATOM     75  C   UNL A   1      36.540  31.919  32.959  1.00  0.00     0.010 A 
ATOM     76  C   UNL A   1      36.636  32.256  30.572  1.00  0.00     0.010 A 
ATOM     77  C   UNL A   1      35.612  32.968  33.068  1.00  0.00     0.020 A 
ATOM     78  C   UNL A   1      35.707  33.299  30.672  1.00  0.00     0.020 A 
ATOM     79  C   UNL A   1      35.222  33.670  31.924  1.00  0.00     0.054 A 
BRANCH  79  80
ATOM     80  S   UNL A   1      34.186  35.153  32.100  1.00  0.00     0.124 S 
ATOM     81  O   UNL A   1      34.003  35.570  30.713  1.00  0.00    -0.237 OA
ATOM     82  O   UNL A   1      32.995  34.633  32.766  1.00  0.00    -0.237 OA
ATOM     83  O   UNL A   1      35.004  36.050  32.915  1.00  0.00    -0.744 OA
ENDBRANCH  79  80
ENDBRANCH  51  74
BRANCH  63  84
ATOM     84  C   UNL A   1      42.454  29.039  33.871  1.00  0.00    -0.014 A 
ATOM     85  C   UNL A   1      41.821  27.796  33.679  1.00  0.00     0.010 A 
ATOM     86  C   UNL A   1      42.992  29.328  35.138  1.00  0.00     0.010 A 
ATOM     87  C   UNL A   1      41.703  26.881  34.737  1.00  0.00     0.020 A 
ATOM     88  C   UNL A   1      42.896  28.414  36.189  1.00  0.00     0.020 A 
ATOM     89  C   UNL A   1      42.243  27.199  35.987  1.00  0.00     0.054 A 
BRANCH  89  90
ATOM     90  S   UNL A   1      42.126  25.998  37.344  1.00  0.00     0.124 S 
ATOM     91  O   UNL A   1      43.087  26.519  38.313  1.00  0.00    -0.237 OA
ATOM     92  O   UNL A   1      40.722  26.089  37.738  1.00  0.00    -0.237 OA
ATOM     93  O   UNL A   1      42.504  24.730  36.720  1.00  0.00    -0.744 OA
ENDBRANCH  89  90
ENDBRANCH  63  84
ENDBRANCH  37  38
ENDBRANCH  30  32
ENDBRANCH  29  30
ENDBRANCH  28  29
ENDBRANCH  27  28
ENDBRANCH  26  27
ENDBRANCH  25  26
ENDBRANCH   1  25
TORSDOF 24
ENDMDL
MODEL 3
REMARK VINA RESULT:      -9.4      1.685      3.572
REMARK SMILES Cc1nsc(NC(=O)CC[C@H](C)CC[NH3+])c1C(=O)OCCOCCOC(=O)c1ccc(-c2c3nc(c(-c4ccc(S(=O)(=O)[O-])cc4)c4ccc([nH]4)c(-c4ccc(S(=O)(=O)[O-])cc4)c4nc(c(-c5ccc(S(=O)(=O)[O-])cc5)c5ccc2[nH]5)C=C4)C=C3)cc1
REMARK SMILES IDX 20 1 19 2 17 3 18 4 16 5 1 6 2 7 3 8 4 9 5 10 6 11 7 12 8 14
REMARK SMILES IDX 9 15 10 16 11 17 12 18 13 19 14 20 15 21 21 25 22 26 23 27
REMARK SMILES IDX 24 28 25 29 26 30 27 31 28 32 29 33 87 34 30 35 86 36 31 37
REMARK SMILES IDX 32 38 33 39 80 40 34 41 85 42 79 43 81 44 35 45 84 46 78 47
REMARK SMILES IDX 77 48 36 50 66 51 47 52 65 53 48 54 51 55 64 56 82 57 49 58
REMARK SMILES IDX 50 59 63 61 83 62 52 63 37 64 38 65 46 66 39 67 45 68 40 69
REMARK SMILES IDX 41 70 42 71 43 72 44 73 67 74 68 75 76 76 69 77 75 78 70 79
REMARK SMILES IDX 71 80 72 81 73 82 74 83 53 84 54 85 62 86 55 87 61 88 56 89
REMARK SMILES IDX 57 90 58 91 59 92 60 93
REMARK H PARENT 6 13 15 22 15 23 15 24 81 49 51 60
REMARK Flexibility Score: inf
ROOT
ATOM      1  C   UNL A   1      37.346  23.185  24.843  1.00  0.00     0.261 C 
ENDROOT
BRANCH   1   2
ATOM      2  O   UNL A   1      35.918  23.019  24.941  1.00  0.00    -0.460 OA
BRANCH   2   3
ATOM      3  C   UNL A   1      35.427  21.735  24.927  1.00  0.00     0.343 C 
ATOM      4  O   UNL A   1      35.947  20.779  25.429  1.00  0.00    -0.246 OA
BRANCH   3   5
ATOM      5  C   UNL A   1      34.039  21.776  24.472  1.00  0.00     0.117 A 
ATOM      6  C   UNL A   1      32.949  19.865  25.943  1.00  0.00     0.069 C 
ATOM      7  C   UNL A   1      33.004  20.819  24.803  1.00  0.00     0.068 A 
ATOM      8  N   UNL A   1      32.050  20.695  23.887  1.00  0.00    -0.195 NA
ATOM      9  S   UNL A   1      32.435  21.661  22.618  1.00  0.00    -0.017 S 
ATOM     10  C   UNL A   1      33.590  22.600  23.442  1.00  0.00     0.130 A 
BRANCH  10  11
ATOM     11  N   UNL A   1      34.135  23.685  22.793  1.00  0.00    -0.316 N 
ATOM     12  C   UNL A   1      33.847  25.017  22.976  1.00  0.00     0.225 C 
ATOM     13  H   UNL A   1      34.819  23.482  22.114  1.00  0.00     0.170 HD
ATOM     14  O   UNL A   1      33.937  25.765  21.995  1.00  0.00    -0.275 OA
BRANCH  12  15
ATOM     15  C   UNL A   1      33.657  25.630  24.381  1.00  0.00     0.101 C 
BRANCH  15  16
ATOM     16  C   UNL A   1      32.345  26.354  24.735  1.00  0.00     0.013 C 
BRANCH  16  17
ATOM     17  C   UNL A   1      32.375  27.684  25.590  1.00  0.00    -0.008 C 
ATOM     18  C   UNL A   1      31.578  27.653  26.904  1.00  0.00     0.008 C 
BRANCH  17  19
ATOM     19  C   UNL A   1      32.230  28.938  24.652  1.00  0.00     0.064 C 
BRANCH  19  20
ATOM     20  C   UNL A   1      32.739  28.971  23.200  1.00  0.00     0.259 C 
BRANCH  20  21
ATOM     21  N   UNL A   1      31.759  29.315  22.180  1.00  0.00    -0.358 N 
ATOM     22  H   UNL A   1      30.838  29.405  22.610  1.00  0.00     0.344 HD
ATOM     23  H   UNL A   1      31.733  28.582  21.472  1.00  0.00     0.344 HD
ATOM     24  H   UNL A   1      32.018  30.200  21.744  1.00  0.00     0.344 HD
ENDBRANCH  20  21
ENDBRANCH  19  20
ENDBRANCH  17  19
ENDBRANCH  16  17
ENDBRANCH  15  16
ENDBRANCH  12  15
ENDBRANCH  10  11
ENDBRANCH   3   5
ENDBRANCH   2   3
ENDBRANCH   1   2
BRANCH   1  25
ATOM     25  C   UNL A   1      37.902  23.827  26.126  1.00  0.00     0.202 C 
BRANCH  25  26
ATOM     26  O   UNL A   1      39.056  23.158  26.647  1.00  0.00    -0.374 OA
BRANCH  26  27
ATOM     27  C   UNL A   1      39.319  21.870  26.100  1.00  0.00     0.202 C 
BRANCH  27  28
ATOM     28  C   UNL A   1      40.769  21.418  26.082  1.00  0.00     0.261 C 
BRANCH  28  29
ATOM     29  O   UNL A   1      41.603  22.424  26.655  1.00  0.00    -0.460 OA
BRANCH  29  30
ATOM     30  C   UNL A   1      42.325  23.147  25.775  1.00  0.00     0.338 C 
ATOM     31  O   UNL A   1      42.960  22.725  24.825  1.00  0.00    -0.246 OA
BRANCH  30  32
ATOM     32  C   UNL A   1      42.351  24.539  26.248  1.00  0.00     0.060 A 
ATOM     33  C   UNL A   1      43.099  24.788  27.398  1.00  0.00     0.016 A 
ATOM     34  C   UNL A   1      41.513  25.521  25.688  1.00  0.00     0.016 A 
ATOM     35  C   UNL A   1      42.891  25.971  28.075  1.00  0.00     0.010 A 
ATOM     36  C   UNL A   1      41.306  26.704  26.370  1.00  0.00     0.010 A 
ATOM     37  C   UNL A   1      41.951  26.890  27.587  1.00  0.00    -0.014 A 
BRANCH  37  38
ATOM     38  C   UNL A   1      41.768  28.112  28.345  1.00  0.00     0.031 A 
ATOM     39  C   UNL A   1      42.925  29.027  28.251  1.00  0.00     0.074 A 
ATOM     40  C   UNL A   1      40.659  28.417  29.041  1.00  0.00     0.049 A 
ATOM     41  N   UNL A   1      43.825  29.235  29.151  1.00  0.00    -0.248 NA
ATOM     42  C   UNL A   1      43.218  29.630  26.944  1.00  0.00     0.031 C 
ATOM     43  C   UNL A   1      39.362  27.736  29.028  1.00  0.00     0.029 A 
ATOM     44  N   UNL A   1      40.446  29.478  29.864  1.00  0.00    -0.354 N 
ATOM     45  C   UNL A   1      44.686  30.175  28.604  1.00  0.00     0.074 A 
ATOM     46  C   UNL A   1      44.379  30.237  27.196  1.00  0.00     0.031 C 
ATOM     47  C   UNL A   1      38.443  28.522  29.637  1.00  0.00     0.029 A 
ATOM     48  C   UNL A   1      39.117  29.675  30.211  1.00  0.00     0.049 A 
ATOM     49  H   UNL A   1      41.174  30.058  30.187  1.00  0.00     0.167 HD
ATOM     50  C   UNL A   1      45.399  31.022  29.395  1.00  0.00     0.031 A 
ATOM     51  C   UNL A   1      38.614  30.732  30.893  1.00  0.00     0.031 A 
ATOM     52  C   UNL A   1      45.407  30.588  30.768  1.00  0.00     0.049 A 
ATOM     53  C   UNL A   1      39.729  31.330  31.664  1.00  0.00     0.074 A 
ATOM     54  C   UNL A   1      45.910  29.504  31.456  1.00  0.00     0.029 A 
ATOM     55  N   UNL A   1      44.470  31.176  31.583  1.00  0.00    -0.354 N 
ATOM     56  N   UNL A   1      40.312  30.727  32.660  1.00  0.00    -0.248 NA
ATOM     57  C   UNL A   1      40.464  32.453  31.103  1.00  0.00     0.031 C 
ATOM     58  C   UNL A   1      44.985  29.265  32.514  1.00  0.00     0.029 A 
ATOM     59  C   UNL A   1      43.983  30.237  32.454  1.00  0.00     0.049 A 
ATOM     60  H   UNL A   1      44.193  32.120  31.548  1.00  0.00     0.167 HD
ATOM     61  C   UNL A   1      41.644  31.099  32.569  1.00  0.00     0.074 A 
ATOM     62  C   UNL A   1      41.647  32.268  31.696  1.00  0.00     0.031 C 
ATOM     63  C   UNL A   1      42.633  30.255  32.985  1.00  0.00     0.031 A 
BRANCH  50  64
ATOM     64  C   UNL A   1      45.677  32.456  29.015  1.00  0.00    -0.014 A 
ATOM     65  C   UNL A   1      44.589  33.309  28.741  1.00  0.00     0.010 A 
ATOM     66  C   UNL A   1      46.957  32.908  28.631  1.00  0.00     0.010 A 
ATOM     67  C   UNL A   1      44.771  34.517  28.054  1.00  0.00     0.020 A 
ATOM     68  C   UNL A   1      47.154  34.129  27.987  1.00  0.00     0.020 A 
ATOM     69  C   UNL A   1      46.053  34.911  27.670  1.00  0.00     0.054 A 
BRANCH  69  70
ATOM     70  S   UNL A   1      46.268  36.414  26.689  1.00  0.00     0.124 S 
ATOM     71  O   UNL A   1      44.945  37.022  26.781  1.00  0.00    -0.237 OA
ATOM     72  O   UNL A   1      47.336  37.101  27.410  1.00  0.00    -0.237 OA
ATOM     73  O   UNL A   1      46.639  35.910  25.369  1.00  0.00    -0.744 OA
ENDBRANCH  69  70
ENDBRANCH  50  64
BRANCH  51  74
ATOM     74  C   UNL A   1      37.311  31.415  30.727  1.00  0.00    -0.014 A 
ATOM     75  C   UNL A   1      37.093  32.693  31.277  1.00  0.00     0.010 A 
ATOM     76  C   UNL A   1      36.394  30.947  29.766  1.00  0.00     0.010 A 
ATOM     77  C   UNL A   1      36.043  33.506  30.822  1.00  0.00     0.020 A 
ATOM     78  C   UNL A   1      35.341  31.750  29.311  1.00  0.00     0.020 A 
ATOM     79  C   UNL A   1      35.188  33.038  29.821  1.00  0.00     0.054 A 
BRANCH  79  80
ATOM     80  S   UNL A   1      33.966  34.170  29.093  1.00  0.00     0.124 S 
ATOM     81  O   UNL A   1      34.809  35.222  28.535  1.00  0.00    -0.237 OA
ATOM     82  O   UNL A   1      33.287  33.320  28.117  1.00  0.00    -0.237 OA
ATOM     83  O   UNL A   1      33.145  34.571  30.234  1.00  0.00    -0.744 OA
ENDBRANCH  79  80
ENDBRANCH  51  74
BRANCH  63  84
ATOM     84  C   UNL A   1      42.249  29.125  33.911  1.00  0.00    -0.014 A 
ATOM     85  C   UNL A   1      41.811  27.859  33.476  1.00  0.00     0.010 A 
ATOM     86  C   UNL A   1      42.443  29.331  35.288  1.00  0.00     0.010 A 
ATOM     87  C   UNL A   1      41.545  26.838  34.401  1.00  0.00     0.020 A 
ATOM     88  C   UNL A   1      42.200  28.313  36.211  1.00  0.00     0.020 A 
ATOM     89  C   UNL A   1      41.741  27.074  35.765  1.00  0.00     0.054 A 
BRANCH  89  90
ATOM     90  S   UNL A   1      41.435  25.739  36.957  1.00  0.00     0.124 S 
ATOM     91  O   UNL A   1      42.670  25.722  37.738  1.00  0.00    -0.237 OA
ATOM     92  O   UNL A   1      40.247  26.205  37.668  1.00  0.00    -0.237 OA
ATOM     93  O   UNL A   1      41.221  24.562  36.115  1.00  0.00    -0.744 OA
ENDBRANCH  89  90
ENDBRANCH  63  84
ENDBRANCH  37  38
ENDBRANCH  30  32
ENDBRANCH  29  30
ENDBRANCH  28  29
ENDBRANCH  27  28
ENDBRANCH  26  27
ENDBRANCH  25  26
ENDBRANCH   1  25
TORSDOF 24
ENDMDL
