MODEL 1
REMARK VINA RESULT:     -10.7      0.000      0.000
REMARK SMILES Cc1ccc(S(=O)(=O)n2cc(C(=O)C(=O)NCC(=O)OCCOCCOC(=O)c3ccc(-c4c5nc(c(-c6ccc(S(=O)(=O)[O-])cc6)c6ccc([nH]6)c(-c6ccc(S(=O)(=O)[O-])cc6)c6nc(c(-c7ccc(S(=O)(=O)[O-])cc7)c7ccc4[nH]7)C=C6)C=C5)cc3)c3ccccc32)cc1
REMARK SMILES IDX 22 1 21 2 20 3 18 4 19 5 17 6 16 7 14 8 15 9 12 11 13 12
REMARK SMILES IDX 11 13 9 14 10 15 94 16 89 17 93 18 90 19 92 20 91 21 6 22
REMARK SMILES IDX 7 23 8 24 5 25 1 26 2 27 3 28 96 29 4 30 95 31 23 32 24 33
REMARK SMILES IDX 25 34 26 35 27 36 28 37 29 38 30 39 88 40 31 41 87 42 32 43
REMARK SMILES IDX 33 44 34 45 81 46 35 47 86 48 80 49 82 50 36 51 85 52 79 53
REMARK SMILES IDX 78 54 37 56 67 57 48 58 66 59 49 60 52 61 65 62 83 63 50 64
REMARK SMILES IDX 51 65 64 67 84 68 53 69 38 70 39 71 47 72 40 73 46 74 41 75
REMARK SMILES IDX 42 76 43 77 44 78 45 79 68 80 69 81 77 82 70 83 76 84 71 85
REMARK SMILES IDX 72 86 73 87 74 88 75 89 54 90 55 91 63 92 56 93 62 94 57 95
REMARK SMILES IDX 58 96 59 97 60 98 61 99
REMARK H PARENT 16 10 82 55 52 66
REMARK Flexibility Score: inf
ROOT
ATOM      1  C   UNL A   1      39.450  22.580  26.623  1.00  0.00     0.202 C 
ENDROOT
BRANCH   1   2
ATOM      2  C   UNL A   1      38.755  21.572  25.752  1.00  0.00     0.261 C 
BRANCH   2   3
ATOM      3  O   UNL A   1      37.342  21.553  26.023  1.00  0.00    -0.462 OA
BRANCH   3   4
ATOM      4  C   UNL A   1      36.457  21.639  24.985  1.00  0.00     0.325 C 
ATOM      5  O   UNL A   1      36.694  22.028  23.851  1.00  0.00    -0.250 OA
BRANCH   4   6
ATOM      6  C   UNL A   1      35.070  21.205  25.434  1.00  0.00     0.239 C 
BRANCH   6   7
ATOM      7  N   UNL A   1      34.373  20.507  24.357  1.00  0.00    -0.338 N 
ATOM      8  C   UNL A   1      33.013  20.432  24.148  1.00  0.00     0.292 C 
ATOM      9  O   UNL A   1      32.596  19.626  23.323  1.00  0.00    -0.265 OA
ATOM     10  H   UNL A   1      34.941  20.035  23.705  1.00  0.00     0.164 HD
BRANCH   8  11
ATOM     11  C   UNL A   1      32.048  21.360  24.942  1.00  0.00     0.252 C 
ATOM     12  O   UNL A   1      31.406  20.888  25.875  1.00  0.00    -0.283 OA
BRANCH  11  13
ATOM     13  C   UNL A   1      31.964  22.795  24.659  1.00  0.00     0.054 A 
ATOM     14  N   UNL A   1      31.497  24.968  24.793  1.00  0.00    -0.240 N 
ATOM     15  C   UNL A   1      31.443  23.783  25.472  1.00  0.00     0.117 A 
ATOM     16  C   UNL A   1      32.056  24.806  23.543  1.00  0.00     0.065 A 
ATOM     17  C   UNL A   1      32.371  23.444  23.441  1.00  0.00     0.012 A 
ATOM     18  C   UNL A   1      32.282  25.699  22.480  1.00  0.00     0.028 A 
ATOM     19  C   UNL A   1      32.949  22.975  22.241  1.00  0.00     0.011 A 
ATOM     20  C   UNL A   1      32.825  25.194  21.294  1.00  0.00     0.002 A 
ATOM     21  C   UNL A   1      33.161  23.852  21.176  1.00  0.00     0.001 A 
BRANCH  14  22
ATOM     22  S   UNL A   1      30.776  26.394  25.371  1.00  0.00     0.268 S 
ATOM     23  O   UNL A   1      29.995  25.992  26.533  1.00  0.00    -0.201 OA
ATOM     24  O   UNL A   1      30.176  27.047  24.230  1.00  0.00    -0.201 OA
BRANCH  22  25
ATOM     25  C   UNL A   1      32.067  27.463  25.955  1.00  0.00     0.088 A 
ATOM     26  C   UNL A   1      35.063  29.933  27.795  1.00  0.00     0.044 C 
ATOM     27  C   UNL A   1      34.018  29.093  27.124  1.00  0.00    -0.051 A 
ATOM     28  C   UNL A   1      32.683  29.188  27.535  1.00  0.00     0.005 A 
ATOM     29  C   UNL A   1      34.358  28.206  26.094  1.00  0.00     0.005 A 
ATOM     30  C   UNL A   1      31.710  28.373  26.955  1.00  0.00     0.022 A 
ATOM     31  C   UNL A   1      33.384  27.401  25.497  1.00  0.00     0.022 A 
ENDBRANCH  22  25
ENDBRANCH  14  22
ENDBRANCH  11  13
ENDBRANCH   8  11
ENDBRANCH   6   7
ENDBRANCH   4   6
ENDBRANCH   3   4
ENDBRANCH   2   3
ENDBRANCH   1   2
BRANCH   1  32
ATOM     32  O   UNL A   1      38.737  23.805  26.451  1.00  0.00    -0.374 OA
BRANCH  32  33
ATOM     33  C   UNL A   1      39.372  24.977  26.912  1.00  0.00     0.202 C 
BRANCH  33  34
ATOM     34  C   UNL A   1      40.544  25.458  26.045  1.00  0.00     0.261 C 
BRANCH  34  35
ATOM     35  O   UNL A   1      41.469  26.270  26.801  1.00  0.00    -0.460 OA
BRANCH  35  36
ATOM     36  C   UNL A   1      41.104  27.571  27.010  1.00  0.00     0.338 C 
ATOM     37  O   UNL A   1      40.841  28.351  26.113  1.00  0.00    -0.246 OA
BRANCH  36  38
ATOM     38  C   UNL A   1      41.017  27.857  28.471  1.00  0.00     0.060 A 
ATOM     39  C   UNL A   1      39.839  27.635  29.206  1.00  0.00     0.016 A 
ATOM     40  C   UNL A   1      42.080  28.527  29.064  1.00  0.00     0.016 A 
ATOM     41  C   UNL A   1      39.679  28.209  30.482  1.00  0.00     0.010 A 
ATOM     42  C   UNL A   1      41.871  29.186  30.253  1.00  0.00     0.010 A 
ATOM     43  C   UNL A   1      40.674  29.045  30.976  1.00  0.00    -0.014 A 
BRANCH  43  44
ATOM     44  C   UNL A   1      40.657  29.850  32.204  1.00  0.00     0.031 A 
ATOM     45  C   UNL A   1      41.255  29.219  33.413  1.00  0.00     0.074 A 
ATOM     46  C   UNL A   1      40.493  31.199  32.164  1.00  0.00     0.049 A 
ATOM     47  N   UNL A   1      41.341  29.794  34.557  1.00  0.00    -0.248 NA
ATOM     48  C   UNL A   1      41.815  27.863  33.439  1.00  0.00     0.031 C 
ATOM     49  C   UNL A   1      41.084  32.202  33.058  1.00  0.00     0.029 A 
ATOM     50  N   UNL A   1      39.758  31.995  31.277  1.00  0.00    -0.354 N 
ATOM     51  C   UNL A   1      42.234  29.085  35.325  1.00  0.00     0.074 A 
ATOM     52  C   UNL A   1      42.435  27.845  34.624  1.00  0.00     0.031 C 
ATOM     53  C   UNL A   1      40.483  33.391  32.869  1.00  0.00     0.029 A 
ATOM     54  C   UNL A   1      39.378  33.164  31.956  1.00  0.00     0.049 A 
ATOM     55  H   UNL A   1      39.545  31.774  30.341  1.00  0.00     0.167 HD
ATOM     56  C   UNL A   1      42.778  29.709  36.406  1.00  0.00     0.031 A 
ATOM     57  C   UNL A   1      38.065  33.457  32.158  1.00  0.00     0.031 A 
ATOM     58  C   UNL A   1      42.162  31.025  36.599  1.00  0.00     0.049 A 
ATOM     59  C   UNL A   1      37.794  33.446  33.637  1.00  0.00     0.074 A 
ATOM     60  C   UNL A   1      42.580  32.321  36.351  1.00  0.00     0.029 A 
ATOM     61  N   UNL A   1      40.787  31.087  36.797  1.00  0.00    -0.354 N 
ATOM     62  N   UNL A   1      38.550  32.802  34.483  1.00  0.00    -0.248 NA
ATOM     63  C   UNL A   1      36.749  34.216  34.299  1.00  0.00     0.031 C 
ATOM     64  C   UNL A   1      41.423  33.153  36.344  1.00  0.00     0.029 A 
ATOM     65  C   UNL A   1      40.313  32.369  36.620  1.00  0.00     0.049 A 
ATOM     66  H   UNL A   1      40.224  30.313  37.033  1.00  0.00     0.167 HD
ATOM     67  C   UNL A   1      38.193  33.118  35.756  1.00  0.00     0.074 A 
ATOM     68  C   UNL A   1      37.029  33.974  35.593  1.00  0.00     0.031 C 
ATOM     69  C   UNL A   1      38.897  32.665  36.831  1.00  0.00     0.031 A 
BRANCH  56  70
ATOM     70  C   UNL A   1      43.973  29.237  37.202  1.00  0.00    -0.014 A 
ATOM     71  C   UNL A   1      44.837  30.204  37.759  1.00  0.00     0.010 A 
ATOM     72  C   UNL A   1      44.325  27.892  37.427  1.00  0.00     0.010 A 
ATOM     73  C   UNL A   1      45.989  29.856  38.478  1.00  0.00     0.020 A 
ATOM     74  C   UNL A   1      45.479  27.527  38.144  1.00  0.00     0.020 A 
ATOM     75  C   UNL A   1      46.305  28.515  38.666  1.00  0.00     0.054 A 
BRANCH  75  76
ATOM     76  S   UNL A   1      47.790  28.091  39.611  1.00  0.00     0.124 S 
ATOM     77  O   UNL A   1      47.462  26.766  40.132  1.00  0.00    -0.237 OA
ATOM     78  O   UNL A   1      48.833  28.125  38.590  1.00  0.00    -0.237 OA
ATOM     79  O   UNL A   1      47.875  29.145  40.619  1.00  0.00    -0.744 OA
ENDBRANCH  75  76
ENDBRANCH  56  70
BRANCH  57  80
ATOM     80  C   UNL A   1      37.202  32.972  31.031  1.00  0.00    -0.014 A 
ATOM     81  C   UNL A   1      35.897  32.537  31.378  1.00  0.00     0.010 A 
ATOM     82  C   UNL A   1      37.420  33.439  29.722  1.00  0.00     0.010 A 
ATOM     83  C   UNL A   1      34.812  32.756  30.517  1.00  0.00     0.020 A 
ATOM     84  C   UNL A   1      36.332  33.657  28.857  1.00  0.00     0.020 A 
ATOM     85  C   UNL A   1      35.031  33.376  29.287  1.00  0.00     0.054 A 
BRANCH  85  86
ATOM     86  S   UNL A   1      33.589  34.030  28.377  1.00  0.00     0.124 S 
ATOM     87  O   UNL A   1      32.753  34.555  29.450  1.00  0.00    -0.237 OA
ATOM     88  O   UNL A   1      34.193  35.035  27.503  1.00  0.00    -0.237 OA
ATOM     89  O   UNL A   1      33.062  32.858  27.684  1.00  0.00    -0.744 OA
ENDBRANCH  85  86
ENDBRANCH  57  80
BRANCH  69  90
ATOM     90  C   UNL A   1      38.322  32.499  38.213  1.00  0.00    -0.014 A 
ATOM     91  C   UNL A   1      38.704  33.283  39.310  1.00  0.00     0.010 A 
ATOM     92  C   UNL A   1      37.224  31.624  38.404  1.00  0.00     0.010 A 
ATOM     93  C   UNL A   1      38.083  33.144  40.552  1.00  0.00     0.020 A 
ATOM     94  C   UNL A   1      36.549  31.529  39.619  1.00  0.00     0.020 A 
ATOM     95  C   UNL A   1      37.012  32.267  40.699  1.00  0.00     0.054 A 
BRANCH  95  96
ATOM     96  S   UNL A   1      36.221  32.127  42.312  1.00  0.00     0.124 S 
ATOM     97  O   UNL A   1      36.219  33.517  42.761  1.00  0.00    -0.237 OA
ATOM     98  O   UNL A   1      34.910  31.574  41.979  1.00  0.00    -0.237 OA
ATOM     99  O   UNL A   1      37.099  31.229  43.056  1.00  0.00    -0.744 OA
ENDBRANCH  95  96
ENDBRANCH  69  90
ENDBRANCH  43  44
ENDBRANCH  36  38
ENDBRANCH  35  36
ENDBRANCH  34  35
ENDBRANCH  33  34
ENDBRANCH  32  33
ENDBRANCH   1  32
TORSDOF 22
ENDMDL
MODEL 2
REMARK VINA RESULT:     -10.7      6.726     12.315
REMARK SMILES Cc1ccc(S(=O)(=O)n2cc(C(=O)C(=O)NCC(=O)OCCOCCOC(=O)c3ccc(-c4c5nc(c(-c6ccc(S(=O)(=O)[O-])cc6)c6ccc([nH]6)c(-c6ccc(S(=O)(=O)[O-])cc6)c6nc(c(-c7ccc(S(=O)(=O)[O-])cc7)c7ccc4[nH]7)C=C6)C=C5)cc3)c3ccccc32)cc1
REMARK SMILES IDX 22 1 21 2 20 3 18 4 19 5 17 6 16 7 14 8 15 9 12 11 13 12
REMARK SMILES IDX 11 13 9 14 10 15 94 16 89 17 93 18 90 19 92 20 91 21 6 22
REMARK SMILES IDX 7 23 8 24 5 25 1 26 2 27 3 28 96 29 4 30 95 31 23 32 24 33
REMARK SMILES IDX 25 34 26 35 27 36 28 37 29 38 30 39 88 40 31 41 87 42 32 43
REMARK SMILES IDX 33 44 34 45 81 46 35 47 86 48 80 49 82 50 36 51 85 52 79 53
REMARK SMILES IDX 78 54 37 56 67 57 48 58 66 59 49 60 52 61 65 62 83 63 50 64
REMARK SMILES IDX 51 65 64 67 84 68 53 69 38 70 39 71 47 72 40 73 46 74 41 75
REMARK SMILES IDX 42 76 43 77 44 78 45 79 68 80 69 81 77 82 70 83 76 84 71 85
REMARK SMILES IDX 72 86 73 87 74 88 75 89 54 90 55 91 63 92 56 93 62 94 57 95
REMARK SMILES IDX 58 96 59 97 60 98 61 99
REMARK H PARENT 16 10 82 55 52 66
REMARK Flexibility Score: inf
ROOT
ATOM      1  C   UNL A   1      32.818  29.589  27.404  1.00  0.00     0.202 C 
ENDROOT
BRANCH   1   2
ATOM      2  C   UNL A   1      32.880  28.987  26.028  1.00  0.00     0.261 C 
BRANCH   2   3
ATOM      3  O   UNL A   1      32.085  29.749  25.102  1.00  0.00    -0.462 OA
BRANCH   3   4
ATOM      4  C   UNL A   1      31.244  29.097  24.245  1.00  0.00     0.325 C 
ATOM      5  O   UNL A   1      30.296  29.576  23.642  1.00  0.00    -0.250 OA
BRANCH   4   6
ATOM      6  C   UNL A   1      31.623  27.626  24.149  1.00  0.00     0.239 C 
BRANCH   6   7
ATOM      7  N   UNL A   1      31.138  27.049  22.898  1.00  0.00    -0.338 N 
ATOM      8  C   UNL A   1      31.846  26.280  21.998  1.00  0.00     0.292 C 
ATOM      9  O   UNL A   1      31.344  26.063  20.900  1.00  0.00    -0.265 OA
ATOM     10  H   UNL A   1      30.196  27.228  22.671  1.00  0.00     0.164 HD
BRANCH   8  11
ATOM     11  C   UNL A   1      33.239  25.707  22.387  1.00  0.00     0.252 C 
ATOM     12  O   UNL A   1      34.243  26.363  22.129  1.00  0.00    -0.283 OA
BRANCH  11  13
ATOM     13  C   UNL A   1      33.367  24.453  23.135  1.00  0.00     0.054 A 
ATOM     14  N   UNL A   1      32.942  22.698  24.437  1.00  0.00    -0.240 N 
ATOM     15  C   UNL A   1      32.377  23.783  23.828  1.00  0.00     0.117 A 
ATOM     16  C   UNL A   1      34.290  22.611  24.161  1.00  0.00     0.065 A 
ATOM     17  C   UNL A   1      34.579  23.702  23.329  1.00  0.00     0.012 A 
ATOM     18  C   UNL A   1      35.292  21.718  24.583  1.00  0.00     0.028 A 
ATOM     19  C   UNL A   1      35.910  23.883  22.895  1.00  0.00     0.011 A 
ATOM     20  C   UNL A   1      36.605  21.947  24.161  1.00  0.00     0.002 A 
ATOM     21  C   UNL A   1      36.912  23.010  23.322  1.00  0.00     0.001 A 
BRANCH  14  22
ATOM     22  S   UNL A   1      32.100  21.722  25.544  1.00  0.00     0.268 S 
ATOM     23  O   UNL A   1      30.689  21.974  25.291  1.00  0.00    -0.201 OA
ATOM     24  O   UNL A   1      32.702  21.949  26.838  1.00  0.00    -0.201 OA
BRANCH  22  25
ATOM     25  C   UNL A   1      32.410  20.025  25.125  1.00  0.00     0.088 A 
ATOM     26  C   UNL A   1      33.463  16.075  23.801  1.00  0.00     0.044 C 
ATOM     27  C   UNL A   1      33.063  17.441  24.273  1.00  0.00    -0.051 A 
ATOM     28  C   UNL A   1      32.709  18.422  23.339  1.00  0.00     0.005 A 
ATOM     29  C   UNL A   1      33.045  17.755  25.638  1.00  0.00     0.005 A 
ATOM     30  C   UNL A   1      32.387  19.711  23.762  1.00  0.00     0.022 A 
ATOM     31  C   UNL A   1      32.705  19.040  26.069  1.00  0.00     0.022 A 
ENDBRANCH  22  25
ENDBRANCH  14  22
ENDBRANCH  11  13
ENDBRANCH   8  11
ENDBRANCH   6   7
ENDBRANCH   4   6
ENDBRANCH   3   4
ENDBRANCH   2   3
ENDBRANCH   1   2
BRANCH   1  32
ATOM     32  O   UNL A   1      33.982  30.407  27.526  1.00  0.00    -0.374 OA
BRANCH  32  33
ATOM     33  C   UNL A   1      35.168  29.909  26.947  1.00  0.00     0.202 C 
BRANCH  33  34
ATOM     34  C   UNL A   1      36.455  30.274  27.699  1.00  0.00     0.261 C 
BRANCH  34  35
ATOM     35  O   UNL A   1      36.804  29.271  28.678  1.00  0.00    -0.460 OA
BRANCH  35  36
ATOM     36  C   UNL A   1      37.781  29.611  29.573  1.00  0.00     0.338 C 
ATOM     37  O   UNL A   1      37.582  29.766  30.764  1.00  0.00    -0.246 OA
BRANCH  36  38
ATOM     38  C   UNL A   1      39.104  29.696  28.890  1.00  0.00     0.060 A 
ATOM     39  C   UNL A   1      39.350  29.060  27.660  1.00  0.00     0.016 A 
ATOM     40  C   UNL A   1      40.157  30.272  29.588  1.00  0.00     0.016 A 
ATOM     41  C   UNL A   1      40.671  28.880  27.205  1.00  0.00     0.010 A 
ATOM     42  C   UNL A   1      41.446  29.985  29.202  1.00  0.00     0.010 A 
ATOM     43  C   UNL A   1      41.726  29.285  28.017  1.00  0.00    -0.014 A 
BRANCH  43  44
ATOM     44  C   UNL A   1      43.164  29.072  27.809  1.00  0.00     0.031 A 
ATOM     45  C   UNL A   1      43.918  30.211  27.216  1.00  0.00     0.074 A 
ATOM     46  C   UNL A   1      43.837  28.094  28.471  1.00  0.00     0.049 A 
ATOM     47  N   UNL A   1      45.181  30.198  26.992  1.00  0.00    -0.248 NA
ATOM     48  C   UNL A   1      43.304  31.482  26.814  1.00  0.00     0.031 C 
ATOM     49  C   UNL A   1      45.227  28.124  28.942  1.00  0.00     0.029 A 
ATOM     50  N   UNL A   1      43.410  26.832  28.899  1.00  0.00    -0.354 N 
ATOM     51  C   UNL A   1      45.590  31.494  26.777  1.00  0.00     0.074 A 
ATOM     52  C   UNL A   1      44.378  32.246  26.587  1.00  0.00     0.031 C 
ATOM     53  C   UNL A   1      45.609  26.887  29.311  1.00  0.00     0.029 A 
ATOM     54  C   UNL A   1      44.530  25.987  28.945  1.00  0.00     0.049 A 
ATOM     55  H   UNL A   1      42.485  26.581  29.128  1.00  0.00     0.167 HD
ATOM     56  C   UNL A   1      46.915  31.772  26.910  1.00  0.00     0.031 A 
ATOM     57  C   UNL A   1      44.606  24.885  28.151  1.00  0.00     0.031 A 
ATOM     58  C   UNL A   1      47.676  30.540  27.139  1.00  0.00     0.049 A 
ATOM     59  C   UNL A   1      45.754  25.061  27.196  1.00  0.00     0.074 A 
ATOM     60  C   UNL A   1      48.261  29.972  28.258  1.00  0.00     0.029 A 
ATOM     61  N   UNL A   1      47.609  29.536  26.178  1.00  0.00    -0.354 N 
ATOM     62  N   UNL A   1      46.235  26.234  26.888  1.00  0.00    -0.248 NA
ATOM     63  C   UNL A   1      46.516  23.972  26.599  1.00  0.00     0.031 C 
ATOM     64  C   UNL A   1      48.492  28.595  27.972  1.00  0.00     0.029 A 
ATOM     65  C   UNL A   1      48.076  28.338  26.674  1.00  0.00     0.049 A 
ATOM     66  H   UNL A   1      47.272  29.666  25.262  1.00  0.00     0.167 HD
ATOM     67  C   UNL A   1      47.378  26.089  26.166  1.00  0.00     0.074 A 
ATOM     68  C   UNL A   1      47.492  24.653  25.971  1.00  0.00     0.031 C 
ATOM     69  C   UNL A   1      48.141  27.161  25.809  1.00  0.00     0.031 A 
BRANCH  56  70
ATOM     70  C   UNL A   1      47.534  33.148  27.007  1.00  0.00    -0.014 A 
ATOM     71  C   UNL A   1      46.906  34.115  27.821  1.00  0.00     0.010 A 
ATOM     72  C   UNL A   1      48.693  33.572  26.329  1.00  0.00     0.010 A 
ATOM     73  C   UNL A   1      47.388  35.426  27.938  1.00  0.00     0.020 A 
ATOM     74  C   UNL A   1      49.189  34.884  26.433  1.00  0.00     0.020 A 
ATOM     75  C   UNL A   1      48.530  35.805  27.240  1.00  0.00     0.054 A 
BRANCH  75  76
ATOM     76  S   UNL A   1      49.144  37.498  27.420  1.00  0.00     0.124 S 
ATOM     77  O   UNL A   1      50.186  37.564  26.399  1.00  0.00    -0.237 OA
ATOM     78  O   UNL A   1      47.949  38.295  27.152  1.00  0.00    -0.237 OA
ATOM     79  O   UNL A   1      49.626  37.551  28.798  1.00  0.00    -0.744 OA
ENDBRANCH  75  76
ENDBRANCH  56  70
BRANCH  57  80
ATOM     80  C   UNL A   1      43.258  24.273  27.911  1.00  0.00    -0.014 A 
ATOM     81  C   UNL A   1      42.866  24.119  26.557  1.00  0.00     0.010 A 
ATOM     82  C   UNL A   1      42.695  23.408  28.868  1.00  0.00     0.010 A 
ATOM     83  C   UNL A   1      42.105  23.014  26.148  1.00  0.00     0.020 A 
ATOM     84  C   UNL A   1      41.929  22.301  28.458  1.00  0.00     0.020 A 
ATOM     85  C   UNL A   1      41.698  22.077  27.096  1.00  0.00     0.054 A 
BRANCH  85  86
ATOM     86  S   UNL A   1      41.089  20.458  26.510  1.00  0.00     0.124 S 
ATOM     87  O   UNL A   1      40.959  19.704  27.750  1.00  0.00    -0.237 OA
ATOM     88  O   UNL A   1      39.829  20.810  25.855  1.00  0.00    -0.237 OA
ATOM     89  O   UNL A   1      42.140  20.005  25.603  1.00  0.00    -0.744 OA
ENDBRANCH  85  86
ENDBRANCH  57  80
BRANCH  69  90
ATOM     90  C   UNL A   1      49.068  27.185  24.623  1.00  0.00    -0.014 A 
ATOM     91  C   UNL A   1      50.462  27.088  24.727  1.00  0.00     0.010 A 
ATOM     92  C   UNL A   1      48.519  27.142  23.317  1.00  0.00     0.010 A 
ATOM     93  C   UNL A   1      51.272  27.034  23.592  1.00  0.00     0.020 A 
ATOM     94  C   UNL A   1      49.313  27.015  22.179  1.00  0.00     0.020 A 
ATOM     95  C   UNL A   1      50.692  27.000  22.326  1.00  0.00     0.054 A 
BRANCH  95  96
ATOM     96  S   UNL A   1      51.768  26.911  20.883  1.00  0.00     0.124 S 
ATOM     97  O   UNL A   1      50.938  26.162  19.943  1.00  0.00    -0.237 OA
ATOM     98  O   UNL A   1      51.976  28.320  20.551  1.00  0.00    -0.237 OA
ATOM     99  O   UNL A   1      52.952  26.211  21.371  1.00  0.00    -0.744 OA
ENDBRANCH  95  96
ENDBRANCH  69  90
ENDBRANCH  43  44
ENDBRANCH  36  38
ENDBRANCH  35  36
ENDBRANCH  34  35
ENDBRANCH  33  34
ENDBRANCH  32  33
ENDBRANCH   1  32
TORSDOF 22
ENDMDL
MODEL 3
REMARK VINA RESULT:     -10.5      7.336     12.596
REMARK SMILES Cc1ccc(S(=O)(=O)n2cc(C(=O)C(=O)NCC(=O)OCCOCCOC(=O)c3ccc(-c4c5nc(c(-c6ccc(S(=O)(=O)[O-])cc6)c6ccc([nH]6)c(-c6ccc(S(=O)(=O)[O-])cc6)c6nc(c(-c7ccc(S(=O)(=O)[O-])cc7)c7ccc4[nH]7)C=C6)C=C5)cc3)c3ccccc32)cc1
REMARK SMILES IDX 22 1 21 2 20 3 18 4 19 5 17 6 16 7 14 8 15 9 12 11 13 12
REMARK SMILES IDX 11 13 9 14 10 15 94 16 89 17 93 18 90 19 92 20 91 21 6 22
REMARK SMILES IDX 7 23 8 24 5 25 1 26 2 27 3 28 96 29 4 30 95 31 23 32 24 33
REMARK SMILES IDX 25 34 26 35 27 36 28 37 29 38 30 39 88 40 31 41 87 42 32 43
REMARK SMILES IDX 33 44 34 45 81 46 35 47 86 48 80 49 82 50 36 51 85 52 79 53
REMARK SMILES IDX 78 54 37 56 67 57 48 58 66 59 49 60 52 61 65 62 83 63 50 64
REMARK SMILES IDX 51 65 64 67 84 68 53 69 38 70 39 71 47 72 40 73 46 74 41 75
REMARK SMILES IDX 42 76 43 77 44 78 45 79 68 80 69 81 77 82 70 83 76 84 71 85
REMARK SMILES IDX 72 86 73 87 74 88 75 89 54 90 55 91 63 92 56 93 62 94 57 95
REMARK SMILES IDX 58 96 59 97 60 98 61 99
REMARK H PARENT 16 10 82 55 52 66
REMARK Flexibility Score: inf
ROOT
ATOM      1  C   UNL A   1      39.958  30.364  33.486  1.00  0.00     0.202 C 
ENDROOT
BRANCH   1   2
ATOM      2  C   UNL A   1      40.225  29.123  32.681  1.00  0.00     0.261 C 
BRANCH   2   3
ATOM      3  O   UNL A   1      39.637  29.228  31.372  1.00  0.00    -0.462 OA
BRANCH   3   4
ATOM      4  C   UNL A   1      38.483  28.549  31.099  1.00  0.00     0.325 C 
ATOM      5  O   UNL A   1      37.362  28.813  31.509  1.00  0.00    -0.250 OA
BRANCH   4   6
ATOM      6  C   UNL A   1      38.771  27.350  30.208  1.00  0.00     0.239 C 
BRANCH   6   7
ATOM      7  N   UNL A   1      38.886  27.760  28.811  1.00  0.00    -0.338 N 
ATOM      8  C   UNL A   1      40.035  27.864  28.057  1.00  0.00     0.292 C 
ATOM      9  O   UNL A   1      39.968  28.429  26.971  1.00  0.00    -0.265 OA
ATOM     10  H   UNL A   1      38.043  27.988  28.354  1.00  0.00     0.164 HD
BRANCH   8  11
ATOM     11  C   UNL A   1      41.371  27.266  28.586  1.00  0.00     0.252 C 
ATOM     12  O   UNL A   1      42.133  27.988  29.223  1.00  0.00    -0.283 OA
BRANCH  11  13
ATOM     13  C   UNL A   1      41.691  25.846  28.419  1.00  0.00     0.054 A 
ATOM     14  N   UNL A   1      41.614  23.701  27.826  1.00  0.00    -0.240 N 
ATOM     15  C   UNL A   1      41.030  24.922  27.633  1.00  0.00     0.117 A 
ATOM     16  C   UNL A   1      42.664  23.781  28.716  1.00  0.00     0.065 A 
ATOM     17  C   UNL A   1      42.741  25.129  29.094  1.00  0.00     0.012 A 
ATOM     18  C   UNL A   1      43.527  22.811  29.258  1.00  0.00     0.028 A 
ATOM     19  C   UNL A   1      43.728  25.511  30.028  1.00  0.00     0.011 A 
ATOM     20  C   UNL A   1      44.471  23.219  30.205  1.00  0.00     0.002 A 
ATOM     21  C   UNL A   1      44.577  24.551  30.582  1.00  0.00     0.001 A 
BRANCH  14  22
ATOM     22  S   UNL A   1      40.972  22.263  27.189  1.00  0.00     0.268 S 
ATOM     23  O   UNL A   1      39.967  22.681  26.221  1.00  0.00    -0.201 OA
ATOM     24  O   UNL A   1      40.650  21.418  28.315  1.00  0.00    -0.201 OA
BRANCH  22  25
ATOM     25  C   UNL A   1      42.259  21.443  26.282  1.00  0.00     0.088 A 
ATOM     26  C   UNL A   1      45.675  19.705  24.339  1.00  0.00     0.044 C 
ATOM     27  C   UNL A   1      44.464  20.305  24.987  1.00  0.00    -0.051 A 
ATOM     28  C   UNL A   1      44.350  21.696  25.093  1.00  0.00     0.005 A 
ATOM     29  C   UNL A   1      43.443  19.492  25.498  1.00  0.00     0.005 A 
ATOM     30  C   UNL A   1      43.254  22.264  25.741  1.00  0.00     0.022 A 
ATOM     31  C   UNL A   1      42.333  20.057  26.133  1.00  0.00     0.022 A 
ENDBRANCH  22  25
ENDBRANCH  14  22
ENDBRANCH  11  13
ENDBRANCH   8  11
ENDBRANCH   6   7
ENDBRANCH   4   6
ENDBRANCH   3   4
ENDBRANCH   2   3
ENDBRANCH   1   2
BRANCH   1  32
ATOM     32  O   UNL A   1      38.882  30.035  34.365  1.00  0.00    -0.374 OA
BRANCH  32  33
ATOM     33  C   UNL A   1      38.093  31.109  34.827  1.00  0.00     0.202 C 
BRANCH  33  34
ATOM     34  C   UNL A   1      38.867  32.405  35.105  1.00  0.00     0.261 C 
BRANCH  34  35
ATOM     35  O   UNL A   1      38.322  33.521  34.368  1.00  0.00    -0.460 OA
BRANCH  35  36
ATOM     36  C   UNL A   1      39.131  34.616  34.240  1.00  0.00     0.338 C 
ATOM     37  O   UNL A   1      38.975  35.649  34.867  1.00  0.00    -0.246 OA
BRANCH  36  38
ATOM     38  C   UNL A   1      40.243  34.332  33.288  1.00  0.00     0.060 A 
ATOM     39  C   UNL A   1      41.554  34.786  33.516  1.00  0.00     0.016 A 
ATOM     40  C   UNL A   1      39.919  33.756  32.067  1.00  0.00     0.016 A 
ATOM     41  C   UNL A   1      42.497  34.792  32.469  1.00  0.00     0.010 A 
ATOM     42  C   UNL A   1      40.801  33.878  31.019  1.00  0.00     0.010 A 
ATOM     43  C   UNL A   1      42.094  34.399  31.196  1.00  0.00    -0.014 A 
BRANCH  43  44
ATOM     44  C   UNL A   1      42.859  34.457  29.945  1.00  0.00     0.031 A 
ATOM     45  C   UNL A   1      43.693  33.264  29.628  1.00  0.00     0.074 A 
ATOM     46  C   UNL A   1      42.529  35.327  28.953  1.00  0.00     0.049 A 
ATOM     47  N   UNL A   1      44.401  33.144  28.565  1.00  0.00    -0.248 NA
ATOM     48  C   UNL A   1      43.805  32.087  30.496  1.00  0.00     0.031 C 
ATOM     49  C   UNL A   1      42.651  35.124  27.505  1.00  0.00     0.029 A 
ATOM     50  N   UNL A   1      41.979  36.612  29.023  1.00  0.00    -0.354 N 
ATOM     51  C   UNL A   1      44.749  31.820  28.431  1.00  0.00     0.074 A 
ATOM     52  C   UNL A   1      44.434  31.217  29.699  1.00  0.00     0.031 C 
ATOM     53  C   UNL A   1      42.477  36.295  26.864  1.00  0.00     0.029 A 
ATOM     54  C   UNL A   1      42.391  37.323  27.885  1.00  0.00     0.049 A 
ATOM     55  H   UNL A   1      41.403  36.956  29.745  1.00  0.00     0.167 HD
ATOM     56  C   UNL A   1      45.152  31.390  27.205  1.00  0.00     0.031 A 
ATOM     57  C   UNL A   1      43.160  38.440  28.001  1.00  0.00     0.031 A 
ATOM     58  C   UNL A   1      45.257  32.519  26.276  1.00  0.00     0.049 A 
ATOM     59  C   UNL A   1      44.491  38.173  27.356  1.00  0.00     0.074 A 
ATOM     60  C   UNL A   1      44.470  32.975  25.232  1.00  0.00     0.029 A 
ATOM     61  N   UNL A   1      46.121  33.560  26.599  1.00  0.00    -0.354 N 
ATOM     62  N   UNL A   1      44.955  36.966  27.179  1.00  0.00    -0.248 NA
ATOM     63  C   UNL A   1      45.352  39.192  26.770  1.00  0.00     0.031 C 
ATOM     64  C   UNL A   1      44.837  34.327  24.973  1.00  0.00     0.029 A 
ATOM     65  C   UNL A   1      45.864  34.679  25.836  1.00  0.00     0.049 A 
ATOM     66  H   UNL A   1      46.826  33.505  27.285  1.00  0.00     0.167 HD
ATOM     67  C   UNL A   1      46.074  37.009  26.407  1.00  0.00     0.074 A 
ATOM     68  C   UNL A   1      46.311  38.431  26.210  1.00  0.00     0.031 C 
ATOM     69  C   UNL A   1      46.694  35.873  25.980  1.00  0.00     0.031 A 
BRANCH  56  70
ATOM     70  C   UNL A   1      45.297  29.951  26.765  1.00  0.00    -0.014 A 
ATOM     71  C   UNL A   1      46.569  29.492  26.362  1.00  0.00     0.010 A 
ATOM     72  C   UNL A   1      44.251  29.009  26.697  1.00  0.00     0.010 A 
ATOM     73  C   UNL A   1      46.785  28.186  25.902  1.00  0.00     0.020 A 
ATOM     74  C   UNL A   1      44.452  27.696  26.236  1.00  0.00     0.020 A 
ATOM     75  C   UNL A   1      45.722  27.292  25.841  1.00  0.00     0.054 A 
BRANCH  75  76
ATOM     76  S   UNL A   1      46.029  25.606  25.259  1.00  0.00     0.124 S 
ATOM     77  O   UNL A   1      44.731  25.222  24.710  1.00  0.00    -0.237 OA
ATOM     78  O   UNL A   1      47.094  25.800  24.279  1.00  0.00    -0.237 OA
ATOM     79  O   UNL A   1      46.424  24.886  26.468  1.00  0.00    -0.744 OA
ENDBRANCH  75  76
ENDBRANCH  56  70
BRANCH  57  80
ATOM     80  C   UNL A   1      42.848  39.208  29.251  1.00  0.00    -0.014 A 
ATOM     81  C   UNL A   1      43.873  39.263  30.230  1.00  0.00     0.010 A 
ATOM     82  C   UNL A   1      41.900  40.247  29.224  1.00  0.00     0.010 A 
ATOM     83  C   UNL A   1      44.063  40.412  31.011  1.00  0.00     0.020 A 
ATOM     84  C   UNL A   1      42.089  41.399  30.009  1.00  0.00     0.020 A 
ATOM     85  C   UNL A   1      43.205  41.499  30.846  1.00  0.00     0.054 A 
BRANCH  85  86
ATOM     86  S   UNL A   1      43.706  43.112  31.541  1.00  0.00     0.124 S 
ATOM     87  O   UNL A   1      44.688  43.580  30.572  1.00  0.00    -0.237 OA
ATOM     88  O   UNL A   1      42.445  43.854  31.565  1.00  0.00    -0.237 OA
ATOM     89  O   UNL A   1      44.234  42.768  32.858  1.00  0.00    -0.744 OA
ENDBRANCH  85  86
ENDBRANCH  57  80
BRANCH  69  90
ATOM     90  C   UNL A   1      48.151  35.791  25.610  1.00  0.00    -0.014 A 
ATOM     91  C   UNL A   1      48.980  36.912  25.475  1.00  0.00     0.010 A 
ATOM     92  C   UNL A   1      48.777  34.521  25.548  1.00  0.00     0.010 A 
ATOM     93  C   UNL A   1      50.344  36.779  25.210  1.00  0.00     0.020 A 
ATOM     94  C   UNL A   1      50.150  34.376  25.356  1.00  0.00     0.020 A 
ATOM     95  C   UNL A   1      50.919  35.512  25.150  1.00  0.00     0.054 A 
BRANCH  95  96
ATOM     96  S   UNL A   1      52.686  35.376  24.824  1.00  0.00     0.124 S 
ATOM     97  O   UNL A   1      52.903  33.940  24.969  1.00  0.00    -0.237 OA
ATOM     98  O   UNL A   1      52.801  35.894  23.462  1.00  0.00    -0.237 OA
ATOM     99  O   UNL A   1      53.297  36.210  25.855  1.00  0.00    -0.744 OA
ENDBRANCH  95  96
ENDBRANCH  69  90
ENDBRANCH  43  44
ENDBRANCH  36  38
ENDBRANCH  35  36
ENDBRANCH  34  35
ENDBRANCH  33  34
ENDBRANCH  32  33
ENDBRANCH   1  32
TORSDOF 22
ENDMDL
