MODEL 1
REMARK VINA RESULT:     -11.4      0.000      0.000
REMARK SMILES Cc1ccccc1/C=C1\SC(=O)N(CC(=O)Nc2ccccc2C(=O)OCCOCCOC(=O)c2ccc(-c3c4nc(c(-c5ccc(S(=O)(=O)[O-])cc5)c5ccc([nH]5)c(-c5ccc(S(=O)(=O)[O-])cc5)c5nc(c(-c6ccc(S(=O)(=O)[O-])cc6)c6ccc3[nH]6)C=C5)C=C4)cc2)C1=O
REMARK SMILES IDX 28 1 27 2 26 3 24 4 25 5 23 6 18 7 19 8 20 9 22 10 21 11
REMARK SMILES IDX 17 12 15 13 16 14 14 16 13 17 8 18 9 19 10 20 95 21 11 22
REMARK SMILES IDX 96 23 12 24 7 25 1 26 2 27 3 28 4 29 6 30 5 31 29 32 30 33
REMARK SMILES IDX 31 34 32 35 33 36 34 37 35 38 36 39 94 40 37 41 93 42 38 43
REMARK SMILES IDX 39 44 40 45 87 46 41 47 92 48 86 49 88 50 42 51 91 52 85 53
REMARK SMILES IDX 84 54 43 56 73 57 54 58 72 59 55 60 58 61 71 62 89 63 56 64
REMARK SMILES IDX 57 65 70 67 90 68 59 69 44 70 45 71 53 72 46 73 52 74 47 75
REMARK SMILES IDX 48 76 49 77 50 78 51 79 74 80 75 81 83 82 76 83 82 84 77 85
REMARK SMILES IDX 78 86 79 87 80 88 81 89 60 90 61 91 69 92 62 93 68 94 63 95
REMARK SMILES IDX 64 96 65 97 66 98 67 99
REMARK H PARENT 17 15 88 55 58 66
REMARK Flexibility Score: inf
ROOT
ATOM      1  C   UNL A   1      46.840  24.726  25.308  1.00  0.00     0.202 C 
ENDROOT
BRANCH   1   2
ATOM      2  C   UNL A   1      46.714  23.419  24.379  1.00  0.00     0.261 C 
BRANCH   2   3
ATOM      3  O   UNL A   1      46.402  21.465  24.869  1.00  0.00    -0.460 OA
BRANCH   3   4
ATOM      4  C   UNL A   1      45.792  20.126  24.641  1.00  0.00     0.340 C 
ATOM      5  O   UNL A   1      46.391  19.207  24.103  1.00  0.00    -0.246 OA
BRANCH   4   6
ATOM      6  C   UNL A   1      44.521  19.714  25.238  1.00  0.00     0.083 A 
ATOM      7  C   UNL A   1      43.485  20.667  25.356  1.00  0.00     0.055 A 
ATOM      8  C   UNL A   1      42.317  20.335  26.033  1.00  0.00     0.027 A 
ATOM      9  C   UNL A   1      42.157  19.036  26.511  1.00  0.00     0.002 A 
ATOM     10  C   UNL A   1      44.412  18.463  25.828  1.00  0.00     0.018 A 
ATOM     11  C   UNL A   1      43.203  18.110  26.420  1.00  0.00     0.001 A 
BRANCH   7  12
ATOM     12  N   UNL A   1      43.527  21.939  24.764  1.00  0.00    -0.324 N 
ATOM     13  C   UNL A   1      43.197  23.120  25.374  1.00  0.00     0.244 C 
ATOM     14  O   UNL A   1      43.342  24.179  24.755  1.00  0.00    -0.273 OA
ATOM     15  H   UNL A   1      43.820  21.986  23.825  1.00  0.00     0.170 HD
BRANCH  13  16
ATOM     16  C   UNL A   1      42.938  23.120  26.889  1.00  0.00     0.230 C 
BRANCH  16  17
ATOM     17  N   UNL A   1      41.718  23.723  27.412  1.00  0.00    -0.259 N 
ATOM     18  C   UNL A   1      39.526  27.071  29.455  1.00  0.00     0.029 C 
ATOM     19  C   UNL A   1      39.975  25.954  28.751  1.00  0.00     0.083 C 
ATOM     20  S   UNL A   1      38.533  24.703  27.565  1.00  0.00    -0.022 SA
ATOM     21  C   UNL A   1      41.824  25.247  28.372  1.00  0.00     0.268 C 
ATOM     22  C   UNL A   1      40.130  23.193  26.891  1.00  0.00     0.294 C 
ATOM     23  O   UNL A   1      42.922  25.808  28.286  1.00  0.00    -0.268 OA
ATOM     24  O   UNL A   1      39.821  22.212  26.226  1.00  0.00    -0.261 OA
BRANCH  18  25
ATOM     25  C   UNL A   1      38.571  28.144  29.990  1.00  0.00    -0.021 A 
ATOM     26  C   UNL A   1      37.978  29.166  27.757  1.00  0.00     0.045 C 
ATOM     27  C   UNL A   1      37.949  29.151  29.250  1.00  0.00    -0.044 A 
ATOM     28  C   UNL A   1      37.171  30.153  29.903  1.00  0.00     0.004 A 
ATOM     29  C   UNL A   1      36.871  30.095  31.263  1.00  0.00     0.000 A 
ATOM     30  C   UNL A   1      38.036  27.994  31.318  1.00  0.00     0.008 A 
ATOM     31  C   UNL A   1      37.230  28.958  31.959  1.00  0.00     0.001 A 
ENDBRANCH  18  25
ENDBRANCH  16  17
ENDBRANCH  13  16
ENDBRANCH   7  12
ENDBRANCH   4   6
ENDBRANCH   3   4
ENDBRANCH   2   3
ENDBRANCH   1   2
BRANCH   1  32
ATOM     32  O   UNL A   1      46.230  25.823  24.640  1.00  0.00    -0.374 OA
BRANCH  32  33
ATOM     33  C   UNL A   1      46.929  27.043  24.687  1.00  0.00     0.202 C 
BRANCH  33  34
ATOM     34  C   UNL A   1      46.793  27.644  26.071  1.00  0.00     0.261 C 
BRANCH  34  35
ATOM     35  O   UNL A   1      45.502  28.322  26.208  1.00  0.00    -0.460 OA
BRANCH  35  36
ATOM     36  C   UNL A   1      45.364  29.686  26.223  1.00  0.00     0.338 C 
ATOM     37  O   UNL A   1      46.029  30.424  25.509  1.00  0.00    -0.246 OA
BRANCH  36  38
ATOM     38  C   UNL A   1      44.176  30.202  27.009  1.00  0.00     0.060 A 
ATOM     39  C   UNL A   1      44.234  31.352  27.804  1.00  0.00     0.016 A 
ATOM     40  C   UNL A   1      42.965  29.549  27.026  1.00  0.00     0.016 A 
ATOM     41  C   UNL A   1      43.207  31.668  28.759  1.00  0.00     0.010 A 
ATOM     42  C   UNL A   1      42.058  29.774  28.088  1.00  0.00     0.010 A 
ATOM     43  C   UNL A   1      42.249  30.711  29.138  1.00  0.00    -0.014 A 
BRANCH  43  44
ATOM     44  C   UNL A   1      41.464  30.535  30.634  1.00  0.00     0.031 A 
ATOM     45  C   UNL A   1      40.547  31.684  30.761  1.00  0.00     0.074 A 
ATOM     46  C   UNL A   1      41.466  29.706  31.814  1.00  0.00     0.049 A 
ATOM     47  N   UNL A   1      40.689  32.614  31.659  1.00  0.00    -0.248 NA
ATOM     48  C   UNL A   1      39.587  32.025  29.699  1.00  0.00     0.031 C 
ATOM     49  C   UNL A   1      40.427  29.601  32.865  1.00  0.00     0.029 A 
ATOM     50  N   UNL A   1      42.300  28.639  32.338  1.00  0.00    -0.354 N 
ATOM     51  C   UNL A   1      39.581  33.399  31.445  1.00  0.00     0.074 A 
ATOM     52  C   UNL A   1      39.332  33.285  30.036  1.00  0.00     0.031 C 
ATOM     53  C   UNL A   1      40.772  28.730  33.860  1.00  0.00     0.029 A 
ATOM     54  C   UNL A   1      42.126  28.202  33.648  1.00  0.00     0.049 A 
ATOM     55  H   UNL A   1      42.989  28.226  31.769  1.00  0.00     0.167 HD
ATOM     56  C   UNL A   1      38.612  33.502  32.405  1.00  0.00     0.031 A 
ATOM     57  C   UNL A   1      43.116  27.844  34.556  1.00  0.00     0.031 A 
ATOM     58  C   UNL A   1      38.955  32.757  33.628  1.00  0.00     0.049 A 
ATOM     59  C   UNL A   1      43.079  29.034  35.526  1.00  0.00     0.074 A 
ATOM     60  C   UNL A   1      38.336  31.708  34.290  1.00  0.00     0.029 A 
ATOM     61  N   UNL A   1      40.222  32.865  34.197  1.00  0.00    -0.354 N 
ATOM     62  N   UNL A   1      42.341  30.073  35.249  1.00  0.00    -0.248 NA
ATOM     63  C   UNL A   1      43.772  29.226  36.797  1.00  0.00     0.031 C 
ATOM     64  C   UNL A   1      39.210  31.240  35.307  1.00  0.00     0.029 A 
ATOM     65  C   UNL A   1      40.380  31.979  35.246  1.00  0.00     0.049 A 
ATOM     66  H   UNL A   1      40.916  33.493  33.892  1.00  0.00     0.167 HD
ATOM     67  C   UNL A   1      42.346  30.983  36.237  1.00  0.00     0.074 A 
ATOM     68  C   UNL A   1      43.311  30.442  37.178  1.00  0.00     0.031 C 
ATOM     69  C   UNL A   1      41.538  32.076  36.137  1.00  0.00     0.031 A 
BRANCH  56  70
ATOM     70  C   UNL A   1      37.190  33.973  32.095  1.00  0.00    -0.014 A 
ATOM     71  C   UNL A   1      36.508  34.762  33.038  1.00  0.00     0.010 A 
ATOM     72  C   UNL A   1      36.472  33.706  30.906  1.00  0.00     0.010 A 
ATOM     73  C   UNL A   1      35.199  35.221  32.832  1.00  0.00     0.020 A 
ATOM     74  C   UNL A   1      35.153  34.131  30.691  1.00  0.00     0.020 A 
ATOM     75  C   UNL A   1      34.529  34.906  31.654  1.00  0.00     0.054 A 
BRANCH  75  76
ATOM     76  S   UNL A   1      32.888  35.599  31.359  1.00  0.00     0.124 S 
ATOM     77  O   UNL A   1      33.152  37.035  31.334  1.00  0.00    -0.237 OA
ATOM     78  O   UNL A   1      32.528  35.001  30.076  1.00  0.00    -0.237 OA
ATOM     79  O   UNL A   1      32.102  35.135  32.499  1.00  0.00    -0.744 OA
ENDBRANCH  75  76
ENDBRANCH  56  70
BRANCH  57  80
ATOM     80  C   UNL A   1      44.409  27.018  34.208  1.00  0.00    -0.014 A 
ATOM     81  C   UNL A   1      44.451  25.860  33.384  1.00  0.00     0.010 A 
ATOM     82  C   UNL A   1      45.689  27.475  34.519  1.00  0.00     0.010 A 
ATOM     83  C   UNL A   1      45.647  25.431  32.683  1.00  0.00     0.020 A 
ATOM     84  C   UNL A   1      46.856  27.152  33.760  1.00  0.00     0.020 A 
ATOM     85  C   UNL A   1      46.813  26.195  32.766  1.00  0.00     0.054 A 
BRANCH  85  86
ATOM     86  S   UNL A   1      48.030  26.334  31.341  1.00  0.00     0.124 S 
ATOM     87  O   UNL A   1      47.383  25.577  30.275  1.00  0.00    -0.237 OA
ATOM     88  O   UNL A   1      48.134  27.773  31.096  1.00  0.00    -0.237 OA
ATOM     89  O   UNL A   1      49.257  25.730  31.866  1.00  0.00    -0.744 OA
ENDBRANCH  85  86
ENDBRANCH  57  80
BRANCH  69  90
ATOM     90  C   UNL A   1      41.646  33.313  36.961  1.00  0.00    -0.014 A 
ATOM     91  C   UNL A   1      40.848  33.568  38.077  1.00  0.00     0.010 A 
ATOM     92  C   UNL A   1      42.693  34.225  36.673  1.00  0.00     0.010 A 
ATOM     93  C   UNL A   1      41.014  34.746  38.805  1.00  0.00     0.020 A 
ATOM     94  C   UNL A   1      42.911  35.364  37.430  1.00  0.00     0.020 A 
ATOM     95  C   UNL A   1      42.031  35.642  38.463  1.00  0.00     0.054 A 
BRANCH  95  96
ATOM     96  S   UNL A   1      42.179  37.188  39.369  1.00  0.00     0.124 S 
ATOM     97  O   UNL A   1      40.792  37.645  39.396  1.00  0.00    -0.237 OA
ATOM     98  O   UNL A   1      42.725  36.754  40.653  1.00  0.00    -0.237 OA
ATOM     99  O   UNL A   1      43.087  37.989  38.551  1.00  0.00    -0.744 OA
ENDBRANCH  95  96
ENDBRANCH  69  90
ENDBRANCH  43  44
ENDBRANCH  36  38
ENDBRANCH  35  36
ENDBRANCH  34  35
ENDBRANCH  33  34
ENDBRANCH  32  33
ENDBRANCH   1  32
TORSDOF 21
ENDMDL
MODEL 2
REMARK VINA RESULT:     -11.1      4.257      6.060
REMARK SMILES Cc1ccccc1/C=C1\SC(=O)N(CC(=O)Nc2ccccc2C(=O)OCCOCCOC(=O)c2ccc(-c3c4nc(c(-c5ccc(S(=O)(=O)[O-])cc5)c5ccc([nH]5)c(-c5ccc(S(=O)(=O)[O-])cc5)c5nc(c(-c6ccc(S(=O)(=O)[O-])cc6)c6ccc3[nH]6)C=C5)C=C4)cc2)C1=O
REMARK SMILES IDX 28 1 27 2 26 3 24 4 25 5 23 6 18 7 19 8 20 9 22 10 21 11
REMARK SMILES IDX 17 12 15 13 16 14 14 16 13 17 8 18 9 19 10 20 95 21 11 22
REMARK SMILES IDX 96 23 12 24 7 25 1 26 2 27 3 28 4 29 6 30 5 31 29 32 30 33
REMARK SMILES IDX 31 34 32 35 33 36 34 37 35 38 36 39 94 40 37 41 93 42 38 43
REMARK SMILES IDX 39 44 40 45 87 46 41 47 92 48 86 49 88 50 42 51 91 52 85 53
REMARK SMILES IDX 84 54 43 56 73 57 54 58 72 59 55 60 58 61 71 62 89 63 56 64
REMARK SMILES IDX 57 65 70 67 90 68 59 69 44 70 45 71 53 72 46 73 52 74 47 75
REMARK SMILES IDX 48 76 49 77 50 78 51 79 74 80 75 81 83 82 76 83 82 84 77 85
REMARK SMILES IDX 78 86 79 87 80 88 81 89 60 90 61 91 69 92 62 93 68 94 63 95
REMARK SMILES IDX 64 96 65 97 66 98 67 99
REMARK H PARENT 17 15 88 55 58 66
REMARK Flexibility Score: inf
ROOT
ATOM      1  C   UNL A   1      40.100  20.730  26.349  1.00  0.00     0.202 C 
ENDROOT
BRANCH   1   2
ATOM      2  C   UNL A   1      38.889  21.626  25.785  1.00  0.00     0.261 C 
BRANCH   2   3
ATOM      3  O   UNL A   1      36.878  21.295  25.786  1.00  0.00    -0.460 OA
BRANCH   3   4
ATOM      4  C   UNL A   1      35.462  21.755  25.826  1.00  0.00     0.340 C 
ATOM      5  O   UNL A   1      35.137  22.868  26.213  1.00  0.00    -0.246 OA
BRANCH   4   6
ATOM      6  C   UNL A   1      34.364  21.020  25.196  1.00  0.00     0.083 A 
ATOM      7  C   UNL A   1      33.816  21.516  23.993  1.00  0.00     0.055 A 
ATOM      8  C   UNL A   1      32.692  20.908  23.445  1.00  0.00     0.027 A 
ATOM      9  C   UNL A   1      32.176  19.765  24.053  1.00  0.00     0.002 A 
ATOM     10  C   UNL A   1      33.770  19.962  25.870  1.00  0.00     0.018 A 
ATOM     11  C   UNL A   1      32.705  19.303  25.264  1.00  0.00     0.001 A 
BRANCH   7  12
ATOM     12  N   UNL A   1      34.382  22.567  23.256  1.00  0.00    -0.324 N 
ATOM     13  C   UNL A   1      33.822  23.803  23.060  1.00  0.00     0.244 C 
ATOM     14  O   UNL A   1      34.461  24.662  22.442  1.00  0.00    -0.273 OA
ATOM     15  H   UNL A   1      35.260  22.403  22.842  1.00  0.00     0.170 HD
BRANCH  13  16
ATOM     16  C   UNL A   1      32.562  24.176  23.854  1.00  0.00     0.230 C 
BRANCH  16  17
ATOM     17  N   UNL A   1      32.255  25.579  24.104  1.00  0.00    -0.259 N 
ATOM     18  C   UNL A   1      32.804  29.393  26.415  1.00  0.00     0.029 C 
ATOM     19  C   UNL A   1      32.523  28.357  25.524  1.00  0.00     0.083 C 
ATOM     20  S   UNL A   1      31.665  28.806  23.496  1.00  0.00    -0.022 SA
ATOM     21  C   UNL A   1      32.919  26.382  25.577  1.00  0.00     0.268 C 
ATOM     22  C   UNL A   1      31.521  26.596  22.879  1.00  0.00     0.294 C 
ATOM     23  O   UNL A   1      33.813  25.733  26.132  1.00  0.00    -0.268 OA
ATOM     24  O   UNL A   1      31.025  26.278  21.805  1.00  0.00    -0.261 OA
BRANCH  18  25
ATOM     25  C   UNL A   1      32.945  30.817  26.965  1.00  0.00    -0.021 A 
ATOM     26  C   UNL A   1      35.389  30.662  27.588  1.00  0.00     0.045 C 
ATOM     27  C   UNL A   1      34.071  31.364  27.585  1.00  0.00    -0.044 A 
ATOM     28  C   UNL A   1      34.021  32.672  28.151  1.00  0.00     0.004 A 
ATOM     29  C   UNL A   1      32.921  33.513  27.988  1.00  0.00     0.000 A 
ATOM     30  C   UNL A   1      31.950  31.795  26.616  1.00  0.00     0.008 A 
ATOM     31  C   UNL A   1      31.914  33.106  27.136  1.00  0.00     0.001 A 
ENDBRANCH  18  25
ENDBRANCH  16  17
ENDBRANCH  13  16
ENDBRANCH   7  12
ENDBRANCH   4   6
ENDBRANCH   3   4
ENDBRANCH   2   3
ENDBRANCH   1   2
BRANCH   1  32
ATOM     32  O   UNL A   1      40.570  21.306  27.561  1.00  0.00    -0.374 OA
BRANCH  32  33
ATOM     33  C   UNL A   1      41.802  21.981  27.490  1.00  0.00     0.202 C 
BRANCH  33  34
ATOM     34  C   UNL A   1      41.857  23.035  28.576  1.00  0.00     0.261 C 
BRANCH  34  35
ATOM     35  O   UNL A   1      41.495  24.347  28.033  1.00  0.00    -0.460 OA
BRANCH  35  36
ATOM     36  C   UNL A   1      40.211  24.830  28.022  1.00  0.00     0.338 C 
ATOM     37  O   UNL A   1      39.242  24.121  27.787  1.00  0.00    -0.246 OA
BRANCH  36  38
ATOM     38  C   UNL A   1      40.053  26.243  28.546  1.00  0.00     0.060 A 
ATOM     39  C   UNL A   1      41.136  27.108  28.733  1.00  0.00     0.016 A 
ATOM     40  C   UNL A   1      38.831  26.758  28.913  1.00  0.00     0.016 A 
ATOM     41  C   UNL A   1      41.014  28.324  29.490  1.00  0.00     0.010 A 
ATOM     42  C   UNL A   1      38.769  27.858  29.801  1.00  0.00     0.010 A 
ATOM     43  C   UNL A   1      39.894  28.562  30.306  1.00  0.00    -0.014 A 
BRANCH  43  44
ATOM     44  C   UNL A   1      39.809  29.444  31.755  1.00  0.00     0.031 A 
ATOM     45  C   UNL A   1      39.063  30.679  31.449  1.00  0.00     0.074 A 
ATOM     46  C   UNL A   1      40.287  29.418  33.116  1.00  0.00     0.049 A 
ATOM     47  N   UNL A   1      39.597  31.864  31.496  1.00  0.00    -0.248 NA
ATOM     48  C   UNL A   1      37.755  30.644  30.777  1.00  0.00     0.031 C 
ATOM     49  C   UNL A   1      39.785  30.186  34.280  1.00  0.00     0.029 A 
ATOM     50  N   UNL A   1      41.233  28.620  33.874  1.00  0.00    -0.354 N 
ATOM     51  C   UNL A   1      38.524  32.680  31.223  1.00  0.00     0.074 A 
ATOM     52  C   UNL A   1      37.700  31.899  30.344  1.00  0.00     0.031 C 
ATOM     53  C   UNL A   1      40.493  29.933  35.421  1.00  0.00     0.029 A 
ATOM     54  C   UNL A   1      41.616  29.025  35.150  1.00  0.00     0.049 A 
ATOM     55  H   UNL A   1      41.605  27.795  33.488  1.00  0.00     0.167 HD
ATOM     56  C   UNL A   1      38.055  33.545  32.173  1.00  0.00     0.031 A 
ATOM     57  C   UNL A   1      42.887  28.957  35.711  1.00  0.00     0.031 A 
ATOM     58  C   UNL A   1      38.860  33.515  33.404  1.00  0.00     0.049 A 
ATOM     59  C   UNL A   1      43.296  30.436  35.711  1.00  0.00     0.074 A 
ATOM     60  C   UNL A   1      38.550  33.206  34.720  1.00  0.00     0.029 A 
ATOM     61  N   UNL A   1      40.252  33.559  33.347  1.00  0.00    -0.354 N 
ATOM     62  N   UNL A   1      42.539  31.318  35.119  1.00  0.00    -0.248 NA
ATOM     63  C   UNL A   1      44.466  31.083  36.299  1.00  0.00     0.031 C 
ATOM     64  C   UNL A   1      39.759  33.140  35.463  1.00  0.00     0.029 A 
ATOM     65  C   UNL A   1      40.813  33.374  34.596  1.00  0.00     0.049 A 
ATOM     66  H   UNL A   1      40.770  33.704  32.522  1.00  0.00     0.167 HD
ATOM     67  C   UNL A   1      42.985  32.574  35.289  1.00  0.00     0.074 A 
ATOM     68  C   UNL A   1      44.243  32.383  35.991  1.00  0.00     0.031 C 
ATOM     69  C   UNL A   1      42.241  33.613  34.815  1.00  0.00     0.031 A 
BRANCH  56  70
ATOM     70  C   UNL A   1      36.648  34.144  32.119  1.00  0.00    -0.014 A 
ATOM     71  C   UNL A   1      36.146  34.817  33.247  1.00  0.00     0.010 A 
ATOM     72  C   UNL A   1      35.776  34.109  31.006  1.00  0.00     0.010 A 
ATOM     73  C   UNL A   1      34.864  35.382  33.280  1.00  0.00     0.020 A 
ATOM     74  C   UNL A   1      34.479  34.642  31.027  1.00  0.00     0.020 A 
ATOM     75  C   UNL A   1      34.037  35.295  32.164  1.00  0.00     0.054 A 
BRANCH  75  76
ATOM     76  S   UNL A   1      32.433  36.124  32.186  1.00  0.00     0.124 S 
ATOM     77  O   UNL A   1      32.299  36.590  30.808  1.00  0.00    -0.237 OA
ATOM     78  O   UNL A   1      31.532  35.042  32.578  1.00  0.00    -0.237 OA
ATOM     79  O   UNL A   1      32.598  37.180  33.182  1.00  0.00    -0.744 OA
ENDBRANCH  75  76
ENDBRANCH  56  70
BRANCH  57  80
ATOM     80  C   UNL A   1      43.889  27.755  35.540  1.00  0.00    -0.014 A 
ATOM     81  C   UNL A   1      44.123  26.734  36.501  1.00  0.00     0.010 A 
ATOM     82  C   UNL A   1      44.501  27.465  34.321  1.00  0.00     0.010 A 
ATOM     83  C   UNL A   1      44.628  25.420  36.151  1.00  0.00     0.020 A 
ATOM     84  C   UNL A   1      44.893  26.151  33.920  1.00  0.00     0.020 A 
ATOM     85  C   UNL A   1      44.862  25.098  34.812  1.00  0.00     0.054 A 
BRANCH  85  86
ATOM     86  S   UNL A   1      44.617  23.362  34.135  1.00  0.00     0.124 S 
ATOM     87  O   UNL A   1      44.104  23.598  32.791  1.00  0.00    -0.237 OA
ATOM     88  O   UNL A   1      45.951  22.764  34.187  1.00  0.00    -0.237 OA
ATOM     89  O   UNL A   1      43.658  22.756  35.062  1.00  0.00    -0.744 OA
ENDBRANCH  85  86
ENDBRANCH  57  80
BRANCH  69  90
ATOM     90  C   UNL A   1      42.721  35.012  34.634  1.00  0.00    -0.014 A 
ATOM     91  C   UNL A   1      43.872  35.345  33.918  1.00  0.00     0.010 A 
ATOM     92  C   UNL A   1      41.906  36.071  35.108  1.00  0.00     0.010 A 
ATOM     93  C   UNL A   1      44.254  36.679  33.785  1.00  0.00     0.020 A 
ATOM     94  C   UNL A   1      42.240  37.402  34.921  1.00  0.00     0.020 A 
ATOM     95  C   UNL A   1      43.445  37.694  34.304  1.00  0.00     0.054 A 
BRANCH  95  96
ATOM     96  S   UNL A   1      43.994  39.403  34.184  1.00  0.00     0.124 S 
ATOM     97  O   UNL A   1      44.358  39.690  35.569  1.00  0.00    -0.237 OA
ATOM     98  O   UNL A   1      45.110  39.313  33.245  1.00  0.00    -0.237 OA
ATOM     99  O   UNL A   1      42.820  40.114  33.684  1.00  0.00    -0.744 OA
ENDBRANCH  95  96
ENDBRANCH  69  90
ENDBRANCH  43  44
ENDBRANCH  36  38
ENDBRANCH  35  36
ENDBRANCH  34  35
ENDBRANCH  33  34
ENDBRANCH  32  33
ENDBRANCH   1  32
TORSDOF 21
ENDMDL
MODEL 3
REMARK VINA RESULT:     -10.8      4.855      7.897
REMARK SMILES Cc1ccccc1/C=C1\SC(=O)N(CC(=O)Nc2ccccc2C(=O)OCCOCCOC(=O)c2ccc(-c3c4nc(c(-c5ccc(S(=O)(=O)[O-])cc5)c5ccc([nH]5)c(-c5ccc(S(=O)(=O)[O-])cc5)c5nc(c(-c6ccc(S(=O)(=O)[O-])cc6)c6ccc3[nH]6)C=C5)C=C4)cc2)C1=O
REMARK SMILES IDX 28 1 27 2 26 3 24 4 25 5 23 6 18 7 19 8 20 9 22 10 21 11
REMARK SMILES IDX 17 12 15 13 16 14 14 16 13 17 8 18 9 19 10 20 95 21 11 22
REMARK SMILES IDX 96 23 12 24 7 25 1 26 2 27 3 28 4 29 6 30 5 31 29 32 30 33
REMARK SMILES IDX 31 34 32 35 33 36 34 37 35 38 36 39 94 40 37 41 93 42 38 43
REMARK SMILES IDX 39 44 40 45 87 46 41 47 92 48 86 49 88 50 42 51 91 52 85 53
REMARK SMILES IDX 84 54 43 56 73 57 54 58 72 59 55 60 58 61 71 62 89 63 56 64
REMARK SMILES IDX 57 65 70 67 90 68 59 69 44 70 45 71 53 72 46 73 52 74 47 75
REMARK SMILES IDX 48 76 49 77 50 78 51 79 74 80 75 81 83 82 76 83 82 84 77 85
REMARK SMILES IDX 78 86 79 87 80 88 81 89 60 90 61 91 69 92 62 93 68 94 63 95
REMARK SMILES IDX 64 96 65 97 66 98 67 99
REMARK H PARENT 17 15 88 55 58 66
REMARK Flexibility Score: inf
ROOT
ATOM      1  C   UNL A   1      39.435  19.797  25.739  1.00  0.00     0.202 C 
ENDROOT
BRANCH   1   2
ATOM      2  C   UNL A   1      38.764  21.135  25.151  1.00  0.00     0.261 C 
BRANCH   2   3
ATOM      3  O   UNL A   1      36.815  21.583  24.757  1.00  0.00    -0.460 OA
BRANCH   3   4
ATOM      4  C   UNL A   1      35.413  21.868  25.174  1.00  0.00     0.340 C 
ATOM      5  O   UNL A   1      35.108  22.833  25.858  1.00  0.00    -0.246 OA
BRANCH   4   6
ATOM      6  C   UNL A   1      34.256  21.164  24.621  1.00  0.00     0.083 A 
ATOM      7  C   UNL A   1      33.548  21.755  23.551  1.00  0.00     0.055 A 
ATOM      8  C   UNL A   1      32.373  21.169  23.094  1.00  0.00     0.027 A 
ATOM      9  C   UNL A   1      31.960  19.960  23.648  1.00  0.00     0.002 A 
ATOM     10  C   UNL A   1      33.771  20.030  25.259  1.00  0.00     0.018 A 
ATOM     11  C   UNL A   1      32.648  19.401  24.731  1.00  0.00     0.001 A 
BRANCH   7  12
ATOM     12  N   UNL A   1      33.997  22.887  22.853  1.00  0.00    -0.324 N 
ATOM     13  C   UNL A   1      33.494  24.156  22.974  1.00  0.00     0.244 C 
ATOM     14  O   UNL A   1      34.028  25.077  22.347  1.00  0.00    -0.273 OA
ATOM     15  H   UNL A   1      34.741  22.758  22.221  1.00  0.00     0.170 HD
BRANCH  13  16
ATOM     16  C   UNL A   1      32.483  24.445  24.093  1.00  0.00     0.230 C 
BRANCH  16  17
ATOM     17  N   UNL A   1      32.424  25.775  24.687  1.00  0.00    -0.259 N 
ATOM     18  C   UNL A   1      34.272  29.154  27.003  1.00  0.00     0.029 C 
ATOM     19  C   UNL A   1      33.525  28.277  26.215  1.00  0.00     0.083 C 
ATOM     20  S   UNL A   1      31.803  29.040  24.987  1.00  0.00    -0.022 SA
ATOM     21  C   UNL A   1      33.777  26.335  25.742  1.00  0.00     0.268 C 
ATOM     22  C   UNL A   1      31.242  26.964  24.174  1.00  0.00     0.294 C 
ATOM     23  O   UNL A   1      34.787  25.627  25.664  1.00  0.00    -0.268 OA
ATOM     24  O   UNL A   1      30.261  26.820  23.455  1.00  0.00    -0.261 OA
BRANCH  18  25
ATOM     25  C   UNL A   1      34.751  30.467  27.632  1.00  0.00    -0.021 A 
ATOM     26  C   UNL A   1      37.217  29.916  27.643  1.00  0.00     0.045 C 
ATOM     27  C   UNL A   1      36.057  30.780  28.016  1.00  0.00    -0.044 A 
ATOM     28  C   UNL A   1      36.338  32.001  28.696  1.00  0.00     0.004 A 
ATOM     29  C   UNL A   1      35.374  32.992  28.876  1.00  0.00     0.000 A 
ATOM     30  C   UNL A   1      33.869  31.603  27.620  1.00  0.00     0.008 A 
ATOM     31  C   UNL A   1      34.153  32.831  28.253  1.00  0.00     0.001 A 
ENDBRANCH  18  25
ENDBRANCH  16  17
ENDBRANCH  13  16
ENDBRANCH   7  12
ENDBRANCH   4   6
ENDBRANCH   3   4
ENDBRANCH   2   3
ENDBRANCH   1   2
BRANCH   1  32
ATOM     32  O   UNL A   1      40.492  20.163  26.617  1.00  0.00    -0.374 OA
BRANCH  32  33
ATOM     33  C   UNL A   1      41.415  21.101  26.119  1.00  0.00     0.202 C 
BRANCH  33  34
ATOM     34  C   UNL A   1      41.613  22.198  27.145  1.00  0.00     0.261 C 
BRANCH  34  35
ATOM     35  O   UNL A   1      41.088  23.469  26.640  1.00  0.00    -0.460 OA
BRANCH  35  36
ATOM     36  C   UNL A   1      39.876  23.988  27.017  1.00  0.00     0.338 C 
ATOM     37  O   UNL A   1      38.890  23.288  27.207  1.00  0.00    -0.246 OA
BRANCH  36  38
ATOM     38  C   UNL A   1      39.897  25.452  27.406  1.00  0.00     0.060 A 
ATOM     39  C   UNL A   1      40.384  26.455  26.561  1.00  0.00     0.016 A 
ATOM     40  C   UNL A   1      39.475  25.891  28.640  1.00  0.00     0.016 A 
ATOM     41  C   UNL A   1      40.665  27.781  27.039  1.00  0.00     0.010 A 
ATOM     42  C   UNL A   1      39.922  27.138  29.135  1.00  0.00     0.010 A 
ATOM     43  C   UNL A   1      40.733  28.057  28.416  1.00  0.00    -0.014 A 
BRANCH  43  44
ATOM     44  C   UNL A   1      41.690  29.208  29.218  1.00  0.00     0.031 A 
ATOM     45  C   UNL A   1      40.758  30.101  29.932  1.00  0.00     0.074 A 
ATOM     46  C   UNL A   1      43.062  29.632  29.352  1.00  0.00     0.049 A 
ATOM     47  N   UNL A   1      40.608  31.359  29.637  1.00  0.00    -0.248 NA
ATOM     48  C   UNL A   1      39.713  29.572  30.823  1.00  0.00     0.031 C 
ATOM     49  C   UNL A   1      43.657  30.502  30.393  1.00  0.00     0.029 A 
ATOM     50  N   UNL A   1      44.322  29.309  28.706  1.00  0.00    -0.354 N 
ATOM     51  C   UNL A   1      39.723  31.782  30.601  1.00  0.00     0.074 A 
ATOM     52  C   UNL A   1      38.910  30.630  30.867  1.00  0.00     0.031 C 
ATOM     53  C   UNL A   1      44.992  30.720  30.197  1.00  0.00     0.029 A 
ATOM     54  C   UNL A   1      45.446  30.092  28.949  1.00  0.00     0.049 A 
ATOM     55  H   UNL A   1      44.381  28.539  28.096  1.00  0.00     0.167 HD
ATOM     56  C   UNL A   1      40.110  32.700  31.538  1.00  0.00     0.031 A 
ATOM     57  C   UNL A   1      46.413  30.488  28.031  1.00  0.00     0.031 A 
ATOM     58  C   UNL A   1      41.488  33.174  31.322  1.00  0.00     0.049 A 
ATOM     59  C   UNL A   1      46.083  31.978  27.869  1.00  0.00     0.074 A 
ATOM     60  C   UNL A   1      42.630  33.121  32.106  1.00  0.00     0.029 A 
ATOM     61  N   UNL A   1      41.919  33.557  30.054  1.00  0.00    -0.354 N 
ATOM     62  N   UNL A   1      45.010  32.468  28.425  1.00  0.00    -0.248 NA
ATOM     63  C   UNL A   1      46.808  33.024  27.153  1.00  0.00     0.031 C 
ATOM     64  C   UNL A   1      43.734  33.546  31.320  1.00  0.00     0.029 A 
ATOM     65  C   UNL A   1      43.275  33.827  30.044  1.00  0.00     0.049 A 
ATOM     66  H   UNL A   1      41.333  33.628  29.266  1.00  0.00     0.167 HD
ATOM     67  C   UNL A   1      44.914  33.799  28.269  1.00  0.00     0.074 A 
ATOM     68  C   UNL A   1      46.040  34.111  27.406  1.00  0.00     0.031 C 
ATOM     69  C   UNL A   1      43.899  34.468  28.885  1.00  0.00     0.031 A 
BRANCH  56  70
ATOM     70  C   UNL A   1      39.369  32.888  32.863  1.00  0.00    -0.014 A 
ATOM     71  C   UNL A   1      39.691  32.058  33.952  1.00  0.00     0.010 A 
ATOM     72  C   UNL A   1      38.374  33.858  33.123  1.00  0.00     0.010 A 
ATOM     73  C   UNL A   1      39.048  32.161  35.194  1.00  0.00     0.020 A 
ATOM     74  C   UNL A   1      37.699  33.960  34.348  1.00  0.00     0.020 A 
ATOM     75  C   UNL A   1      38.056  33.117  35.386  1.00  0.00     0.054 A 
BRANCH  75  76
ATOM     76  S   UNL A   1      37.320  33.307  37.024  1.00  0.00     0.124 S 
ATOM     77  O   UNL A   1      37.354  31.944  37.546  1.00  0.00    -0.237 OA
ATOM     78  O   UNL A   1      38.232  34.252  37.664  1.00  0.00    -0.237 OA
ATOM     79  O   UNL A   1      35.983  33.830  36.748  1.00  0.00    -0.744 OA
ENDBRANCH  75  76
ENDBRANCH  56  70
BRANCH  57  80
ATOM     80  C   UNL A   1      47.008  29.578  26.893  1.00  0.00    -0.014 A 
ATOM     81  C   UNL A   1      48.164  28.759  27.012  1.00  0.00     0.010 A 
ATOM     82  C   UNL A   1      46.322  29.332  25.704  1.00  0.00     0.010 A 
ATOM     83  C   UNL A   1      48.395  27.593  26.179  1.00  0.00     0.020 A 
ATOM     84  C   UNL A   1      46.456  28.131  24.941  1.00  0.00     0.020 A 
ATOM     85  C   UNL A   1      47.435  27.205  25.242  1.00  0.00     0.054 A 
BRANCH  85  86
ATOM     86  S   UNL A   1      47.126  25.405  24.802  1.00  0.00     0.124 S 
ATOM     87  O   UNL A   1      47.887  25.227  23.571  1.00  0.00    -0.237 OA
ATOM     88  O   UNL A   1      47.637  24.659  25.952  1.00  0.00    -0.237 OA
ATOM     89  O   UNL A   1      45.672  25.327  24.642  1.00  0.00    -0.744 OA
ENDBRANCH  85  86
ENDBRANCH  57  80
BRANCH  69  90
ATOM     90  C   UNL A   1      43.461  35.858  28.573  1.00  0.00    -0.014 A 
ATOM     91  C   UNL A   1      44.127  36.996  29.028  1.00  0.00     0.010 A 
ATOM     92  C   UNL A   1      42.385  36.039  27.667  1.00  0.00     0.010 A 
ATOM     93  C   UNL A   1      43.662  38.266  28.686  1.00  0.00     0.020 A 
ATOM     94  C   UNL A   1      41.958  37.293  27.266  1.00  0.00     0.020 A 
ATOM     95  C   UNL A   1      42.570  38.402  27.825  1.00  0.00     0.054 A 
BRANCH  95  96
ATOM     96  S   UNL A   1      41.943  40.048  27.456  1.00  0.00     0.124 S 
ATOM     97  O   UNL A   1      43.182  40.805  27.305  1.00  0.00    -0.237 OA
ATOM     98  O   UNL A   1      41.183  39.831  26.227  1.00  0.00    -0.237 OA
ATOM     99  O   UNL A   1      41.140  40.387  28.628  1.00  0.00    -0.744 OA
ENDBRANCH  95  96
ENDBRANCH  69  90
ENDBRANCH  43  44
ENDBRANCH  36  38
ENDBRANCH  35  36
ENDBRANCH  34  35
ENDBRANCH  33  34
ENDBRANCH  32  33
ENDBRANCH   1  32
TORSDOF 21
ENDMDL
