MODEL 1
REMARK VINA RESULT:     -10.5      0.000      0.000
REMARK SMILES Cc1cc(=O)oc2cc(O[C@@H](C)C(=O)N[C@H](CC(C)C)C(=O)OCCOCCOC(=O)c3ccc(-c4c5nc(c(-c6ccc(S(=O)(=O)[O-])cc6)c6ccc([nH]6)c(-c6ccc(S(=O)(=O)[O-])cc6)c6nc(c(-c7ccc(S(=O)(=O)[O-])cc7)c7ccc4[nH]7)C=C6)C=C5)cc3)ccc12
REMARK SMILES IDX 25 1 24 2 23 3 21 4 22 5 16 6 15 7 13 8 14 9 11 11 12 12
REMARK SMILES IDX 10 13 9 14 1 15 2 16 3 17 94 18 4 19 7 20 93 21 5 22 6 23
REMARK SMILES IDX 8 24 92 25 17 26 18 27 19 28 20 29 26 30 27 31 28 32 29 33
REMARK SMILES IDX 30 34 31 35 32 36 33 37 91 38 34 39 90 40 35 41 36 42 37 43
REMARK SMILES IDX 84 44 38 45 89 46 83 47 85 48 39 49 88 50 82 51 81 52 40 54
REMARK SMILES IDX 70 55 51 56 69 57 52 58 55 59 68 60 86 61 53 62 54 63 67 65
REMARK SMILES IDX 87 66 56 67 41 68 42 69 50 70 43 71 49 72 44 73 45 74 46 75
REMARK SMILES IDX 47 76 48 77 71 78 72 79 80 80 73 81 79 82 74 83 75 84 76 85
REMARK SMILES IDX 77 86 78 87 57 88 58 89 66 90 59 91 65 92 60 93 61 94 62 95
REMARK SMILES IDX 63 96 64 97
REMARK H PARENT 15 10 85 53 55 64
REMARK Flexibility Score: inf
ROOT
ATOM      1  C   UNL A   1      35.465  23.563  25.666  1.00  0.00     0.202 C 
ENDROOT
BRANCH   1   2
ATOM      2  C   UNL A   1      34.125  23.686  26.561  1.00  0.00     0.261 C 
BRANCH   2   3
ATOM      3  O   UNL A   1      33.071  24.759  26.259  1.00  0.00    -0.462 OA
BRANCH   3   4
ATOM      4  C   UNL A   1      31.703  24.779  26.136  1.00  0.00     0.328 C 
ATOM      5  O   UNL A   1      30.951  25.281  26.978  1.00  0.00    -0.250 OA
BRANCH   4   6
ATOM      6  C   UNL A   1      31.025  24.763  24.802  1.00  0.00     0.192 C 
BRANCH   6   7
ATOM      7  N   UNL A   1      29.786  25.461  24.924  1.00  0.00    -0.339 N 
ATOM      8  C   UNL A   1      29.484  26.472  24.025  1.00  0.00     0.261 C 
ATOM      9  O   UNL A   1      28.274  26.651  23.822  1.00  0.00    -0.271 OA
ATOM     10  H   UNL A   1      29.153  25.227  25.640  1.00  0.00     0.164 HD
BRANCH   8  11
ATOM     11  C   UNL A   1      30.612  27.502  23.284  1.00  0.00     0.258 C 
ATOM     12  C   UNL A   1      31.010  26.909  21.929  1.00  0.00     0.064 C 
BRANCH  11  13
ATOM     13  O   UNL A   1      31.530  28.573  23.566  1.00  0.00    -0.481 OA
BRANCH  13  14
ATOM     14  C   UNL A   1      32.117  29.013  24.711  1.00  0.00     0.124 A 
ATOM     15  C   UNL A   1      36.189  29.365  28.038  1.00  0.00     0.045 C 
ATOM     16  C   UNL A   1      34.985  30.222  27.718  1.00  0.00    -0.033 A 
ATOM     17  C   UNL A   1      34.799  31.465  28.166  1.00  0.00     0.098 A 
ATOM     18  C   UNL A   1      33.954  29.735  26.814  1.00  0.00     0.021 A 
ATOM     19  C   UNL A   1      33.609  32.266  27.812  1.00  0.00     0.336 A 
ATOM     20  C   UNL A   1      32.745  30.406  26.569  1.00  0.00     0.142 A 
ATOM     21  C   UNL A   1      34.200  28.648  26.053  1.00  0.00     0.016 A 
ATOM     22  O   UNL A   1      33.576  33.464  28.072  1.00  0.00    -0.246 OA
ATOM     23  O   UNL A   1      32.517  31.616  27.246  1.00  0.00    -0.423 OA
ATOM     24  C   UNL A   1      31.795  30.037  25.560  1.00  0.00     0.094 A 
ATOM     25  C   UNL A   1      33.257  28.305  25.093  1.00  0.00     0.047 A 
ENDBRANCH  13  14
ENDBRANCH  11  13
ENDBRANCH   8  11
ENDBRANCH   6   7
BRANCH   6  26
ATOM     26  C   UNL A   1      31.234  23.242  24.395  1.00  0.00     0.040 C 
BRANCH  26  27
ATOM     27  C   UNL A   1      31.926  22.899  23.014  1.00  0.00    -0.015 C 
ATOM     28  C   UNL A   1      33.242  23.604  22.676  1.00  0.00     0.007 C 
ATOM     29  C   UNL A   1      32.188  21.381  22.817  1.00  0.00     0.007 C 
ENDBRANCH  26  27
ENDBRANCH   6  26
ENDBRANCH   4   6
ENDBRANCH   3   4
ENDBRANCH   2   3
ENDBRANCH   1   2
BRANCH   1  30
ATOM     30  O   UNL A   1      35.611  22.285  25.015  1.00  0.00    -0.374 OA
BRANCH  30  31
ATOM     31  C   UNL A   1      36.687  21.334  25.202  1.00  0.00     0.202 C 
BRANCH  31  32
ATOM     32  C   UNL A   1      38.222  21.598  25.267  1.00  0.00     0.261 C 
BRANCH  32  33
ATOM     33  O   UNL A   1      38.673  22.342  26.390  1.00  0.00    -0.460 OA
BRANCH  33  34
ATOM     34  C   UNL A   1      39.996  22.221  26.630  1.00  0.00     0.338 C 
ATOM     35  O   UNL A   1      40.759  21.437  26.125  1.00  0.00    -0.246 OA
BRANCH  34  36
ATOM     36  C   UNL A   1      40.425  23.387  27.425  1.00  0.00     0.060 A 
ATOM     37  C   UNL A   1      39.675  24.541  27.205  1.00  0.00     0.016 A 
ATOM     38  C   UNL A   1      41.514  23.387  28.304  1.00  0.00     0.016 A 
ATOM     39  C   UNL A   1      40.093  25.739  27.752  1.00  0.00     0.010 A 
ATOM     40  C   UNL A   1      41.924  24.601  28.871  1.00  0.00     0.010 A 
ATOM     41  C   UNL A   1      41.256  25.792  28.533  1.00  0.00    -0.014 A 
BRANCH  41  42
ATOM     42  C   UNL A   1      41.834  27.136  28.778  1.00  0.00     0.031 A 
ATOM     43  C   UNL A   1      43.178  27.470  28.182  1.00  0.00     0.074 A 
ATOM     44  C   UNL A   1      41.081  28.100  29.340  1.00  0.00     0.049 A 
ATOM     45  N   UNL A   1      43.779  28.629  28.099  1.00  0.00    -0.248 NA
ATOM     46  C   UNL A   1      43.938  26.359  27.585  1.00  0.00     0.031 C 
ATOM     47  C   UNL A   1      39.737  27.909  29.885  1.00  0.00     0.029 A 
ATOM     48  N   UNL A   1      41.321  29.442  29.494  1.00  0.00    -0.354 N 
ATOM     49  C   UNL A   1      44.979  28.388  27.439  1.00  0.00     0.074 A 
ATOM     50  C   UNL A   1      45.045  26.966  27.186  1.00  0.00     0.031 C 
ATOM     51  C   UNL A   1      39.252  29.099  30.275  1.00  0.00     0.029 A 
ATOM     52  C   UNL A   1      40.265  30.128  30.045  1.00  0.00     0.049 A 
ATOM     53  H   UNL A   1      42.167  29.872  29.234  1.00  0.00     0.167 HD
ATOM     54  C   UNL A   1      45.933  29.270  27.061  1.00  0.00     0.031 A 
ATOM     55  C   UNL A   1      40.128  31.438  30.330  1.00  0.00     0.031 A 
ATOM     56  C   UNL A   1      45.869  30.683  27.318  1.00  0.00     0.049 A 
ATOM     57  C   UNL A   1      41.245  32.385  29.984  1.00  0.00     0.074 A 
ATOM     58  C   UNL A   1      46.790  31.661  26.983  1.00  0.00     0.029 A 
ATOM     59  N   UNL A   1      44.829  31.322  27.976  1.00  0.00    -0.354 N 
ATOM     60  N   UNL A   1      42.372  32.138  29.358  1.00  0.00    -0.248 NA
ATOM     61  C   UNL A   1      41.066  33.790  30.374  1.00  0.00     0.031 C 
ATOM     62  C   UNL A   1      46.338  32.880  27.498  1.00  0.00     0.029 A 
ATOM     63  C   UNL A   1      45.099  32.676  28.086  1.00  0.00     0.049 A 
ATOM     64  H   UNL A   1      44.017  30.879  28.316  1.00  0.00     0.167 HD
ATOM     65  C   UNL A   1      43.024  33.364  29.255  1.00  0.00     0.074 A 
ATOM     66  C   UNL A   1      42.157  34.350  29.867  1.00  0.00     0.031 C 
ATOM     67  C   UNL A   1      44.230  33.646  28.704  1.00  0.00     0.031 A 
BRANCH  54  68
ATOM     68  C   UNL A   1      47.150  28.724  26.358  1.00  0.00    -0.014 A 
ATOM     69  C   UNL A   1      47.080  28.233  25.041  1.00  0.00     0.010 A 
ATOM     70  C   UNL A   1      48.394  28.738  27.016  1.00  0.00     0.010 A 
ATOM     71  C   UNL A   1      48.223  27.735  24.410  1.00  0.00     0.020 A 
ATOM     72  C   UNL A   1      49.545  28.269  26.377  1.00  0.00     0.020 A 
ATOM     73  C   UNL A   1      49.449  27.754  25.083  1.00  0.00     0.054 A 
BRANCH  73  74
ATOM     74  S   UNL A   1      50.920  27.122  24.230  1.00  0.00     0.124 S 
ATOM     75  O   UNL A   1      50.328  26.263  23.206  1.00  0.00    -0.237 OA
ATOM     76  O   UNL A   1      51.553  28.342  23.738  1.00  0.00    -0.237 OA
ATOM     77  O   UNL A   1      51.655  26.421  25.280  1.00  0.00    -0.744 OA
ENDBRANCH  73  74
ENDBRANCH  54  68
BRANCH  55  78
ATOM     78  C   UNL A   1      38.890  31.924  31.000  1.00  0.00    -0.014 A 
ATOM     79  C   UNL A   1      37.778  32.350  30.252  1.00  0.00     0.010 A 
ATOM     80  C   UNL A   1      38.822  31.962  32.405  1.00  0.00     0.010 A 
ATOM     81  C   UNL A   1      36.628  32.817  30.898  1.00  0.00     0.020 A 
ATOM     82  C   UNL A   1      37.665  32.397  33.054  1.00  0.00     0.020 A 
ATOM     83  C   UNL A   1      36.579  32.831  32.296  1.00  0.00     0.054 A 
BRANCH  83  84
ATOM     84  S   UNL A   1      35.058  33.392  33.112  1.00  0.00     0.124 S 
ATOM     85  O   UNL A   1      34.033  32.639  32.397  1.00  0.00    -0.237 OA
ATOM     86  O   UNL A   1      35.285  32.997  34.500  1.00  0.00    -0.237 OA
ATOM     87  O   UNL A   1      35.056  34.835  32.875  1.00  0.00    -0.744 OA
ENDBRANCH  83  84
ENDBRANCH  55  78
BRANCH  67  88
ATOM     88  C   UNL A   1      44.676  35.086  28.704  1.00  0.00    -0.014 A 
ATOM     89  C   UNL A   1      45.447  35.615  29.755  1.00  0.00     0.010 A 
ATOM     90  C   UNL A   1      44.361  35.908  27.606  1.00  0.00     0.010 A 
ATOM     91  C   UNL A   1      45.863  36.949  29.724  1.00  0.00     0.020 A 
ATOM     92  C   UNL A   1      44.803  37.233  27.556  1.00  0.00     0.020 A 
ATOM     93  C   UNL A   1      45.539  37.749  28.624  1.00  0.00     0.054 A 
BRANCH  93  94
ATOM     94  S   UNL A   1      46.124  39.465  28.593  1.00  0.00     0.124 S 
ATOM     95  O   UNL A   1      46.480  39.639  27.187  1.00  0.00    -0.237 OA
ATOM     96  O   UNL A   1      44.952  40.211  29.044  1.00  0.00    -0.237 OA
ATOM     97  O   UNL A   1      47.251  39.465  29.524  1.00  0.00    -0.744 OA
ENDBRANCH  93  94
ENDBRANCH  67  88
ENDBRANCH  41  42
ENDBRANCH  34  36
ENDBRANCH  33  34
ENDBRANCH  32  33
ENDBRANCH  31  32
ENDBRANCH  30  31
ENDBRANCH   1  30
TORSDOF 23
ENDMDL
MODEL 2
REMARK VINA RESULT:     -10.5      5.058      7.317
REMARK SMILES Cc1cc(=O)oc2cc(O[C@@H](C)C(=O)N[C@H](CC(C)C)C(=O)OCCOCCOC(=O)c3ccc(-c4c5nc(c(-c6ccc(S(=O)(=O)[O-])cc6)c6ccc([nH]6)c(-c6ccc(S(=O)(=O)[O-])cc6)c6nc(c(-c7ccc(S(=O)(=O)[O-])cc7)c7ccc4[nH]7)C=C6)C=C5)cc3)ccc12
REMARK SMILES IDX 25 1 24 2 23 3 21 4 22 5 16 6 15 7 13 8 14 9 11 11 12 12
REMARK SMILES IDX 10 13 9 14 1 15 2 16 3 17 94 18 4 19 7 20 93 21 5 22 6 23
REMARK SMILES IDX 8 24 92 25 17 26 18 27 19 28 20 29 26 30 27 31 28 32 29 33
REMARK SMILES IDX 30 34 31 35 32 36 33 37 91 38 34 39 90 40 35 41 36 42 37 43
REMARK SMILES IDX 84 44 38 45 89 46 83 47 85 48 39 49 88 50 82 51 81 52 40 54
REMARK SMILES IDX 70 55 51 56 69 57 52 58 55 59 68 60 86 61 53 62 54 63 67 65
REMARK SMILES IDX 87 66 56 67 41 68 42 69 50 70 43 71 49 72 44 73 45 74 46 75
REMARK SMILES IDX 47 76 48 77 71 78 72 79 80 80 73 81 79 82 74 83 75 84 76 85
REMARK SMILES IDX 77 86 78 87 57 88 58 89 66 90 59 91 65 92 60 93 61 94 62 95
REMARK SMILES IDX 63 96 64 97
REMARK H PARENT 15 10 85 53 55 64
REMARK Flexibility Score: inf
ROOT
ATOM      1  C   UNL A   1      39.419  22.995  26.919  1.00  0.00     0.202 C 
ENDROOT
BRANCH   1   2
ATOM      2  C   UNL A   1      38.230  23.564  25.985  1.00  0.00     0.261 C 
BRANCH   2   3
ATOM      3  O   UNL A   1      37.018  22.691  25.634  1.00  0.00    -0.462 OA
BRANCH   3   4
ATOM      4  C   UNL A   1      35.843  22.880  24.947  1.00  0.00     0.328 C 
ATOM      5  O   UNL A   1      35.795  23.187  23.752  1.00  0.00    -0.250 OA
BRANCH   4   6
ATOM      6  C   UNL A   1      34.574  22.192  25.342  1.00  0.00     0.192 C 
BRANCH   6   7
ATOM      7  N   UNL A   1      34.281  22.543  26.694  1.00  0.00    -0.339 N 
ATOM      8  C   UNL A   1      33.010  22.991  27.020  1.00  0.00     0.261 C 
ATOM      9  O   UNL A   1      32.654  22.760  28.185  1.00  0.00    -0.271 OA
ATOM     10  H   UNL A   1      34.974  22.467  27.388  1.00  0.00     0.164 HD
BRANCH   8  11
ATOM     11  C   UNL A   1      31.986  23.881  25.999  1.00  0.00     0.258 C 
ATOM     12  C   UNL A   1      30.868  22.962  25.495  1.00  0.00     0.064 C 
BRANCH  11  13
ATOM     13  O   UNL A   1      31.928  25.089  25.221  1.00  0.00    -0.481 OA
BRANCH  13  14
ATOM     14  C   UNL A   1      32.352  26.361  25.451  1.00  0.00     0.124 A 
ATOM     15  C   UNL A   1      31.495  31.455  26.494  1.00  0.00     0.045 C 
ATOM     16  C   UNL A   1      32.632  30.487  26.727  1.00  0.00    -0.033 A 
ATOM     17  C   UNL A   1      33.702  30.741  27.481  1.00  0.00     0.098 A 
ATOM     18  C   UNL A   1      32.585  29.146  26.163  1.00  0.00     0.021 A 
ATOM     19  C   UNL A   1      34.782  29.754  27.687  1.00  0.00     0.336 A 
ATOM     20  C   UNL A   1      33.652  28.234  26.216  1.00  0.00     0.142 A 
ATOM     21  C   UNL A   1      31.419  28.675  25.672  1.00  0.00     0.016 A 
ATOM     22  O   UNL A   1      35.636  29.948  28.546  1.00  0.00    -0.246 OA
ATOM     23  O   UNL A   1      34.838  28.649  26.845  1.00  0.00    -0.423 OA
ATOM     24  C   UNL A   1      33.571  26.857  25.823  1.00  0.00     0.094 A 
ATOM     25  C   UNL A   1      31.372  27.342  25.286  1.00  0.00     0.047 A 
ENDBRANCH  13  14
ENDBRANCH  11  13
ENDBRANCH   8  11
ENDBRANCH   6   7
BRANCH   6  26
ATOM     26  C   UNL A   1      34.846  20.738  24.764  1.00  0.00     0.040 C 
BRANCH  26  27
ATOM     27  C   UNL A   1      33.636  19.730  24.606  1.00  0.00    -0.015 C 
ATOM     28  C   UNL A   1      32.908  19.280  25.876  1.00  0.00     0.007 C 
ATOM     29  C   UNL A   1      32.535  20.237  23.635  1.00  0.00     0.007 C 
ENDBRANCH  26  27
ENDBRANCH   6  26
ENDBRANCH   4   6
ENDBRANCH   3   4
ENDBRANCH   2   3
ENDBRANCH   1   2
BRANCH   1  30
ATOM     30  O   UNL A   1      40.489  22.371  26.180  1.00  0.00    -0.374 OA
BRANCH  30  31
ATOM     31  C   UNL A   1      41.898  22.700  26.248  1.00  0.00     0.202 C 
BRANCH  31  32
ATOM     32  C   UNL A   1      42.732  23.619  25.306  1.00  0.00     0.261 C 
BRANCH  32  33
ATOM     33  O   UNL A   1      43.142  24.862  25.859  1.00  0.00    -0.460 OA
BRANCH  33  34
ATOM     34  C   UNL A   1      42.145  25.766  25.967  1.00  0.00     0.338 C 
ATOM     35  O   UNL A   1      41.208  25.909  25.225  1.00  0.00    -0.246 OA
BRANCH  34  36
ATOM     36  C   UNL A   1      42.239  26.392  27.300  1.00  0.00     0.060 A 
ATOM     37  C   UNL A   1      41.389  25.841  28.256  1.00  0.00     0.016 A 
ATOM     38  C   UNL A   1      43.068  27.477  27.607  1.00  0.00     0.016 A 
ATOM     39  C   UNL A   1      41.254  26.458  29.486  1.00  0.00     0.010 A 
ATOM     40  C   UNL A   1      42.943  28.089  28.861  1.00  0.00     0.010 A 
ATOM     41  C   UNL A   1      41.979  27.624  29.773  1.00  0.00    -0.014 A 
BRANCH  41  42
ATOM     42  C   UNL A   1      41.525  28.419  30.940  1.00  0.00     0.031 A 
ATOM     43  C   UNL A   1      42.349  28.394  32.202  1.00  0.00     0.074 A 
ATOM     44  C   UNL A   1      40.519  29.303  30.803  1.00  0.00     0.049 A 
ATOM     45  N   UNL A   1      42.256  29.153  33.264  1.00  0.00    -0.248 NA
ATOM     46  C   UNL A   1      43.432  27.399  32.274  1.00  0.00     0.031 C 
ATOM     47  C   UNL A   1      39.700  29.467  29.602  1.00  0.00     0.029 A 
ATOM     48  N   UNL A   1      40.055  30.266  31.662  1.00  0.00    -0.354 N 
ATOM     49  C   UNL A   1      43.266  28.731  34.122  1.00  0.00     0.074 A 
ATOM     50  C   UNL A   1      43.930  27.620  33.481  1.00  0.00     0.031 C 
ATOM     51  C   UNL A   1      38.860  30.499  29.785  1.00  0.00     0.029 A 
ATOM     52  C   UNL A   1      39.055  31.043  31.128  1.00  0.00     0.049 A 
ATOM     53  H   UNL A   1      40.404  30.388  32.574  1.00  0.00     0.167 HD
ATOM     54  C   UNL A   1      43.623  29.234  35.327  1.00  0.00     0.031 A 
ATOM     55  C   UNL A   1      38.374  32.077  31.659  1.00  0.00     0.031 A 
ATOM     56  C   UNL A   1      42.958  30.337  35.967  1.00  0.00     0.049 A 
ATOM     57  C   UNL A   1      38.728  32.557  33.040  1.00  0.00     0.074 A 
ATOM     58  C   UNL A   1      43.237  30.915  37.193  1.00  0.00     0.029 A 
ATOM     59  N   UNL A   1      41.878  31.027  35.436  1.00  0.00    -0.354 N 
ATOM     60  N   UNL A   1      39.688  32.147  33.835  1.00  0.00    -0.248 NA
ATOM     61  C   UNL A   1      37.912  33.646  33.592  1.00  0.00     0.031 C 
ATOM     62  C   UNL A   1      42.285  31.910  37.433  1.00  0.00     0.029 A 
ATOM     63  C   UNL A   1      41.459  32.004  36.323  1.00  0.00     0.049 A 
ATOM     64  H   UNL A   1      41.469  30.848  34.558  1.00  0.00     0.167 HD
ATOM     65  C   UNL A   1      39.608  32.948  34.970  1.00  0.00     0.074 A 
ATOM     66  C   UNL A   1      38.518  33.877  34.749  1.00  0.00     0.031 C 
ATOM     67  C   UNL A   1      40.368  32.918  36.093  1.00  0.00     0.031 A 
BRANCH  54  68
ATOM     68  C   UNL A   1      44.765  28.568  36.051  1.00  0.00    -0.014 A 
ATOM     69  C   UNL A   1      46.079  29.066  35.966  1.00  0.00     0.010 A 
ATOM     70  C   UNL A   1      44.512  27.446  36.861  1.00  0.00     0.010 A 
ATOM     71  C   UNL A   1      47.121  28.434  36.650  1.00  0.00     0.020 A 
ATOM     72  C   UNL A   1      45.546  26.829  37.570  1.00  0.00     0.020 A 
ATOM     73  C   UNL A   1      46.848  27.318  37.446  1.00  0.00     0.054 A 
BRANCH  73  74
ATOM     74  S   UNL A   1      48.217  26.531  38.340  1.00  0.00     0.124 S 
ATOM     75  O   UNL A   1      48.051  27.076  39.686  1.00  0.00    -0.237 OA
ATOM     76  O   UNL A   1      47.916  25.109  38.196  1.00  0.00    -0.237 OA
ATOM     77  O   UNL A   1      49.407  26.989  37.626  1.00  0.00    -0.744 OA
ENDBRANCH  73  74
ENDBRANCH  54  68
BRANCH  55  78
ATOM     78  C   UNL A   1      37.273  32.715  30.884  1.00  0.00    -0.014 A 
ATOM     79  C   UNL A   1      37.542  33.670  29.889  1.00  0.00     0.010 A 
ATOM     80  C   UNL A   1      35.937  32.360  31.145  1.00  0.00     0.010 A 
ATOM     81  C   UNL A   1      36.495  34.269  29.180  1.00  0.00     0.020 A 
ATOM     82  C   UNL A   1      34.890  32.931  30.419  1.00  0.00     0.020 A 
ATOM     83  C   UNL A   1      35.175  33.890  29.448  1.00  0.00     0.054 A 
BRANCH  83  84
ATOM     84  S   UNL A   1      33.836  34.641  28.482  1.00  0.00     0.124 S 
ATOM     85  O   UNL A   1      32.694  33.807  28.844  1.00  0.00    -0.237 OA
ATOM     86  O   UNL A   1      33.811  36.009  28.992  1.00  0.00    -0.237 OA
ATOM     87  O   UNL A   1      34.296  34.508  27.100  1.00  0.00    -0.744 OA
ENDBRANCH  83  84
ENDBRANCH  55  78
BRANCH  67  88
ATOM     88  C   UNL A   1      40.073  33.940  37.161  1.00  0.00    -0.014 A 
ATOM     89  C   UNL A   1      40.637  35.228  37.118  1.00  0.00     0.010 A 
ATOM     90  C   UNL A   1      39.175  33.622  38.196  1.00  0.00     0.010 A 
ATOM     91  C   UNL A   1      40.336  36.165  38.110  1.00  0.00     0.020 A 
ATOM     92  C   UNL A   1      38.845  34.567  39.171  1.00  0.00     0.020 A 
ATOM     93  C   UNL A   1      39.442  35.828  39.130  1.00  0.00     0.054 A 
BRANCH  93  94
ATOM     94  S   UNL A   1      39.040  37.076  40.383  1.00  0.00     0.124 S 
ATOM     95  O   UNL A   1      38.526  38.173  39.566  1.00  0.00    -0.237 OA
ATOM     96  O   UNL A   1      38.050  36.391  41.211  1.00  0.00    -0.237 OA
ATOM     97  O   UNL A   1      40.320  37.336  41.038  1.00  0.00    -0.744 OA
ENDBRANCH  93  94
ENDBRANCH  67  88
ENDBRANCH  41  42
ENDBRANCH  34  36
ENDBRANCH  33  34
ENDBRANCH  32  33
ENDBRANCH  31  32
ENDBRANCH  30  31
ENDBRANCH   1  30
TORSDOF 23
ENDMDL
MODEL 3
REMARK VINA RESULT:     -10.5      4.951      7.815
REMARK SMILES Cc1cc(=O)oc2cc(O[C@@H](C)C(=O)N[C@H](CC(C)C)C(=O)OCCOCCOC(=O)c3ccc(-c4c5nc(c(-c6ccc(S(=O)(=O)[O-])cc6)c6ccc([nH]6)c(-c6ccc(S(=O)(=O)[O-])cc6)c6nc(c(-c7ccc(S(=O)(=O)[O-])cc7)c7ccc4[nH]7)C=C6)C=C5)cc3)ccc12
REMARK SMILES IDX 25 1 24 2 23 3 21 4 22 5 16 6 15 7 13 8 14 9 11 11 12 12
REMARK SMILES IDX 10 13 9 14 1 15 2 16 3 17 94 18 4 19 7 20 93 21 5 22 6 23
REMARK SMILES IDX 8 24 92 25 17 26 18 27 19 28 20 29 26 30 27 31 28 32 29 33
REMARK SMILES IDX 30 34 31 35 32 36 33 37 91 38 34 39 90 40 35 41 36 42 37 43
REMARK SMILES IDX 84 44 38 45 89 46 83 47 85 48 39 49 88 50 82 51 81 52 40 54
REMARK SMILES IDX 70 55 51 56 69 57 52 58 55 59 68 60 86 61 53 62 54 63 67 65
REMARK SMILES IDX 87 66 56 67 41 68 42 69 50 70 43 71 49 72 44 73 45 74 46 75
REMARK SMILES IDX 47 76 48 77 71 78 72 79 80 80 73 81 79 82 74 83 75 84 76 85
REMARK SMILES IDX 77 86 78 87 57 88 58 89 66 90 59 91 65 92 60 93 61 94 62 95
REMARK SMILES IDX 63 96 64 97
REMARK H PARENT 15 10 85 53 55 64
REMARK Flexibility Score: inf
ROOT
ATOM      1  C   UNL A   1      40.042  22.279  27.008  1.00  0.00     0.202 C 
ENDROOT
BRANCH   1   2
ATOM      2  C   UNL A   1      39.484  21.114  26.037  1.00  0.00     0.261 C 
BRANCH   2   3
ATOM      3  O   UNL A   1      38.176  21.299  25.255  1.00  0.00    -0.462 OA
BRANCH   3   4
ATOM      4  C   UNL A   1      37.093  20.507  24.960  1.00  0.00     0.328 C 
ATOM      5  O   UNL A   1      37.174  19.293  24.748  1.00  0.00    -0.250 OA
BRANCH   4   6
ATOM      6  C   UNL A   1      35.711  20.846  25.426  1.00  0.00     0.192 C 
BRANCH   6   7
ATOM      7  N   UNL A   1      34.907  19.672  25.321  1.00  0.00    -0.339 N 
ATOM      8  C   UNL A   1      33.814  19.672  24.468  1.00  0.00     0.261 C 
ATOM      9  O   UNL A   1      33.506  18.562  24.009  1.00  0.00    -0.271 OA
ATOM     10  H   UNL A   1      35.126  18.871  25.849  1.00  0.00     0.164 HD
BRANCH   8  11
ATOM     11  C   UNL A   1      32.849  21.020  24.101  1.00  0.00     0.258 C 
ATOM     12  C   UNL A   1      32.099  21.452  25.365  1.00  0.00     0.064 C 
BRANCH  11  13
ATOM     13  O   UNL A   1      32.269  21.734  22.995  1.00  0.00    -0.481 OA
BRANCH  13  14
ATOM     14  C   UNL A   1      32.122  23.058  22.723  1.00  0.00     0.124 A 
ATOM     15  C   UNL A   1      30.060  27.819  23.651  1.00  0.00     0.045 C 
ATOM     16  C   UNL A   1      31.329  27.303  23.012  1.00  0.00    -0.033 A 
ATOM     17  C   UNL A   1      32.368  28.066  22.666  1.00  0.00     0.098 A 
ATOM     18  C   UNL A   1      31.514  25.877  22.789  1.00  0.00     0.021 A 
ATOM     19  C   UNL A   1      33.593  27.509  22.055  1.00  0.00     0.336 A 
ATOM     20  C   UNL A   1      32.598  25.327  22.083  1.00  0.00     0.142 A 
ATOM     21  C   UNL A   1      30.687  24.999  23.394  1.00  0.00     0.016 A 
ATOM     22  O   UNL A   1      34.595  28.207  21.945  1.00  0.00    -0.246 OA
ATOM     23  O   UNL A   1      33.553  26.212  21.555  1.00  0.00    -0.423 OA
ATOM     24  C   UNL A   1      32.892  23.927  21.998  1.00  0.00     0.094 A 
ATOM     25  C   UNL A   1      30.988  23.648  23.285  1.00  0.00     0.047 A 
ENDBRANCH  13  14
ENDBRANCH  11  13
ENDBRANCH   8  11
ENDBRANCH   6   7
BRANCH   6  26
ATOM     26  C   UNL A   1      35.491  22.231  24.681  1.00  0.00     0.040 C 
BRANCH  26  27
ATOM     27  C   UNL A   1      35.509  23.572  25.522  1.00  0.00    -0.015 C 
ATOM     28  C   UNL A   1      36.868  24.148  25.926  1.00  0.00     0.007 C 
ATOM     29  C   UNL A   1      34.734  24.734  24.842  1.00  0.00     0.007 C 
ENDBRANCH  26  27
ENDBRANCH   6  26
ENDBRANCH   4   6
ENDBRANCH   3   4
ENDBRANCH   2   3
ENDBRANCH   1   2
BRANCH   1  30
ATOM     30  O   UNL A   1      41.481  22.358  27.048  1.00  0.00    -0.374 OA
BRANCH  30  31
ATOM     31  C   UNL A   1      42.373  22.537  25.920  1.00  0.00     0.202 C 
BRANCH  31  32
ATOM     32  C   UNL A   1      43.310  23.740  25.599  1.00  0.00     0.261 C 
BRANCH  32  33
ATOM     33  O   UNL A   1      43.935  24.352  26.719  1.00  0.00    -0.460 OA
BRANCH  33  34
ATOM     34  C   UNL A   1      44.131  25.680  26.577  1.00  0.00     0.338 C 
ATOM     35  O   UNL A   1      44.784  26.233  25.729  1.00  0.00    -0.246 OA
BRANCH  34  36
ATOM     36  C   UNL A   1      43.195  26.379  27.478  1.00  0.00     0.060 A 
ATOM     37  C   UNL A   1      43.468  27.734  27.654  1.00  0.00     0.016 A 
ATOM     38  C   UNL A   1      42.136  25.760  28.152  1.00  0.00     0.016 A 
ATOM     39  C   UNL A   1      42.775  28.450  28.611  1.00  0.00     0.010 A 
ATOM     40  C   UNL A   1      41.424  26.494  29.110  1.00  0.00     0.010 A 
ATOM     41  C   UNL A   1      41.796  27.821  29.393  1.00  0.00    -0.014 A 
BRANCH  41  42
ATOM     42  C   UNL A   1      41.360  28.534  30.618  1.00  0.00     0.031 A 
ATOM     43  C   UNL A   1      42.222  28.454  31.852  1.00  0.00     0.074 A 
ATOM     44  C   UNL A   1      40.332  29.402  30.563  1.00  0.00     0.049 A 
ATOM     45  N   UNL A   1      42.145  29.146  32.959  1.00  0.00    -0.248 NA
ATOM     46  C   UNL A   1      43.328  27.481  31.832  1.00  0.00     0.031 C 
ATOM     47  C   UNL A   1      39.474  29.618  29.398  1.00  0.00     0.029 A 
ATOM     48  N   UNL A   1      39.874  30.301  31.491  1.00  0.00    -0.354 N 
ATOM     49  C   UNL A   1      43.189  28.697  33.761  1.00  0.00     0.074 A 
ATOM     50  C   UNL A   1      43.857  27.641  33.036  1.00  0.00     0.031 C 
ATOM     51  C   UNL A   1      38.619  30.618  29.666  1.00  0.00     0.029 A 
ATOM     52  C   UNL A   1      38.842  31.086  31.033  1.00  0.00     0.049 A 
ATOM     53  H   UNL A   1      40.248  30.377  32.399  1.00  0.00     0.167 HD
ATOM     54  C   UNL A   1      43.571  29.135  34.984  1.00  0.00     0.031 A 
ATOM     55  C   UNL A   1      38.156  32.071  31.645  1.00  0.00     0.031 A 
ATOM     56  C   UNL A   1      42.902  30.182  35.708  1.00  0.00     0.049 A 
ATOM     57  C   UNL A   1      38.540  32.475  33.042  1.00  0.00     0.074 A 
ATOM     58  C   UNL A   1      43.206  30.693  36.957  1.00  0.00     0.029 A 
ATOM     59  N   UNL A   1      41.793  30.878  35.250  1.00  0.00    -0.354 N 
ATOM     60  N   UNL A   1      39.533  32.041  33.783  1.00  0.00    -0.248 NA
ATOM     61  C   UNL A   1      37.718  33.511  33.681  1.00  0.00     0.031 C 
ATOM     62  C   UNL A   1      42.240  31.650  37.284  1.00  0.00     0.029 A 
ATOM     63  C   UNL A   1      41.379  31.791  36.206  1.00  0.00     0.049 A 
ATOM     64  H   UNL A   1      41.361  30.743  34.375  1.00  0.00     0.167 HD
ATOM     65  C   UNL A   1      39.469  32.771  34.966  1.00  0.00     0.074 A 
ATOM     66  C   UNL A   1      38.354  33.686  34.832  1.00  0.00     0.031 C 
ATOM     67  C   UNL A   1      40.263  32.691  36.063  1.00  0.00     0.031 A 
BRANCH  54  68
ATOM     68  C   UNL A   1      44.748  28.454  35.634  1.00  0.00    -0.014 A 
ATOM     69  C   UNL A   1      44.582  27.311  36.439  1.00  0.00     0.010 A 
ATOM     70  C   UNL A   1      46.046  28.944  35.405  1.00  0.00     0.010 A 
ATOM     71  C   UNL A   1      45.690  26.695  37.029  1.00  0.00     0.020 A 
ATOM     72  C   UNL A   1      47.158  28.313  35.968  1.00  0.00     0.020 A 
ATOM     73  C   UNL A   1      46.971  27.201  36.791  1.00  0.00     0.054 A 
BRANCH  73  74
ATOM     74  S   UNL A   1      48.391  26.367  37.552  1.00  0.00     0.124 S 
ATOM     75  O   UNL A   1      48.365  25.064  36.890  1.00  0.00    -0.237 OA
ATOM     76  O   UNL A   1      49.506  27.236  37.184  1.00  0.00    -0.237 OA
ATOM     77  O   UNL A   1      48.062  26.349  38.975  1.00  0.00    -0.744 OA
ENDBRANCH  73  74
ENDBRANCH  54  68
BRANCH  55  78
ATOM     78  C   UNL A   1      37.019  32.727  30.941  1.00  0.00    -0.014 A 
ATOM     79  C   UNL A   1      37.236  33.770  30.024  1.00  0.00     0.010 A 
ATOM     80  C   UNL A   1      35.701  32.303  31.192  1.00  0.00     0.010 A 
ATOM     81  C   UNL A   1      36.154  34.385  29.383  1.00  0.00     0.020 A 
ATOM     82  C   UNL A   1      34.622  32.892  30.532  1.00  0.00     0.020 A 
ATOM     83  C   UNL A   1      34.855  33.937  29.639  1.00  0.00     0.054 A 
BRANCH  83  84
ATOM     84  S   UNL A   1      33.472  34.714  28.757  1.00  0.00     0.124 S 
ATOM     85  O   UNL A   1      34.110  35.881  28.157  1.00  0.00    -0.237 OA
ATOM     86  O   UNL A   1      33.064  33.663  27.828  1.00  0.00    -0.237 OA
ATOM     87  O   UNL A   1      32.510  35.003  29.820  1.00  0.00    -0.744 OA
ENDBRANCH  83  84
ENDBRANCH  55  78
BRANCH  67  88
ATOM     88  C   UNL A   1      39.979  33.642  37.198  1.00  0.00    -0.014 A 
ATOM     89  C   UNL A   1      40.455  34.965  37.182  1.00  0.00     0.010 A 
ATOM     90  C   UNL A   1      39.178  33.216  38.273  1.00  0.00     0.010 A 
ATOM     91  C   UNL A   1      40.165  35.833  38.239  1.00  0.00     0.020 A 
ATOM     92  C   UNL A   1      38.857  34.091  39.315  1.00  0.00     0.020 A 
ATOM     93  C   UNL A   1      39.367  35.390  39.298  1.00  0.00     0.054 A 
BRANCH  93  94
ATOM     94  S   UNL A   1      38.975  36.549  40.636  1.00  0.00     0.124 S 
ATOM     95  O   UNL A   1      40.261  36.674  41.317  1.00  0.00    -0.237 OA
ATOM     96  O   UNL A   1      38.528  37.736  39.910  1.00  0.00    -0.237 OA
ATOM     97  O   UNL A   1      37.932  35.862  41.396  1.00  0.00    -0.744 OA
ENDBRANCH  93  94
ENDBRANCH  67  88
ENDBRANCH  41  42
ENDBRANCH  34  36
ENDBRANCH  33  34
ENDBRANCH  32  33
ENDBRANCH  31  32
ENDBRANCH  30  31
ENDBRANCH   1  30
TORSDOF 23
ENDMDL
