MODEL 1
REMARK VINA RESULT:      -8.9      0.000      0.000
REMARK SMILES C=CCOC(=O)N[C@H](Cc1ccccc1)C(=O)OCCOCCOC(=O)c1ccc(-c2c3nc(c(-c4ccc(S(=O)(=O)[O-])cc4)c4ccc([nH]4)c(-c4ccc(S(=O)(=O)[O-])cc4)c4nc(c(-c5ccc(S(=O)(=O)[O-])cc5)c5ccc2[nH]5)C=C4)C=C3)cc1
REMARK SMILES IDX 20 1 19 2 18 3 16 4 17 5 8 6 7 7 5 8 6 9 4 11 3 12 2 13 1 14
REMARK SMILES IDX 9 15 10 16 11 17 15 18 12 19 14 20 13 21 21 22 22 23 23 24
REMARK SMILES IDX 24 25 25 26 26 27 27 28 28 29 86 30 29 31 85 32 30 33 31 34
REMARK SMILES IDX 32 35 79 36 33 37 84 38 78 39 80 40 34 41 83 42 77 43 76 44
REMARK SMILES IDX 35 46 65 47 46 48 64 49 47 50 50 51 63 52 81 53 48 54 49 55
REMARK SMILES IDX 62 57 82 58 51 59 36 60 37 61 45 62 38 63 44 64 39 65 40 66
REMARK SMILES IDX 41 67 42 68 43 69 66 70 67 71 75 72 68 73 74 74 69 75 70 76
REMARK SMILES IDX 71 77 72 78 73 79 52 80 53 81 61 82 54 83 60 84 55 85 56 86
REMARK SMILES IDX 57 87 58 88 59 89
REMARK H PARENT 7 10 80 45 50 56
REMARK Flexibility Score: inf
ROOT
ATOM      1  C   UNL A   1      33.408  23.491  22.367  1.00  0.00     0.202 C 
ENDROOT
BRANCH   1   2
ATOM      2  C   UNL A   1      33.024  24.960  22.588  1.00  0.00     0.261 C 
BRANCH   2   3
ATOM      3  O   UNL A   1      31.738  25.112  23.226  1.00  0.00    -0.462 OA
BRANCH   3   4
ATOM      4  C   UNL A   1      31.774  25.465  24.537  1.00  0.00     0.329 C 
ATOM      5  O   UNL A   1      32.200  24.742  25.438  1.00  0.00    -0.250 OA
BRANCH   4   6
ATOM      6  C   UNL A   1      31.187  26.850  24.850  1.00  0.00     0.199 C 
BRANCH   6   7
ATOM      7  N   UNL A   1      31.788  27.776  23.877  1.00  0.00    -0.308 N 
ATOM      8  C   UNL A   1      31.225  28.526  22.892  1.00  0.00     0.408 C 
ATOM      9  O   UNL A   1      31.928  29.244  22.186  1.00  0.00    -0.225 OA
ATOM     10  H   UNL A   1      32.765  27.867  23.951  1.00  0.00     0.168 HD
BRANCH   8  11
ATOM     11  O   UNL A   1      29.901  28.324  22.727  1.00  0.00    -0.445 OA
BRANCH  11  12
ATOM     12  C   UNL A   1      29.177  29.461  22.241  1.00  0.00     0.262 C 
BRANCH  12  13
ATOM     13  C   UNL A   1      27.869  29.605  22.946  1.00  0.00     0.006 C 
ATOM     14  C   UNL A   1      27.122  28.565  23.337  1.00  0.00     0.007 C 
ENDBRANCH  12  13
ENDBRANCH  11  12
ENDBRANCH   8  11
ENDBRANCH   6   7
BRANCH   6  15
ATOM     15  C   UNL A   1      31.127  27.308  26.321  1.00  0.00     0.072 C 
BRANCH  15  16
ATOM     16  C   UNL A   1      32.190  28.297  26.790  1.00  0.00    -0.045 A 
ATOM     17  C   UNL A   1      31.841  29.642  26.997  1.00  0.00     0.004 A 
ATOM     18  C   UNL A   1      33.543  27.949  26.873  1.00  0.00     0.004 A 
ATOM     19  C   UNL A   1      32.824  30.617  27.188  1.00  0.00     0.000 A 
ATOM     20  C   UNL A   1      34.529  28.930  27.023  1.00  0.00     0.000 A 
ATOM     21  C   UNL A   1      34.170  30.266  27.164  1.00  0.00     0.000 A 
ENDBRANCH  15  16
ENDBRANCH   6  15
ENDBRANCH   4   6
ENDBRANCH   3   4
ENDBRANCH   2   3
ENDBRANCH   1   2
BRANCH   1  22
ATOM     22  O   UNL A   1      34.061  22.797  23.430  1.00  0.00    -0.374 OA
BRANCH  22  23
ATOM     23  C   UNL A   1      34.929  23.543  24.271  1.00  0.00     0.202 C 
BRANCH  23  24
ATOM     24  C   UNL A   1      36.387  23.090  24.431  1.00  0.00     0.261 C 
BRANCH  24  25
ATOM     25  O   UNL A   1      37.189  23.984  25.203  1.00  0.00    -0.460 OA
BRANCH  25  26
ATOM     26  C   UNL A   1      38.219  23.371  25.836  1.00  0.00     0.338 C 
ATOM     27  O   UNL A   1      38.594  22.219  25.699  1.00  0.00    -0.246 OA
BRANCH  26  28
ATOM     28  C   UNL A   1      38.968  24.368  26.614  1.00  0.00     0.060 A 
ATOM     29  C   UNL A   1      38.644  24.493  27.969  1.00  0.00     0.016 A 
ATOM     30  C   UNL A   1      39.927  25.191  26.020  1.00  0.00     0.016 A 
ATOM     31  C   UNL A   1      39.244  25.487  28.730  1.00  0.00     0.010 A 
ATOM     32  C   UNL A   1      40.525  26.192  26.785  1.00  0.00     0.010 A 
ATOM     33  C   UNL A   1      40.155  26.366  28.129  1.00  0.00    -0.014 A 
BRANCH  33  34
ATOM     34  C   UNL A   1      40.601  27.557  28.883  1.00  0.00     0.031 A 
ATOM     35  C   UNL A   1      41.979  27.559  29.484  1.00  0.00     0.074 A 
ATOM     36  C   UNL A   1      39.800  28.632  28.978  1.00  0.00     0.049 A 
ATOM     37  N   UNL A   1      42.583  28.499  30.160  1.00  0.00    -0.248 NA
ATOM     38  C   UNL A   1      42.783  26.339  29.297  1.00  0.00     0.031 C 
ATOM     39  C   UNL A   1      38.462  28.741  28.396  1.00  0.00     0.029 A 
ATOM     40  N   UNL A   1      40.000  29.840  29.591  1.00  0.00    -0.354 N 
ATOM     41  C   UNL A   1      43.832  27.984  30.486  1.00  0.00     0.074 A 
ATOM     42  C   UNL A   1      43.887  26.636  29.965  1.00  0.00     0.031 C 
ATOM     43  C   UNL A   1      37.961  29.956  28.678  1.00  0.00     0.029 A 
ATOM     44  C   UNL A   1      38.929  30.694  29.486  1.00  0.00     0.049 A 
ATOM     45  H   UNL A   1      40.832  30.075  30.062  1.00  0.00     0.167 HD
ATOM     46  C   UNL A   1      44.843  28.586  31.155  1.00  0.00     0.031 A 
ATOM     47  C   UNL A   1      38.748  31.926  29.998  1.00  0.00     0.031 A 
ATOM     48  C   UNL A   1      44.765  29.923  31.679  1.00  0.00     0.049 A 
ATOM     49  C   UNL A   1      39.863  32.550  30.793  1.00  0.00     0.074 A 
ATOM     50  C   UNL A   1      45.733  30.640  32.360  1.00  0.00     0.029 A 
ATOM     51  N   UNL A   1      43.648  30.742  31.588  1.00  0.00    -0.354 N 
ATOM     52  N   UNL A   1      41.052  32.063  31.067  1.00  0.00    -0.248 NA
ATOM     53  C   UNL A   1      39.620  33.892  31.336  1.00  0.00     0.031 C 
ATOM     54  C   UNL A   1      45.179  31.868  32.735  1.00  0.00     0.029 A 
ATOM     55  C   UNL A   1      43.891  31.947  32.227  1.00  0.00     0.049 A 
ATOM     56  H   UNL A   1      42.807  30.503  31.136  1.00  0.00     0.167 HD
ATOM     57  C   UNL A   1      41.707  33.052  31.793  1.00  0.00     0.074 A 
ATOM     58  C   UNL A   1      40.789  34.168  31.899  1.00  0.00     0.031 C 
ATOM     59  C   UNL A   1      42.957  33.041  32.322  1.00  0.00     0.031 A 
BRANCH  46  60
ATOM     60  C   UNL A   1      46.101  27.789  31.387  1.00  0.00    -0.014 A 
ATOM     61  C   UNL A   1      47.166  27.815  30.467  1.00  0.00     0.010 A 
ATOM     62  C   UNL A   1      46.233  27.027  32.562  1.00  0.00     0.010 A 
ATOM     63  C   UNL A   1      48.322  27.065  30.702  1.00  0.00     0.020 A 
ATOM     64  C   UNL A   1      47.399  26.300  32.815  1.00  0.00     0.020 A 
ATOM     65  C   UNL A   1      48.431  26.311  31.874  1.00  0.00     0.054 A 
BRANCH  65  66
ATOM     66  S   UNL A   1      49.953  25.368  32.164  1.00  0.00     0.124 S 
ATOM     67  O   UNL A   1      50.917  26.429  32.447  1.00  0.00    -0.237 OA
ATOM     68  O   UNL A   1      49.596  24.524  33.301  1.00  0.00    -0.237 OA
ATOM     69  O   UNL A   1      50.166  24.656  30.906  1.00  0.00    -0.744 OA
ENDBRANCH  65  66
ENDBRANCH  46  60
BRANCH  47  70
ATOM     70  C   UNL A   1      37.458  32.637  29.782  1.00  0.00    -0.014 A 
ATOM     71  C   UNL A   1      37.156  33.223  28.541  1.00  0.00     0.010 A 
ATOM     72  C   UNL A   1      36.514  32.719  30.824  1.00  0.00     0.010 A 
ATOM     73  C   UNL A   1      35.942  33.891  28.350  1.00  0.00     0.020 A 
ATOM     74  C   UNL A   1      35.288  33.360  30.628  1.00  0.00     0.020 A 
ATOM     75  C   UNL A   1      35.015  33.952  29.394  1.00  0.00     0.054 A 
BRANCH  75  76
ATOM     76  S   UNL A   1      33.427  34.781  29.106  1.00  0.00     0.124 S 
ATOM     77  O   UNL A   1      32.808  33.914  28.108  1.00  0.00    -0.237 OA
ATOM     78  O   UNL A   1      32.815  34.758  30.433  1.00  0.00    -0.237 OA
ATOM     79  O   UNL A   1      33.814  36.107  28.630  1.00  0.00    -0.744 OA
ENDBRANCH  75  76
ENDBRANCH  47  70
BRANCH  59  80
ATOM     80  C   UNL A   1      43.416  34.286  33.034  1.00  0.00    -0.014 A 
ATOM     81  C   UNL A   1      43.300  34.416  34.429  1.00  0.00     0.010 A 
ATOM     82  C   UNL A   1      44.026  35.318  32.296  1.00  0.00     0.010 A 
ATOM     83  C   UNL A   1      43.754  35.572  35.069  1.00  0.00     0.020 A 
ATOM     84  C   UNL A   1      44.510  36.460  32.937  1.00  0.00     0.020 A 
ATOM     85  C   UNL A   1      44.357  36.586  34.318  1.00  0.00     0.054 A 
BRANCH  85  86
ATOM     86  S   UNL A   1      44.976  38.057  35.179  1.00  0.00     0.124 S 
ATOM     87  O   UNL A   1      46.422  37.893  35.059  1.00  0.00    -0.237 OA
ATOM     88  O   UNL A   1      44.401  39.149  34.399  1.00  0.00    -0.237 OA
ATOM     89  O   UNL A   1      44.442  37.918  36.533  1.00  0.00    -0.744 OA
ENDBRANCH  85  86
ENDBRANCH  59  80
ENDBRANCH  33  34
ENDBRANCH  26  28
ENDBRANCH  25  26
ENDBRANCH  24  25
ENDBRANCH  23  24
ENDBRANCH  22  23
ENDBRANCH   1  22
TORSDOF 23
ENDMDL
MODEL 2
REMARK VINA RESULT:      -8.8      3.676      9.418
REMARK SMILES C=CCOC(=O)N[C@H](Cc1ccccc1)C(=O)OCCOCCOC(=O)c1ccc(-c2c3nc(c(-c4ccc(S(=O)(=O)[O-])cc4)c4ccc([nH]4)c(-c4ccc(S(=O)(=O)[O-])cc4)c4nc(c(-c5ccc(S(=O)(=O)[O-])cc5)c5ccc2[nH]5)C=C4)C=C3)cc1
REMARK SMILES IDX 20 1 19 2 18 3 16 4 17 5 8 6 7 7 5 8 6 9 4 11 3 12 2 13 1 14
REMARK SMILES IDX 9 15 10 16 11 17 15 18 12 19 14 20 13 21 21 22 22 23 23 24
REMARK SMILES IDX 24 25 25 26 26 27 27 28 28 29 86 30 29 31 85 32 30 33 31 34
REMARK SMILES IDX 32 35 79 36 33 37 84 38 78 39 80 40 34 41 83 42 77 43 76 44
REMARK SMILES IDX 35 46 65 47 46 48 64 49 47 50 50 51 63 52 81 53 48 54 49 55
REMARK SMILES IDX 62 57 82 58 51 59 36 60 37 61 45 62 38 63 44 64 39 65 40 66
REMARK SMILES IDX 41 67 42 68 43 69 66 70 67 71 75 72 68 73 74 74 69 75 70 76
REMARK SMILES IDX 71 77 72 78 73 79 52 80 53 81 61 82 54 83 60 84 55 85 56 86
REMARK SMILES IDX 57 87 58 88 59 89
REMARK H PARENT 7 10 80 45 50 56
REMARK Flexibility Score: inf
ROOT
ATOM      1  C   UNL A   1      33.258  28.403  23.819  1.00  0.00     0.202 C 
ENDROOT
BRANCH   1   2
ATOM      2  C   UNL A   1      33.303  27.122  24.663  1.00  0.00     0.261 C 
BRANCH   2   3
ATOM      3  O   UNL A   1      33.971  26.034  23.991  1.00  0.00    -0.462 OA
BRANCH   3   4
ATOM      4  C   UNL A   1      34.163  24.916  24.738  1.00  0.00     0.329 C 
ATOM      5  O   UNL A   1      34.160  24.895  25.968  1.00  0.00    -0.250 OA
BRANCH   4   6
ATOM      6  C   UNL A   1      34.443  23.639  23.930  1.00  0.00     0.199 C 
BRANCH   6   7
ATOM      7  N   UNL A   1      33.716  22.557  24.613  1.00  0.00    -0.308 N 
ATOM      8  C   UNL A   1      32.434  22.123  24.483  1.00  0.00     0.408 C 
ATOM      9  O   UNL A   1      32.029  21.184  25.164  1.00  0.00    -0.225 OA
ATOM     10  H   UNL A   1      34.247  22.065  25.278  1.00  0.00     0.168 HD
BRANCH   8  11
ATOM     11  O   UNL A   1      31.678  22.861  23.644  1.00  0.00    -0.445 OA
BRANCH  11  12
ATOM     12  C   UNL A   1      30.793  23.786  24.289  1.00  0.00     0.262 C 
BRANCH  12  13
ATOM     13  C   UNL A   1      30.414  24.897  23.368  1.00  0.00     0.006 C 
ATOM     14  C   UNL A   1      29.883  26.054  23.783  1.00  0.00     0.007 C 
ENDBRANCH  12  13
ENDBRANCH  11  12
ENDBRANCH   8  11
ENDBRANCH   6   7
BRANCH   6  15
ATOM     15  C   UNL A   1      35.893  23.351  23.490  1.00  0.00     0.072 C 
BRANCH  15  16
ATOM     16  C   UNL A   1      36.869  22.875  24.562  1.00  0.00    -0.045 A 
ATOM     17  C   UNL A   1      37.441  23.810  25.440  1.00  0.00     0.004 A 
ATOM     18  C   UNL A   1      37.339  21.558  24.607  1.00  0.00     0.004 A 
ATOM     19  C   UNL A   1      38.512  23.456  26.267  1.00  0.00     0.000 A 
ATOM     20  C   UNL A   1      38.435  21.214  25.403  1.00  0.00     0.000 A 
ATOM     21  C   UNL A   1      39.032  22.167  26.221  1.00  0.00     0.000 A 
ENDBRANCH  15  16
ENDBRANCH   6  15
ENDBRANCH   4   6
ENDBRANCH   3   4
ENDBRANCH   2   3
ENDBRANCH   1   2
BRANCH   1  22
ATOM     22  O   UNL A   1      33.114  29.653  24.496  1.00  0.00    -0.374 OA
BRANCH  22  23
ATOM     23  C   UNL A   1      32.223  29.705  25.601  1.00  0.00     0.202 C 
BRANCH  23  24
ATOM     24  C   UNL A   1      32.468  30.740  26.709  1.00  0.00     0.261 C 
BRANCH  24  25
ATOM     25  O   UNL A   1      33.586  30.438  27.546  1.00  0.00    -0.460 OA
BRANCH  25  26
ATOM     26  C   UNL A   1      34.481  31.452  27.633  1.00  0.00     0.338 C 
ATOM     27  O   UNL A   1      34.264  32.645  27.512  1.00  0.00    -0.246 OA
BRANCH  26  28
ATOM     28  C   UNL A   1      35.772  30.916  28.086  1.00  0.00     0.060 A 
ATOM     29  C   UNL A   1      35.821  29.553  28.401  1.00  0.00     0.016 A 
ATOM     30  C   UNL A   1      36.891  31.736  28.245  1.00  0.00     0.016 A 
ATOM     31  C   UNL A   1      36.984  29.012  28.931  1.00  0.00     0.010 A 
ATOM     32  C   UNL A   1      38.057  31.191  28.782  1.00  0.00     0.010 A 
ATOM     33  C   UNL A   1      38.092  29.839  29.163  1.00  0.00    -0.014 A 
BRANCH  33  34
ATOM     34  C   UNL A   1      39.229  29.307  29.941  1.00  0.00     0.031 A 
ATOM     35  C   UNL A   1      39.406  29.759  31.364  1.00  0.00     0.074 A 
ATOM     36  C   UNL A   1      40.053  28.397  29.394  1.00  0.00     0.049 A 
ATOM     37  N   UNL A   1      40.313  29.407  32.235  1.00  0.00    -0.248 NA
ATOM     38  C   UNL A   1      38.430  30.739  31.873  1.00  0.00     0.031 C 
ATOM     39  C   UNL A   1      39.940  27.868  28.035  1.00  0.00     0.029 A 
ATOM     40  N   UNL A   1      41.142  27.752  29.919  1.00  0.00    -0.354 N 
ATOM     41  C   UNL A   1      40.023  30.124  33.391  1.00  0.00     0.074 A 
ATOM     42  C   UNL A   1      38.879  30.958  33.099  1.00  0.00     0.031 C 
ATOM     43  C   UNL A   1      40.922  26.972  27.833  1.00  0.00     0.029 A 
ATOM     44  C   UNL A   1      41.747  26.891  29.035  1.00  0.00     0.049 A 
ATOM     45  H   UNL A   1      41.459  27.891  30.840  1.00  0.00     0.167 HD
ATOM     46  C   UNL A   1      40.654  30.083  34.587  1.00  0.00     0.031 A 
ATOM     47  C   UNL A   1      42.853  26.137  29.181  1.00  0.00     0.031 A 
ATOM     48  C   UNL A   1      41.800  29.256  34.855  1.00  0.00     0.049 A 
ATOM     49  C   UNL A   1      43.575  26.156  30.502  1.00  0.00     0.074 A 
ATOM     50  C   UNL A   1      42.510  29.123  36.035  1.00  0.00     0.029 A 
ATOM     51  N   UNL A   1      42.411  28.428  33.923  1.00  0.00    -0.354 N 
ATOM     52  N   UNL A   1      43.272  26.816  31.596  1.00  0.00    -0.248 NA
ATOM     53  C   UNL A   1      44.778  25.322  30.613  1.00  0.00     0.031 C 
ATOM     54  C   UNL A   1      43.587  28.264  35.798  1.00  0.00     0.029 A 
ATOM     55  C   UNL A   1      43.508  27.804  34.492  1.00  0.00     0.049 A 
ATOM     56  H   UNL A   1      42.109  28.303  32.995  1.00  0.00     0.167 HD
ATOM     57  C   UNL A   1      44.233  26.455  32.534  1.00  0.00     0.074 A 
ATOM     58  C   UNL A   1      45.114  25.507  31.883  1.00  0.00     0.031 C 
ATOM     59  C   UNL A   1      44.373  26.866  33.820  1.00  0.00     0.031 A 
BRANCH  46  60
ATOM     60  C   UNL A   1      40.138  30.983  35.681  1.00  0.00    -0.014 A 
ATOM     61  C   UNL A   1      40.923  32.030  36.200  1.00  0.00     0.010 A 
ATOM     62  C   UNL A   1      38.833  30.799  36.173  1.00  0.00     0.010 A 
ATOM     63  C   UNL A   1      40.425  32.850  37.218  1.00  0.00     0.020 A 
ATOM     64  C   UNL A   1      38.321  31.636  37.169  1.00  0.00     0.020 A 
ATOM     65  C   UNL A   1      39.127  32.647  37.696  1.00  0.00     0.054 A 
BRANCH  65  66
ATOM     66  S   UNL A   1      38.500  33.743  38.998  1.00  0.00     0.124 S 
ATOM     67  O   UNL A   1      39.285  33.320  40.154  1.00  0.00    -0.237 OA
ATOM     68  O   UNL A   1      38.815  35.071  38.477  1.00  0.00    -0.237 OA
ATOM     69  O   UNL A   1      37.075  33.425  39.064  1.00  0.00    -0.744 OA
ENDBRANCH  65  66
ENDBRANCH  46  60
BRANCH  47  70
ATOM     70  C   UNL A   1      43.345  25.313  28.042  1.00  0.00    -0.014 A 
ATOM     71  C   UNL A   1      42.883  24.000  27.848  1.00  0.00     0.010 A 
ATOM     72  C   UNL A   1      44.274  25.852  27.131  1.00  0.00     0.010 A 
ATOM     73  C   UNL A   1      43.353  23.236  26.776  1.00  0.00     0.020 A 
ATOM     74  C   UNL A   1      44.724  25.101  26.042  1.00  0.00     0.020 A 
ATOM     75  C   UNL A   1      44.268  23.792  25.878  1.00  0.00     0.054 A 
BRANCH  75  76
ATOM     76  S   UNL A   1      44.826  22.797  24.467  1.00  0.00     0.124 S 
ATOM     77  O   UNL A   1      45.393  21.625  25.127  1.00  0.00    -0.237 OA
ATOM     78  O   UNL A   1      43.585  22.572  23.731  1.00  0.00    -0.237 OA
ATOM     79  O   UNL A   1      45.791  23.666  23.796  1.00  0.00    -0.744 OA
ENDBRANCH  75  76
ENDBRANCH  47  70
BRANCH  59  80
ATOM     80  C   UNL A   1      45.502  26.268  34.617  1.00  0.00    -0.014 A 
ATOM     81  C   UNL A   1      45.306  25.138  35.429  1.00  0.00     0.010 A 
ATOM     82  C   UNL A   1      46.793  26.817  34.502  1.00  0.00     0.010 A 
ATOM     83  C   UNL A   1      46.375  24.588  36.141  1.00  0.00     0.020 A 
ATOM     84  C   UNL A   1      47.869  26.250  35.187  1.00  0.00     0.020 A 
ATOM     85  C   UNL A   1      47.650  25.148  36.014  1.00  0.00     0.054 A 
BRANCH  85  86
ATOM     86  S   UNL A   1      49.028  24.388  36.916  1.00  0.00     0.124 S 
ATOM     87  O   UNL A   1      48.839  24.920  38.263  1.00  0.00    -0.237 OA
ATOM     88  O   UNL A   1      48.763  22.961  36.761  1.00  0.00    -0.237 OA
ATOM     89  O   UNL A   1      50.214  24.876  36.214  1.00  0.00    -0.744 OA
ENDBRANCH  85  86
ENDBRANCH  59  80
ENDBRANCH  33  34
ENDBRANCH  26  28
ENDBRANCH  25  26
ENDBRANCH  24  25
ENDBRANCH  23  24
ENDBRANCH  22  23
ENDBRANCH   1  22
TORSDOF 23
ENDMDL
MODEL 3
REMARK VINA RESULT:      -8.6      4.430     10.119
REMARK SMILES C=CCOC(=O)N[C@H](Cc1ccccc1)C(=O)OCCOCCOC(=O)c1ccc(-c2c3nc(c(-c4ccc(S(=O)(=O)[O-])cc4)c4ccc([nH]4)c(-c4ccc(S(=O)(=O)[O-])cc4)c4nc(c(-c5ccc(S(=O)(=O)[O-])cc5)c5ccc2[nH]5)C=C4)C=C3)cc1
REMARK SMILES IDX 20 1 19 2 18 3 16 4 17 5 8 6 7 7 5 8 6 9 4 11 3 12 2 13 1 14
REMARK SMILES IDX 9 15 10 16 11 17 15 18 12 19 14 20 13 21 21 22 22 23 23 24
REMARK SMILES IDX 24 25 25 26 26 27 27 28 28 29 86 30 29 31 85 32 30 33 31 34
REMARK SMILES IDX 32 35 79 36 33 37 84 38 78 39 80 40 34 41 83 42 77 43 76 44
REMARK SMILES IDX 35 46 65 47 46 48 64 49 47 50 50 51 63 52 81 53 48 54 49 55
REMARK SMILES IDX 62 57 82 58 51 59 36 60 37 61 45 62 38 63 44 64 39 65 40 66
REMARK SMILES IDX 41 67 42 68 43 69 66 70 67 71 75 72 68 73 74 74 69 75 70 76
REMARK SMILES IDX 71 77 72 78 73 79 52 80 53 81 61 82 54 83 60 84 55 85 56 86
REMARK SMILES IDX 57 87 58 88 59 89
REMARK H PARENT 7 10 80 45 50 56
REMARK Flexibility Score: inf
ROOT
ATOM      1  C   UNL A   1      36.622  22.539  23.961  1.00  0.00     0.202 C 
ENDROOT
BRANCH   1   2
ATOM      2  C   UNL A   1      35.129  22.512  24.313  1.00  0.00     0.261 C 
BRANCH   2   3
ATOM      3  O   UNL A   1      34.885  22.656  25.728  1.00  0.00    -0.462 OA
BRANCH   3   4
ATOM      4  C   UNL A   1      33.946  21.822  26.247  1.00  0.00     0.329 C 
ATOM      5  O   UNL A   1      34.109  21.138  27.256  1.00  0.00    -0.250 OA
BRANCH   4   6
ATOM      6  C   UNL A   1      32.637  21.743  25.444  1.00  0.00     0.199 C 
BRANCH   6   7
ATOM      7  N   UNL A   1      31.553  21.979  26.410  1.00  0.00    -0.308 N 
ATOM      8  C   UNL A   1      30.686  23.017  26.543  1.00  0.00     0.408 C 
ATOM      9  O   UNL A   1      29.842  23.006  27.436  1.00  0.00    -0.225 OA
ATOM     10  H   UNL A   1      31.435  21.262  27.074  1.00  0.00     0.168 HD
BRANCH   8  11
ATOM     11  O   UNL A   1      30.912  24.043  25.696  1.00  0.00    -0.445 OA
BRANCH  11  12
ATOM     12  C   UNL A   1      31.455  25.219  26.308  1.00  0.00     0.262 C 
BRANCH  12  13
ATOM     13  C   UNL A   1      31.158  26.434  25.494  1.00  0.00     0.006 C 
ATOM     14  C   UNL A   1      31.191  26.453  24.155  1.00  0.00     0.007 C 
ENDBRANCH  12  13
ENDBRANCH  11  12
ENDBRANCH   8  11
ENDBRANCH   6   7
BRANCH   6  15
ATOM     15  C   UNL A   1      32.458  20.582  24.445  1.00  0.00     0.072 C 
BRANCH  15  16
ATOM     16  C   UNL A   1      33.078  19.238  24.815  1.00  0.00    -0.045 A 
ATOM     17  C   UNL A   1      34.288  18.846  24.219  1.00  0.00     0.004 A 
ATOM     18  C   UNL A   1      32.407  18.304  25.613  1.00  0.00     0.004 A 
ATOM     19  C   UNL A   1      34.759  17.536  24.342  1.00  0.00     0.000 A 
ATOM     20  C   UNL A   1      32.855  16.983  25.704  1.00  0.00     0.000 A 
ATOM     21  C   UNL A   1      34.022  16.595  25.055  1.00  0.00     0.000 A 
ENDBRANCH  15  16
ENDBRANCH   6  15
ENDBRANCH   4   6
ENDBRANCH   3   4
ENDBRANCH   2   3
ENDBRANCH   1   2
BRANCH   1  22
ATOM     22  O   UNL A   1      37.564  22.671  25.026  1.00  0.00    -0.374 OA
BRANCH  22  23
ATOM     23  C   UNL A   1      38.216  21.493  25.479  1.00  0.00     0.202 C 
BRANCH  23  24
ATOM     24  C   UNL A   1      39.576  21.616  26.182  1.00  0.00     0.261 C 
BRANCH  24  25
ATOM     25  O   UNL A   1      40.015  20.410  26.808  1.00  0.00    -0.460 OA
BRANCH  25  26
ATOM     26  C   UNL A   1      41.276  20.053  26.462  1.00  0.00     0.338 C 
ATOM     27  O   UNL A   1      41.644  18.992  25.990  1.00  0.00    -0.246 OA
BRANCH  26  28
ATOM     28  C   UNL A   1      42.154  21.226  26.573  1.00  0.00     0.060 A 
ATOM     29  C   UNL A   1      42.407  21.714  27.859  1.00  0.00     0.016 A 
ATOM     30  C   UNL A   1      42.677  21.859  25.443  1.00  0.00     0.016 A 
ATOM     31  C   UNL A   1      43.145  22.879  28.020  1.00  0.00     0.010 A 
ATOM     32  C   UNL A   1      43.414  23.031  25.606  1.00  0.00     0.010 A 
ATOM     33  C   UNL A   1      43.615  23.564  26.891  1.00  0.00    -0.014 A 
BRANCH  33  34
ATOM     34  C   UNL A   1      44.187  24.915  27.063  1.00  0.00     0.031 A 
ATOM     35  C   UNL A   1      43.269  26.048  27.432  1.00  0.00     0.074 A 
ATOM     36  C   UNL A   1      45.511  25.107  26.940  1.00  0.00     0.049 A 
ATOM     37  N   UNL A   1      43.555  27.302  27.656  1.00  0.00    -0.248 NA
ATOM     38  C   UNL A   1      41.839  25.722  27.568  1.00  0.00     0.031 C 
ATOM     39  C   UNL A   1      46.488  24.064  26.622  1.00  0.00     0.029 A 
ATOM     40  N   UNL A   1      46.264  26.243  27.077  1.00  0.00    -0.354 N 
ATOM     41  C   UNL A   1      42.344  27.917  27.951  1.00  0.00     0.074 A 
ATOM     42  C   UNL A   1      41.315  26.906  27.843  1.00  0.00     0.031 C 
ATOM     43  C   UNL A   1      47.715  24.611  26.593  1.00  0.00     0.029 A 
ATOM     44  C   UNL A   1      47.605  26.043  26.856  1.00  0.00     0.049 A 
ATOM     45  H   UNL A   1      45.881  27.119  27.311  1.00  0.00     0.167 HD
ATOM     46  C   UNL A   1      42.114  29.207  28.287  1.00  0.00     0.031 A 
ATOM     47  C   UNL A   1      48.624  26.924  26.853  1.00  0.00     0.031 A 
ATOM     48  C   UNL A   1      43.149  30.203  28.376  1.00  0.00     0.049 A 
ATOM     49  C   UNL A   1      48.334  28.367  27.168  1.00  0.00     0.074 A 
ATOM     50  C   UNL A   1      43.034  31.537  28.723  1.00  0.00     0.029 A 
ATOM     51  N   UNL A   1      44.491  29.972  28.106  1.00  0.00    -0.354 N 
ATOM     52  N   UNL A   1      47.187  28.929  27.476  1.00  0.00    -0.248 NA
ATOM     53  C   UNL A   1      49.474  29.292  27.149  1.00  0.00     0.031 C 
ATOM     54  C   UNL A   1      44.296  32.127  28.600  1.00  0.00     0.029 A 
ATOM     55  C   UNL A   1      45.211  31.147  28.248  1.00  0.00     0.049 A 
ATOM     56  H   UNL A   1      44.874  29.103  27.850  1.00  0.00     0.167 HD
ATOM     57  C   UNL A   1      47.474  30.269  27.712  1.00  0.00     0.074 A 
ATOM     58  C   UNL A   1      48.903  30.427  27.529  1.00  0.00     0.031 C 
ATOM     59  C   UNL A   1      46.634  31.279  28.055  1.00  0.00     0.031 A 
BRANCH  46  60
ATOM     60  C   UNL A   1      40.688  29.620  28.547  1.00  0.00    -0.014 A 
ATOM     61  C   UNL A   1      40.320  30.277  29.736  1.00  0.00     0.010 A 
ATOM     62  C   UNL A   1      39.706  29.376  27.570  1.00  0.00     0.010 A 
ATOM     63  C   UNL A   1      38.989  30.648  29.957  1.00  0.00     0.020 A 
ATOM     64  C   UNL A   1      38.381  29.771  27.775  1.00  0.00     0.020 A 
ATOM     65  C   UNL A   1      38.028  30.391  28.975  1.00  0.00     0.054 A 
BRANCH  65  66
ATOM     66  S   UNL A   1      36.316  30.906  29.279  1.00  0.00     0.124 S 
ATOM     67  O   UNL A   1      36.077  31.829  28.172  1.00  0.00    -0.237 OA
ATOM     68  O   UNL A   1      35.585  29.643  29.212  1.00  0.00    -0.237 OA
ATOM     69  O   UNL A   1      36.368  31.523  30.602  1.00  0.00    -0.744 OA
ENDBRANCH  65  66
ENDBRANCH  46  60
BRANCH  47  70
ATOM     70  C   UNL A   1      50.002  26.463  26.531  1.00  0.00    -0.014 A 
ATOM     71  C   UNL A   1      50.889  26.071  27.548  1.00  0.00     0.010 A 
ATOM     72  C   UNL A   1      50.430  26.402  25.191  1.00  0.00     0.010 A 
ATOM     73  C   UNL A   1      52.182  25.642  27.234  1.00  0.00     0.020 A 
ATOM     74  C   UNL A   1      51.711  25.945  24.870  1.00  0.00     0.020 A 
ATOM     75  C   UNL A   1      52.583  25.578  25.897  1.00  0.00     0.054 A 
BRANCH  75  76
ATOM     76  S   UNL A   1      54.249  24.971  25.511  1.00  0.00     0.124 S 
ATOM     77  O   UNL A   1      54.883  24.969  26.825  1.00  0.00    -0.237 OA
ATOM     78  O   UNL A   1      53.979  23.657  24.935  1.00  0.00    -0.237 OA
ATOM     79  O   UNL A   1      54.765  25.962  24.569  1.00  0.00    -0.744 OA
ENDBRANCH  75  76
ENDBRANCH  47  70
BRANCH  59  80
ATOM     80  C   UNL A   1      47.243  32.636  28.285  1.00  0.00    -0.014 A 
ATOM     81  C   UNL A   1      47.330  33.584  27.250  1.00  0.00     0.010 A 
ATOM     82  C   UNL A   1      47.683  32.985  29.576  1.00  0.00     0.010 A 
ATOM     83  C   UNL A   1      47.879  34.845  27.495  1.00  0.00     0.020 A 
ATOM     84  C   UNL A   1      48.202  34.255  29.830  1.00  0.00     0.020 A 
ATOM     85  C   UNL A   1      48.311  35.172  28.784  1.00  0.00     0.054 A 
BRANCH  85  86
ATOM     86  S   UNL A   1      48.981  36.831  29.084  1.00  0.00     0.124 S 
ATOM     87  O   UNL A   1      48.521  37.561  27.906  1.00  0.00    -0.237 OA
ATOM     88  O   UNL A   1      48.346  37.208  30.344  1.00  0.00    -0.237 OA
ATOM     89  O   UNL A   1      50.424  36.615  29.159  1.00  0.00    -0.744 OA
ENDBRANCH  85  86
ENDBRANCH  59  80
ENDBRANCH  33  34
ENDBRANCH  26  28
ENDBRANCH  25  26
ENDBRANCH  24  25
ENDBRANCH  23  24
ENDBRANCH  22  23
ENDBRANCH   1  22
TORSDOF 23
ENDMDL
