MODEL 1
REMARK VINA RESULT:     -10.6      0.000      0.000
REMARK SMILES CC(C)CCOc1ccccc1-c1cc(C(=O)OCCOCCOC(=O)c2ccc(-c3c4nc(c(-c5ccc(S(=O)(=O)[O-])cc5)c5ccc([nH]5)c(-c5ccc(S(=O)(=O)[O-])cc5)c5nc(c(-c6ccc(S(=O)(=O)[O-])cc6)c6ccc3[nH]6)C=C5)C=C4)cc2)no1
REMARK SMILES IDX 20 1 19 2 18 3 16 4 17 5 15 6 13 7 14 8 88 9 87 10 12 11
REMARK SMILES IDX 7 12 8 13 9 14 11 15 10 16 6 17 5 18 4 19 2 20 1 21 3 22
REMARK SMILES IDX 21 23 22 24 23 25 24 26 25 27 26 28 27 29 28 30 86 31 29 32
REMARK SMILES IDX 85 33 30 34 31 35 32 36 79 37 33 38 84 39 78 40 80 41 34 42
REMARK SMILES IDX 83 43 77 44 76 45 35 47 65 48 46 49 64 50 47 51 50 52 63 53
REMARK SMILES IDX 81 54 48 55 49 56 62 58 82 59 51 60 36 61 37 62 45 63 38 64
REMARK SMILES IDX 44 65 39 66 40 67 41 68 42 69 43 70 66 71 67 72 75 73 68 74
REMARK SMILES IDX 74 75 69 76 70 77 71 78 72 79 73 80 52 81 53 82 61 83 54 84
REMARK SMILES IDX 60 85 55 86 56 87 57 88 58 89 59 90
REMARK H PARENT 80 46 50 57
REMARK Flexibility Score: inf
ROOT
ATOM      1  C   UNL A   1      32.051  28.438  24.034  1.00  0.00     0.202 C 
ENDROOT
BRANCH   1   2
ATOM      2  C   UNL A   1      30.518  28.376  24.029  1.00  0.00     0.261 C 
BRANCH   2   3
ATOM      3  O   UNL A   1      30.030  27.253  23.285  1.00  0.00    -0.458 OA
BRANCH   3   4
ATOM      4  C   UNL A   1      29.205  26.409  23.971  1.00  0.00     0.360 C 
ATOM      5  O   UNL A   1      27.994  26.326  23.819  1.00  0.00    -0.244 OA
BRANCH   4   6
ATOM      6  C   UNL A   1      29.982  25.529  24.839  1.00  0.00     0.192 A 
ATOM      7  C   UNL A   1      32.011  23.567  25.554  1.00  0.00     0.171 A 
ATOM      8  C   UNL A   1      31.325  24.361  24.269  1.00  0.00     0.090 A 
ATOM      9  O   UNL A   1      31.055  24.087  27.098  1.00  0.00    -0.355 OA
ATOM     10  N   UNL A   1      29.700  25.422  26.489  1.00  0.00    -0.072 NA
BRANCH   7  11
ATOM     11  C   UNL A   1      33.368  23.107  25.807  1.00  0.00     0.062 A 
ATOM     12  C   UNL A   1      33.610  21.720  25.726  1.00  0.00     0.130 A 
ATOM     13  C   UNL A   1      34.912  21.233  25.719  1.00  0.00     0.047 A 
ATOM     14  C   UNL A   1      35.978  22.131  25.778  1.00  0.00     0.004 A 
ATOM     15  C   UNL A   1      34.436  23.999  25.885  1.00  0.00     0.016 A 
ATOM     16  C   UNL A   1      35.742  23.506  25.875  1.00  0.00     0.001 A 
BRANCH  12  17
ATOM     17  O   UNL A   1      32.571  20.818  25.671  1.00  0.00    -0.493 OA
BRANCH  17  18
ATOM     18  C   UNL A   1      32.996  19.442  25.686  1.00  0.00     0.230 C 
BRANCH  18  19
ATOM     19  C   UNL A   1      33.289  18.897  24.267  1.00  0.00     0.044 C 
BRANCH  19  20
ATOM     20  C   UNL A   1      33.031  17.199  24.175  1.00  0.00    -0.014 C 
ATOM     21  C   UNL A   1      34.063  16.838  22.808  1.00  0.00     0.007 C 
ATOM     22  C   UNL A   1      32.512  15.658  25.751  1.00  0.00     0.007 C 
ENDBRANCH  19  20
ENDBRANCH  18  19
ENDBRANCH  17  18
ENDBRANCH  12  17
ENDBRANCH   7  11
ENDBRANCH   4   6
ENDBRANCH   3   4
ENDBRANCH   2   3
ENDBRANCH   1   2
BRANCH   1  23
ATOM     23  O   UNL A   1      32.766  27.396  24.693  1.00  0.00    -0.374 OA
BRANCH  23  24
ATOM     24  C   UNL A   1      32.737  27.351  26.118  1.00  0.00     0.202 C 
BRANCH  24  25
ATOM     25  C   UNL A   1      33.002  28.635  26.915  1.00  0.00     0.261 C 
BRANCH  25  26
ATOM     26  O   UNL A   1      34.363  29.087  26.825  1.00  0.00    -0.460 OA
BRANCH  26  27
ATOM     27  C   UNL A   1      34.665  30.105  27.671  1.00  0.00     0.338 C 
ATOM     28  O   UNL A   1      33.903  30.954  28.100  1.00  0.00    -0.246 OA
BRANCH  27  29
ATOM     29  C   UNL A   1      36.038  29.948  28.182  1.00  0.00     0.060 A 
ATOM     30  C   UNL A   1      37.091  30.097  27.271  1.00  0.00     0.016 A 
ATOM     31  C   UNL A   1      36.287  29.568  29.501  1.00  0.00     0.016 A 
ATOM     32  C   UNL A   1      38.398  29.824  27.663  1.00  0.00     0.010 A 
ATOM     33  C   UNL A   1      37.601  29.286  29.891  1.00  0.00     0.010 A 
ATOM     34  C   UNL A   1      38.658  29.382  28.966  1.00  0.00    -0.014 A 
BRANCH  34  35
ATOM     35  C   UNL A   1      40.016  28.911  29.334  1.00  0.00     0.031 A 
ATOM     36  C   UNL A   1      40.941  29.840  30.074  1.00  0.00     0.074 A 
ATOM     37  C   UNL A   1      40.412  27.662  29.025  1.00  0.00     0.049 A 
ATOM     38  N   UNL A   1      42.192  29.664  30.412  1.00  0.00    -0.248 NA
ATOM     39  C   UNL A   1      40.383  31.139  30.487  1.00  0.00     0.031 C 
ATOM     40  C   UNL A   1      39.585  26.651  28.365  1.00  0.00     0.029 A 
ATOM     41  N   UNL A   1      41.615  27.034  29.224  1.00  0.00    -0.354 N 
ATOM     42  C   UNL A   1      42.572  30.827  31.075  1.00  0.00     0.074 A 
ATOM     43  C   UNL A   1      41.432  31.716  31.056  1.00  0.00     0.031 C 
ATOM     44  C   UNL A   1      40.310  25.531  28.206  1.00  0.00     0.029 A 
ATOM     45  C   UNL A   1      41.663  25.760  28.706  1.00  0.00     0.049 A 
ATOM     46  H   UNL A   1      42.373  27.454  29.691  1.00  0.00     0.167 HD
ATOM     47  C   UNL A   1      43.759  31.120  31.655  1.00  0.00     0.031 A 
ATOM     48  C   UNL A   1      42.691  24.892  28.618  1.00  0.00     0.031 A 
ATOM     49  C   UNL A   1      44.895  30.234  31.659  1.00  0.00     0.049 A 
ATOM     50  C   UNL A   1      44.038  25.294  29.165  1.00  0.00     0.074 A 
ATOM     51  C   UNL A   1      46.147  30.442  32.212  1.00  0.00     0.029 A 
ATOM     52  N   UNL A   1      44.918  28.973  31.081  1.00  0.00    -0.354 N 
ATOM     53  N   UNL A   1      44.379  26.391  29.799  1.00  0.00    -0.248 NA
ATOM     54  C   UNL A   1      45.139  24.335  28.989  1.00  0.00     0.031 C 
ATOM     55  C   UNL A   1      46.944  29.333  31.917  1.00  0.00     0.029 A 
ATOM     56  C   UNL A   1      46.170  28.403  31.243  1.00  0.00     0.049 A 
ATOM     57  H   UNL A   1      44.157  28.547  30.625  1.00  0.00     0.167 HD
ATOM     58  C   UNL A   1      45.722  26.236  30.129  1.00  0.00     0.074 A 
ATOM     59  C   UNL A   1      46.125  24.933  29.643  1.00  0.00     0.031 C 
ATOM     60  C   UNL A   1      46.550  27.096  30.772  1.00  0.00     0.031 A 
BRANCH  47  61
ATOM     61  C   UNL A   1      43.905  32.458  32.332  1.00  0.00    -0.014 A 
ATOM     62  C   UNL A   1      44.361  33.582  31.620  1.00  0.00     0.010 A 
ATOM     63  C   UNL A   1      43.505  32.615  33.672  1.00  0.00     0.010 A 
ATOM     64  C   UNL A   1      44.432  34.833  32.240  1.00  0.00     0.020 A 
ATOM     65  C   UNL A   1      43.546  33.870  34.287  1.00  0.00     0.020 A 
ATOM     66  C   UNL A   1      44.017  34.970  33.568  1.00  0.00     0.054 A 
BRANCH  66  67
ATOM     67  S   UNL A   1      44.067  36.618  34.325  1.00  0.00     0.124 S 
ATOM     68  O   UNL A   1      42.783  37.179  33.911  1.00  0.00    -0.237 OA
ATOM     69  O   UNL A   1      44.188  36.309  35.747  1.00  0.00    -0.237 OA
ATOM     70  O   UNL A   1      45.241  37.243  33.723  1.00  0.00    -0.744 OA
ENDBRANCH  66  67
ENDBRANCH  47  61
BRANCH  48  71
ATOM     71  C   UNL A   1      42.513  23.570  27.953  1.00  0.00    -0.014 A 
ATOM     72  C   UNL A   1      42.131  22.438  28.697  1.00  0.00     0.010 A 
ATOM     73  C   UNL A   1      42.780  23.422  26.579  1.00  0.00     0.010 A 
ATOM     74  C   UNL A   1      42.067  21.180  28.092  1.00  0.00     0.020 A 
ATOM     75  C   UNL A   1      42.679  22.173  25.962  1.00  0.00     0.020 A 
ATOM     76  C   UNL A   1      42.345  21.055  26.727  1.00  0.00     0.054 A 
BRANCH  76  77
ATOM     77  S   UNL A   1      42.258  19.412  25.965  1.00  0.00     0.124 S 
ATOM     78  O   UNL A   1      40.836  19.293  25.664  1.00  0.00    -0.237 OA
ATOM     79  O   UNL A   1      43.142  19.554  24.811  1.00  0.00    -0.237 OA
ATOM     80  O   UNL A   1      42.754  18.523  27.014  1.00  0.00    -0.744 OA
ENDBRANCH  76  77
ENDBRANCH  48  71
BRANCH  60  81
ATOM     81  C   UNL A   1      47.962  26.641  31.040  1.00  0.00    -0.014 A 
ATOM     82  C   UNL A   1      48.991  26.861  30.109  1.00  0.00     0.010 A 
ATOM     83  C   UNL A   1      48.275  26.046  32.277  1.00  0.00     0.010 A 
ATOM     84  C   UNL A   1      50.302  26.472  30.399  1.00  0.00     0.020 A 
ATOM     85  C   UNL A   1      49.589  25.688  32.586  1.00  0.00     0.020 A 
ATOM     86  C   UNL A   1      50.594  25.896  31.639  1.00  0.00     0.054 A 
BRANCH  86  87
ATOM     87  S   UNL A   1      52.315  25.465  32.014  1.00  0.00     0.124 S 
ATOM     88  O   UNL A   1      53.010  25.903  30.807  1.00  0.00    -0.237 OA
ATOM     89  O   UNL A   1      52.584  26.250  33.216  1.00  0.00    -0.237 OA
ATOM     90  O   UNL A   1      52.276  24.018  32.218  1.00  0.00    -0.744 OA
ENDBRANCH  86  87
ENDBRANCH  60  81
ENDBRANCH  34  35
ENDBRANCH  27  29
ENDBRANCH  26  27
ENDBRANCH  25  26
ENDBRANCH  24  25
ENDBRANCH  23  24
ENDBRANCH   1  23
TORSDOF 22
ENDMDL
MODEL 2
REMARK VINA RESULT:     -10.3      1.450      2.556
REMARK SMILES CC(C)CCOc1ccccc1-c1cc(C(=O)OCCOCCOC(=O)c2ccc(-c3c4nc(c(-c5ccc(S(=O)(=O)[O-])cc5)c5ccc([nH]5)c(-c5ccc(S(=O)(=O)[O-])cc5)c5nc(c(-c6ccc(S(=O)(=O)[O-])cc6)c6ccc3[nH]6)C=C5)C=C4)cc2)no1
REMARK SMILES IDX 20 1 19 2 18 3 16 4 17 5 15 6 13 7 14 8 88 9 87 10 12 11
REMARK SMILES IDX 7 12 8 13 9 14 11 15 10 16 6 17 5 18 4 19 2 20 1 21 3 22
REMARK SMILES IDX 21 23 22 24 23 25 24 26 25 27 26 28 27 29 28 30 86 31 29 32
REMARK SMILES IDX 85 33 30 34 31 35 32 36 79 37 33 38 84 39 78 40 80 41 34 42
REMARK SMILES IDX 83 43 77 44 76 45 35 47 65 48 46 49 64 50 47 51 50 52 63 53
REMARK SMILES IDX 81 54 48 55 49 56 62 58 82 59 51 60 36 61 37 62 45 63 38 64
REMARK SMILES IDX 44 65 39 66 40 67 41 68 42 69 43 70 66 71 67 72 75 73 68 74
REMARK SMILES IDX 74 75 69 76 70 77 71 78 72 79 73 80 52 81 53 82 61 83 54 84
REMARK SMILES IDX 60 85 55 86 56 87 57 88 58 89 59 90
REMARK H PARENT 80 46 50 57
REMARK Flexibility Score: inf
ROOT
ATOM      1  C   UNL A   1      30.626  28.560  23.996  1.00  0.00     0.202 C 
ENDROOT
BRANCH   1   2
ATOM      2  C   UNL A   1      30.807  27.438  22.965  1.00  0.00     0.261 C 
BRANCH   2   3
ATOM      3  O   UNL A   1      31.806  27.763  21.991  1.00  0.00    -0.458 OA
BRANCH   3   4
ATOM      4  C   UNL A   1      33.095  27.525  22.372  1.00  0.00     0.360 C 
ATOM      5  O   UNL A   1      33.864  28.362  22.824  1.00  0.00    -0.244 OA
BRANCH   4   6
ATOM      6  C   UNL A   1      33.402  26.101  22.277  1.00  0.00     0.192 A 
ATOM      7  C   UNL A   1      34.279  23.474  23.176  1.00  0.00     0.171 A 
ATOM      8  C   UNL A   1      34.121  25.056  23.649  1.00  0.00     0.090 A 
ATOM      9  O   UNL A   1      33.769  23.389  21.359  1.00  0.00    -0.355 OA
ATOM     10  N   UNL A   1      33.193  25.234  20.856  1.00  0.00    -0.072 NA
BRANCH   7  11
ATOM     11  C   UNL A   1      34.152  22.219  23.902  1.00  0.00     0.062 A 
ATOM     12  C   UNL A   1      32.913  21.548  23.829  1.00  0.00     0.130 A 
ATOM     13  C   UNL A   1      32.793  20.243  24.292  1.00  0.00     0.047 A 
ATOM     14  C   UNL A   1      33.913  19.598  24.817  1.00  0.00     0.004 A 
ATOM     15  C   UNL A   1      35.263  21.577  24.444  1.00  0.00     0.016 A 
ATOM     16  C   UNL A   1      35.139  20.266  24.906  1.00  0.00     0.001 A 
BRANCH  12  17
ATOM     17  O   UNL A   1      31.796  22.170  23.319  1.00  0.00    -0.493 OA
BRANCH  17  18
ATOM     18  C   UNL A   1      31.118  23.014  24.268  1.00  0.00     0.230 C 
BRANCH  18  19
ATOM     19  C   UNL A   1      31.111  22.416  25.696  1.00  0.00     0.044 C 
BRANCH  19  20
ATOM     20  C   UNL A   1      31.956  23.420  26.807  1.00  0.00    -0.014 C 
ATOM     21  C   UNL A   1      33.034  22.223  27.493  1.00  0.00     0.007 C 
ATOM     22  C   UNL A   1      32.448  25.630  26.780  1.00  0.00     0.007 C 
ENDBRANCH  19  20
ENDBRANCH  18  19
ENDBRANCH  17  18
ENDBRANCH  12  17
ENDBRANCH   7  11
ENDBRANCH   4   6
ENDBRANCH   3   4
ENDBRANCH   2   3
ENDBRANCH   1   2
BRANCH   1  23
ATOM     23  O   UNL A   1      31.091  28.338  25.325  1.00  0.00    -0.374 OA
BRANCH  23  24
ATOM     24  C   UNL A   1      32.279  29.006  25.746  1.00  0.00     0.202 C 
BRANCH  24  25
ATOM     25  C   UNL A   1      32.634  29.038  27.238  1.00  0.00     0.261 C 
BRANCH  25  26
ATOM     26  O   UNL A   1      34.047  28.971  27.487  1.00  0.00    -0.460 OA
BRANCH  26  27
ATOM     27  C   UNL A   1      34.637  30.181  27.660  1.00  0.00     0.338 C 
ATOM     28  O   UNL A   1      34.107  31.275  27.573  1.00  0.00    -0.246 OA
BRANCH  27  29
ATOM     29  C   UNL A   1      36.007  30.007  28.174  1.00  0.00     0.060 A 
ATOM     30  C   UNL A   1      37.061  30.110  27.257  1.00  0.00     0.016 A 
ATOM     31  C   UNL A   1      36.250  29.657  29.502  1.00  0.00     0.016 A 
ATOM     32  C   UNL A   1      38.362  29.819  27.655  1.00  0.00     0.010 A 
ATOM     33  C   UNL A   1      37.558  29.358  29.898  1.00  0.00     0.010 A 
ATOM     34  C   UNL A   1      38.616  29.406  28.969  1.00  0.00    -0.014 A 
BRANCH  34  35
ATOM     35  C   UNL A   1      39.963  28.916  29.347  1.00  0.00     0.031 A 
ATOM     36  C   UNL A   1      40.890  29.826  30.109  1.00  0.00     0.074 A 
ATOM     37  C   UNL A   1      40.349  27.665  29.030  1.00  0.00     0.049 A 
ATOM     38  N   UNL A   1      42.135  29.632  30.459  1.00  0.00    -0.248 NA
ATOM     39  C   UNL A   1      40.342  31.127  30.529  1.00  0.00     0.031 C 
ATOM     40  C   UNL A   1      39.518  26.671  28.350  1.00  0.00     0.029 A 
ATOM     41  N   UNL A   1      41.543  27.021  29.236  1.00  0.00    -0.354 N 
ATOM     42  C   UNL A   1      42.520  30.783  31.139  1.00  0.00     0.074 A 
ATOM     43  C   UNL A   1      41.391  31.686  31.117  1.00  0.00     0.031 C 
ATOM     44  C   UNL A   1      40.233  25.544  28.186  1.00  0.00     0.029 A 
ATOM     45  C   UNL A   1      41.582  25.753  28.705  1.00  0.00     0.049 A 
ATOM     46  H   UNL A   1      42.300  27.428  29.716  1.00  0.00     0.167 HD
ATOM     47  C   UNL A   1      43.704  31.056  31.736  1.00  0.00     0.031 A 
ATOM     48  C   UNL A   1      42.601  24.874  28.620  1.00  0.00     0.031 A 
ATOM     49  C   UNL A   1      44.829  30.158  31.743  1.00  0.00     0.049 A 
ATOM     50  C   UNL A   1      43.946  25.255  29.187  1.00  0.00     0.074 A 
ATOM     51  C   UNL A   1      46.077  30.345  32.314  1.00  0.00     0.029 A 
ATOM     52  N   UNL A   1      44.845  28.903  31.152  1.00  0.00    -0.354 N 
ATOM     53  N   UNL A   1      44.292  26.341  29.836  1.00  0.00    -0.248 NA
ATOM     54  C   UNL A   1      45.038  24.285  29.013  1.00  0.00     0.031 C 
ATOM     55  C   UNL A   1      46.865  29.231  32.015  1.00  0.00     0.029 A 
ATOM     56  C   UNL A   1      46.088  28.317  31.323  1.00  0.00     0.049 A 
ATOM     57  H   UNL A   1      44.085  28.490  30.682  1.00  0.00     0.167 HD
ATOM     58  C   UNL A   1      45.629  26.167  30.179  1.00  0.00     0.074 A 
ATOM     59  C   UNL A   1      46.023  24.865  29.685  1.00  0.00     0.031 C 
ATOM     60  C   UNL A   1      46.459  27.010  30.842  1.00  0.00     0.031 A 
BRANCH  47  61
ATOM     61  C   UNL A   1      43.857  32.386  32.429  1.00  0.00    -0.014 A 
ATOM     62  C   UNL A   1      43.555  32.528  33.794  1.00  0.00     0.010 A 
ATOM     63  C   UNL A   1      44.387  33.486  31.728  1.00  0.00     0.010 A 
ATOM     64  C   UNL A   1      43.761  33.750  34.442  1.00  0.00     0.020 A 
ATOM     65  C   UNL A   1      44.622  34.700  32.379  1.00  0.00     0.020 A 
ATOM     66  C   UNL A   1      44.300  34.826  33.732  1.00  0.00     0.054 A 
BRANCH  66  67
ATOM     67  S   UNL A   1      44.609  36.379  34.616  1.00  0.00     0.124 S 
ATOM     68  O   UNL A   1      45.927  36.758  34.109  1.00  0.00    -0.237 OA
ATOM     69  O   UNL A   1      43.501  37.221  34.174  1.00  0.00    -0.237 OA
ATOM     70  O   UNL A   1      44.573  35.993  36.024  1.00  0.00    -0.744 OA
ENDBRANCH  66  67
ENDBRANCH  47  61
BRANCH  48  71
ATOM     71  C   UNL A   1      42.415  23.561  27.939  1.00  0.00    -0.014 A 
ATOM     72  C   UNL A   1      41.750  22.504  28.586  1.00  0.00     0.010 A 
ATOM     73  C   UNL A   1      42.956  23.341  26.657  1.00  0.00     0.010 A 
ATOM     74  C   UNL A   1      41.670  21.244  27.987  1.00  0.00     0.020 A 
ATOM     75  C   UNL A   1      42.844  22.094  26.039  1.00  0.00     0.020 A 
ATOM     76  C   UNL A   1      42.221  21.045  26.718  1.00  0.00     0.054 A 
BRANCH  76  77
ATOM     77  S   UNL A   1      42.107  19.400  25.963  1.00  0.00     0.124 S 
ATOM     78  O   UNL A   1      42.926  19.559  24.766  1.00  0.00    -0.237 OA
ATOM     79  O   UNL A   1      42.662  18.539  27.004  1.00  0.00    -0.237 OA
ATOM     80  O   UNL A   1      40.674  19.233  25.725  1.00  0.00    -0.744 OA
ENDBRANCH  76  77
ENDBRANCH  48  71
BRANCH  60  81
ATOM     81  C   UNL A   1      47.863  26.536  31.121  1.00  0.00    -0.014 A 
ATOM     82  C   UNL A   1      48.915  26.798  30.227  1.00  0.00     0.010 A 
ATOM     83  C   UNL A   1      48.143  25.879  32.334  1.00  0.00     0.010 A 
ATOM     84  C   UNL A   1      50.217  26.389  30.530  1.00  0.00     0.020 A 
ATOM     85  C   UNL A   1      49.448  25.500  32.657  1.00  0.00     0.020 A 
ATOM     86  C   UNL A   1      50.476  25.750  31.746  1.00  0.00     0.054 A 
BRANCH  86  87
ATOM     87  S   UNL A   1      52.187  25.293  32.142  1.00  0.00     0.124 S 
ATOM     88  O   UNL A   1      52.090  23.844  32.288  1.00  0.00    -0.237 OA
ATOM     89  O   UNL A   1      52.919  25.760  30.967  1.00  0.00    -0.237 OA
ATOM     90  O   UNL A   1      52.467  26.026  33.375  1.00  0.00    -0.744 OA
ENDBRANCH  86  87
ENDBRANCH  60  81
ENDBRANCH  34  35
ENDBRANCH  27  29
ENDBRANCH  26  27
ENDBRANCH  25  26
ENDBRANCH  24  25
ENDBRANCH  23  24
ENDBRANCH   1  23
TORSDOF 22
ENDMDL
MODEL 3
REMARK VINA RESULT:     -10.2      2.549      3.139
REMARK SMILES CC(C)CCOc1ccccc1-c1cc(C(=O)OCCOCCOC(=O)c2ccc(-c3c4nc(c(-c5ccc(S(=O)(=O)[O-])cc5)c5ccc([nH]5)c(-c5ccc(S(=O)(=O)[O-])cc5)c5nc(c(-c6ccc(S(=O)(=O)[O-])cc6)c6ccc3[nH]6)C=C5)C=C4)cc2)no1
REMARK SMILES IDX 20 1 19 2 18 3 16 4 17 5 15 6 13 7 14 8 88 9 87 10 12 11
REMARK SMILES IDX 7 12 8 13 9 14 11 15 10 16 6 17 5 18 4 19 2 20 1 21 3 22
REMARK SMILES IDX 21 23 22 24 23 25 24 26 25 27 26 28 27 29 28 30 86 31 29 32
REMARK SMILES IDX 85 33 30 34 31 35 32 36 79 37 33 38 84 39 78 40 80 41 34 42
REMARK SMILES IDX 83 43 77 44 76 45 35 47 65 48 46 49 64 50 47 51 50 52 63 53
REMARK SMILES IDX 81 54 48 55 49 56 62 58 82 59 51 60 36 61 37 62 45 63 38 64
REMARK SMILES IDX 44 65 39 66 40 67 41 68 42 69 43 70 66 71 67 72 75 73 68 74
REMARK SMILES IDX 74 75 69 76 70 77 71 78 72 79 73 80 52 81 53 82 61 83 54 84
REMARK SMILES IDX 60 85 55 86 56 87 57 88 58 89 59 90
REMARK H PARENT 80 46 50 57
REMARK Flexibility Score: inf
ROOT
ATOM      1  C   UNL A   1      31.066  29.698  24.661  1.00  0.00     0.202 C 
ENDROOT
BRANCH   1   2
ATOM      2  C   UNL A   1      30.232  29.176  23.484  1.00  0.00     0.261 C 
BRANCH   2   3
ATOM      3  O   UNL A   1      30.907  28.132  22.772  1.00  0.00    -0.458 OA
BRANCH   3   4
ATOM      4  C   UNL A   1      30.666  26.865  23.221  1.00  0.00     0.360 C 
ATOM      5  O   UNL A   1      29.571  26.429  23.550  1.00  0.00    -0.244 OA
BRANCH   4   6
ATOM      6  C   UNL A   1      31.879  26.057  23.149  1.00  0.00     0.192 A 
ATOM      7  C   UNL A   1      34.296  24.745  24.105  1.00  0.00     0.171 A 
ATOM      8  C   UNL A   1      33.064  25.757  24.562  1.00  0.00     0.090 A 
ATOM      9  O   UNL A   1      34.065  24.393  22.264  1.00  0.00    -0.355 OA
ATOM     10  N   UNL A   1      32.391  25.337  21.722  1.00  0.00    -0.072 NA
BRANCH   7  11
ATOM     11  C   UNL A   1      35.047  23.729  24.828  1.00  0.00     0.062 A 
ATOM     12  C   UNL A   1      34.405  22.497  25.071  1.00  0.00     0.130 A 
ATOM     13  C   UNL A   1      35.131  21.408  25.539  1.00  0.00     0.047 A 
ATOM     14  C   UNL A   1      36.503  21.541  25.751  1.00  0.00     0.004 A 
ATOM     15  C   UNL A   1      36.414  23.862  25.059  1.00  0.00     0.016 A 
ATOM     16  C   UNL A   1      37.140  22.765  25.525  1.00  0.00     0.001 A 
BRANCH  12  17
ATOM     17  O   UNL A   1      33.051  22.349  24.873  1.00  0.00    -0.493 OA
BRANCH  17  18
ATOM     18  C   UNL A   1      32.592  20.990  24.997  1.00  0.00     0.230 C 
BRANCH  18  19
ATOM     19  C   UNL A   1      32.488  20.271  23.630  1.00  0.00     0.044 C 
BRANCH  19  20
ATOM     20  C   UNL A   1      33.008  18.634  23.734  1.00  0.00    -0.014 C 
ATOM     21  C   UNL A   1      32.154  17.987  22.350  1.00  0.00     0.007 C 
ATOM     22  C   UNL A   1      34.902  17.696  24.546  1.00  0.00     0.007 C 
ENDBRANCH  19  20
ENDBRANCH  18  19
ENDBRANCH  17  18
ENDBRANCH  12  17
ENDBRANCH   7  11
ENDBRANCH   4   6
ENDBRANCH   3   4
ENDBRANCH   2   3
ENDBRANCH   1   2
BRANCH   1  23
ATOM     23  O   UNL A   1      31.384  28.794  25.717  1.00  0.00    -0.374 OA
BRANCH  23  24
ATOM     24  C   UNL A   1      31.882  29.331  26.940  1.00  0.00     0.202 C 
BRANCH  24  25
ATOM     25  C   UNL A   1      32.316  30.801  26.994  1.00  0.00     0.261 C 
BRANCH  25  26
ATOM     26  O   UNL A   1      33.732  30.981  26.832  1.00  0.00    -0.460 OA
BRANCH  26  27
ATOM     27  C   UNL A   1      34.309  31.734  27.803  1.00  0.00     0.338 C 
ATOM     28  O   UNL A   1      33.805  32.666  28.407  1.00  0.00    -0.246 OA
BRANCH  27  29
ATOM     29  C   UNL A   1      35.605  31.152  28.192  1.00  0.00     0.060 A 
ATOM     30  C   UNL A   1      35.603  29.849  28.708  1.00  0.00     0.016 A 
ATOM     31  C   UNL A   1      36.784  31.896  28.145  1.00  0.00     0.016 A 
ATOM     32  C   UNL A   1      36.773  29.299  29.220  1.00  0.00     0.010 A 
ATOM     33  C   UNL A   1      37.958  31.344  28.668  1.00  0.00     0.010 A 
ATOM     34  C   UNL A   1      37.952  30.055  29.237  1.00  0.00    -0.014 A 
BRANCH  34  35
ATOM     35  C   UNL A   1      39.150  29.548  29.949  1.00  0.00     0.031 A 
ATOM     36  C   UNL A   1      39.581  30.214  31.230  1.00  0.00     0.074 A 
ATOM     37  C   UNL A   1      39.835  28.494  29.468  1.00  0.00     0.049 A 
ATOM     38  N   UNL A   1      40.641  29.990  31.961  1.00  0.00    -0.248 NA
ATOM     39  C   UNL A   1      38.701  31.273  31.753  1.00  0.00     0.031 C 
ATOM     40  C   UNL A   1      39.479  27.728  28.273  1.00  0.00     0.029 A 
ATOM     41  N   UNL A   1      40.978  27.889  29.926  1.00  0.00    -0.354 N 
ATOM     42  C   UNL A   1      40.559  30.877  33.028  1.00  0.00     0.074 A 
ATOM     43  C   UNL A   1      39.367  31.671  32.829  1.00  0.00     0.031 C 
ATOM     44  C   UNL A   1      40.393  26.760  28.087  1.00  0.00     0.029 A 
ATOM     45  C   UNL A   1      41.421  26.867  29.120  1.00  0.00     0.049 A 
ATOM     46  H   UNL A   1      41.438  28.160  30.753  1.00  0.00     0.167 HD
ATOM     47  C   UNL A   1      41.396  31.010  34.085  1.00  0.00     0.031 A 
ATOM     48  C   UNL A   1      42.544  26.125  29.189  1.00  0.00     0.031 A 
ATOM     49  C   UNL A   1      42.589  30.225  34.271  1.00  0.00     0.049 A 
ATOM     50  C   UNL A   1      43.521  26.378  30.310  1.00  0.00     0.074 A 
ATOM     51  C   UNL A   1      43.509  30.289  35.303  1.00  0.00     0.029 A 
ATOM     52  N   UNL A   1      43.028  29.234  33.406  1.00  0.00    -0.354 N 
ATOM     53  N   UNL A   1      43.424  27.212  31.318  1.00  0.00    -0.248 NA
ATOM     54  C   UNL A   1      44.759  25.583  30.305  1.00  0.00     0.031 C 
ATOM     55  C   UNL A   1      44.534  29.381  35.031  1.00  0.00     0.029 A 
ATOM     56  C   UNL A   1      44.219  28.698  33.868  1.00  0.00     0.049 A 
ATOM     57  H   UNL A   1      42.563  28.953  32.585  1.00  0.00     0.167 HD
ATOM     58  C   UNL A   1      44.569  27.014  32.085  1.00  0.00     0.074 A 
ATOM     59  C   UNL A   1      45.333  25.969  31.436  1.00  0.00     0.031 C 
ATOM     60  C   UNL A   1      44.957  27.643  33.222  1.00  0.00     0.031 A 
BRANCH  47  61
ATOM     61  C   UNL A   1      41.064  32.048  35.125  1.00  0.00    -0.014 A 
ATOM     62  C   UNL A   1      41.542  33.366  35.010  1.00  0.00     0.010 A 
ATOM     63  C   UNL A   1      40.197  31.726  36.186  1.00  0.00     0.010 A 
ATOM     64  C   UNL A   1      41.175  34.336  35.946  1.00  0.00     0.020 A 
ATOM     65  C   UNL A   1      39.804  32.702  37.108  1.00  0.00     0.020 A 
ATOM     66  C   UNL A   1      40.302  34.000  36.985  1.00  0.00     0.054 A 
BRANCH  66  67
ATOM     67  S   UNL A   1      39.801  35.298  38.149  1.00  0.00     0.124 S 
ATOM     68  O   UNL A   1      39.652  36.453  37.267  1.00  0.00    -0.237 OA
ATOM     69  O   UNL A   1      38.558  34.765  38.701  1.00  0.00    -0.237 OA
ATOM     70  O   UNL A   1      40.916  35.374  39.089  1.00  0.00    -0.744 OA
ENDBRANCH  66  67
ENDBRANCH  47  61
BRANCH  48  71
ATOM     71  C   UNL A   1      42.840  25.096  28.151  1.00  0.00    -0.014 A 
ATOM     72  C   UNL A   1      42.321  23.794  28.263  1.00  0.00     0.010 A 
ATOM     73  C   UNL A   1      43.692  25.399  27.072  1.00  0.00     0.010 A 
ATOM     74  C   UNL A   1      42.685  22.804  27.346  1.00  0.00     0.020 A 
ATOM     75  C   UNL A   1      44.026  24.422  26.131  1.00  0.00     0.020 A 
ATOM     76  C   UNL A   1      43.539  23.124  26.286  1.00  0.00     0.054 A 
BRANCH  76  77
ATOM     77  S   UNL A   1      43.999  21.822  25.111  1.00  0.00     0.124 S 
ATOM     78  O   UNL A   1      43.849  22.504  23.830  1.00  0.00    -0.237 OA
ATOM     79  O   UNL A   1      45.369  21.510  25.509  1.00  0.00    -0.237 OA
ATOM     80  O   UNL A   1      43.025  20.764  25.376  1.00  0.00    -0.744 OA
ENDBRANCH  76  77
ENDBRANCH  48  71
BRANCH  60  81
ATOM     81  C   UNL A   1      46.238  27.187  33.873  1.00  0.00    -0.014 A 
ATOM     82  C   UNL A   1      46.253  26.123  34.791  1.00  0.00     0.010 A 
ATOM     83  C   UNL A   1      47.455  27.790  33.503  1.00  0.00     0.010 A 
ATOM     84  C   UNL A   1      47.460  25.687  35.347  1.00  0.00     0.020 A 
ATOM     85  C   UNL A   1      48.666  27.334  34.029  1.00  0.00     0.020 A 
ATOM     86  C   UNL A   1      48.659  26.290  34.956  1.00  0.00     0.054 A 
BRANCH  86  87
ATOM     87  S   UNL A   1      50.215  25.657  35.641  1.00  0.00     0.124 S 
ATOM     88  O   UNL A   1      50.263  24.306  35.091  1.00  0.00    -0.237 OA
ATOM     89  O   UNL A   1      51.201  26.591  35.104  1.00  0.00    -0.237 OA
ATOM     90  O   UNL A   1      50.015  25.734  37.086  1.00  0.00    -0.744 OA
ENDBRANCH  86  87
ENDBRANCH  60  81
ENDBRANCH  34  35
ENDBRANCH  27  29
ENDBRANCH  26  27
ENDBRANCH  25  26
ENDBRANCH  24  25
ENDBRANCH  23  24
ENDBRANCH   1  23
TORSDOF 22
ENDMDL
