MODEL 1
REMARK VINA RESULT:     -10.1      0.000      0.000
REMARK SMILES Cc1nc(C(=O)OCCOCCOC(=O)c2ccc(-c3c4nc(c(-c5ccc(S(=O)(=O)[O-])cc5)c5ccc([nH]5)c(-c5ccc(S(=O)(=O)[O-])cc5)c5nc(c(-c6ccc(S(=O)(=O)[O-])cc6)c6ccc3[nH]6)C=C5)C=C4)cc2)nn1-c1cccc(C(F)(F)F)c1
REMARK SMILES IDX 11 1 10 2 9 3 8 4 7 5 5 6 6 7 4 8 1 9 2 10 3 11 77 12 76 13
REMARK SMILES IDX 78 14 79 15 87 16 80 17 82 18 81 19 83 20 84 21 85 22 86 23
REMARK SMILES IDX 12 24 13 25 14 26 15 27 16 28 17 29 75 30 18 31 74 32 19 33
REMARK SMILES IDX 20 34 21 35 68 36 22 37 73 38 67 39 69 40 23 41 72 42 66 43
REMARK SMILES IDX 65 44 24 46 54 47 35 48 53 49 36 50 39 51 52 52 70 53 37 54
REMARK SMILES IDX 38 55 51 57 71 58 40 59 25 60 26 61 34 62 27 63 33 64 28 65
REMARK SMILES IDX 29 66 30 67 31 68 32 69 55 70 56 71 64 72 57 73 63 74 58 75
REMARK SMILES IDX 59 76 60 77 61 78 62 79 41 80 42 81 50 82 43 83 49 84 44 85
REMARK SMILES IDX 45 86 46 87 47 88 48 89
REMARK H PARENT 69 45 39 56
REMARK Flexibility Score: inf
ROOT
ATOM      1  C   UNL A   1      34.168  34.051  29.390  1.00  0.00     0.202 C 
ENDROOT
BRANCH   1   2
ATOM      2  O   UNL A   1      34.223  35.324  30.028  1.00  0.00    -0.374 OA
BRANCH   2   3
ATOM      3  C   UNL A   1      33.020  35.930  30.501  1.00  0.00     0.202 C 
BRANCH   3   4
ATOM      4  C   UNL A   1      32.842  36.063  32.014  1.00  0.00     0.261 C 
BRANCH   4   5
ATOM      5  O   UNL A   1      34.014  35.679  32.748  1.00  0.00    -0.457 OA
BRANCH   5   6
ATOM      6  C   UNL A   1      34.094  34.356  33.097  1.00  0.00     0.378 C 
ATOM      7  O   UNL A   1      33.163  33.561  33.011  1.00  0.00    -0.242 OA
BRANCH   6   8
ATOM      8  C   UNL A   1      35.461  33.964  33.479  1.00  0.00     0.260 A 
ATOM      9  C   UNL A   1      37.832  32.120  35.413  1.00  0.00     0.090 C 
ATOM     10  C   UNL A   1      37.047  32.910  34.434  1.00  0.00     0.130 A 
ATOM     11  N   UNL A   1      35.731  32.973  34.400  1.00  0.00    -0.206 NA
ATOM     12  N   UNL A   1      37.570  33.825  33.536  1.00  0.00    -0.217 N 
ATOM     13  N   UNL A   1      36.564  34.532  32.968  1.00  0.00    -0.138 NA
BRANCH  12  14
ATOM     14  C   UNL A   1      38.911  34.127  33.198  1.00  0.00     0.067 A 
ATOM     15  C   UNL A   1      39.688  34.816  34.141  1.00  0.00     0.028 A 
ATOM     16  C   UNL A   1      39.454  33.804  31.948  1.00  0.00     0.041 A 
ATOM     17  C   UNL A   1      41.010  35.146  33.859  1.00  0.00     0.003 A 
ATOM     18  C   UNL A   1      40.774  34.186  31.637  1.00  0.00     0.058 A 
ATOM     19  C   UNL A   1      41.548  34.838  32.612  1.00  0.00     0.013 A 
BRANCH  18  20
ATOM     20  C   UNL A   1      41.363  33.959  30.263  1.00  0.00     0.416 C 
ATOM     21  F   UNL A   1      41.382  32.644  29.921  1.00  0.00    -0.166 F 
ATOM     22  F   UNL A   1      40.656  34.596  29.288  1.00  0.00    -0.166 F 
ATOM     23  F   UNL A   1      42.644  34.402  30.148  1.00  0.00    -0.166 F 
ENDBRANCH  18  20
ENDBRANCH  12  14
ENDBRANCH   6   8
ENDBRANCH   5   6
ENDBRANCH   4   5
ENDBRANCH   3   4
ENDBRANCH   2   3
ENDBRANCH   1   2
BRANCH   1  24
ATOM     24  C   UNL A   1      34.637  33.945  27.947  1.00  0.00     0.261 C 
BRANCH  24  25
ATOM     25  O   UNL A   1      35.724  33.045  27.808  1.00  0.00    -0.460 OA
BRANCH  25  26
ATOM     26  C   UNL A   1      35.360  31.740  27.757  1.00  0.00     0.338 C 
ATOM     27  O   UNL A   1      34.372  31.271  27.231  1.00  0.00    -0.246 OA
BRANCH  26  28
ATOM     28  C   UNL A   1      36.304  30.980  28.585  1.00  0.00     0.060 A 
ATOM     29  C   UNL A   1      37.170  31.731  29.381  1.00  0.00     0.016 A 
ATOM     30  C   UNL A   1      36.525  29.622  28.314  1.00  0.00     0.016 A 
ATOM     31  C   UNL A   1      38.400  31.193  29.676  1.00  0.00     0.010 A 
ATOM     32  C   UNL A   1      37.755  29.092  28.597  1.00  0.00     0.010 A 
ATOM     33  C   UNL A   1      38.708  29.925  29.175  1.00  0.00    -0.014 A 
BRANCH  33  34
ATOM     34  C   UNL A   1      40.052  29.426  29.337  1.00  0.00     0.031 A 
ATOM     35  C   UNL A   1      40.361  29.143  30.752  1.00  0.00     0.074 A 
ATOM     36  C   UNL A   1      40.850  29.150  28.289  1.00  0.00     0.049 A 
ATOM     37  N   UNL A   1      41.084  29.855  31.549  1.00  0.00    -0.248 NA
ATOM     38  C   UNL A   1      39.578  28.088  31.420  1.00  0.00     0.031 C 
ATOM     39  C   UNL A   1      40.523  29.154  26.859  1.00  0.00     0.029 A 
ATOM     40  N   UNL A   1      42.129  28.699  28.300  1.00  0.00    -0.354 N 
ATOM     41  C   UNL A   1      41.053  29.176  32.759  1.00  0.00     0.074 A 
ATOM     42  C   UNL A   1      39.928  28.280  32.692  1.00  0.00     0.031 C 
ATOM     43  C   UNL A   1      41.492  28.497  26.177  1.00  0.00     0.029 A 
ATOM     44  C   UNL A   1      42.567  28.160  27.096  1.00  0.00     0.049 A 
ATOM     45  H   UNL A   1      42.704  28.752  29.097  1.00  0.00     0.167 HD
ATOM     46  C   UNL A   1      42.144  29.147  33.571  1.00  0.00     0.031 A 
ATOM     47  C   UNL A   1      43.703  27.438  26.902  1.00  0.00     0.031 A 
ATOM     48  C   UNL A   1      43.097  30.169  33.217  1.00  0.00     0.049 A 
ATOM     49  C   UNL A   1      44.606  27.753  28.040  1.00  0.00     0.074 A 
ATOM     50  C   UNL A   1      43.070  31.547  33.156  1.00  0.00     0.029 A 
ATOM     51  N   UNL A   1      44.164  29.772  32.443  1.00  0.00    -0.354 N 
ATOM     52  N   UNL A   1      45.104  28.943  28.241  1.00  0.00    -0.248 NA
ATOM     53  C   UNL A   1      44.546  26.899  29.216  1.00  0.00     0.031 C 
ATOM     54  C   UNL A   1      43.834  31.883  31.999  1.00  0.00     0.029 A 
ATOM     55  C   UNL A   1      44.348  30.704  31.453  1.00  0.00     0.049 A 
ATOM     56  H   UNL A   1      44.704  28.959  32.578  1.00  0.00     0.167 HD
ATOM     57  C   UNL A   1      45.009  29.144  29.613  1.00  0.00     0.074 A 
ATOM     58  C   UNL A   1      44.744  27.817  30.169  1.00  0.00     0.031 C 
ATOM     59  C   UNL A   1      44.867  30.400  30.133  1.00  0.00     0.031 A 
BRANCH  46  60
ATOM     60  C   UNL A   1      42.535  27.913  34.343  1.00  0.00    -0.014 A 
ATOM     61  C   UNL A   1      42.716  28.013  35.734  1.00  0.00     0.010 A 
ATOM     62  C   UNL A   1      43.000  26.732  33.720  1.00  0.00     0.010 A 
ATOM     63  C   UNL A   1      43.383  27.010  36.450  1.00  0.00     0.020 A 
ATOM     64  C   UNL A   1      43.623  25.709  34.429  1.00  0.00     0.020 A 
ATOM     65  C   UNL A   1      43.840  25.868  35.787  1.00  0.00     0.054 A 
BRANCH  65  66
ATOM     66  S   UNL A   1      44.783  24.626  36.698  1.00  0.00     0.124 S 
ATOM     67  O   UNL A   1      44.434  23.402  35.984  1.00  0.00    -0.237 OA
ATOM     68  O   UNL A   1      46.155  25.096  36.524  1.00  0.00    -0.237 OA
ATOM     69  O   UNL A   1      44.261  24.730  38.059  1.00  0.00    -0.744 OA
ENDBRANCH  65  66
ENDBRANCH  46  60
BRANCH  47  70
ATOM     70  C   UNL A   1      43.875  26.240  26.035  1.00  0.00    -0.014 A 
ATOM     71  C   UNL A   1      45.118  25.903  25.463  1.00  0.00     0.010 A 
ATOM     72  C   UNL A   1      42.858  25.264  25.990  1.00  0.00     0.010 A 
ATOM     73  C   UNL A   1      45.339  24.631  24.895  1.00  0.00     0.020 A 
ATOM     74  C   UNL A   1      43.069  23.997  25.429  1.00  0.00     0.020 A 
ATOM     75  C   UNL A   1      44.314  23.680  24.895  1.00  0.00     0.054 A 
BRANCH  75  76
ATOM     76  S   UNL A   1      44.639  21.997  24.280  1.00  0.00     0.124 S 
ATOM     77  O   UNL A   1      43.742  21.188  25.099  1.00  0.00    -0.237 OA
ATOM     78  O   UNL A   1      44.285  22.098  22.867  1.00  0.00    -0.237 OA
ATOM     79  O   UNL A   1      46.063  21.802  24.546  1.00  0.00    -0.744 OA
ENDBRANCH  75  76
ENDBRANCH  47  70
BRANCH  59  80
ATOM     80  C   UNL A   1      45.062  31.584  29.207  1.00  0.00    -0.014 A 
ATOM     81  C   UNL A   1      46.305  32.215  28.990  1.00  0.00     0.010 A 
ATOM     82  C   UNL A   1      43.974  31.959  28.403  1.00  0.00     0.010 A 
ATOM     83  C   UNL A   1      46.445  33.203  27.999  1.00  0.00     0.020 A 
ATOM     84  C   UNL A   1      44.111  32.929  27.407  1.00  0.00     0.020 A 
ATOM     85  C   UNL A   1      45.344  33.551  27.211  1.00  0.00     0.054 A 
BRANCH  85  86
ATOM     86  S   UNL A   1      45.537  34.783  25.889  1.00  0.00     0.124 S 
ATOM     87  O   UNL A   1      44.619  35.841  26.303  1.00  0.00    -0.237 OA
ATOM     88  O   UNL A   1      46.957  35.120  25.962  1.00  0.00    -0.237 OA
ATOM     89  O   UNL A   1      45.143  34.061  24.680  1.00  0.00    -0.744 OA
ENDBRANCH  85  86
ENDBRANCH  59  80
ENDBRANCH  33  34
ENDBRANCH  26  28
ENDBRANCH  25  26
ENDBRANCH  24  25
ENDBRANCH   1  24
TORSDOF 19
ENDMDL
MODEL 2
REMARK VINA RESULT:      -9.7      5.761     12.452
REMARK SMILES Cc1nc(C(=O)OCCOCCOC(=O)c2ccc(-c3c4nc(c(-c5ccc(S(=O)(=O)[O-])cc5)c5ccc([nH]5)c(-c5ccc(S(=O)(=O)[O-])cc5)c5nc(c(-c6ccc(S(=O)(=O)[O-])cc6)c6ccc3[nH]6)C=C5)C=C4)cc2)nn1-c1cccc(C(F)(F)F)c1
REMARK SMILES IDX 11 1 10 2 9 3 8 4 7 5 5 6 6 7 4 8 1 9 2 10 3 11 77 12 76 13
REMARK SMILES IDX 78 14 79 15 87 16 80 17 82 18 81 19 83 20 84 21 85 22 86 23
REMARK SMILES IDX 12 24 13 25 14 26 15 27 16 28 17 29 75 30 18 31 74 32 19 33
REMARK SMILES IDX 20 34 21 35 68 36 22 37 73 38 67 39 69 40 23 41 72 42 66 43
REMARK SMILES IDX 65 44 24 46 54 47 35 48 53 49 36 50 39 51 52 52 70 53 37 54
REMARK SMILES IDX 38 55 51 57 71 58 40 59 25 60 26 61 34 62 27 63 33 64 28 65
REMARK SMILES IDX 29 66 30 67 31 68 32 69 55 70 56 71 64 72 57 73 63 74 58 75
REMARK SMILES IDX 59 76 60 77 61 78 62 79 41 80 42 81 50 82 43 83 49 84 44 85
REMARK SMILES IDX 45 86 46 87 47 88 48 89
REMARK H PARENT 69 45 39 56
REMARK Flexibility Score: inf
ROOT
ATOM      1  C   UNL A   1      43.072  20.458  25.963  1.00  0.00     0.202 C 
ENDROOT
BRANCH   1   2
ATOM      2  O   UNL A   1      41.801  19.999  25.514  1.00  0.00    -0.374 OA
BRANCH   2   3
ATOM      3  C   UNL A   1      40.675  20.066  26.390  1.00  0.00     0.202 C 
BRANCH   3   4
ATOM      4  C   UNL A   1      40.044  21.439  26.627  1.00  0.00     0.261 C 
BRANCH   4   5
ATOM      5  O   UNL A   1      38.959  21.715  25.730  1.00  0.00    -0.457 OA
BRANCH   5   6
ATOM      6  C   UNL A   1      38.104  22.715  26.115  1.00  0.00     0.378 C 
ATOM      7  O   UNL A   1      38.463  23.840  26.448  1.00  0.00    -0.242 OA
BRANCH   6   8
ATOM      8  C   UNL A   1      36.691  22.325  25.971  1.00  0.00     0.260 A 
ATOM      9  C   UNL A   1      33.209  22.610  26.712  1.00  0.00     0.090 C 
ATOM     10  C   UNL A   1      34.572  22.371  26.181  1.00  0.00     0.130 A 
ATOM     11  N   UNL A   1      35.657  23.006  26.578  1.00  0.00    -0.206 NA
ATOM     12  N   UNL A   1      34.934  21.339  25.333  1.00  0.00    -0.217 N 
ATOM     13  N   UNL A   1      36.284  21.276  25.241  1.00  0.00    -0.138 NA
BRANCH  12  14
ATOM     14  C   UNL A   1      34.144  20.388  24.643  1.00  0.00     0.067 A 
ATOM     15  C   UNL A   1      32.986  20.842  23.993  1.00  0.00     0.028 A 
ATOM     16  C   UNL A   1      34.458  19.023  24.637  1.00  0.00     0.041 A 
ATOM     17  C   UNL A   1      32.168  19.950  23.307  1.00  0.00     0.003 A 
ATOM     18  C   UNL A   1      33.602  18.109  23.992  1.00  0.00     0.058 A 
ATOM     19  C   UNL A   1      32.470  18.591  23.310  1.00  0.00     0.013 A 
BRANCH  18  20
ATOM     20  C   UNL A   1      33.840  16.618  24.055  1.00  0.00     0.416 C 
ATOM     21  F   UNL A   1      34.202  16.102  22.851  1.00  0.00    -0.166 F 
ATOM     22  F   UNL A   1      34.836  16.292  24.925  1.00  0.00    -0.166 F 
ATOM     23  F   UNL A   1      32.746  15.916  24.459  1.00  0.00    -0.166 F 
ENDBRANCH  18  20
ENDBRANCH  12  14
ENDBRANCH   6   8
ENDBRANCH   5   6
ENDBRANCH   4   5
ENDBRANCH   3   4
ENDBRANCH   2   3
ENDBRANCH   1   2
BRANCH   1  24
ATOM     24  C   UNL A   1      43.744  21.587  25.197  1.00  0.00     0.261 C 
BRANCH  24  25
ATOM     25  O   UNL A   1      42.852  22.659  24.943  1.00  0.00    -0.460 OA
BRANCH  25  26
ATOM     26  C   UNL A   1      43.404  23.888  25.098  1.00  0.00     0.338 C 
ATOM     27  O   UNL A   1      44.385  24.332  24.537  1.00  0.00    -0.246 OA
BRANCH  26  28
ATOM     28  C   UNL A   1      42.690  24.565  26.187  1.00  0.00     0.060 A 
ATOM     29  C   UNL A   1      41.658  25.425  25.808  1.00  0.00     0.016 A 
ATOM     30  C   UNL A   1      43.251  24.589  27.472  1.00  0.00     0.016 A 
ATOM     31  C   UNL A   1      41.379  26.493  26.627  1.00  0.00     0.010 A 
ATOM     32  C   UNL A   1      42.981  25.660  28.281  1.00  0.00     0.010 A 
ATOM     33  C   UNL A   1      42.132  26.649  27.795  1.00  0.00    -0.014 A 
BRANCH  33  34
ATOM     34  C   UNL A   1      41.961  27.853  28.570  1.00  0.00     0.031 A 
ATOM     35  C   UNL A   1      43.123  28.752  28.446  1.00  0.00     0.074 A 
ATOM     36  C   UNL A   1      40.813  28.139  29.214  1.00  0.00     0.049 A 
ATOM     37  N   UNL A   1      44.056  28.944  29.317  1.00  0.00    -0.248 NA
ATOM     38  C   UNL A   1      43.414  29.307  27.112  1.00  0.00     0.031 C 
ATOM     39  C   UNL A   1      39.531  27.427  29.166  1.00  0.00     0.029 A 
ATOM     40  N   UNL A   1      40.526  29.215  29.988  1.00  0.00    -0.354 N 
ATOM     41  C   UNL A   1      44.914  29.859  28.724  1.00  0.00     0.074 A 
ATOM     42  C   UNL A   1      44.622  29.832  27.314  1.00  0.00     0.031 C 
ATOM     43  C   UNL A   1      38.560  28.221  29.676  1.00  0.00     0.029 A 
ATOM     44  C   UNL A   1      39.171  29.426  30.213  1.00  0.00     0.049 A 
ATOM     45  H   UNL A   1      41.223  29.800  30.362  1.00  0.00     0.167 HD
ATOM     46  C   UNL A   1      45.543  30.810  29.466  1.00  0.00     0.031 A 
ATOM     47  C   UNL A   1      38.607  30.542  30.747  1.00  0.00     0.031 A 
ATOM     48  C   UNL A   1      45.512  30.492  30.872  1.00  0.00     0.049 A 
ATOM     49  C   UNL A   1      39.685  31.251  31.486  1.00  0.00     0.074 A 
ATOM     50  C   UNL A   1      45.982  29.451  31.646  1.00  0.00     0.029 A 
ATOM     51  N   UNL A   1      44.545  31.122  31.622  1.00  0.00    -0.354 N 
ATOM     52  N   UNL A   1      40.272  30.748  32.537  1.00  0.00    -0.248 NA
ATOM     53  C   UNL A   1      40.448  32.264  30.774  1.00  0.00     0.031 C 
ATOM     54  C   UNL A   1      44.971  29.232  32.627  1.00  0.00     0.029 A 
ATOM     55  C   UNL A   1      43.970  30.191  32.452  1.00  0.00     0.049 A 
ATOM     56  H   UNL A   1      44.307  32.076  31.574  1.00  0.00     0.167 HD
ATOM     57  C   UNL A   1      41.620  31.044  32.370  1.00  0.00     0.074 A 
ATOM     58  C   UNL A   1      41.654  32.057  31.315  1.00  0.00     0.031 C 
ATOM     59  C   UNL A   1      42.590  30.235  32.895  1.00  0.00     0.031 A 
BRANCH  46  60
ATOM     60  C   UNL A   1      45.746  32.216  28.962  1.00  0.00    -0.014 A 
ATOM     61  C   UNL A   1      44.657  33.105  28.978  1.00  0.00     0.010 A 
ATOM     62  C   UNL A   1      46.883  32.609  28.220  1.00  0.00     0.010 A 
ATOM     63  C   UNL A   1      44.685  34.295  28.239  1.00  0.00     0.020 A 
ATOM     64  C   UNL A   1      46.939  33.810  27.519  1.00  0.00     0.020 A 
ATOM     65  C   UNL A   1      45.825  34.633  27.507  1.00  0.00     0.054 A 
BRANCH  65  66
ATOM     66  S   UNL A   1      45.818  36.119  26.480  1.00  0.00     0.124 S 
ATOM     67  O   UNL A   1      44.389  36.359  26.310  1.00  0.00    -0.237 OA
ATOM     68  O   UNL A   1      46.529  37.077  27.323  1.00  0.00    -0.237 OA
ATOM     69  O   UNL A   1      46.534  35.706  25.275  1.00  0.00    -0.744 OA
ENDBRANCH  65  66
ENDBRANCH  46  60
BRANCH  47  70
ATOM     70  C   UNL A   1      37.338  31.200  30.332  1.00  0.00    -0.014 A 
ATOM     71  C   UNL A   1      36.433  31.739  31.269  1.00  0.00     0.010 A 
ATOM     72  C   UNL A   1      37.143  31.540  28.977  1.00  0.00     0.010 A 
ATOM     73  C   UNL A   1      35.395  32.605  30.866  1.00  0.00     0.020 A 
ATOM     74  C   UNL A   1      36.116  32.401  28.568  1.00  0.00     0.020 A 
ATOM     75  C   UNL A   1      35.252  32.942  29.517  1.00  0.00     0.054 A 
BRANCH  75  76
ATOM     76  S   UNL A   1      33.996  34.160  29.014  1.00  0.00     0.124 S 
ATOM     77  O   UNL A   1      34.805  35.203  28.392  1.00  0.00    -0.237 OA
ATOM     78  O   UNL A   1      33.149  33.391  28.107  1.00  0.00    -0.237 OA
ATOM     79  O   UNL A   1      33.361  34.540  30.275  1.00  0.00    -0.744 OA
ENDBRANCH  75  76
ENDBRANCH  47  70
BRANCH  59  80
ATOM     80  C   UNL A   1      42.169  29.151  33.866  1.00  0.00    -0.014 A 
ATOM     81  C   UNL A   1      41.890  27.822  33.487  1.00  0.00     0.010 A 
ATOM     82  C   UNL A   1      42.221  29.457  35.236  1.00  0.00     0.010 A 
ATOM     83  C   UNL A   1      41.660  26.830  34.457  1.00  0.00     0.020 A 
ATOM     84  C   UNL A   1      42.009  28.473  36.205  1.00  0.00     0.020 A 
ATOM     85  C   UNL A   1      41.725  27.165  35.814  1.00  0.00     0.054 A 
BRANCH  85  86
ATOM     86  S   UNL A   1      41.488  25.875  37.071  1.00  0.00     0.124 S 
ATOM     87  O   UNL A   1      40.142  26.153  37.564  1.00  0.00    -0.237 OA
ATOM     88  O   UNL A   1      41.633  24.641  36.302  1.00  0.00    -0.237 OA
ATOM     89  O   UNL A   1      42.562  26.124  38.032  1.00  0.00    -0.744 OA
ENDBRANCH  85  86
ENDBRANCH  59  80
ENDBRANCH  33  34
ENDBRANCH  26  28
ENDBRANCH  25  26
ENDBRANCH  24  25
ENDBRANCH   1  24
TORSDOF 19
ENDMDL
MODEL 3
REMARK VINA RESULT:      -9.4      4.990     11.813
REMARK SMILES Cc1nc(C(=O)OCCOCCOC(=O)c2ccc(-c3c4nc(c(-c5ccc(S(=O)(=O)[O-])cc5)c5ccc([nH]5)c(-c5ccc(S(=O)(=O)[O-])cc5)c5nc(c(-c6ccc(S(=O)(=O)[O-])cc6)c6ccc3[nH]6)C=C5)C=C4)cc2)nn1-c1cccc(C(F)(F)F)c1
REMARK SMILES IDX 11 1 10 2 9 3 8 4 7 5 5 6 6 7 4 8 1 9 2 10 3 11 77 12 76 13
REMARK SMILES IDX 78 14 79 15 87 16 80 17 82 18 81 19 83 20 84 21 85 22 86 23
REMARK SMILES IDX 12 24 13 25 14 26 15 27 16 28 17 29 75 30 18 31 74 32 19 33
REMARK SMILES IDX 20 34 21 35 68 36 22 37 73 38 67 39 69 40 23 41 72 42 66 43
REMARK SMILES IDX 65 44 24 46 54 47 35 48 53 49 36 50 39 51 52 52 70 53 37 54
REMARK SMILES IDX 38 55 51 57 71 58 40 59 25 60 26 61 34 62 27 63 33 64 28 65
REMARK SMILES IDX 29 66 30 67 31 68 32 69 55 70 56 71 64 72 57 73 63 74 58 75
REMARK SMILES IDX 59 76 60 77 61 78 62 79 41 80 42 81 50 82 43 83 49 84 44 85
REMARK SMILES IDX 45 86 46 87 47 88 48 89
REMARK H PARENT 69 45 39 56
REMARK Flexibility Score: inf
ROOT
ATOM      1  C   UNL A   1      43.131  20.787  26.093  1.00  0.00     0.202 C 
ENDROOT
BRANCH   1   2
ATOM      2  O   UNL A   1      41.838  20.281  25.775  1.00  0.00    -0.374 OA
BRANCH   2   3
ATOM      3  C   UNL A   1      40.747  20.517  26.666  1.00  0.00     0.202 C 
BRANCH   3   4
ATOM      4  C   UNL A   1      40.037  21.869  26.572  1.00  0.00     0.261 C 
BRANCH   4   5
ATOM      5  O   UNL A   1      38.840  21.815  25.783  1.00  0.00    -0.457 OA
BRANCH   5   6
ATOM      6  C   UNL A   1      37.964  22.856  25.953  1.00  0.00     0.378 C 
ATOM      7  O   UNL A   1      38.303  24.020  26.141  1.00  0.00    -0.242 OA
BRANCH   6   8
ATOM      8  C   UNL A   1      36.564  22.440  25.766  1.00  0.00     0.260 A 
ATOM      9  C   UNL A   1      34.019  20.079  24.923  1.00  0.00     0.090 C 
ATOM     10  C   UNL A   1      34.880  21.185  25.405  1.00  0.00     0.130 A 
ATOM     11  N   UNL A   1      36.197  21.147  25.454  1.00  0.00    -0.206 NA
ATOM     12  N   UNL A   1      34.451  22.467  25.703  1.00  0.00    -0.217 N 
ATOM     13  N   UNL A   1      35.522  23.277  25.880  1.00  0.00    -0.138 NA
BRANCH  12  14
ATOM     14  C   UNL A   1      33.146  23.008  25.792  1.00  0.00     0.067 A 
ATOM     15  C   UNL A   1      32.407  22.755  26.958  1.00  0.00     0.028 A 
ATOM     16  C   UNL A   1      32.568  23.733  24.742  1.00  0.00     0.041 A 
ATOM     17  C   UNL A   1      31.116  23.255  27.096  1.00  0.00     0.003 A 
ATOM     18  C   UNL A   1      31.240  24.192  24.856  1.00  0.00     0.058 A 
ATOM     19  C   UNL A   1      30.534  23.964  26.049  1.00  0.00     0.013 A 
BRANCH  18  20
ATOM     20  C   UNL A   1      30.538  24.879  23.706  1.00  0.00     0.416 C 
ATOM     21  F   UNL A   1      29.905  23.999  22.888  1.00  0.00    -0.166 F 
ATOM     22  F   UNL A   1      29.587  25.755  24.134  1.00  0.00    -0.166 F 
ATOM     23  F   UNL A   1      31.380  25.599  22.916  1.00  0.00    -0.166 F 
ENDBRANCH  18  20
ENDBRANCH  12  14
ENDBRANCH   6   8
ENDBRANCH   5   6
ENDBRANCH   4   5
ENDBRANCH   3   4
ENDBRANCH   2   3
ENDBRANCH   1   2
BRANCH   1  24
ATOM     24  C   UNL A   1      43.781  21.766  25.128  1.00  0.00     0.261 C 
BRANCH  24  25
ATOM     25  O   UNL A   1      42.923  22.851  24.815  1.00  0.00    -0.460 OA
BRANCH  25  26
ATOM     26  C   UNL A   1      43.484  24.072  24.997  1.00  0.00     0.338 C 
ATOM     27  O   UNL A   1      44.524  24.483  24.526  1.00  0.00    -0.246 OA
BRANCH  26  28
ATOM     28  C   UNL A   1      42.681  24.788  25.995  1.00  0.00     0.060 A 
ATOM     29  C   UNL A   1      41.768  25.720  25.500  1.00  0.00     0.016 A 
ATOM     30  C   UNL A   1      43.071  24.765  27.343  1.00  0.00     0.016 A 
ATOM     31  C   UNL A   1      41.457  26.799  26.294  1.00  0.00     0.010 A 
ATOM     32  C   UNL A   1      42.771  25.846  28.127  1.00  0.00     0.010 A 
ATOM     33  C   UNL A   1      42.061  26.894  27.551  1.00  0.00    -0.014 A 
BRANCH  33  34
ATOM     34  C   UNL A   1      41.872  28.102  28.317  1.00  0.00     0.031 A 
ATOM     35  C   UNL A   1      43.012  29.026  28.169  1.00  0.00     0.074 A 
ATOM     36  C   UNL A   1      40.726  28.367  28.973  1.00  0.00     0.049 A 
ATOM     37  N   UNL A   1      43.951  29.247  29.026  1.00  0.00    -0.248 NA
ATOM     38  C   UNL A   1      43.273  29.574  26.826  1.00  0.00     0.031 C 
ATOM     39  C   UNL A   1      39.461  27.625  28.949  1.00  0.00     0.029 A 
ATOM     40  N   UNL A   1      40.424  29.444  29.740  1.00  0.00    -0.354 N 
ATOM     41  C   UNL A   1      44.780  30.177  28.413  1.00  0.00     0.074 A 
ATOM     42  C   UNL A   1      44.471  30.129  27.007  1.00  0.00     0.031 C 
ATOM     43  C   UNL A   1      38.478  28.402  29.464  1.00  0.00     0.029 A 
ATOM     44  C   UNL A   1      39.068  29.626  29.981  1.00  0.00     0.049 A 
ATOM     45  H   UNL A   1      41.113  30.049  30.100  1.00  0.00     0.167 HD
ATOM     46  C   UNL A   1      45.396  31.149  29.138  1.00  0.00     0.031 A 
ATOM     47  C   UNL A   1      38.485  30.734  30.512  1.00  0.00     0.031 A 
ATOM     48  C   UNL A   1      45.391  30.844  30.547  1.00  0.00     0.049 A 
ATOM     49  C   UNL A   1      39.556  31.475  31.230  1.00  0.00     0.074 A 
ATOM     50  C   UNL A   1      45.895  29.822  31.324  1.00  0.00     0.029 A 
ATOM     51  N   UNL A   1      44.419  31.459  31.304  1.00  0.00    -0.354 N 
ATOM     52  N   UNL A   1      40.168  30.995  32.278  1.00  0.00    -0.248 NA
ATOM     53  C   UNL A   1      40.286  32.498  30.499  1.00  0.00     0.031 C 
ATOM     54  C   UNL A   1      44.902  29.589  32.321  1.00  0.00     0.029 A 
ATOM     55  C   UNL A   1      43.877  30.523  32.149  1.00  0.00     0.049 A 
ATOM     56  H   UNL A   1      44.159  32.407  31.250  1.00  0.00     0.167 HD
ATOM     57  C   UNL A   1      41.507  31.321  32.091  1.00  0.00     0.074 A 
ATOM     58  C   UNL A   1      41.503  32.324  31.026  1.00  0.00     0.031 C 
ATOM     59  C   UNL A   1      42.502  30.540  32.610  1.00  0.00     0.031 A 
BRANCH  46  60
ATOM     60  C   UNL A   1      45.560  32.554  28.617  1.00  0.00    -0.014 A 
ATOM     61  C   UNL A   1      46.857  33.081  28.487  1.00  0.00     0.010 A 
ATOM     62  C   UNL A   1      44.485  33.466  28.517  1.00  0.00     0.010 A 
ATOM     63  C   UNL A   1      47.064  34.458  28.327  1.00  0.00     0.020 A 
ATOM     64  C   UNL A   1      44.678  34.829  28.312  1.00  0.00     0.020 A 
ATOM     65  C   UNL A   1      45.970  35.322  28.250  1.00  0.00     0.054 A 
BRANCH  65  66
ATOM     66  S   UNL A   1      46.247  37.104  28.142  1.00  0.00     0.124 S 
ATOM     67  O   UNL A   1      45.785  37.397  26.789  1.00  0.00    -0.237 OA
ATOM     68  O   UNL A   1      45.409  37.610  29.225  1.00  0.00    -0.237 OA
ATOM     69  O   UNL A   1      47.686  37.240  28.358  1.00  0.00    -0.744 OA
ENDBRANCH  65  66
ENDBRANCH  46  60
BRANCH  47  70
ATOM     70  C   UNL A   1      37.196  31.358  30.108  1.00  0.00    -0.014 A 
ATOM     71  C   UNL A   1      36.321  31.944  31.045  1.00  0.00     0.010 A 
ATOM     72  C   UNL A   1      36.949  31.619  28.744  1.00  0.00     0.010 A 
ATOM     73  C   UNL A   1      35.262  32.779  30.632  1.00  0.00     0.020 A 
ATOM     74  C   UNL A   1      35.899  32.448  28.325  1.00  0.00     0.020 A 
ATOM     75  C   UNL A   1      35.066  33.036  29.272  1.00  0.00     0.054 A 
BRANCH  75  76
ATOM     76  S   UNL A   1      33.782  34.215  28.748  1.00  0.00     0.124 S 
ATOM     77  O   UNL A   1      33.149  34.570  30.015  1.00  0.00    -0.237 OA
ATOM     78  O   UNL A   1      34.559  35.274  28.111  1.00  0.00    -0.237 OA
ATOM     79  O   UNL A   1      32.946  33.432  27.839  1.00  0.00    -0.744 OA
ENDBRANCH  75  76
ENDBRANCH  47  70
BRANCH  59  80
ATOM     80  C   UNL A   1      42.118  29.456  33.597  1.00  0.00    -0.014 A 
ATOM     81  C   UNL A   1      41.852  28.120  33.233  1.00  0.00     0.010 A 
ATOM     82  C   UNL A   1      42.196  29.771  34.964  1.00  0.00     0.010 A 
ATOM     83  C   UNL A   1      41.658  27.132  34.214  1.00  0.00     0.020 A 
ATOM     84  C   UNL A   1      42.019  28.791  35.944  1.00  0.00     0.020 A 
ATOM     85  C   UNL A   1      41.747  27.477  35.567  1.00  0.00     0.054 A 
BRANCH  85  86
ATOM     86  S   UNL A   1      41.558  26.191  36.837  1.00  0.00     0.124 S 
ATOM     87  O   UNL A   1      40.490  26.728  37.677  1.00  0.00    -0.237 OA
ATOM     88  O   UNL A   1      41.207  25.009  36.054  1.00  0.00    -0.237 OA
ATOM     89  O   UNL A   1      42.874  26.133  37.472  1.00  0.00    -0.744 OA
ENDBRANCH  85  86
ENDBRANCH  59  80
ENDBRANCH  33  34
ENDBRANCH  26  28
ENDBRANCH  25  26
ENDBRANCH  24  25
ENDBRANCH   1  24
TORSDOF 19
ENDMDL
