MODEL 1
REMARK VINA RESULT:      -9.7      0.000      0.000
REMARK SMILES CCn1ccnc1[C@H](F)C(=O)OCCOCCOC(=O)c1ccc(-c2c3nc(c(-c4ccc(S(=O)(=O)[O-])cc4)c4ccc([nH]4)c(-c4ccc(S(=O)(=O)[O-])cc4)c4nc(c(-c5ccc(S(=O)(=O)[O-])cc5)c5ccc2[nH]5)C=C4)C=C3)cc1
REMARK SMILES IDX 16 1 15 2 14 3 13 4 12 5 10 6 11 7 8 8 9 9 7 10 3 11 4 12
REMARK SMILES IDX 5 13 6 14 2 15 1 16 17 17 18 18 19 19 20 20 21 21 22 22
REMARK SMILES IDX 80 23 23 24 79 25 24 26 25 27 26 28 73 29 27 30 78 31 72 32
REMARK SMILES IDX 74 33 28 34 77 35 71 36 70 37 29 39 59 40 40 41 58 42 41 43
REMARK SMILES IDX 44 44 57 45 75 46 42 47 43 48 56 50 76 51 45 52 30 53 31 54
REMARK SMILES IDX 39 55 32 56 38 57 33 58 34 59 35 60 36 61 37 62 60 63 61 64
REMARK SMILES IDX 69 65 62 66 68 67 63 68 64 69 65 70 66 71 67 72 46 73 47 74
REMARK SMILES IDX 55 75 48 76 54 77 49 78 50 79 51 80 52 81 53 82
REMARK H PARENT 74 38 44 49
REMARK Flexibility Score: inf
ROOT
ATOM      1  C   UNL A   1      32.680  30.109  25.689  1.00  0.00     0.202 C 
ENDROOT
BRANCH   1   2
ATOM      2  O   UNL A   1      31.639  29.153  25.516  1.00  0.00    -0.374 OA
BRANCH   2   3
ATOM      3  C   UNL A   1      30.936  29.057  24.276  1.00  0.00     0.202 C 
BRANCH   3   4
ATOM      4  C   UNL A   1      31.684  28.506  23.064  1.00  0.00     0.261 C 
BRANCH   4   5
ATOM      5  O   UNL A   1      31.777  27.080  23.115  1.00  0.00    -0.461 OA
BRANCH   5   6
ATOM      6  C   UNL A   1      32.988  26.562  22.770  1.00  0.00     0.348 C 
ATOM      7  O   UNL A   1      33.401  26.440  21.618  1.00  0.00    -0.248 OA
BRANCH   6   8
ATOM      8  C   UNL A   1      33.840  26.270  23.990  1.00  0.00     0.341 C 
ATOM      9  F   UNL A   1      34.156  27.377  24.729  1.00  0.00    -0.226 F 
BRANCH   8  10
ATOM     10  C   UNL A   1      33.120  25.263  24.810  1.00  0.00     0.155 A 
ATOM     11  N   UNL A   1      33.052  23.908  24.580  1.00  0.00    -0.332 N 
ATOM     12  C   UNL A   1      32.167  23.395  25.508  1.00  0.00     0.107 A 
ATOM     13  C   UNL A   1      31.795  24.446  26.300  1.00  0.00     0.131 A 
ATOM     14  N   UNL A   1      32.401  25.586  25.875  1.00  0.00    -0.238 NA
BRANCH  11  15
ATOM     15  C   UNL A   1      33.688  23.035  23.610  1.00  0.00     0.120 C 
ATOM     16  C   UNL A   1      33.165  22.940  22.187  1.00  0.00     0.027 C 
ENDBRANCH  11  15
ENDBRANCH   8  10
ENDBRANCH   6   8
ENDBRANCH   5   6
ENDBRANCH   4   5
ENDBRANCH   3   4
ENDBRANCH   2   3
ENDBRANCH   1   2
BRANCH   1  17
ATOM     17  C   UNL A   1      33.236  30.358  27.084  1.00  0.00     0.261 C 
BRANCH  17  18
ATOM     18  O   UNL A   1      34.650  30.445  27.086  1.00  0.00    -0.460 OA
BRANCH  18  19
ATOM     19  C   UNL A   1      35.132  31.475  27.807  1.00  0.00     0.338 C 
ATOM     20  O   UNL A   1      34.930  32.675  27.607  1.00  0.00    -0.246 OA
BRANCH  19  21
ATOM     21  C   UNL A   1      36.094  30.971  28.781  1.00  0.00     0.060 A 
ATOM     22  C   UNL A   1      37.083  31.872  29.185  1.00  0.00     0.016 A 
ATOM     23  C   UNL A   1      36.240  29.584  28.915  1.00  0.00     0.016 A 
ATOM     24  C   UNL A   1      38.336  31.374  29.445  1.00  0.00     0.010 A 
ATOM     25  C   UNL A   1      37.497  29.092  29.139  1.00  0.00     0.010 A 
ATOM     26  C   UNL A   1      38.542  30.000  29.298  1.00  0.00    -0.014 A 
BRANCH  26  27
ATOM     27  C   UNL A   1      39.885  29.489  29.415  1.00  0.00     0.031 A 
ATOM     28  C   UNL A   1      40.250  29.266  30.827  1.00  0.00     0.074 A 
ATOM     29  C   UNL A   1      40.626  29.142  28.349  1.00  0.00     0.049 A 
ATOM     30  N   UNL A   1      40.964  30.036  31.577  1.00  0.00    -0.248 NA
ATOM     31  C   UNL A   1      39.515  28.217  31.558  1.00  0.00     0.031 C 
ATOM     32  C   UNL A   1      40.227  29.050  26.943  1.00  0.00     0.029 A 
ATOM     33  N   UNL A   1      41.900  28.681  28.329  1.00  0.00    -0.354 N 
ATOM     34  C   UNL A   1      40.973  29.408  32.814  1.00  0.00     0.074 A 
ATOM     35  C   UNL A   1      39.851  28.507  32.813  1.00  0.00     0.031 C 
ATOM     36  C   UNL A   1      41.152  28.327  26.266  1.00  0.00     0.029 A 
ATOM     37  C   UNL A   1      42.261  28.024  27.158  1.00  0.00     0.049 A 
ATOM     38  H   UNL A   1      42.521  28.800  29.082  1.00  0.00     0.167 HD
ATOM     39  C   UNL A   1      42.089  29.397  33.591  1.00  0.00     0.031 A 
ATOM     40  C   UNL A   1      43.351  27.227  26.995  1.00  0.00     0.031 A 
ATOM     41  C   UNL A   1      43.058  30.362  33.134  1.00  0.00     0.049 A 
ATOM     42  C   UNL A   1      44.292  27.550  28.103  1.00  0.00     0.074 A 
ATOM     43  C   UNL A   1      43.056  31.731  32.953  1.00  0.00     0.029 A 
ATOM     44  N   UNL A   1      44.102  29.876  32.377  1.00  0.00    -0.354 N 
ATOM     45  N   UNL A   1      44.886  28.706  28.221  1.00  0.00    -0.248 NA
ATOM     46  C   UNL A   1      44.183  26.780  29.335  1.00  0.00     0.031 C 
ATOM     47  C   UNL A   1      43.797  31.947  31.756  1.00  0.00     0.029 A 
ATOM     48  C   UNL A   1      44.282  30.716  31.308  1.00  0.00     0.049 A 
ATOM     49  H   UNL A   1      44.627  29.066  32.570  1.00  0.00     0.167 HD
ATOM     50  C   UNL A   1      44.828  29.001  29.578  1.00  0.00     0.074 A 
ATOM     51  C   UNL A   1      44.463  27.740  30.224  1.00  0.00     0.031 C 
ATOM     52  C   UNL A   1      44.789  30.294  30.018  1.00  0.00     0.031 A 
BRANCH  39  53
ATOM     53  C   UNL A   1      42.476  28.215  34.445  1.00  0.00    -0.014 A 
ATOM     54  C   UNL A   1      42.810  28.440  35.793  1.00  0.00     0.010 A 
ATOM     55  C   UNL A   1      42.780  26.940  33.917  1.00  0.00     0.010 A 
ATOM     56  C   UNL A   1      43.472  27.463  36.547  1.00  0.00     0.020 A 
ATOM     57  C   UNL A   1      43.395  25.944  34.671  1.00  0.00     0.020 A 
ATOM     58  C   UNL A   1      43.767  26.224  35.975  1.00  0.00     0.054 A 
BRANCH  58  59
ATOM     59  S   UNL A   1      44.698  25.002  36.924  1.00  0.00     0.124 S 
ATOM     60  O   UNL A   1      44.332  23.759  36.252  1.00  0.00    -0.237 OA
ATOM     61  O   UNL A   1      46.075  25.450  36.731  1.00  0.00    -0.237 OA
ATOM     62  O   UNL A   1      44.182  25.157  38.282  1.00  0.00    -0.744 OA
ENDBRANCH  58  59
ENDBRANCH  39  53
BRANCH  40  63
ATOM     63  C   UNL A   1      43.456  25.972  26.201  1.00  0.00    -0.014 A 
ATOM     64  C   UNL A   1      44.580  25.711  25.390  1.00  0.00     0.010 A 
ATOM     65  C   UNL A   1      42.584  24.895  26.463  1.00  0.00     0.010 A 
ATOM     66  C   UNL A   1      44.851  24.413  24.914  1.00  0.00     0.020 A 
ATOM     67  C   UNL A   1      42.844  23.602  25.990  1.00  0.00     0.020 A 
ATOM     68  C   UNL A   1      43.990  23.360  25.237  1.00  0.00     0.054 A 
BRANCH  68  69
ATOM     69  S   UNL A   1      44.435  21.656  24.778  1.00  0.00     0.124 S 
ATOM     70  O   UNL A   1      43.278  20.895  25.242  1.00  0.00    -0.237 OA
ATOM     71  O   UNL A   1      44.593  21.745  23.330  1.00  0.00    -0.237 OA
ATOM     72  O   UNL A   1      45.672  21.413  25.518  1.00  0.00    -0.744 OA
ENDBRANCH  68  69
ENDBRANCH  40  63
BRANCH  52  73
ATOM     73  C   UNL A   1      45.101  31.399  29.033  1.00  0.00    -0.014 A 
ATOM     74  C   UNL A   1      46.400  31.862  28.741  1.00  0.00     0.010 A 
ATOM     75  C   UNL A   1      44.031  31.878  28.257  1.00  0.00     0.010 A 
ATOM     76  C   UNL A   1      46.613  32.799  27.716  1.00  0.00     0.020 A 
ATOM     77  C   UNL A   1      44.239  32.795  27.225  1.00  0.00     0.020 A 
ATOM     78  C   UNL A   1      45.527  33.260  26.965  1.00  0.00     0.054 A 
BRANCH  78  79
ATOM     79  S   UNL A   1      45.803  34.447  25.618  1.00  0.00     0.124 S 
ATOM     80  O   UNL A   1      47.239  34.329  25.382  1.00  0.00    -0.237 OA
ATOM     81  O   UNL A   1      44.945  33.934  24.552  1.00  0.00    -0.237 OA
ATOM     82  O   UNL A   1      45.373  35.724  26.187  1.00  0.00    -0.744 OA
ENDBRANCH  78  79
ENDBRANCH  52  73
ENDBRANCH  26  27
ENDBRANCH  19  21
ENDBRANCH  18  19
ENDBRANCH  17  18
ENDBRANCH   1  17
TORSDOF 19
ENDMDL
MODEL 2
REMARK VINA RESULT:      -9.7      2.904      9.397
REMARK SMILES CCn1ccnc1[C@H](F)C(=O)OCCOCCOC(=O)c1ccc(-c2c3nc(c(-c4ccc(S(=O)(=O)[O-])cc4)c4ccc([nH]4)c(-c4ccc(S(=O)(=O)[O-])cc4)c4nc(c(-c5ccc(S(=O)(=O)[O-])cc5)c5ccc2[nH]5)C=C4)C=C3)cc1
REMARK SMILES IDX 16 1 15 2 14 3 13 4 12 5 10 6 11 7 8 8 9 9 7 10 3 11 4 12
REMARK SMILES IDX 5 13 6 14 2 15 1 16 17 17 18 18 19 19 20 20 21 21 22 22
REMARK SMILES IDX 80 23 23 24 79 25 24 26 25 27 26 28 73 29 27 30 78 31 72 32
REMARK SMILES IDX 74 33 28 34 77 35 71 36 70 37 29 39 59 40 40 41 58 42 41 43
REMARK SMILES IDX 44 44 57 45 75 46 42 47 43 48 56 50 76 51 45 52 30 53 31 54
REMARK SMILES IDX 39 55 32 56 38 57 33 58 34 59 35 60 36 61 37 62 60 63 61 64
REMARK SMILES IDX 69 65 62 66 68 67 63 68 64 69 65 70 66 71 67 72 46 73 47 74
REMARK SMILES IDX 55 75 48 76 54 77 49 78 50 79 51 80 52 81 53 82
REMARK H PARENT 74 38 44 49
REMARK Flexibility Score: inf
ROOT
ATOM      1  C   UNL A   1      36.793  21.221  25.402  1.00  0.00     0.202 C 
ENDROOT
BRANCH   1   2
ATOM      2  O   UNL A   1      35.759  22.120  25.018  1.00  0.00    -0.374 OA
BRANCH   2   3
ATOM      3  C   UNL A   1      34.536  22.183  25.752  1.00  0.00     0.202 C 
BRANCH   3   4
ATOM      4  C   UNL A   1      34.006  23.558  26.156  1.00  0.00     0.261 C 
BRANCH   4   5
ATOM      5  O   UNL A   1      33.291  24.174  25.081  1.00  0.00    -0.461 OA
BRANCH   5   6
ATOM      6  C   UNL A   1      33.213  25.532  25.136  1.00  0.00     0.348 C 
ATOM      7  O   UNL A   1      34.069  26.306  24.713  1.00  0.00    -0.248 OA
BRANCH   6   8
ATOM      8  C   UNL A   1      31.869  25.994  25.666  1.00  0.00     0.341 C 
ATOM      9  F   UNL A   1      31.716  25.838  27.016  1.00  0.00    -0.226 F 
BRANCH   8  10
ATOM     10  C   UNL A   1      31.694  27.414  25.266  1.00  0.00     0.155 A 
ATOM     11  N   UNL A   1      32.060  28.526  25.990  1.00  0.00    -0.332 N 
ATOM     12  C   UNL A   1      31.582  29.621  25.299  1.00  0.00     0.107 A 
ATOM     13  C   UNL A   1      31.012  29.131  24.156  1.00  0.00     0.131 A 
ATOM     14  N   UNL A   1      31.103  27.774  24.136  1.00  0.00    -0.238 NA
BRANCH  11  15
ATOM     15  C   UNL A   1      32.781  28.701  27.237  1.00  0.00     0.120 C 
ATOM     16  C   UNL A   1      34.238  29.133  27.242  1.00  0.00     0.027 C 
ENDBRANCH  11  15
ENDBRANCH   8  10
ENDBRANCH   6   8
ENDBRANCH   5   6
ENDBRANCH   4   5
ENDBRANCH   3   4
ENDBRANCH   2   3
ENDBRANCH   1   2
BRANCH   1  17
ATOM     17  C   UNL A   1      38.238  21.700  25.389  1.00  0.00     0.261 C 
BRANCH  17  18
ATOM     18  O   UNL A   1      38.494  22.649  26.409  1.00  0.00    -0.460 OA
BRANCH  18  19
ATOM     19  C   UNL A   1      39.723  22.552  26.950  1.00  0.00     0.338 C 
ATOM     20  O   UNL A   1      40.205  21.569  27.516  1.00  0.00    -0.246 OA
BRANCH  19  21
ATOM     21  C   UNL A   1      40.364  23.862  26.925  1.00  0.00     0.060 A 
ATOM     22  C   UNL A   1      41.529  23.986  27.688  1.00  0.00     0.016 A 
ATOM     23  C   UNL A   1      39.599  24.969  26.535  1.00  0.00     0.016 A 
ATOM     24  C   UNL A   1      41.763  25.188  28.309  1.00  0.00     0.010 A 
ATOM     25  C   UNL A   1      39.814  26.155  27.184  1.00  0.00     0.010 A 
ATOM     26  C   UNL A   1      40.828  26.212  28.136  1.00  0.00    -0.014 A 
BRANCH  26  27
ATOM     27  C   UNL A   1      40.982  27.420  28.906  1.00  0.00     0.031 A 
ATOM     28  C   UNL A   1      42.072  28.258  28.374  1.00  0.00     0.074 A 
ATOM     29  C   UNL A   1      40.132  27.769  29.888  1.00  0.00     0.049 A 
ATOM     30  N   UNL A   1      43.275  28.354  28.833  1.00  0.00    -0.248 NA
ATOM     31  C   UNL A   1      41.887  28.836  27.031  1.00  0.00     0.031 C 
ATOM     32  C   UNL A   1      38.863  27.146  30.269  1.00  0.00     0.029 A 
ATOM     33  N   UNL A   1      40.186  28.856  30.696  1.00  0.00    -0.354 N 
ATOM     34  C   UNL A   1      43.913  29.224  27.961  1.00  0.00     0.074 A 
ATOM     35  C   UNL A   1      43.130  29.227  26.754  1.00  0.00     0.031 C 
ATOM     36  C   UNL A   1      38.163  28.007  31.046  1.00  0.00     0.029 A 
ATOM     37  C   UNL A   1      38.986  29.175  31.320  1.00  0.00     0.049 A 
ATOM     38  H   UNL A   1      41.008  29.379  30.830  1.00  0.00     0.167 HD
ATOM     39  C   UNL A   1      44.809  30.144  28.412  1.00  0.00     0.031 A 
ATOM     40  C   UNL A   1      38.694  30.355  31.930  1.00  0.00     0.031 A 
ATOM     41  C   UNL A   1      45.225  29.855  29.763  1.00  0.00     0.049 A 
ATOM     42  C   UNL A   1      39.992  31.032  32.206  1.00  0.00     0.074 A 
ATOM     43  C   UNL A   1      45.835  28.783  30.383  1.00  0.00     0.029 A 
ATOM     44  N   UNL A   1      44.621  30.586  30.763  1.00  0.00    -0.354 N 
ATOM     45  N   UNL A   1      40.874  30.566  33.046  1.00  0.00    -0.248 NA
ATOM     46  C   UNL A   1      40.517  31.935  31.192  1.00  0.00     0.031 C 
ATOM     47  C   UNL A   1      45.193  28.673  31.650  1.00  0.00     0.029 A 
ATOM     48  C   UNL A   1      44.282  29.725  31.775  1.00  0.00     0.049 A 
ATOM     49  H   UNL A   1      44.461  31.557  30.752  1.00  0.00     0.167 HD
ATOM     50  C   UNL A   1      42.100  30.754  32.419  1.00  0.00     0.074 A 
ATOM     51  C   UNL A   1      41.824  31.679  31.320  1.00  0.00     0.031 C 
ATOM     52  C   UNL A   1      43.153  29.918  32.663  1.00  0.00     0.031 A 
BRANCH  39  53
ATOM     53  C   UNL A   1      44.933  31.523  27.813  1.00  0.00    -0.014 A 
ATOM     54  C   UNL A   1      46.197  31.950  27.366  1.00  0.00     0.010 A 
ATOM     55  C   UNL A   1      43.925  32.507  27.911  1.00  0.00     0.010 A 
ATOM     56  C   UNL A   1      46.451  33.301  27.098  1.00  0.00     0.020 A 
ATOM     57  C   UNL A   1      44.153  33.846  27.601  1.00  0.00     0.020 A 
ATOM     58  C   UNL A   1      45.426  34.240  27.227  1.00  0.00     0.054 A 
BRANCH  58  59
ATOM     59  S   UNL A   1      45.782  35.991  26.965  1.00  0.00     0.124 S 
ATOM     60  O   UNL A   1      46.596  36.309  28.135  1.00  0.00    -0.237 OA
ATOM     61  O   UNL A   1      46.486  35.972  25.685  1.00  0.00    -0.237 OA
ATOM     62  O   UNL A   1      44.459  36.609  26.934  1.00  0.00    -0.744 OA
ENDBRANCH  58  59
ENDBRANCH  39  53
BRANCH  40  63
ATOM     63  C   UNL A   1      37.398  31.088  31.934  1.00  0.00    -0.014 A 
ATOM     64  C   UNL A   1      36.818  31.544  33.135  1.00  0.00     0.010 A 
ATOM     65  C   UNL A   1      36.869  31.593  30.728  1.00  0.00     0.010 A 
ATOM     66  C   UNL A   1      35.795  32.513  33.130  1.00  0.00     0.020 A 
ATOM     67  C   UNL A   1      35.849  32.553  30.714  1.00  0.00     0.020 A 
ATOM     68  C   UNL A   1      35.331  33.028  31.916  1.00  0.00     0.054 A 
BRANCH  68  69
ATOM     69  S   UNL A   1      34.143  34.407  31.915  1.00  0.00     0.124 S 
ATOM     70  O   UNL A   1      34.960  35.523  32.382  1.00  0.00    -0.237 OA
ATOM     71  O   UNL A   1      33.727  34.469  30.517  1.00  0.00    -0.237 OA
ATOM     72  O   UNL A   1      33.105  33.967  32.846  1.00  0.00    -0.744 OA
ENDBRANCH  68  69
ENDBRANCH  40  63
BRANCH  52  73
ATOM     73  C   UNL A   1      43.059  28.966  33.835  1.00  0.00    -0.014 A 
ATOM     74  C   UNL A   1      43.501  29.265  35.140  1.00  0.00     0.010 A 
ATOM     75  C   UNL A   1      42.347  27.772  33.629  1.00  0.00     0.010 A 
ATOM     76  C   UNL A   1      43.257  28.376  36.201  1.00  0.00     0.020 A 
ATOM     77  C   UNL A   1      42.085  26.894  34.681  1.00  0.00     0.020 A 
ATOM     78  C   UNL A   1      42.549  27.194  35.961  1.00  0.00     0.054 A 
BRANCH  78  79
ATOM     79  S   UNL A   1      42.202  26.059  37.336  1.00  0.00     0.124 S 
ATOM     80  O   UNL A   1      43.170  26.478  38.345  1.00  0.00    -0.237 OA
ATOM     81  O   UNL A   1      40.803  26.343  37.647  1.00  0.00    -0.237 OA
ATOM     82  O   UNL A   1      42.443  24.735  36.762  1.00  0.00    -0.744 OA
ENDBRANCH  78  79
ENDBRANCH  52  73
ENDBRANCH  26  27
ENDBRANCH  19  21
ENDBRANCH  18  19
ENDBRANCH  17  18
ENDBRANCH   1  17
TORSDOF 19
ENDMDL
MODEL 3
REMARK VINA RESULT:      -9.2      3.503      8.164
REMARK SMILES CCn1ccnc1[C@H](F)C(=O)OCCOCCOC(=O)c1ccc(-c2c3nc(c(-c4ccc(S(=O)(=O)[O-])cc4)c4ccc([nH]4)c(-c4ccc(S(=O)(=O)[O-])cc4)c4nc(c(-c5ccc(S(=O)(=O)[O-])cc5)c5ccc2[nH]5)C=C4)C=C3)cc1
REMARK SMILES IDX 16 1 15 2 14 3 13 4 12 5 10 6 11 7 8 8 9 9 7 10 3 11 4 12
REMARK SMILES IDX 5 13 6 14 2 15 1 16 17 17 18 18 19 19 20 20 21 21 22 22
REMARK SMILES IDX 80 23 23 24 79 25 24 26 25 27 26 28 73 29 27 30 78 31 72 32
REMARK SMILES IDX 74 33 28 34 77 35 71 36 70 37 29 39 59 40 40 41 58 42 41 43
REMARK SMILES IDX 44 44 57 45 75 46 42 47 43 48 56 50 76 51 45 52 30 53 31 54
REMARK SMILES IDX 39 55 32 56 38 57 33 58 34 59 35 60 36 61 37 62 60 63 61 64
REMARK SMILES IDX 69 65 62 66 68 67 63 68 64 69 65 70 66 71 67 72 46 73 47 74
REMARK SMILES IDX 55 75 48 76 54 77 49 78 50 79 51 80 52 81 53 82
REMARK H PARENT 74 38 44 49
REMARK Flexibility Score: inf
ROOT
ATOM      1  C   UNL A   1      36.605  21.981  25.689  1.00  0.00     0.202 C 
ENDROOT
BRANCH   1   2
ATOM      2  O   UNL A   1      35.415  22.120  24.922  1.00  0.00    -0.374 OA
BRANCH   2   3
ATOM      3  C   UNL A   1      35.412  22.873  23.708  1.00  0.00     0.202 C 
BRANCH   3   4
ATOM      4  C   UNL A   1      34.569  24.145  23.650  1.00  0.00     0.261 C 
BRANCH   4   5
ATOM      5  O   UNL A   1      34.198  24.461  22.306  1.00  0.00    -0.461 OA
BRANCH   5   6
ATOM      6  C   UNL A   1      32.876  24.722  22.112  1.00  0.00     0.348 C 
ATOM      7  O   UNL A   1      31.952  24.161  22.698  1.00  0.00    -0.248 OA
BRANCH   6   8
ATOM      8  C   UNL A   1      32.669  25.896  21.174  1.00  0.00     0.341 C 
ATOM      9  F   UNL A   1      31.505  25.841  20.458  1.00  0.00    -0.226 F 
BRANCH   8  10
ATOM     10  C   UNL A   1      32.742  27.137  21.987  1.00  0.00     0.155 A 
ATOM     11  N   UNL A   1      31.706  27.744  22.661  1.00  0.00    -0.332 N 
ATOM     12  C   UNL A   1      32.201  28.933  23.156  1.00  0.00     0.107 A 
ATOM     13  C   UNL A   1      33.527  28.961  22.823  1.00  0.00     0.131 A 
ATOM     14  N   UNL A   1      33.855  27.844  22.122  1.00  0.00    -0.238 NA
BRANCH  11  15
ATOM     15  C   UNL A   1      30.322  27.370  22.892  1.00  0.00     0.120 C 
ATOM     16  C   UNL A   1      29.892  26.749  24.210  1.00  0.00     0.027 C 
ENDBRANCH  11  15
ENDBRANCH   8  10
ENDBRANCH   6   8
ENDBRANCH   5   6
ENDBRANCH   4   5
ENDBRANCH   3   4
ENDBRANCH   2   3
ENDBRANCH   1   2
BRANCH   1  17
ATOM     17  C   UNL A   1      37.633  20.933  25.285  1.00  0.00     0.261 C 
BRANCH  17  18
ATOM     18  O   UNL A   1      38.960  21.413  25.409  1.00  0.00    -0.460 OA
BRANCH  18  19
ATOM     19  C   UNL A   1      39.860  20.458  25.711  1.00  0.00     0.338 C 
ATOM     20  O   UNL A   1      39.731  19.244  25.547  1.00  0.00    -0.246 OA
BRANCH  19  21
ATOM     21  C   UNL A   1      40.974  21.060  26.437  1.00  0.00     0.060 A 
ATOM     22  C   UNL A   1      40.879  21.033  27.831  1.00  0.00     0.016 A 
ATOM     23  C   UNL A   1      41.801  21.963  25.756  1.00  0.00     0.016 A 
ATOM     24  C   UNL A   1      41.381  22.104  28.528  1.00  0.00     0.010 A 
ATOM     25  C   UNL A   1      42.268  23.047  26.448  1.00  0.00     0.010 A 
ATOM     26  C   UNL A   1      41.961  23.148  27.803  1.00  0.00    -0.014 A 
BRANCH  26  27
ATOM     27  C   UNL A   1      42.349  24.343  28.509  1.00  0.00     0.031 A 
ATOM     28  C   UNL A   1      41.450  25.468  28.189  1.00  0.00     0.074 A 
ATOM     29  C   UNL A   1      43.321  24.355  29.437  1.00  0.00     0.049 A 
ATOM     30  N   UNL A   1      41.675  26.432  27.361  1.00  0.00    -0.248 NA
ATOM     31  C   UNL A   1      40.047  25.359  28.627  1.00  0.00     0.031 C 
ATOM     32  C   UNL A   1      44.046  23.226  30.023  1.00  0.00     0.029 A 
ATOM     33  N   UNL A   1      43.792  25.412  30.144  1.00  0.00    -0.354 N 
ATOM     34  C   UNL A   1      40.516  27.193  27.387  1.00  0.00     0.074 A 
ATOM     35  C   UNL A   1      39.488  26.337  27.917  1.00  0.00     0.031 C 
ATOM     36  C   UNL A   1      44.665  23.637  31.157  1.00  0.00     0.029 A 
ATOM     37  C   UNL A   1      44.487  25.074  31.299  1.00  0.00     0.049 A 
ATOM     38  H   UNL A   1      43.653  26.344  29.862  1.00  0.00     0.167 HD
ATOM     39  C   UNL A   1      40.562  28.551  27.324  1.00  0.00     0.031 A 
ATOM     40  C   UNL A   1      44.799  25.919  32.318  1.00  0.00     0.031 A 
ATOM     41  C   UNL A   1      41.859  29.015  26.897  1.00  0.00     0.049 A 
ATOM     42  C   UNL A   1      44.680  27.304  31.781  1.00  0.00     0.074 A 
ATOM     43  C   UNL A   1      42.640  28.819  25.776  1.00  0.00     0.029 A 
ATOM     44  N   UNL A   1      42.710  29.461  27.885  1.00  0.00    -0.354 N 
ATOM     45  N   UNL A   1      45.467  27.781  30.856  1.00  0.00    -0.248 NA
ATOM     46  C   UNL A   1      43.394  27.975  31.907  1.00  0.00     0.031 C 
ATOM     47  C   UNL A   1      43.974  28.720  26.266  1.00  0.00     0.029 A 
ATOM     48  C   UNL A   1      43.954  28.937  27.645  1.00  0.00     0.049 A 
ATOM     49  H   UNL A   1      42.466  30.053  28.633  1.00  0.00     0.167 HD
ATOM     50  C   UNL A   1      44.631  28.496  30.008  1.00  0.00     0.074 A 
ATOM     51  C   UNL A   1      43.382  28.653  30.753  1.00  0.00     0.031 C 
ATOM     52  C   UNL A   1      44.923  28.634  28.680  1.00  0.00     0.031 A 
BRANCH  39  53
ATOM     53  C   UNL A   1      39.605  29.436  28.085  1.00  0.00    -0.014 A 
ATOM     54  C   UNL A   1      39.953  29.839  29.387  1.00  0.00     0.010 A 
ATOM     55  C   UNL A   1      38.272  29.668  27.681  1.00  0.00     0.010 A 
ATOM     56  C   UNL A   1      38.999  30.383  30.256  1.00  0.00     0.020 A 
ATOM     57  C   UNL A   1      37.326  30.252  28.519  1.00  0.00     0.020 A 
ATOM     58  C   UNL A   1      37.689  30.576  29.816  1.00  0.00     0.054 A 
BRANCH  58  59
ATOM     59  S   UNL A   1      36.443  31.195  30.967  1.00  0.00     0.124 S 
ATOM     60  O   UNL A   1      37.165  32.270  31.640  1.00  0.00    -0.237 OA
ATOM     61  O   UNL A   1      35.373  31.613  30.064  1.00  0.00    -0.237 OA
ATOM     62  O   UNL A   1      36.134  30.032  31.796  1.00  0.00    -0.744 OA
ENDBRANCH  58  59
ENDBRANCH  39  53
BRANCH  40  63
ATOM     63  C   UNL A   1      44.808  25.630  33.778  1.00  0.00    -0.014 A 
ATOM     64  C   UNL A   1      46.008  25.345  34.461  1.00  0.00     0.010 A 
ATOM     65  C   UNL A   1      43.671  25.916  34.562  1.00  0.00     0.010 A 
ATOM     66  C   UNL A   1      46.081  25.407  35.867  1.00  0.00     0.020 A 
ATOM     67  C   UNL A   1      43.733  25.975  35.960  1.00  0.00     0.020 A 
ATOM     68  C   UNL A   1      44.944  25.743  36.607  1.00  0.00     0.054 A 
BRANCH  68  69
ATOM     69  S   UNL A   1      45.081  26.002  38.404  1.00  0.00     0.124 S 
ATOM     70  O   UNL A   1      46.470  26.424  38.554  1.00  0.00    -0.237 OA
ATOM     71  O   UNL A   1      44.077  27.031  38.656  1.00  0.00    -0.237 OA
ATOM     72  O   UNL A   1      44.768  24.688  38.964  1.00  0.00    -0.744 OA
ENDBRANCH  68  69
ENDBRANCH  40  63
BRANCH  52  73
ATOM     73  C   UNL A   1      46.306  28.248  28.204  1.00  0.00    -0.014 A 
ATOM     74  C   UNL A   1      47.407  29.128  28.161  1.00  0.00     0.010 A 
ATOM     75  C   UNL A   1      46.528  26.887  27.934  1.00  0.00     0.010 A 
ATOM     76  C   UNL A   1      48.688  28.656  27.831  1.00  0.00     0.020 A 
ATOM     77  C   UNL A   1      47.802  26.408  27.624  1.00  0.00     0.020 A 
ATOM     78  C   UNL A   1      48.876  27.295  27.564  1.00  0.00     0.054 A 
BRANCH  78  79
ATOM     79  S   UNL A   1      50.537  26.676  27.170  1.00  0.00     0.124 S 
ATOM     80  O   UNL A   1      51.366  27.328  28.179  1.00  0.00    -0.237 OA
ATOM     81  O   UNL A   1      50.388  25.230  27.315  1.00  0.00    -0.237 OA
ATOM     82  O   UNL A   1      50.761  27.132  25.798  1.00  0.00    -0.744 OA
ENDBRANCH  78  79
ENDBRANCH  52  73
ENDBRANCH  26  27
ENDBRANCH  19  21
ENDBRANCH  18  19
ENDBRANCH  17  18
ENDBRANCH   1  17
TORSDOF 19
ENDMDL
