MODEL 1
REMARK VINA RESULT:      -8.9      0.000      0.000
REMARK SMILES CCCC[C@H](NS(=O)(=O)c1cccc(Br)c1)C(=O)OCCOCCOC(=O)c1ccc(-c2c3nc(c(-c4ccc(S(=O)(=O)[O-])cc4)c4ccc([nH]4)c(-c4ccc(S(=O)(=O)[O-])cc4)c4nc(c(-c5ccc(S(=O)(=O)[O-])cc5)c5ccc2[nH]5)C=C4)C=C3)cc1
REMARK SMILES IDX 22 1 21 2 20 3 19 4 17 5 18 6 5 7 4 8 3 9 2 10 1 11 6 12
REMARK SMILES IDX 7 14 8 15 9 16 10 17 11 18 16 19 12 20 14 21 13 22 15 23
REMARK SMILES IDX 23 24 24 25 25 26 26 27 27 28 28 29 29 30 87 31 30 32 86 33
REMARK SMILES IDX 31 34 32 35 33 36 80 37 34 38 85 39 79 40 81 41 35 42 84 43
REMARK SMILES IDX 78 44 77 45 36 47 66 48 47 49 65 50 48 51 51 52 64 53 82 54
REMARK SMILES IDX 49 55 50 56 63 58 83 59 52 60 37 61 38 62 46 63 39 64 45 65
REMARK SMILES IDX 40 66 41 67 42 68 43 69 44 70 67 71 68 72 76 73 69 74 75 75
REMARK SMILES IDX 70 76 71 77 72 78 73 79 74 80 53 81 54 82 62 83 55 84 61 85
REMARK SMILES IDX 56 86 57 87 58 88 59 89 60 90
REMARK H PARENT 6 13 81 46 51 57
REMARK Flexibility Score: inf
ROOT
ATOM      1  O   UNL A   1      32.597  30.440  26.272  1.00  0.00    -0.374 OA
ENDROOT
BRANCH   1   2
ATOM      2  C   UNL A   1      32.723  29.487  27.328  1.00  0.00     0.202 C 
BRANCH   2   3
ATOM      3  C   UNL A   1      31.742  28.311  27.271  1.00  0.00     0.261 C 
BRANCH   3   4
ATOM      4  O   UNL A   1      31.548  27.834  25.924  1.00  0.00    -0.462 OA
BRANCH   4   5
ATOM      5  C   UNL A   1      31.565  26.490  25.779  1.00  0.00     0.324 C 
ATOM      6  O   UNL A   1      31.062  25.701  26.574  1.00  0.00    -0.250 OA
BRANCH   5   7
ATOM      7  C   UNL A   1      32.304  26.023  24.540  1.00  0.00     0.179 C 
BRANCH   7   8
ATOM      8  C   UNL A   1      31.504  26.183  23.239  1.00  0.00     0.032 C 
BRANCH   8   9
ATOM      9  C   UNL A   1      32.054  27.144  22.182  1.00  0.00     0.002 C 
BRANCH   9  10
ATOM     10  C   UNL A   1      33.479  27.654  22.385  1.00  0.00    -0.003 C 
ATOM     11  C   UNL A   1      33.553  29.038  23.005  1.00  0.00     0.004 C 
ENDBRANCH   9  10
ENDBRANCH   8   9
ENDBRANCH   7   8
BRANCH   7  12
ATOM     12  N   UNL A   1      33.011  24.727  24.516  1.00  0.00    -0.197 NA
ATOM     13  H   UNL A   1      32.717  24.257  25.373  1.00  0.00     0.142 HD
BRANCH  12  14
ATOM     14  S   UNL A   1      32.953  23.544  23.345  1.00  0.00     0.241 S 
ATOM     15  O   UNL A   1      31.558  23.193  23.226  1.00  0.00    -0.207 OA
ATOM     16  O   UNL A   1      33.697  24.001  22.198  1.00  0.00    -0.207 OA
BRANCH  14  17
ATOM     17  C   UNL A   1      33.801  22.159  24.028  1.00  0.00     0.083 A 
ATOM     18  C   UNL A   1      33.115  20.960  24.249  1.00  0.00     0.022 A 
ATOM     19  C   UNL A   1      35.160  22.277  24.322  1.00  0.00     0.037 A 
ATOM     20  C   UNL A   1      33.812  19.842  24.698  1.00  0.00     0.003 A 
ATOM     21  C   UNL A   1      35.846  21.150  24.763  1.00  0.00     0.019 A 
ATOM     22  C   UNL A   1      35.184  19.933  24.941  1.00  0.00     0.016 A 
ATOM     23  Br  UNL A   1      37.705  21.264  25.080  1.00  0.00    -0.051 Br
ENDBRANCH  14  17
ENDBRANCH  12  14
ENDBRANCH   7  12
ENDBRANCH   5   7
ENDBRANCH   4   5
ENDBRANCH   3   4
ENDBRANCH   2   3
ENDBRANCH   1   2
BRANCH   1  24
ATOM     24  C   UNL A   1      31.511  31.365  26.373  1.00  0.00     0.202 C 
BRANCH  24  25
ATOM     25  C   UNL A   1      31.840  32.737  26.984  1.00  0.00     0.261 C 
BRANCH  25  26
ATOM     26  O   UNL A   1      33.151  32.785  27.578  1.00  0.00    -0.460 OA
BRANCH  26  27
ATOM     27  C   UNL A   1      33.441  33.918  28.257  1.00  0.00     0.338 C 
ATOM     28  O   UNL A   1      32.876  34.993  28.138  1.00  0.00    -0.246 OA
BRANCH  27  29
ATOM     29  C   UNL A   1      34.431  33.652  29.335  1.00  0.00     0.060 A 
ATOM     30  C   UNL A   1      35.732  34.134  29.128  1.00  0.00     0.016 A 
ATOM     31  C   UNL A   1      34.136  32.944  30.504  1.00  0.00     0.016 A 
ATOM     32  C   UNL A   1      36.751  33.836  30.030  1.00  0.00     0.010 A 
ATOM     33  C   UNL A   1      35.164  32.646  31.414  1.00  0.00     0.010 A 
ATOM     34  C   UNL A   1      36.489  33.044  31.154  1.00  0.00    -0.014 A 
BRANCH  34  35
ATOM     35  C   UNL A   1      37.635  32.491  31.929  1.00  0.00     0.031 A 
ATOM     36  C   UNL A   1      38.373  31.292  31.384  1.00  0.00     0.074 A 
ATOM     37  C   UNL A   1      38.082  33.087  33.051  1.00  0.00     0.049 A 
ATOM     38  N   UNL A   1      39.429  30.681  31.860  1.00  0.00    -0.248 NA
ATOM     39  C   UNL A   1      37.854  30.709  30.137  1.00  0.00     0.031 C 
ATOM     40  C   UNL A   1      37.502  34.281  33.666  1.00  0.00     0.029 A 
ATOM     41  N   UNL A   1      39.141  32.771  33.869  1.00  0.00    -0.354 N 
ATOM     42  C   UNL A   1      39.696  29.641  30.975  1.00  0.00     0.074 A 
ATOM     43  C   UNL A   1      38.670  29.681  29.957  1.00  0.00     0.031 C 
ATOM     44  C   UNL A   1      38.215  34.599  34.761  1.00  0.00     0.029 A 
ATOM     45  C   UNL A   1      39.284  33.616  34.945  1.00  0.00     0.049 A 
ATOM     46  H   UNL A   1      39.742  32.010  33.700  1.00  0.00     0.167 HD
ATOM     47  C   UNL A   1      40.705  28.738  30.998  1.00  0.00     0.031 A 
ATOM     48  C   UNL A   1      40.163  33.596  35.969  1.00  0.00     0.031 A 
ATOM     49  C   UNL A   1      41.727  28.685  32.011  1.00  0.00     0.049 A 
ATOM     50  C   UNL A   1      41.233  32.532  36.016  1.00  0.00     0.074 A 
ATOM     51  C   UNL A   1      42.800  27.816  32.102  1.00  0.00     0.029 A 
ATOM     52  N   UNL A   1      41.799  29.525  33.111  1.00  0.00    -0.354 N 
ATOM     53  N   UNL A   1      41.487  31.578  35.154  1.00  0.00    -0.248 NA
ATOM     54  C   UNL A   1      42.141  32.554  37.173  1.00  0.00     0.031 C 
ATOM     55  C   UNL A   1      43.482  28.085  33.293  1.00  0.00     0.029 A 
ATOM     56  C   UNL A   1      42.878  29.171  33.905  1.00  0.00     0.049 A 
ATOM     57  H   UNL A   1      41.175  30.262  33.301  1.00  0.00     0.167 HD
ATOM     58  C   UNL A   1      42.602  30.906  35.649  1.00  0.00     0.074 A 
ATOM     59  C   UNL A   1      42.982  31.571  36.877  1.00  0.00     0.031 C 
ATOM     60  C   UNL A   1      43.254  29.835  35.129  1.00  0.00     0.031 A 
BRANCH  47  61
ATOM     61  C   UNL A   1      40.736  27.699  29.906  1.00  0.00    -0.014 A 
ATOM     62  C   UNL A   1      39.668  26.804  29.715  1.00  0.00     0.010 A 
ATOM     63  C   UNL A   1      41.834  27.651  29.028  1.00  0.00     0.010 A 
ATOM     64  C   UNL A   1      39.716  25.855  28.690  1.00  0.00     0.020 A 
ATOM     65  C   UNL A   1      41.871  26.724  27.982  1.00  0.00     0.020 A 
ATOM     66  C   UNL A   1      40.818  25.821  27.830  1.00  0.00     0.054 A 
BRANCH  66  67
ATOM     67  S   UNL A   1      40.840  24.596  26.493  1.00  0.00     0.124 S 
ATOM     68  O   UNL A   1      39.418  24.457  26.189  1.00  0.00    -0.237 OA
ATOM     69  O   UNL A   1      41.640  25.258  25.466  1.00  0.00    -0.237 OA
ATOM     70  O   UNL A   1      41.463  23.424  27.105  1.00  0.00    -0.744 OA
ENDBRANCH  66  67
ENDBRANCH  47  61
BRANCH  48  71
ATOM     71  C   UNL A   1      40.059  34.608  37.058  1.00  0.00    -0.014 A 
ATOM     72  C   UNL A   1      40.771  35.819  36.993  1.00  0.00     0.010 A 
ATOM     73  C   UNL A   1      39.251  34.352  38.181  1.00  0.00     0.010 A 
ATOM     74  C   UNL A   1      40.687  36.747  38.036  1.00  0.00     0.020 A 
ATOM     75  C   UNL A   1      39.139  35.290  39.210  1.00  0.00     0.020 A 
ATOM     76  C   UNL A   1      39.867  36.479  39.135  1.00  0.00     0.054 A 
BRANCH  76  77
ATOM     77  S   UNL A   1      39.725  37.723  40.448  1.00  0.00     0.124 S 
ATOM     78  O   UNL A   1      39.942  36.925  41.650  1.00  0.00    -0.237 OA
ATOM     79  O   UNL A   1      40.790  38.662  40.107  1.00  0.00    -0.237 OA
ATOM     80  O   UNL A   1      38.370  38.245  40.278  1.00  0.00    -0.744 OA
ENDBRANCH  76  77
ENDBRANCH  48  71
BRANCH  60  81
ATOM     81  C   UNL A   1      44.474  29.330  35.859  1.00  0.00    -0.014 A 
ATOM     82  C   UNL A   1      44.383  28.322  36.835  1.00  0.00     0.010 A 
ATOM     83  C   UNL A   1      45.744  29.833  35.517  1.00  0.00     0.010 A 
ATOM     84  C   UNL A   1      45.533  27.853  37.480  1.00  0.00     0.020 A 
ATOM     85  C   UNL A   1      46.899  29.345  36.135  1.00  0.00     0.020 A 
ATOM     86  C   UNL A   1      46.784  28.368  37.124  1.00  0.00     0.054 A 
BRANCH  86  87
ATOM     87  S   UNL A   1      48.263  27.716  37.948  1.00  0.00     0.124 S 
ATOM     88  O   UNL A   1      49.188  28.842  37.852  1.00  0.00    -0.237 OA
ATOM     89  O   UNL A   1      47.776  27.416  39.293  1.00  0.00    -0.237 OA
ATOM     90  O   UNL A   1      48.621  26.548  37.147  1.00  0.00    -0.744 OA
ENDBRANCH  86  87
ENDBRANCH  60  81
ENDBRANCH  34  35
ENDBRANCH  27  29
ENDBRANCH  26  27
ENDBRANCH  25  26
ENDBRANCH  24  25
ENDBRANCH   1  24
TORSDOF 23
ENDMDL
MODEL 2
REMARK VINA RESULT:      -8.8      1.535      2.060
REMARK SMILES CCCC[C@H](NS(=O)(=O)c1cccc(Br)c1)C(=O)OCCOCCOC(=O)c1ccc(-c2c3nc(c(-c4ccc(S(=O)(=O)[O-])cc4)c4ccc([nH]4)c(-c4ccc(S(=O)(=O)[O-])cc4)c4nc(c(-c5ccc(S(=O)(=O)[O-])cc5)c5ccc2[nH]5)C=C4)C=C3)cc1
REMARK SMILES IDX 22 1 21 2 20 3 19 4 17 5 18 6 5 7 4 8 3 9 2 10 1 11 6 12
REMARK SMILES IDX 7 14 8 15 9 16 10 17 11 18 16 19 12 20 14 21 13 22 15 23
REMARK SMILES IDX 23 24 24 25 25 26 26 27 27 28 28 29 29 30 87 31 30 32 86 33
REMARK SMILES IDX 31 34 32 35 33 36 80 37 34 38 85 39 79 40 81 41 35 42 84 43
REMARK SMILES IDX 78 44 77 45 36 47 66 48 47 49 65 50 48 51 51 52 64 53 82 54
REMARK SMILES IDX 49 55 50 56 63 58 83 59 52 60 37 61 38 62 46 63 39 64 45 65
REMARK SMILES IDX 40 66 41 67 42 68 43 69 44 70 67 71 68 72 76 73 69 74 75 75
REMARK SMILES IDX 70 76 71 77 72 78 73 79 74 80 53 81 54 82 62 83 55 84 61 85
REMARK SMILES IDX 56 86 57 87 58 88 59 89 60 90
REMARK H PARENT 6 13 81 46 51 57
REMARK Flexibility Score: inf
ROOT
ATOM      1  O   UNL A   1      32.637  30.264  26.422  1.00  0.00    -0.374 OA
ENDROOT
BRANCH   1   2
ATOM      2  C   UNL A   1      32.711  29.220  27.394  1.00  0.00     0.202 C 
BRANCH   2   3
ATOM      3  C   UNL A   1      31.640  28.131  27.268  1.00  0.00     0.261 C 
BRANCH   3   4
ATOM      4  O   UNL A   1      31.577  27.587  25.934  1.00  0.00    -0.462 OA
BRANCH   4   5
ATOM      5  C   UNL A   1      30.982  26.378  25.832  1.00  0.00     0.324 C 
ATOM      6  O   UNL A   1      30.028  26.013  26.514  1.00  0.00    -0.250 OA
BRANCH   5   7
ATOM      7  C   UNL A   1      31.626  25.470  24.802  1.00  0.00     0.179 C 
BRANCH   7   8
ATOM      8  C   UNL A   1      30.956  25.519  23.421  1.00  0.00     0.032 C 
BRANCH   8   9
ATOM      9  C   UNL A   1      31.865  25.606  22.193  1.00  0.00     0.002 C 
BRANCH   9  10
ATOM     10  C   UNL A   1      33.291  26.100  22.422  1.00  0.00    -0.003 C 
ATOM     11  C   UNL A   1      33.419  27.613  22.448  1.00  0.00     0.004 C 
ENDBRANCH   9  10
ENDBRANCH   8   9
ENDBRANCH   7   8
BRANCH   7  12
ATOM     12  N   UNL A   1      31.968  24.070  25.124  1.00  0.00    -0.197 NA
ATOM     13  H   UNL A   1      32.361  23.696  24.260  1.00  0.00     0.142 HD
BRANCH  12  14
ATOM     14  S   UNL A   1      32.977  23.507  26.324  1.00  0.00     0.241 S 
ATOM     15  O   UNL A   1      33.986  24.526  26.484  1.00  0.00    -0.207 OA
ATOM     16  O   UNL A   1      32.167  23.092  27.442  1.00  0.00    -0.207 OA
BRANCH  14  17
ATOM     17  C   UNL A   1      33.756  22.076  25.655  1.00  0.00     0.083 A 
ATOM     18  C   UNL A   1      35.134  21.892  25.816  1.00  0.00     0.022 A 
ATOM     19  C   UNL A   1      32.976  21.133  24.986  1.00  0.00     0.037 A 
ATOM     20  C   UNL A   1      35.727  20.715  25.370  1.00  0.00     0.003 A 
ATOM     21  C   UNL A   1      33.580  19.957  24.552  1.00  0.00     0.019 A 
ATOM     22  C   UNL A   1      34.945  19.738  24.750  1.00  0.00     0.016 A 
ATOM     23  Br  UNL A   1      32.525  18.625  23.725  1.00  0.00    -0.051 Br
ENDBRANCH  14  17
ENDBRANCH  12  14
ENDBRANCH   7  12
ENDBRANCH   5   7
ENDBRANCH   4   5
ENDBRANCH   3   4
ENDBRANCH   2   3
ENDBRANCH   1   2
BRANCH   1  24
ATOM     24  C   UNL A   1      31.694  31.308  26.676  1.00  0.00     0.202 C 
BRANCH  24  25
ATOM     25  C   UNL A   1      32.257  32.599  27.294  1.00  0.00     0.261 C 
BRANCH  25  26
ATOM     26  O   UNL A   1      33.637  32.478  27.682  1.00  0.00    -0.460 OA
BRANCH  26  27
ATOM     27  C   UNL A   1      34.198  33.595  28.195  1.00  0.00     0.338 C 
ATOM     28  O   UNL A   1      33.894  34.745  27.919  1.00  0.00    -0.246 OA
BRANCH  27  29
ATOM     29  C   UNL A   1      35.126  33.261  29.309  1.00  0.00     0.060 A 
ATOM     30  C   UNL A   1      36.302  34.020  29.397  1.00  0.00     0.016 A 
ATOM     31  C   UNL A   1      34.893  32.239  30.234  1.00  0.00     0.016 A 
ATOM     32  C   UNL A   1      37.281  33.704  30.339  1.00  0.00     0.010 A 
ATOM     33  C   UNL A   1      35.878  31.924  31.184  1.00  0.00     0.010 A 
ATOM     34  C   UNL A   1      37.102  32.620  31.206  1.00  0.00    -0.014 A 
BRANCH  34  35
ATOM     35  C   UNL A   1      38.270  32.120  31.984  1.00  0.00     0.031 A 
ATOM     36  C   UNL A   1      39.246  31.183  31.313  1.00  0.00     0.074 A 
ATOM     37  C   UNL A   1      38.524  32.552  33.233  1.00  0.00     0.049 A 
ATOM     38  N   UNL A   1      40.356  30.670  31.778  1.00  0.00    -0.248 NA
ATOM     39  C   UNL A   1      38.928  30.775  29.935  1.00  0.00     0.031 C 
ATOM     40  C   UNL A   1      37.700  33.496  33.988  1.00  0.00     0.029 A 
ATOM     41  N   UNL A   1      39.562  32.259  34.087  1.00  0.00    -0.354 N 
ATOM     42  C   UNL A   1      40.865  29.876  30.755  1.00  0.00     0.074 A 
ATOM     43  C   UNL A   1      39.923  29.947  29.659  1.00  0.00     0.031 C 
ATOM     44  C   UNL A   1      38.266  33.707  35.189  1.00  0.00     0.029 A 
ATOM     45  C   UNL A   1      39.477  32.892  35.304  1.00  0.00     0.049 A 
ATOM     46  H   UNL A   1      40.298  31.652  33.848  1.00  0.00     0.167 HD
ATOM     47  C   UNL A   1      42.015  29.160  30.720  1.00  0.00     0.031 A 
ATOM     48  C   UNL A   1      40.270  32.817  36.393  1.00  0.00     0.031 A 
ATOM     49  C   UNL A   1      42.955  29.077  31.807  1.00  0.00     0.049 A 
ATOM     50  C   UNL A   1      41.505  31.950  36.360  1.00  0.00     0.074 A 
ATOM     51  C   UNL A   1      44.156  28.391  31.852  1.00  0.00     0.029 A 
ATOM     52  N   UNL A   1      42.799  29.690  33.040  1.00  0.00    -0.354 N 
ATOM     53  N   UNL A   1      41.985  31.234  35.372  1.00  0.00    -0.248 NA
ATOM     54  C   UNL A   1      42.311  31.894  37.589  1.00  0.00     0.031 C 
ATOM     55  C   UNL A   1      44.693  28.531  33.135  1.00  0.00     0.029 A 
ATOM     56  C   UNL A   1      43.865  29.368  33.865  1.00  0.00     0.049 A 
ATOM     57  H   UNL A   1      42.043  30.267  33.293  1.00  0.00     0.167 HD
ATOM     58  C   UNL A   1      43.163  30.666  35.852  1.00  0.00     0.074 A 
ATOM     59  C   UNL A   1      43.331  31.135  37.211  1.00  0.00     0.031 C 
ATOM     60  C   UNL A   1      44.029  29.835  35.219  1.00  0.00     0.031 A 
BRANCH  47  61
ATOM     61  C   UNL A   1      42.306  28.370  29.470  1.00  0.00    -0.014 A 
ATOM     62  C   UNL A   1      42.992  28.942  28.384  1.00  0.00     0.010 A 
ATOM     63  C   UNL A   1      41.927  27.017  29.403  1.00  0.00     0.010 A 
ATOM     64  C   UNL A   1      43.259  28.186  27.239  1.00  0.00     0.020 A 
ATOM     65  C   UNL A   1      42.220  26.249  28.272  1.00  0.00     0.020 A 
ATOM     66  C   UNL A   1      42.870  26.844  27.190  1.00  0.00     0.054 A 
BRANCH  66  67
ATOM     67  S   UNL A   1      43.253  25.881  25.702  1.00  0.00     0.124 S 
ATOM     68  O   UNL A   1      44.619  26.309  25.409  1.00  0.00    -0.237 OA
ATOM     69  O   UNL A   1      43.113  24.504  26.167  1.00  0.00    -0.237 OA
ATOM     70  O   UNL A   1      42.245  26.315  24.737  1.00  0.00    -0.744 OA
ENDBRANCH  66  67
ENDBRANCH  47  61
BRANCH  48  71
ATOM     71  C   UNL A   1      39.911  33.570  37.628  1.00  0.00    -0.014 A 
ATOM     72  C   UNL A   1      39.179  32.959  38.662  1.00  0.00     0.010 A 
ATOM     73  C   UNL A   1      40.291  34.918  37.767  1.00  0.00     0.010 A 
ATOM     74  C   UNL A   1      38.823  33.684  39.803  1.00  0.00     0.020 A 
ATOM     75  C   UNL A   1      39.965  35.637  38.920  1.00  0.00     0.020 A 
ATOM     76  C   UNL A   1      39.223  35.018  39.927  1.00  0.00     0.054 A 
BRANCH  76  77
ATOM     77  S   UNL A   1      38.803  35.923  41.442  1.00  0.00     0.124 S 
ATOM     78  O   UNL A   1      39.902  35.559  42.330  1.00  0.00    -0.237 OA
ATOM     79  O   UNL A   1      38.789  37.310  40.985  1.00  0.00    -0.237 OA
ATOM     80  O   UNL A   1      37.495  35.384  41.809  1.00  0.00    -0.744 OA
ENDBRANCH  76  77
ENDBRANCH  48  71
BRANCH  60  81
ATOM     81  C   UNL A   1      45.265  29.401  35.969  1.00  0.00    -0.014 A 
ATOM     82  C   UNL A   1      46.446  30.165  35.946  1.00  0.00     0.010 A 
ATOM     83  C   UNL A   1      45.223  28.238  36.761  1.00  0.00     0.010 A 
ATOM     84  C   UNL A   1      47.570  29.754  36.669  1.00  0.00     0.020 A 
ATOM     85  C   UNL A   1      46.333  27.840  37.511  1.00  0.00     0.020 A 
ATOM     86  C   UNL A   1      47.506  28.593  37.449  1.00  0.00     0.054 A 
BRANCH  86  87
ATOM     87  S   UNL A   1      48.965  28.104  38.408  1.00  0.00     0.124 S 
ATOM     88  O   UNL A   1      48.846  28.946  39.596  1.00  0.00    -0.237 OA
ATOM     89  O   UNL A   1      48.743  26.676  38.625  1.00  0.00    -0.237 OA
ATOM     90  O   UNL A   1      50.086  28.426  37.528  1.00  0.00    -0.744 OA
ENDBRANCH  86  87
ENDBRANCH  60  81
ENDBRANCH  34  35
ENDBRANCH  27  29
ENDBRANCH  26  27
ENDBRANCH  25  26
ENDBRANCH  24  25
ENDBRANCH   1  24
TORSDOF 23
ENDMDL
MODEL 3
REMARK VINA RESULT:      -8.6      9.739     15.869
REMARK SMILES CCCC[C@H](NS(=O)(=O)c1cccc(Br)c1)C(=O)OCCOCCOC(=O)c1ccc(-c2c3nc(c(-c4ccc(S(=O)(=O)[O-])cc4)c4ccc([nH]4)c(-c4ccc(S(=O)(=O)[O-])cc4)c4nc(c(-c5ccc(S(=O)(=O)[O-])cc5)c5ccc2[nH]5)C=C4)C=C3)cc1
REMARK SMILES IDX 22 1 21 2 20 3 19 4 17 5 18 6 5 7 4 8 3 9 2 10 1 11 6 12
REMARK SMILES IDX 7 14 8 15 9 16 10 17 11 18 16 19 12 20 14 21 13 22 15 23
REMARK SMILES IDX 23 24 24 25 25 26 26 27 27 28 28 29 29 30 87 31 30 32 86 33
REMARK SMILES IDX 31 34 32 35 33 36 80 37 34 38 85 39 79 40 81 41 35 42 84 43
REMARK SMILES IDX 78 44 77 45 36 47 66 48 47 49 65 50 48 51 51 52 64 53 82 54
REMARK SMILES IDX 49 55 50 56 63 58 83 59 52 60 37 61 38 62 46 63 39 64 45 65
REMARK SMILES IDX 40 66 41 67 42 68 43 69 44 70 67 71 68 72 76 73 69 74 75 75
REMARK SMILES IDX 70 76 71 77 72 78 73 79 74 80 53 81 54 82 62 83 55 84 61 85
REMARK SMILES IDX 56 86 57 87 58 88 59 89 60 90
REMARK H PARENT 6 13 81 46 51 57
REMARK Flexibility Score: inf
ROOT
ATOM      1  O   UNL A   1      47.733  40.135  27.495  1.00  0.00    -0.374 OA
ENDROOT
BRANCH   1   2
ATOM      2  C   UNL A   1      46.879  40.822  26.579  1.00  0.00     0.202 C 
BRANCH   2   3
ATOM      3  C   UNL A   1      47.054  40.437  25.105  1.00  0.00     0.261 C 
BRANCH   3   4
ATOM      4  O   UNL A   1      46.018  40.999  24.274  1.00  0.00    -0.462 OA
BRANCH   4   5
ATOM      5  C   UNL A   1      46.025  42.347  24.177  1.00  0.00     0.324 C 
ATOM      6  O   UNL A   1      47.040  43.036  24.150  1.00  0.00    -0.250 OA
BRANCH   5   7
ATOM      7  C   UNL A   1      44.637  42.959  24.137  1.00  0.00     0.179 C 
BRANCH   7   8
ATOM      8  C   UNL A   1      43.666  42.369  25.170  1.00  0.00     0.032 C 
BRANCH   8   9
ATOM      9  C   UNL A   1      42.388  41.709  24.646  1.00  0.00     0.002 C 
BRANCH   9  10
ATOM     10  C   UNL A   1      41.569  40.897  25.647  1.00  0.00    -0.003 C 
ATOM     11  C   UNL A   1      42.405  40.227  26.722  1.00  0.00     0.004 C 
ENDBRANCH   9  10
ENDBRANCH   8   9
ENDBRANCH   7   8
BRANCH   7  12
ATOM     12  N   UNL A   1      43.925  43.153  22.859  1.00  0.00    -0.197 NA
ATOM     13  H   UNL A   1      43.419  44.031  22.977  1.00  0.00     0.142 HD
BRANCH  12  14
ATOM     14  S   UNL A   1      44.568  43.241  21.325  1.00  0.00     0.241 S 
ATOM     15  O   UNL A   1      45.383  44.431  21.320  1.00  0.00    -0.207 OA
ATOM     16  O   UNL A   1      45.137  41.958  20.995  1.00  0.00    -0.207 OA
BRANCH  14  17
ATOM     17  C   UNL A   1      43.199  43.520  20.252  1.00  0.00     0.083 A 
ATOM     18  C   UNL A   1      41.900  43.236  20.690  1.00  0.00     0.022 A 
ATOM     19  C   UNL A   1      43.433  44.041  18.979  1.00  0.00     0.037 A 
ATOM     20  C   UNL A   1      40.817  43.549  19.874  1.00  0.00     0.003 A 
ATOM     21  C   UNL A   1      42.341  44.356  18.177  1.00  0.00     0.019 A 
ATOM     22  C   UNL A   1      41.037  44.125  18.621  1.00  0.00     0.016 A 
ATOM     23  Br  UNL A   1      42.632  45.148  16.486  1.00  0.00    -0.051 Br
ENDBRANCH  14  17
ENDBRANCH  12  14
ENDBRANCH   7  12
ENDBRANCH   5   7
ENDBRANCH   4   5
ENDBRANCH   3   4
ENDBRANCH   2   3
ENDBRANCH   1   2
BRANCH   1  24
ATOM     24  C   UNL A   1      47.923  38.737  27.264  1.00  0.00     0.202 C 
BRANCH  24  25
ATOM     25  C   UNL A   1      49.381  38.252  27.186  1.00  0.00     0.261 C 
BRANCH  25  26
ATOM     26  O   UNL A   1      49.577  36.968  27.806  1.00  0.00    -0.460 OA
BRANCH  26  27
ATOM     27  C   UNL A   1      48.800  36.717  28.884  1.00  0.00     0.338 C 
ATOM     28  O   UNL A   1      48.665  37.440  29.858  1.00  0.00    -0.246 OA
BRANCH  27  29
ATOM     29  C   UNL A   1      47.953  35.515  28.659  1.00  0.00     0.060 A 
ATOM     30  C   UNL A   1      47.616  34.761  29.794  1.00  0.00     0.016 A 
ATOM     31  C   UNL A   1      47.506  35.102  27.400  1.00  0.00     0.016 A 
ATOM     32  C   UNL A   1      46.922  33.559  29.667  1.00  0.00     0.010 A 
ATOM     33  C   UNL A   1      46.805  33.891  27.274  1.00  0.00     0.010 A 
ATOM     34  C   UNL A   1      46.556  33.086  28.402  1.00  0.00    -0.014 A 
BRANCH  34  35
ATOM     35  C   UNL A   1      46.094  31.676  28.266  1.00  0.00     0.031 A 
ATOM     36  C   UNL A   1      44.657  31.345  28.594  1.00  0.00     0.074 A 
ATOM     37  C   UNL A   1      46.897  30.714  27.776  1.00  0.00     0.049 A 
ATOM     38  N   UNL A   1      44.026  30.203  28.496  1.00  0.00    -0.248 NA
ATOM     39  C   UNL A   1      43.824  32.450  29.094  1.00  0.00     0.031 C 
ATOM     40  C   UNL A   1      48.290  30.897  27.368  1.00  0.00     0.029 A 
ATOM     41  N   UNL A   1      46.648  29.384  27.526  1.00  0.00    -0.354 N 
ATOM     42  C   UNL A   1      42.726  30.449  28.927  1.00  0.00     0.074 A 
ATOM     43  C   UNL A   1      42.671  31.840  29.321  1.00  0.00     0.031 C 
ATOM     44  C   UNL A   1      48.770  29.726  26.915  1.00  0.00     0.029 A 
ATOM     45  C   UNL A   1      47.732  28.700  27.027  1.00  0.00     0.049 A 
ATOM     46  H   UNL A   1      45.775  28.961  27.688  1.00  0.00     0.167 HD
ATOM     47  C   UNL A   1      41.670  29.604  28.981  1.00  0.00     0.031 A 
ATOM     48  C   UNL A   1      47.880  27.397  26.709  1.00  0.00     0.031 A 
ATOM     49  C   UNL A   1      41.717  28.217  28.598  1.00  0.00     0.049 A 
ATOM     50  C   UNL A   1      46.710  26.454  26.854  1.00  0.00     0.074 A 
ATOM     51  C   UNL A   1      40.688  27.290  28.602  1.00  0.00     0.029 A 
ATOM     52  N   UNL A   1      42.849  27.554  28.153  1.00  0.00    -0.354 N 
ATOM     53  N   UNL A   1      45.482  26.714  27.232  1.00  0.00    -0.248 NA
ATOM     54  C   UNL A   1      46.948  25.043  26.515  1.00  0.00     0.031 C 
ATOM     55  C   UNL A   1      41.214  26.050  28.226  1.00  0.00     0.029 A 
ATOM     56  C   UNL A   1      42.553  26.221  27.913  1.00  0.00     0.049 A 
ATOM     57  H   UNL A   1      43.734  27.967  28.026  1.00  0.00     0.167 HD
ATOM     58  C   UNL A   1      44.795  25.505  27.147  1.00  0.00     0.074 A 
ATOM     59  C   UNL A   1      45.739  24.519  26.668  1.00  0.00     0.031 C 
ATOM     60  C   UNL A   1      43.496  25.240  27.437  1.00  0.00     0.031 A 
BRANCH  47  61
ATOM     61  C   UNL A   1      40.369  30.147  29.514  1.00  0.00    -0.014 A 
ATOM     62  C   UNL A   1      39.335  30.554  28.651  1.00  0.00     0.010 A 
ATOM     63  C   UNL A   1      40.161  30.207  30.905  1.00  0.00     0.010 A 
ATOM     64  C   UNL A   1      38.134  31.046  29.169  1.00  0.00     0.020 A 
ATOM     65  C   UNL A   1      38.950  30.669  31.426  1.00  0.00     0.020 A 
ATOM     66  C   UNL A   1      37.949  31.101  30.555  1.00  0.00     0.054 A 
BRANCH  66  67
ATOM     67  S   UNL A   1      36.370  31.720  31.197  1.00  0.00     0.124 S 
ATOM     68  O   UNL A   1      36.157  30.856  32.356  1.00  0.00    -0.237 OA
ATOM     69  O   UNL A   1      36.674  33.115  31.501  1.00  0.00    -0.237 OA
ATOM     70  O   UNL A   1      35.439  31.514  30.089  1.00  0.00    -0.744 OA
ENDBRANCH  66  67
ENDBRANCH  47  61
BRANCH  48  71
ATOM     71  C   UNL A   1      49.201  26.891  26.243  1.00  0.00    -0.014 A 
ATOM     72  C   UNL A   1      50.129  26.343  27.148  1.00  0.00     0.010 A 
ATOM     73  C   UNL A   1      49.546  26.971  24.880  1.00  0.00     0.010 A 
ATOM     74  C   UNL A   1      51.377  25.899  26.701  1.00  0.00     0.020 A 
ATOM     75  C   UNL A   1      50.779  26.500  24.425  1.00  0.00     0.020 A 
ATOM     76  C   UNL A   1      51.692  25.975  25.341  1.00  0.00     0.054 A 
BRANCH  76  77
ATOM     77  S   UNL A   1      53.294  25.337  24.775  1.00  0.00     0.124 S 
ATOM     78  O   UNL A   1      53.284  23.977  25.301  1.00  0.00    -0.237 OA
ATOM     79  O   UNL A   1      53.183  25.458  23.324  1.00  0.00    -0.237 OA
ATOM     80  O   UNL A   1      54.259  26.243  25.394  1.00  0.00    -0.744 OA
ENDBRANCH  76  77
ENDBRANCH  48  71
BRANCH  60  81
ATOM     81  C   UNL A   1      42.996  23.834  27.211  1.00  0.00    -0.014 A 
ATOM     82  C   UNL A   1      42.939  22.896  28.256  1.00  0.00     0.010 A 
ATOM     83  C   UNL A   1      42.517  23.466  25.938  1.00  0.00     0.010 A 
ATOM     84  C   UNL A   1      42.448  21.606  28.025  1.00  0.00     0.020 A 
ATOM     85  C   UNL A   1      41.996  22.189  25.711  1.00  0.00     0.020 A 
ATOM     86  C   UNL A   1      41.979  21.262  26.753  1.00  0.00     0.054 A 
BRANCH  86  87
ATOM     87  S   UNL A   1      41.311  19.595  26.491  1.00  0.00     0.124 S 
ATOM     88  O   UNL A   1      42.324  18.993  25.627  1.00  0.00    -0.237 OA
ATOM     89  O   UNL A   1      41.243  19.059  27.848  1.00  0.00    -0.237 OA
ATOM     90  O   UNL A   1      40.017  19.834  25.856  1.00  0.00    -0.744 OA
ENDBRANCH  86  87
ENDBRANCH  60  81
ENDBRANCH  34  35
ENDBRANCH  27  29
ENDBRANCH  26  27
ENDBRANCH  25  26
ENDBRANCH  24  25
ENDBRANCH   1  24
TORSDOF 23
ENDMDL
