MODEL 1
REMARK VINA RESULT:      -9.8      0.000      0.000
REMARK SMILES Cc1n[nH]c(C(=O)N[C@@H](CC(C)C)C(=O)OCCOCCOC(=O)c2ccc(-c3c4nc(c(-c5ccc(S(=O)(=O)[O-])cc5)c5ccc([nH]5)c(-c5ccc(S(=O)(=O)[O-])cc5)c5nc(c(-c6ccc(S(=O)(=O)[O-])cc6)c6ccc3[nH]6)C=C5)C=C4)cc2)n1
REMARK SMILES IDX 20 1 19 2 18 3 17 4 16 5 14 6 15 7 9 8 8 9 6 10 7 11 5 13
REMARK SMILES IDX 1 14 2 15 3 16 85 17 4 18 10 20 11 21 12 22 13 23 21 24
REMARK SMILES IDX 22 25 23 26 24 27 25 28 26 29 84 30 27 31 83 32 28 33 29 34
REMARK SMILES IDX 30 35 77 36 31 37 82 38 76 39 78 40 32 41 81 42 75 43 74 44
REMARK SMILES IDX 33 46 63 47 44 48 62 49 45 50 48 51 61 52 79 53 46 54 47 55
REMARK SMILES IDX 60 57 80 58 49 59 34 60 35 61 43 62 36 63 42 64 37 65 38 66
REMARK SMILES IDX 39 67 40 68 41 69 64 70 65 71 73 72 66 73 72 74 67 75 68 76
REMARK SMILES IDX 69 77 70 78 71 79 50 80 51 81 59 82 52 83 58 84 53 85 54 86
REMARK SMILES IDX 55 87 56 88 57 89
REMARK H PARENT 8 12 4 19 78 45 48 56
REMARK Flexibility Score: inf
ROOT
ATOM      1  C   UNL A   1      41.337  19.307  26.234  1.00  0.00     0.202 C 
ENDROOT
BRANCH   1   2
ATOM      2  O   UNL A   1      42.356  19.475  25.255  1.00  0.00    -0.374 OA
BRANCH   2   3
ATOM      3  C   UNL A   1      43.514  18.645  25.288  1.00  0.00     0.202 C 
BRANCH   3   4
ATOM      4  C   UNL A   1      44.874  19.332  25.213  1.00  0.00     0.261 C 
BRANCH   4   5
ATOM      5  O   UNL A   1      44.768  20.762  25.143  1.00  0.00    -0.462 OA
BRANCH   5   6
ATOM      6  C   UNL A   1      45.918  21.420  24.839  1.00  0.00     0.328 C 
ATOM      7  O   UNL A   1      46.970  20.886  24.501  1.00  0.00    -0.250 OA
BRANCH   6   8
ATOM      8  C   UNL A   1      45.814  22.935  25.058  1.00  0.00     0.192 C 
BRANCH   8   9
ATOM      9  N   UNL A   1      46.673  23.780  24.234  1.00  0.00    -0.336 N 
ATOM     10  C   UNL A   1      47.436  24.896  24.511  1.00  0.00     0.289 C 
ATOM     11  O   UNL A   1      47.929  25.432  23.516  1.00  0.00    -0.266 OA
ATOM     12  H   UNL A   1      46.717  23.496  23.292  1.00  0.00     0.164 HD
BRANCH  10  13
ATOM     13  C   UNL A   1      47.668  25.397  25.862  1.00  0.00     0.214 A 
ATOM     14  C   UNL A   1      48.139  28.002  28.242  1.00  0.00     0.092 C 
ATOM     15  C   UNL A   1      47.989  26.736  27.494  1.00  0.00     0.148 A 
ATOM     16  N   UNL A   1      48.281  25.545  28.026  1.00  0.00    -0.159 NA
ATOM     17  N   UNL A   1      47.600  26.683  26.182  1.00  0.00    -0.207 NA
ATOM     18  N   UNL A   1      48.101  24.731  26.973  1.00  0.00    -0.255 N 
ATOM     19  H   UNL A   1      48.263  23.761  26.999  1.00  0.00     0.192 HD
ENDBRANCH  10  13
ENDBRANCH   8   9
BRANCH   8  20
ATOM     20  C   UNL A   1      44.340  23.363  25.010  1.00  0.00     0.040 C 
BRANCH  20  21
ATOM     21  C   UNL A   1      43.835  24.480  25.952  1.00  0.00    -0.015 C 
ATOM     22  C   UNL A   1      44.607  24.643  27.261  1.00  0.00     0.007 C 
ATOM     23  C   UNL A   1      43.894  25.805  25.181  1.00  0.00     0.007 C 
ENDBRANCH  20  21
ENDBRANCH   8  20
ENDBRANCH   6   8
ENDBRANCH   5   6
ENDBRANCH   4   5
ENDBRANCH   3   4
ENDBRANCH   2   3
ENDBRANCH   1   2
BRANCH   1  24
ATOM     24  C   UNL A   1      40.171  20.289  26.276  1.00  0.00     0.261 C 
BRANCH  24  25
ATOM     25  O   UNL A   1      40.415  21.444  27.068  1.00  0.00    -0.460 OA
BRANCH  25  26
ATOM     26  C   UNL A   1      39.623  22.484  26.715  1.00  0.00     0.338 C 
ATOM     27  O   UNL A   1      38.558  22.421  26.127  1.00  0.00    -0.246 OA
BRANCH  26  28
ATOM     28  C   UNL A   1      40.307  23.749  26.988  1.00  0.00     0.060 A 
ATOM     29  C   UNL A   1      41.097  23.783  28.140  1.00  0.00     0.016 A 
ATOM     30  C   UNL A   1      39.911  24.914  26.317  1.00  0.00     0.016 A 
ATOM     31  C   UNL A   1      41.319  25.000  28.740  1.00  0.00     0.010 A 
ATOM     32  C   UNL A   1      40.133  26.129  26.922  1.00  0.00     0.010 A 
ATOM     33  C   UNL A   1      40.757  26.147  28.166  1.00  0.00    -0.014 A 
BRANCH  33  34
ATOM     34  C   UNL A   1      40.946  27.403  28.860  1.00  0.00     0.031 A 
ATOM     35  C   UNL A   1      42.176  28.088  28.420  1.00  0.00     0.074 A 
ATOM     36  C   UNL A   1      40.049  27.913  29.725  1.00  0.00     0.049 A 
ATOM     37  N   UNL A   1      43.306  28.143  29.041  1.00  0.00    -0.248 NA
ATOM     38  C   UNL A   1      42.226  28.561  27.026  1.00  0.00     0.031 C 
ATOM     39  C   UNL A   1      38.685  27.439  29.977  1.00  0.00     0.029 A 
ATOM     40  N   UNL A   1      40.130  29.037  30.487  1.00  0.00    -0.354 N 
ATOM     41  C   UNL A   1      44.122  28.912  28.221  1.00  0.00     0.074 A 
ATOM     42  C   UNL A   1      43.510  28.904  26.918  1.00  0.00     0.031 C 
ATOM     43  C   UNL A   1      37.995  28.400  30.635  1.00  0.00     0.029 A 
ATOM     44  C   UNL A   1      38.908  29.477  30.984  1.00  0.00     0.049 A 
ATOM     45  H   UNL A   1      40.980  29.499  30.671  1.00  0.00     0.167 HD
ATOM     46  C   UNL A   1      45.003  29.798  28.762  1.00  0.00     0.031 A 
ATOM     47  C   UNL A   1      38.665  30.667  31.589  1.00  0.00     0.031 A 
ATOM     48  C   UNL A   1      45.177  29.567  30.172  1.00  0.00     0.049 A 
ATOM     49  C   UNL A   1      39.961  31.172  32.100  1.00  0.00     0.074 A 
ATOM     50  C   UNL A   1      45.802  28.633  30.968  1.00  0.00     0.029 A 
ATOM     51  N   UNL A   1      44.261  30.227  30.951  1.00  0.00    -0.354 N 
ATOM     52  N   UNL A   1      40.637  30.574  33.041  1.00  0.00    -0.248 NA
ATOM     53  C   UNL A   1      40.712  32.148  31.318  1.00  0.00     0.031 C 
ATOM     54  C   UNL A   1      45.094  28.634  32.205  1.00  0.00     0.029 A 
ATOM     55  C   UNL A   1      44.085  29.596  32.152  1.00  0.00     0.049 A 
ATOM     56  H   UNL A   1      43.790  31.049  30.680  1.00  0.00     0.167 HD
ATOM     57  C   UNL A   1      41.961  30.769  32.694  1.00  0.00     0.074 A 
ATOM     58  C   UNL A   1      41.949  31.872  31.741  1.00  0.00     0.031 C 
ATOM     59  C   UNL A   1      42.904  29.820  32.962  1.00  0.00     0.031 A 
BRANCH  46  60
ATOM     60  C   UNL A   1      45.256  31.169  28.170  1.00  0.00    -0.014 A 
ATOM     61  C   UNL A   1      44.158  31.916  27.703  1.00  0.00     0.010 A 
ATOM     62  C   UNL A   1      46.539  31.621  27.789  1.00  0.00     0.010 A 
ATOM     63  C   UNL A   1      44.335  33.029  26.868  1.00  0.00     0.020 A 
ATOM     64  C   UNL A   1      46.729  32.748  26.991  1.00  0.00     0.020 A 
ATOM     65  C   UNL A   1      45.624  33.432  26.514  1.00  0.00     0.054 A 
BRANCH  65  66
ATOM     66  S   UNL A   1      45.847  34.825  25.383  1.00  0.00     0.124 S 
ATOM     67  O   UNL A   1      44.946  34.476  24.290  1.00  0.00    -0.237 OA
ATOM     68  O   UNL A   1      45.438  35.958  26.209  1.00  0.00    -0.237 OA
ATOM     69  O   UNL A   1      47.272  34.779  25.063  1.00  0.00    -0.744 OA
ENDBRANCH  65  66
ENDBRANCH  46  60
BRANCH  47  70
ATOM     70  C   UNL A   1      37.459  31.527  31.494  1.00  0.00    -0.014 A 
ATOM     71  C   UNL A   1      36.429  31.442  32.451  1.00  0.00     0.010 A 
ATOM     72  C   UNL A   1      37.463  32.642  30.632  1.00  0.00     0.010 A 
ATOM     73  C   UNL A   1      35.481  32.471  32.588  1.00  0.00     0.020 A 
ATOM     74  C   UNL A   1      36.518  33.670  30.761  1.00  0.00     0.020 A 
ATOM     75  C   UNL A   1      35.546  33.591  31.755  1.00  0.00     0.054 A 
BRANCH  75  76
ATOM     76  S   UNL A   1      34.434  34.998  32.060  1.00  0.00     0.124 S 
ATOM     77  O   UNL A   1      33.350  34.380  32.819  1.00  0.00    -0.237 OA
ATOM     78  O   UNL A   1      35.284  35.919  32.809  1.00  0.00    -0.237 OA
ATOM     79  O   UNL A   1      34.071  35.448  30.716  1.00  0.00    -0.744 OA
ENDBRANCH  75  76
ENDBRANCH  47  70
BRANCH  59  80
ATOM     80  C   UNL A   1      42.638  28.862  34.090  1.00  0.00    -0.014 A 
ATOM     81  C   UNL A   1      42.636  29.206  35.454  1.00  0.00     0.010 A 
ATOM     82  C   UNL A   1      42.288  27.550  33.723  1.00  0.00     0.010 A 
ATOM     83  C   UNL A   1      42.307  28.248  36.426  1.00  0.00     0.020 A 
ATOM     84  C   UNL A   1      41.942  26.600  34.682  1.00  0.00     0.020 A 
ATOM     85  C   UNL A   1      41.962  26.950  36.031  1.00  0.00     0.054 A 
BRANCH  85  86
ATOM     86  S   UNL A   1      41.504  25.719  37.283  1.00  0.00     0.124 S 
ATOM     87  O   UNL A   1      42.583  25.843  38.260  1.00  0.00    -0.237 OA
ATOM     88  O   UNL A   1      40.193  26.184  37.731  1.00  0.00    -0.237 OA
ATOM     89  O   UNL A   1      41.485  24.459  36.542  1.00  0.00    -0.744 OA
ENDBRANCH  85  86
ENDBRANCH  59  80
ENDBRANCH  33  34
ENDBRANCH  26  28
ENDBRANCH  25  26
ENDBRANCH  24  25
ENDBRANCH   1  24
TORSDOF 21
ENDMDL
MODEL 2
REMARK VINA RESULT:      -9.6      3.938      6.916
REMARK SMILES Cc1n[nH]c(C(=O)N[C@@H](CC(C)C)C(=O)OCCOCCOC(=O)c2ccc(-c3c4nc(c(-c5ccc(S(=O)(=O)[O-])cc5)c5ccc([nH]5)c(-c5ccc(S(=O)(=O)[O-])cc5)c5nc(c(-c6ccc(S(=O)(=O)[O-])cc6)c6ccc3[nH]6)C=C5)C=C4)cc2)n1
REMARK SMILES IDX 20 1 19 2 18 3 17 4 16 5 14 6 15 7 9 8 8 9 6 10 7 11 5 13
REMARK SMILES IDX 1 14 2 15 3 16 85 17 4 18 10 20 11 21 12 22 13 23 21 24
REMARK SMILES IDX 22 25 23 26 24 27 25 28 26 29 84 30 27 31 83 32 28 33 29 34
REMARK SMILES IDX 30 35 77 36 31 37 82 38 76 39 78 40 32 41 81 42 75 43 74 44
REMARK SMILES IDX 33 46 63 47 44 48 62 49 45 50 48 51 61 52 79 53 46 54 47 55
REMARK SMILES IDX 60 57 80 58 49 59 34 60 35 61 43 62 36 63 42 64 37 65 38 66
REMARK SMILES IDX 39 67 40 68 41 69 64 70 65 71 73 72 66 73 72 74 67 75 68 76
REMARK SMILES IDX 69 77 70 78 71 79 50 80 51 81 59 82 52 83 58 84 53 85 54 86
REMARK SMILES IDX 55 87 56 88 57 89
REMARK H PARENT 8 12 4 19 78 45 48 56
REMARK Flexibility Score: inf
ROOT
ATOM      1  C   UNL A   1      40.341  21.441  26.941  1.00  0.00     0.202 C 
ENDROOT
BRANCH   1   2
ATOM      2  O   UNL A   1      39.455  22.164  26.093  1.00  0.00    -0.374 OA
BRANCH   2   3
ATOM      3  C   UNL A   1      38.251  21.552  25.640  1.00  0.00     0.202 C 
BRANCH   3   4
ATOM      4  C   UNL A   1      36.964  22.365  25.750  1.00  0.00     0.261 C 
BRANCH   4   5
ATOM      5  O   UNL A   1      35.816  21.548  26.029  1.00  0.00    -0.462 OA
BRANCH   5   6
ATOM      6  C   UNL A   1      34.898  21.469  25.030  1.00  0.00     0.328 C 
ATOM      7  O   UNL A   1      34.994  22.015  23.936  1.00  0.00    -0.250 OA
BRANCH   6   8
ATOM      8  C   UNL A   1      33.640  20.691  25.437  1.00  0.00     0.192 C 
BRANCH   8   9
ATOM      9  N   UNL A   1      32.779  21.309  26.441  1.00  0.00    -0.336 N 
ATOM     10  C   UNL A   1      32.383  22.613  26.664  1.00  0.00     0.289 C 
ATOM     11  O   UNL A   1      31.750  22.777  27.709  1.00  0.00    -0.266 OA
ATOM     12  H   UNL A   1      32.407  20.667  27.089  1.00  0.00     0.164 HD
BRANCH  10  13
ATOM     13  C   UNL A   1      32.662  23.707  25.741  1.00  0.00     0.214 A 
ATOM     14  C   UNL A   1      33.676  27.033  24.976  1.00  0.00     0.092 C 
ATOM     15  C   UNL A   1      33.207  25.631  24.992  1.00  0.00     0.148 A 
ATOM     16  N   UNL A   1      32.667  25.039  23.922  1.00  0.00    -0.159 NA
ATOM     17  N   UNL A   1      33.233  24.846  26.113  1.00  0.00    -0.207 NA
ATOM     18  N   UNL A   1      32.306  23.849  24.429  1.00  0.00    -0.255 N 
ATOM     19  H   UNL A   1      31.837  23.155  23.913  1.00  0.00     0.192 HD
ENDBRANCH  10  13
ENDBRANCH   8   9
BRANCH   8  20
ATOM     20  C   UNL A   1      32.869  20.259  24.181  1.00  0.00     0.040 C 
BRANCH  20  21
ATOM     21  C   UNL A   1      32.467  18.778  23.999  1.00  0.00    -0.015 C 
ATOM     22  C   UNL A   1      32.350  18.296  22.554  1.00  0.00     0.007 C 
ATOM     23  C   UNL A   1      33.513  17.917  24.720  1.00  0.00     0.007 C 
ENDBRANCH  20  21
ENDBRANCH   8  20
ENDBRANCH   6   8
ENDBRANCH   5   6
ENDBRANCH   4   5
ENDBRANCH   3   4
ENDBRANCH   2   3
ENDBRANCH   1   2
BRANCH   1  24
ATOM     24  C   UNL A   1      40.983  20.157  26.430  1.00  0.00     0.261 C 
BRANCH  24  25
ATOM     25  O   UNL A   1      42.368  20.042  26.734  1.00  0.00    -0.460 OA
BRANCH  25  26
ATOM     26  C   UNL A   1      43.152  20.518  25.736  1.00  0.00     0.338 C 
ATOM     27  O   UNL A   1      43.635  19.875  24.821  1.00  0.00    -0.246 OA
BRANCH  26  28
ATOM     28  C   UNL A   1      43.496  21.917  25.995  1.00  0.00     0.060 A 
ATOM     29  C   UNL A   1      44.045  22.193  27.249  1.00  0.00     0.016 A 
ATOM     30  C   UNL A   1      42.988  22.923  25.161  1.00  0.00     0.016 A 
ATOM     31  C   UNL A   1      43.898  23.461  27.758  1.00  0.00     0.010 A 
ATOM     32  C   UNL A   1      42.839  24.190  25.677  1.00  0.00     0.010 A 
ATOM     33  C   UNL A   1      43.217  24.418  26.997  1.00  0.00    -0.014 A 
BRANCH  33  34
ATOM     34  C   UNL A   1      43.013  25.723  27.589  1.00  0.00     0.031 A 
ATOM     35  C   UNL A   1      44.118  26.646  27.268  1.00  0.00     0.074 A 
ATOM     36  C   UNL A   1      41.900  26.062  28.267  1.00  0.00     0.049 A 
ATOM     37  N   UNL A   1      45.094  26.997  28.035  1.00  0.00    -0.248 NA
ATOM     38  C   UNL A   1      44.285  27.035  25.856  1.00  0.00     0.031 C 
ATOM     39  C   UNL A   1      40.650  25.301  28.365  1.00  0.00     0.029 A 
ATOM     40  N   UNL A   1      41.610  27.217  28.924  1.00  0.00    -0.354 N 
ATOM     41  C   UNL A   1      45.842  27.884  27.271  1.00  0.00     0.074 A 
ATOM     42  C   UNL A   1      45.463  27.658  25.901  1.00  0.00     0.031 C 
ATOM     43  C   UNL A   1      39.671  26.115  28.826  1.00  0.00     0.029 A 
ATOM     44  C   UNL A   1      40.258  27.392  29.198  1.00  0.00     0.049 A 
ATOM     45  H   UNL A   1      42.297  27.873  29.183  1.00  0.00     0.167 HD
ATOM     46  C   UNL A   1      46.409  28.980  27.847  1.00  0.00     0.031 A 
ATOM     47  C   UNL A   1      39.667  28.527  29.648  1.00  0.00     0.031 A 
ATOM     48  C   UNL A   1      46.402  28.878  29.283  1.00  0.00     0.049 A 
ATOM     49  C   UNL A   1      40.721  29.347  30.290  1.00  0.00     0.074 A 
ATOM     50  C   UNL A   1      47.081  28.163  30.243  1.00  0.00     0.029 A 
ATOM     51  N   UNL A   1      45.251  29.353  29.859  1.00  0.00    -0.354 N 
ATOM     52  N   UNL A   1      41.353  28.977  31.369  1.00  0.00    -0.248 NA
ATOM     53  C   UNL A   1      41.355  30.421  29.535  1.00  0.00     0.031 C 
ATOM     54  C   UNL A   1      46.201  28.072  31.362  1.00  0.00     0.029 A 
ATOM     55  C   UNL A   1      45.028  28.771  31.075  1.00  0.00     0.049 A 
ATOM     56  H   UNL A   1      44.661  30.027  29.447  1.00  0.00     0.167 HD
ATOM     57  C   UNL A   1      42.640  29.452  31.197  1.00  0.00     0.074 A 
ATOM     58  C   UNL A   1      42.539  30.464  30.153  1.00  0.00     0.031 C 
ATOM     59  C   UNL A   1      43.712  28.763  31.685  1.00  0.00     0.031 A 
BRANCH  46  60
ATOM     60  C   UNL A   1      46.447  30.334  27.171  1.00  0.00    -0.014 A 
ATOM     61  C   UNL A   1      47.671  31.030  27.122  1.00  0.00     0.010 A 
ATOM     62  C   UNL A   1      45.286  31.071  26.852  1.00  0.00     0.010 A 
ATOM     63  C   UNL A   1      47.721  32.396  26.809  1.00  0.00     0.020 A 
ATOM     64  C   UNL A   1      45.327  32.420  26.502  1.00  0.00     0.020 A 
ATOM     65  C   UNL A   1      46.544  33.082  26.506  1.00  0.00     0.054 A 
BRANCH  65  66
ATOM     66  S   UNL A   1      46.603  34.857  26.170  1.00  0.00     0.124 S 
ATOM     67  O   UNL A   1      47.070  35.392  27.444  1.00  0.00    -0.237 OA
ATOM     68  O   UNL A   1      47.553  34.927  25.063  1.00  0.00    -0.237 OA
ATOM     69  O   UNL A   1      45.223  35.184  25.818  1.00  0.00    -0.744 OA
ENDBRANCH  65  66
ENDBRANCH  46  60
BRANCH  47  70
ATOM     70  C   UNL A   1      38.332  29.078  29.303  1.00  0.00    -0.014 A 
ATOM     71  C   UNL A   1      37.485  29.605  30.296  1.00  0.00     0.010 A 
ATOM     72  C   UNL A   1      38.021  29.362  27.958  1.00  0.00     0.010 A 
ATOM     73  C   UNL A   1      36.407  30.443  29.959  1.00  0.00     0.020 A 
ATOM     74  C   UNL A   1      36.947  30.194  27.614  1.00  0.00     0.020 A 
ATOM     75  C   UNL A   1      36.159  30.751  28.619  1.00  0.00     0.054 A 
BRANCH  75  76
ATOM     76  S   UNL A   1      34.884  31.981  28.205  1.00  0.00     0.124 S 
ATOM     77  O   UNL A   1      34.359  32.340  29.519  1.00  0.00    -0.237 OA
ATOM     78  O   UNL A   1      35.653  33.020  27.526  1.00  0.00    -0.237 OA
ATOM     79  O   UNL A   1      33.957  31.241  27.349  1.00  0.00    -0.744 OA
ENDBRANCH  75  76
ENDBRANCH  47  70
BRANCH  59  80
ATOM     80  C   UNL A   1      43.486  27.838  32.848  1.00  0.00    -0.014 A 
ATOM     81  C   UNL A   1      43.688  26.446  32.819  1.00  0.00     0.010 A 
ATOM     82  C   UNL A   1      43.125  28.444  34.064  1.00  0.00     0.010 A 
ATOM     83  C   UNL A   1      43.514  25.680  33.982  1.00  0.00     0.020 A 
ATOM     84  C   UNL A   1      42.969  27.691  35.227  1.00  0.00     0.020 A 
ATOM     85  C   UNL A   1      43.156  26.310  35.180  1.00  0.00     0.054 A 
BRANCH  85  86
ATOM     86  S   UNL A   1      42.962  25.328  36.693  1.00  0.00     0.124 S 
ATOM     87  O   UNL A   1      41.746  24.564  36.423  1.00  0.00    -0.237 OA
ATOM     88  O   UNL A   1      44.198  24.550  36.735  1.00  0.00    -0.237 OA
ATOM     89  O   UNL A   1      42.837  26.333  37.748  1.00  0.00    -0.744 OA
ENDBRANCH  85  86
ENDBRANCH  59  80
ENDBRANCH  33  34
ENDBRANCH  26  28
ENDBRANCH  25  26
ENDBRANCH  24  25
ENDBRANCH   1  24
TORSDOF 21
ENDMDL
MODEL 3
REMARK VINA RESULT:      -9.6      1.361      1.973
REMARK SMILES Cc1n[nH]c(C(=O)N[C@@H](CC(C)C)C(=O)OCCOCCOC(=O)c2ccc(-c3c4nc(c(-c5ccc(S(=O)(=O)[O-])cc5)c5ccc([nH]5)c(-c5ccc(S(=O)(=O)[O-])cc5)c5nc(c(-c6ccc(S(=O)(=O)[O-])cc6)c6ccc3[nH]6)C=C5)C=C4)cc2)n1
REMARK SMILES IDX 20 1 19 2 18 3 17 4 16 5 14 6 15 7 9 8 8 9 6 10 7 11 5 13
REMARK SMILES IDX 1 14 2 15 3 16 85 17 4 18 10 20 11 21 12 22 13 23 21 24
REMARK SMILES IDX 22 25 23 26 24 27 25 28 26 29 84 30 27 31 83 32 28 33 29 34
REMARK SMILES IDX 30 35 77 36 31 37 82 38 76 39 78 40 32 41 81 42 75 43 74 44
REMARK SMILES IDX 33 46 63 47 44 48 62 49 45 50 48 51 61 52 79 53 46 54 47 55
REMARK SMILES IDX 60 57 80 58 49 59 34 60 35 61 43 62 36 63 42 64 37 65 38 66
REMARK SMILES IDX 39 67 40 68 41 69 64 70 65 71 73 72 66 73 72 74 67 75 68 76
REMARK SMILES IDX 69 77 70 78 71 79 50 80 51 81 59 82 52 83 58 84 53 85 54 86
REMARK SMILES IDX 55 87 56 88 57 89
REMARK H PARENT 8 12 4 19 78 45 48 56
REMARK Flexibility Score: inf
ROOT
ATOM      1  C   UNL A   1      42.449  20.615  26.457  1.00  0.00     0.202 C 
ENDROOT
BRANCH   1   2
ATOM      2  O   UNL A   1      42.985  21.781  25.842  1.00  0.00    -0.374 OA
BRANCH   2   3
ATOM      3  C   UNL A   1      44.272  21.732  25.231  1.00  0.00     0.202 C 
BRANCH   3   4
ATOM      4  C   UNL A   1      44.994  23.057  25.004  1.00  0.00     0.261 C 
BRANCH   4   5
ATOM      5  O   UNL A   1      44.186  24.013  24.300  1.00  0.00    -0.462 OA
BRANCH   5   6
ATOM      6  C   UNL A   1      43.877  25.141  24.992  1.00  0.00     0.328 C 
ATOM      7  O   UNL A   1      42.747  25.596  25.134  1.00  0.00    -0.250 OA
BRANCH   6   8
ATOM      8  C   UNL A   1      45.117  25.875  25.519  1.00  0.00     0.192 C 
BRANCH   8   9
ATOM      9  N   UNL A   1      45.442  27.152  24.891  1.00  0.00    -0.336 N 
ATOM     10  C   UNL A   1      46.613  27.876  24.787  1.00  0.00     0.289 C 
ATOM     11  O   UNL A   1      46.472  28.997  24.293  1.00  0.00    -0.266 OA
ATOM     12  H   UNL A   1      44.671  27.584  24.456  1.00  0.00     0.164 HD
BRANCH  10  13
ATOM     13  C   UNL A   1      47.915  27.362  25.197  1.00  0.00     0.214 A 
ATOM     14  C   UNL A   1      50.860  27.416  27.197  1.00  0.00     0.092 C 
ATOM     15  C   UNL A   1      49.774  27.158  26.227  1.00  0.00     0.148 A 
ATOM     16  N   UNL A   1      49.910  26.311  25.201  1.00  0.00    -0.159 NA
ATOM     17  N   UNL A   1      48.569  27.805  26.264  1.00  0.00    -0.207 NA
ATOM     18  N   UNL A   1      48.744  26.484  24.557  1.00  0.00    -0.255 N 
ATOM     19  H   UNL A   1      48.512  26.029  23.716  1.00  0.00     0.192 HD
ENDBRANCH  10  13
ENDBRANCH   8   9
BRANCH   8  20
ATOM     20  C   UNL A   1      45.052  25.967  27.051  1.00  0.00     0.040 C 
BRANCH  20  21
ATOM     21  C   UNL A   1      46.329  25.729  27.889  1.00  0.00    -0.015 C 
ATOM     22  C   UNL A   1      46.184  25.948  29.393  1.00  0.00     0.007 C 
ATOM     23  C   UNL A   1      46.785  24.284  27.646  1.00  0.00     0.007 C 
ENDBRANCH  20  21
ENDBRANCH   8  20
ENDBRANCH   6   8
ENDBRANCH   5   6
ENDBRANCH   4   5
ENDBRANCH   3   4
ENDBRANCH   2   3
ENDBRANCH   1   2
BRANCH   1  24
ATOM     24  C   UNL A   1      40.960  20.555  26.777  1.00  0.00     0.261 C 
BRANCH  24  25
ATOM     25  O   UNL A   1      40.500  21.627  27.590  1.00  0.00    -0.460 OA
BRANCH  25  26
ATOM     26  C   UNL A   1      39.755  22.517  26.891  1.00  0.00     0.338 C 
ATOM     27  O   UNL A   1      38.847  22.260  26.120  1.00  0.00    -0.246 OA
BRANCH  26  28
ATOM     28  C   UNL A   1      40.302  23.865  27.054  1.00  0.00     0.060 A 
ATOM     29  C   UNL A   1      41.312  24.006  28.008  1.00  0.00     0.016 A 
ATOM     30  C   UNL A   1      39.612  24.965  26.525  1.00  0.00     0.016 A 
ATOM     31  C   UNL A   1      41.492  25.239  28.588  1.00  0.00     0.010 A 
ATOM     32  C   UNL A   1      39.792  26.197  27.111  1.00  0.00     0.010 A 
ATOM     33  C   UNL A   1      40.665  26.297  28.190  1.00  0.00    -0.014 A 
BRANCH  33  34
ATOM     34  C   UNL A   1      40.827  27.565  28.870  1.00  0.00     0.031 A 
ATOM     35  C   UNL A   1      41.984  28.318  28.348  1.00  0.00     0.074 A 
ATOM     36  C   UNL A   1      39.964  28.025  29.795  1.00  0.00     0.049 A 
ATOM     37  N   UNL A   1      43.148  28.441  28.890  1.00  0.00    -0.248 NA
ATOM     38  C   UNL A   1      41.911  28.789  26.954  1.00  0.00     0.031 C 
ATOM     39  C   UNL A   1      38.650  27.473  30.139  1.00  0.00     0.029 A 
ATOM     40  N   UNL A   1      40.030  29.154  30.550  1.00  0.00    -0.354 N 
ATOM     41  C   UNL A   1      43.860  29.254  28.018  1.00  0.00     0.074 A 
ATOM     42  C   UNL A   1      43.163  29.206  26.759  1.00  0.00     0.031 C 
ATOM     43  C   UNL A   1      37.951  28.395  30.843  1.00  0.00     0.029 A 
ATOM     44  C   UNL A   1      38.822  29.524  31.129  1.00  0.00     0.049 A 
ATOM     45  H   UNL A   1      40.863  29.665  30.676  1.00  0.00     0.167 HD
ATOM     46  C   UNL A   1      44.722  30.191  28.498  1.00  0.00     0.031 A 
ATOM     47  C   UNL A   1      38.552  30.700  31.750  1.00  0.00     0.031 A 
ATOM     48  C   UNL A   1      45.005  29.975  29.892  1.00  0.00     0.049 A 
ATOM     49  C   UNL A   1      39.847  31.281  32.172  1.00  0.00     0.074 A 
ATOM     50  C   UNL A   1      45.736  29.082  30.644  1.00  0.00     0.029 A 
ATOM     51  N   UNL A   1      44.107  30.583  30.733  1.00  0.00    -0.354 N 
ATOM     52  N   UNL A   1      40.620  30.726  33.065  1.00  0.00    -0.248 NA
ATOM     53  C   UNL A   1      40.485  32.296  31.342  1.00  0.00     0.031 C 
ATOM     54  C   UNL A   1      45.115  29.046  31.927  1.00  0.00     0.029 A 
ATOM     55  C   UNL A   1      44.051  29.947  31.942  1.00  0.00     0.049 A 
ATOM     56  H   UNL A   1      43.572  31.376  30.495  1.00  0.00     0.167 HD
ATOM     57  C   UNL A   1      41.903  30.997  32.628  1.00  0.00     0.074 A 
ATOM     58  C   UNL A   1      41.763  32.094  31.679  1.00  0.00     0.031 C 
ATOM     59  C   UNL A   1      42.916  30.105  32.831  1.00  0.00     0.031 A 
BRANCH  46  60
ATOM     60  C   UNL A   1      44.855  31.572  27.891  1.00  0.00    -0.014 A 
ATOM     61  C   UNL A   1      46.050  31.906  27.225  1.00  0.00     0.010 A 
ATOM     62  C   UNL A   1      43.983  32.639  28.201  1.00  0.00     0.010 A 
ATOM     63  C   UNL A   1      46.370  33.238  26.925  1.00  0.00     0.020 A 
ATOM     64  C   UNL A   1      44.272  33.963  27.873  1.00  0.00     0.020 A 
ATOM     65  C   UNL A   1      45.478  34.258  27.258  1.00  0.00     0.054 A 
BRANCH  65  66
ATOM     66  S   UNL A   1      45.923  35.979  26.931  1.00  0.00     0.124 S 
ATOM     67  O   UNL A   1      46.571  36.367  28.179  1.00  0.00    -0.237 OA
ATOM     68  O   UNL A   1      46.800  35.853  25.770  1.00  0.00    -0.237 OA
ATOM     69  O   UNL A   1      44.636  36.619  26.664  1.00  0.00    -0.744 OA
ENDBRANCH  65  66
ENDBRANCH  46  60
BRANCH  47  70
ATOM     70  C   UNL A   1      37.294  31.488  31.738  1.00  0.00    -0.014 A 
ATOM     71  C   UNL A   1      36.512  31.625  32.901  1.00  0.00     0.010 A 
ATOM     72  C   UNL A   1      37.023  32.354  30.659  1.00  0.00     0.010 A 
ATOM     73  C   UNL A   1      35.543  32.639  33.007  1.00  0.00     0.020 A 
ATOM     74  C   UNL A   1      36.057  33.364  30.757  1.00  0.00     0.020 A 
ATOM     75  C   UNL A   1      35.338  33.518  31.940  1.00  0.00     0.054 A 
BRANCH  75  76
ATOM     76  S   UNL A   1      34.220  34.937  32.153  1.00  0.00     0.124 S 
ATOM     77  O   UNL A   1      33.091  34.341  32.862  1.00  0.00    -0.237 OA
ATOM     78  O   UNL A   1      35.032  35.869  32.930  1.00  0.00    -0.237 OA
ATOM     79  O   UNL A   1      33.937  35.361  30.782  1.00  0.00    -0.744 OA
ENDBRANCH  75  76
ENDBRANCH  47  70
BRANCH  59  80
ATOM     80  C   UNL A   1      42.784  29.137  33.974  1.00  0.00    -0.014 A 
ATOM     81  C   UNL A   1      43.083  29.432  35.316  1.00  0.00     0.010 A 
ATOM     82  C   UNL A   1      42.241  27.878  33.663  1.00  0.00     0.010 A 
ATOM     83  C   UNL A   1      42.859  28.475  36.319  1.00  0.00     0.020 A 
ATOM     84  C   UNL A   1      41.998  26.931  34.657  1.00  0.00     0.020 A 
ATOM     85  C   UNL A   1      42.316  27.230  35.981  1.00  0.00     0.054 A 
BRANCH  85  86
ATOM     86  S   UNL A   1      41.995  26.004  37.279  1.00  0.00     0.124 S 
ATOM     87  O   UNL A   1      42.301  24.743  36.608  1.00  0.00    -0.237 OA
ATOM     88  O   UNL A   1      42.925  26.398  38.335  1.00  0.00    -0.237 OA
ATOM     89  O   UNL A   1      40.583  26.203  37.604  1.00  0.00    -0.744 OA
ENDBRANCH  85  86
ENDBRANCH  59  80
ENDBRANCH  33  34
ENDBRANCH  26  28
ENDBRANCH  25  26
ENDBRANCH  24  25
ENDBRANCH   1  24
TORSDOF 21
ENDMDL
