MODEL 1
REMARK VINA RESULT:      -9.6      0.000      0.000
REMARK SMILES NC(=[NH2+])N1CCC[C@H]1C(=O)OCCOCCOC(=O)c1ccc(-c2c3nc(c(-c4ccc(S(=O)(=O)[O-])cc4)c4ccc([nH]4)c(-c4ccc(S(=O)(=O)[O-])cc4)c4nc(c(-c5ccc(S(=O)(=O)[O-])cc5)c5ccc2[nH]5)C=C4)C=C3)cc1
REMARK SMILES IDX 15 1 14 2 13 3 12 4 11 5 9 6 10 7 8 8 4 9 5 10 6 11 7 12
REMARK SMILES IDX 2 13 3 14 1 17 16 20 17 21 18 22 19 23 20 24 21 25 79 26
REMARK SMILES IDX 22 27 78 28 23 29 24 30 25 31 72 32 26 33 77 34 71 35 73 36
REMARK SMILES IDX 27 37 76 38 70 39 69 40 28 42 58 43 39 44 57 45 40 46 43 47
REMARK SMILES IDX 56 48 74 49 41 50 42 51 55 53 75 54 44 55 29 56 30 57 38 58
REMARK SMILES IDX 31 59 37 60 32 61 33 62 34 63 35 64 36 65 59 66 60 67 68 68
REMARK SMILES IDX 61 69 67 70 62 71 63 72 64 73 65 74 66 75 45 76 46 77 54 78
REMARK SMILES IDX 47 79 53 80 48 81 49 82 50 83 51 84 52 85
REMARK H PARENT 3 15 3 16 1 18 1 19 73 41 43 52
REMARK Flexibility Score: inf
ROOT
ATOM      1  C   UNL A   1      34.406  32.705  28.603  1.00  0.00     0.202 C 
ENDROOT
BRANCH   1   2
ATOM      2  O   UNL A   1      33.582  31.743  27.944  1.00  0.00    -0.374 OA
BRANCH   2   3
ATOM      3  C   UNL A   1      34.190  30.520  27.530  1.00  0.00     0.202 C 
BRANCH   3   4
ATOM      4  C   UNL A   1      33.506  29.770  26.385  1.00  0.00     0.261 C 
BRANCH   4   5
ATOM      5  O   UNL A   1      34.252  28.605  25.995  1.00  0.00    -0.461 OA
BRANCH   5   6
ATOM      6  C   UNL A   1      33.538  27.657  25.319  1.00  0.00     0.343 C 
ATOM      7  O   UNL A   1      34.022  26.624  24.864  1.00  0.00    -0.248 OA
BRANCH   6   8
ATOM      8  C   UNL A   1      32.031  27.940  25.324  1.00  0.00     0.257 C 
ATOM      9  N   UNL A   1      31.419  27.999  23.980  1.00  0.00    -0.252 N 
ATOM     10  C   UNL A   1      30.667  26.771  23.746  1.00  0.00     0.201 C 
ATOM     11  C   UNL A   1      30.138  26.422  25.126  1.00  0.00     0.042 C 
ATOM     12  C   UNL A   1      31.285  26.802  26.047  1.00  0.00     0.057 C 
BRANCH   9  13
ATOM     13  C   UNL A   1      31.067  29.169  23.381  1.00  0.00     0.341 C 
ATOM     14  N   UNL A   1      31.089  29.356  22.109  1.00  0.00    -0.291 N 
ATOM     15  H   UNL A   1      30.823  30.226  21.734  1.00  0.00     0.256 HD
ATOM     16  H   UNL A   1      31.373  28.628  21.510  1.00  0.00     0.256 HD
ATOM     17  N   UNL A   1      30.684  30.142  24.224  1.00  0.00    -0.291 N 
ATOM     18  H   UNL A   1      30.413  31.020  23.873  1.00  0.00     0.256 HD
ATOM     19  H   UNL A   1      30.674  29.977  25.195  1.00  0.00     0.256 HD
ENDBRANCH   9  13
ENDBRANCH   6   8
ENDBRANCH   5   6
ENDBRANCH   4   5
ENDBRANCH   3   4
ENDBRANCH   2   3
ENDBRANCH   1   2
BRANCH   1  20
ATOM     20  C   UNL A   1      34.956  32.321  29.982  1.00  0.00     0.261 C 
BRANCH  20  21
ATOM     21  O   UNL A   1      36.320  31.863  29.912  1.00  0.00    -0.460 OA
BRANCH  21  22
ATOM     22  C   UNL A   1      36.584  30.756  30.648  1.00  0.00     0.338 C 
ATOM     23  O   UNL A   1      35.890  30.281  31.538  1.00  0.00    -0.246 OA
BRANCH  22  24
ATOM     24  C   UNL A   1      37.757  30.053  30.098  1.00  0.00     0.060 A 
ATOM     25  C   UNL A   1      38.641  29.463  31.010  1.00  0.00     0.016 A 
ATOM     26  C   UNL A   1      38.028  30.028  28.728  1.00  0.00     0.016 A 
ATOM     27  C   UNL A   1      39.830  28.894  30.561  1.00  0.00     0.010 A 
ATOM     28  C   UNL A   1      39.227  29.463  28.279  1.00  0.00     0.010 A 
ATOM     29  C   UNL A   1      40.150  28.930  29.197  1.00  0.00    -0.014 A 
BRANCH  29  30
ATOM     30  C   UNL A   1      41.519  28.560  28.765  1.00  0.00     0.031 A 
ATOM     31  C   UNL A   1      42.591  29.618  28.764  1.00  0.00     0.074 A 
ATOM     32  C   UNL A   1      41.818  27.294  28.423  1.00  0.00     0.049 A 
ATOM     33  N   UNL A   1      43.852  29.518  28.433  1.00  0.00    -0.248 NA
ATOM     34  C   UNL A   1      42.187  30.966  29.196  1.00  0.00     0.031 C 
ATOM     35  C   UNL A   1      40.879  26.173  28.427  1.00  0.00     0.029 A 
ATOM     36  N   UNL A   1      43.003  26.741  28.009  1.00  0.00    -0.354 N 
ATOM     37  C   UNL A   1      44.391  30.788  28.608  1.00  0.00     0.074 A 
ATOM     38  C   UNL A   1      43.313  31.648  29.049  1.00  0.00     0.031 C 
ATOM     39  C   UNL A   1      41.525  25.063  28.027  1.00  0.00     0.029 A 
ATOM     40  C   UNL A   1      42.913  25.401  27.714  1.00  0.00     0.049 A 
ATOM     41  H   UNL A   1      43.839  27.254  27.929  1.00  0.00     0.167 HD
ATOM     42  C   UNL A   1      45.667  31.201  28.428  1.00  0.00     0.031 A 
ATOM     43  C   UNL A   1      43.840  24.549  27.233  1.00  0.00     0.031 A 
ATOM     44  C   UNL A   1      46.736  30.348  27.980  1.00  0.00     0.049 A 
ATOM     45  C   UNL A   1      45.237  25.046  26.976  1.00  0.00     0.074 A 
ATOM     46  C   UNL A   1      48.066  30.669  27.778  1.00  0.00     0.029 A 
ATOM     47  N   UNL A   1      46.594  29.007  27.656  1.00  0.00    -0.354 N 
ATOM     48  N   UNL A   1      45.736  26.244  27.171  1.00  0.00    -0.248 NA
ATOM     49  C   UNL A   1      46.200  24.073  26.441  1.00  0.00     0.031 C 
ATOM     50  C   UNL A   1      48.718  29.535  27.284  1.00  0.00     0.029 A 
ATOM     51  C   UNL A   1      47.808  28.492  27.234  1.00  0.00     0.049 A 
ATOM     52  H   UNL A   1      45.755  28.496  27.720  1.00  0.00     0.167 HD
ATOM     53  C   UNL A   1      47.077  26.161  26.810  1.00  0.00     0.074 A 
ATOM     54  C   UNL A   1      47.314  24.793  26.395  1.00  0.00     0.031 C 
ATOM     55  C   UNL A   1      48.028  27.128  26.823  1.00  0.00     0.031 A 
BRANCH  42  56
ATOM     56  C   UNL A   1      45.970  32.653  28.684  1.00  0.00    -0.014 A 
ATOM     57  C   UNL A   1      46.393  33.097  29.949  1.00  0.00     0.010 A 
ATOM     58  C   UNL A   1      45.859  33.582  27.633  1.00  0.00     0.010 A 
ATOM     59  C   UNL A   1      46.663  34.450  30.169  1.00  0.00     0.020 A 
ATOM     60  C   UNL A   1      46.153  34.932  27.843  1.00  0.00     0.020 A 
ATOM     61  C   UNL A   1      46.538  35.361  29.115  1.00  0.00     0.054 A 
BRANCH  61  62
ATOM     62  S   UNL A   1      46.910  37.108  29.423  1.00  0.00     0.124 S 
ATOM     63  O   UNL A   1      45.599  37.730  29.257  1.00  0.00    -0.237 OA
ATOM     64  O   UNL A   1      47.427  37.090  30.789  1.00  0.00    -0.237 OA
ATOM     65  O   UNL A   1      47.892  37.441  28.394  1.00  0.00    -0.744 OA
ENDBRANCH  61  62
ENDBRANCH  42  56
BRANCH  43  66
ATOM     66  C   UNL A   1      43.471  23.135  26.950  1.00  0.00    -0.014 A 
ATOM     67  C   UNL A   1      43.746  22.557  25.699  1.00  0.00     0.010 A 
ATOM     68  C   UNL A   1      42.841  22.357  27.940  1.00  0.00     0.010 A 
ATOM     69  C   UNL A   1      43.383  21.232  25.436  1.00  0.00     0.020 A 
ATOM     70  C   UNL A   1      42.502  21.025  27.690  1.00  0.00     0.020 A 
ATOM     71  C   UNL A   1      42.765  20.473  26.435  1.00  0.00     0.054 A 
BRANCH  71  72
ATOM     72  S   UNL A   1      42.353  18.740  26.091  1.00  0.00     0.124 S 
ATOM     73  O   UNL A   1      42.640  18.100  27.371  1.00  0.00    -0.237 OA
ATOM     74  O   UNL A   1      40.941  18.818  25.725  1.00  0.00    -0.237 OA
ATOM     75  O   UNL A   1      43.253  18.386  24.997  1.00  0.00    -0.744 OA
ENDBRANCH  71  72
ENDBRANCH  43  66
BRANCH  55  76
ATOM     76  C   UNL A   1      49.424  26.739  26.413  1.00  0.00    -0.014 A 
ATOM     77  C   UNL A   1      50.365  26.295  27.357  1.00  0.00     0.010 A 
ATOM     78  C   UNL A   1      49.777  26.764  25.051  1.00  0.00     0.010 A 
ATOM     79  C   UNL A   1      51.646  25.910  26.950  1.00  0.00     0.020 A 
ATOM     80  C   UNL A   1      51.047  26.355  24.637  1.00  0.00     0.020 A 
ATOM     81  C   UNL A   1      51.978  25.944  25.591  1.00  0.00     0.054 A 
BRANCH  81  82
ATOM     82  S   UNL A   1      53.632  25.398  25.082  1.00  0.00     0.124 S 
ATOM     83  O   UNL A   1      53.515  23.945  25.178  1.00  0.00    -0.237 OA
ATOM     84  O   UNL A   1      53.746  25.932  23.727  1.00  0.00    -0.237 OA
ATOM     85  O   UNL A   1      54.518  26.017  26.066  1.00  0.00    -0.744 OA
ENDBRANCH  81  82
ENDBRANCH  55  76
ENDBRANCH  29  30
ENDBRANCH  22  24
ENDBRANCH  21  22
ENDBRANCH  20  21
ENDBRANCH   1  20
TORSDOF 18
ENDMDL
MODEL 2
REMARK VINA RESULT:      -9.5      3.316      9.686
REMARK SMILES NC(=[NH2+])N1CCC[C@H]1C(=O)OCCOCCOC(=O)c1ccc(-c2c3nc(c(-c4ccc(S(=O)(=O)[O-])cc4)c4ccc([nH]4)c(-c4ccc(S(=O)(=O)[O-])cc4)c4nc(c(-c5ccc(S(=O)(=O)[O-])cc5)c5ccc2[nH]5)C=C4)C=C3)cc1
REMARK SMILES IDX 15 1 14 2 13 3 12 4 11 5 9 6 10 7 8 8 4 9 5 10 6 11 7 12
REMARK SMILES IDX 2 13 3 14 1 17 16 20 17 21 18 22 19 23 20 24 21 25 79 26
REMARK SMILES IDX 22 27 78 28 23 29 24 30 25 31 72 32 26 33 77 34 71 35 73 36
REMARK SMILES IDX 27 37 76 38 70 39 69 40 28 42 58 43 39 44 57 45 40 46 43 47
REMARK SMILES IDX 56 48 74 49 41 50 42 51 55 53 75 54 44 55 29 56 30 57 38 58
REMARK SMILES IDX 31 59 37 60 32 61 33 62 34 63 35 64 36 65 59 66 60 67 68 68
REMARK SMILES IDX 61 69 67 70 62 71 63 72 64 73 65 74 66 75 45 76 46 77 54 78
REMARK SMILES IDX 47 79 53 80 48 81 49 82 50 83 51 84 52 85
REMARK H PARENT 3 15 3 16 1 18 1 19 73 41 43 52
REMARK Flexibility Score: inf
ROOT
ATOM      1  C   UNL A   1      36.355  32.015  28.263  1.00  0.00     0.202 C 
ENDROOT
BRANCH   1   2
ATOM      2  O   UNL A   1      36.214  33.004  29.282  1.00  0.00    -0.374 OA
BRANCH   2   3
ATOM      3  C   UNL A   1      35.386  34.133  29.004  1.00  0.00     0.202 C 
BRANCH   3   4
ATOM      4  C   UNL A   1      34.026  34.173  29.706  1.00  0.00     0.261 C 
BRANCH   4   5
ATOM      5  O   UNL A   1      34.059  33.478  30.963  1.00  0.00    -0.461 OA
BRANCH   5   6
ATOM      6  C   UNL A   1      34.415  34.241  32.039  1.00  0.00     0.343 C 
ATOM      7  O   UNL A   1      34.091  35.416  32.188  1.00  0.00    -0.248 OA
BRANCH   6   8
ATOM      8  C   UNL A   1      35.132  33.430  33.124  1.00  0.00     0.257 C 
ATOM      9  N   UNL A   1      36.552  33.141  32.828  1.00  0.00    -0.252 N 
ATOM     10  C   UNL A   1      37.394  34.010  33.645  1.00  0.00     0.201 C 
ATOM     11  C   UNL A   1      36.597  34.154  34.929  1.00  0.00     0.042 C 
ATOM     12  C   UNL A   1      35.159  34.225  34.444  1.00  0.00     0.057 C 
BRANCH   9  13
ATOM     13  C   UNL A   1      36.985  31.918  32.419  1.00  0.00     0.341 C 
ATOM     14  N   UNL A   1      36.520  30.807  32.872  1.00  0.00    -0.291 N 
ATOM     15  H   UNL A   1      36.874  29.952  32.537  1.00  0.00     0.256 HD
ATOM     16  H   UNL A   1      35.811  30.813  33.556  1.00  0.00     0.256 HD
ATOM     17  N   UNL A   1      37.952  31.943  31.487  1.00  0.00    -0.291 N 
ATOM     18  H   UNL A   1      38.320  31.100  31.137  1.00  0.00     0.256 HD
ATOM     19  H   UNL A   1      38.291  32.804  31.153  1.00  0.00     0.256 HD
ENDBRANCH   9  13
ENDBRANCH   6   8
ENDBRANCH   5   6
ENDBRANCH   4   5
ENDBRANCH   3   4
ENDBRANCH   2   3
ENDBRANCH   1   2
BRANCH   1  20
ATOM     20  C   UNL A   1      35.527  30.733  28.419  1.00  0.00     0.261 C 
BRANCH  20  21
ATOM     21  O   UNL A   1      36.330  29.547  28.261  1.00  0.00    -0.460 OA
BRANCH  21  22
ATOM     22  C   UNL A   1      37.135  29.265  29.313  1.00  0.00     0.338 C 
ATOM     23  O   UNL A   1      36.799  29.132  30.483  1.00  0.00    -0.246 OA
BRANCH  22  24
ATOM     24  C   UNL A   1      38.490  28.931  28.836  1.00  0.00     0.060 A 
ATOM     25  C   UNL A   1      39.388  28.396  29.769  1.00  0.00     0.016 A 
ATOM     26  C   UNL A   1      38.899  29.198  27.529  1.00  0.00     0.016 A 
ATOM     27  C   UNL A   1      40.715  28.178  29.414  1.00  0.00     0.010 A 
ATOM     28  C   UNL A   1      40.236  28.986  27.175  1.00  0.00     0.010 A 
ATOM     29  C   UNL A   1      41.158  28.513  28.127  1.00  0.00    -0.014 A 
BRANCH  29  30
ATOM     30  C   UNL A   1      42.613  28.522  27.841  1.00  0.00     0.031 A 
ATOM     31  C   UNL A   1      43.245  27.290  27.249  1.00  0.00     0.074 A 
ATOM     32  C   UNL A   1      43.353  29.623  28.062  1.00  0.00     0.049 A 
ATOM     33  N   UNL A   1      44.491  27.078  26.914  1.00  0.00    -0.248 NA
ATOM     34  C   UNL A   1      42.351  26.147  26.998  1.00  0.00     0.031 C 
ATOM     35  C   UNL A   1      42.849  30.890  28.590  1.00  0.00     0.029 A 
ATOM     36  N   UNL A   1      44.692  29.848  27.863  1.00  0.00    -0.354 N 
ATOM     37  C   UNL A   1      44.534  25.779  26.421  1.00  0.00     0.074 A 
ATOM     38  C   UNL A   1      43.195  25.241  26.526  1.00  0.00     0.031 C 
ATOM     39  C   UNL A   1      43.870  31.761  28.678  1.00  0.00     0.029 A 
ATOM     40  C   UNL A   1      45.101  31.105  28.240  1.00  0.00     0.049 A 
ATOM     41  H   UNL A   1      45.303  29.174  27.487  1.00  0.00     0.167 HD
ATOM     42  C   UNL A   1      45.590  25.097  25.919  1.00  0.00     0.031 A 
ATOM     43  C   UNL A   1      46.330  31.659  28.244  1.00  0.00     0.031 A 
ATOM     44  C   UNL A   1      46.924  25.629  25.824  1.00  0.00     0.049 A 
ATOM     45  C   UNL A   1      47.502  30.857  27.744  1.00  0.00     0.074 A 
ATOM     46  C   UNL A   1      48.059  25.020  25.319  1.00  0.00     0.029 A 
ATOM     47  N   UNL A   1      47.303  26.892  26.252  1.00  0.00    -0.354 N 
ATOM     48  N   UNL A   1      47.522  29.639  27.257  1.00  0.00    -0.248 NA
ATOM     49  C   UNL A   1      48.819  31.510  27.784  1.00  0.00     0.031 C 
ATOM     50  C   UNL A   1      49.135  25.897  25.488  1.00  0.00     0.029 A 
ATOM     51  C   UNL A   1      48.660  27.073  26.044  1.00  0.00     0.049 A 
ATOM     52  H   UNL A   1      46.697  27.561  26.644  1.00  0.00     0.167 HD
ATOM     53  C   UNL A   1      48.845  29.390  26.908  1.00  0.00     0.074 A 
ATOM     54  C   UNL A   1      49.594  30.588  27.228  1.00  0.00     0.031 C 
ATOM     55  C   UNL A   1      49.392  28.272  26.368  1.00  0.00     0.031 A 
BRANCH  42  56
ATOM     56  C   UNL A   1      45.350  23.683  25.463  1.00  0.00    -0.014 A 
ATOM     57  C   UNL A   1      45.003  23.395  24.130  1.00  0.00     0.010 A 
ATOM     58  C   UNL A   1      45.504  22.623  26.375  1.00  0.00     0.010 A 
ATOM     59  C   UNL A   1      44.778  22.076  23.728  1.00  0.00     0.020 A 
ATOM     60  C   UNL A   1      45.304  21.300  25.969  1.00  0.00     0.020 A 
ATOM     61  C   UNL A   1      44.926  21.036  24.651  1.00  0.00     0.054 A 
BRANCH  61  62
ATOM     62  S   UNL A   1      44.643  19.333  24.099  1.00  0.00     0.124 S 
ATOM     63  O   UNL A   1      45.832  18.651  24.605  1.00  0.00    -0.237 OA
ATOM     64  O   UNL A   1      43.390  18.984  24.763  1.00  0.00    -0.237 OA
ATOM     65  O   UNL A   1      44.563  19.447  22.644  1.00  0.00    -0.744 OA
ENDBRANCH  61  62
ENDBRANCH  42  56
BRANCH  43  66
ATOM     66  C   UNL A   1      46.518  33.044  28.754  1.00  0.00    -0.014 A 
ATOM     67  C   UNL A   1      46.821  33.278  30.107  1.00  0.00     0.010 A 
ATOM     68  C   UNL A   1      46.395  34.141  27.881  1.00  0.00     0.010 A 
ATOM     69  C   UNL A   1      46.982  34.584  30.581  1.00  0.00     0.020 A 
ATOM     70  C   UNL A   1      46.582  35.446  28.345  1.00  0.00     0.020 A 
ATOM     71  C   UNL A   1      46.863  35.660  29.696  1.00  0.00     0.054 A 
BRANCH  71  72
ATOM     72  S   UNL A   1      47.130  37.343  30.320  1.00  0.00     0.124 S 
ATOM     73  O   UNL A   1      48.423  37.219  30.985  1.00  0.00    -0.237 OA
ATOM     74  O   UNL A   1      47.121  38.139  29.095  1.00  0.00    -0.237 OA
ATOM     75  O   UNL A   1      45.988  37.563  31.205  1.00  0.00    -0.744 OA
ENDBRANCH  71  72
ENDBRANCH  43  66
BRANCH  55  76
ATOM     76  C   UNL A   1      50.864  28.299  26.052  1.00  0.00    -0.014 A 
ATOM     77  C   UNL A   1      51.822  27.915  27.006  1.00  0.00     0.010 A 
ATOM     78  C   UNL A   1      51.288  28.657  24.759  1.00  0.00     0.010 A 
ATOM     79  C   UNL A   1      53.182  27.918  26.681  1.00  0.00     0.020 A 
ATOM     80  C   UNL A   1      52.644  28.636  24.422  1.00  0.00     0.020 A 
ATOM     81  C   UNL A   1      53.583  28.280  25.390  1.00  0.00     0.054 A 
BRANCH  81  82
ATOM     82  S   UNL A   1      55.350  28.234  24.980  1.00  0.00     0.124 S 
ATOM     83  O   UNL A   1      55.478  26.930  24.335  1.00  0.00    -0.237 OA
ATOM     84  O   UNL A   1      55.507  29.389  24.098  1.00  0.00    -0.237 OA
ATOM     85  O   UNL A   1      56.010  28.355  26.278  1.00  0.00    -0.744 OA
ENDBRANCH  81  82
ENDBRANCH  55  76
ENDBRANCH  29  30
ENDBRANCH  22  24
ENDBRANCH  21  22
ENDBRANCH  20  21
ENDBRANCH   1  20
TORSDOF 18
ENDMDL
MODEL 3
REMARK VINA RESULT:      -9.4      6.716     13.736
REMARK SMILES NC(=[NH2+])N1CCC[C@H]1C(=O)OCCOCCOC(=O)c1ccc(-c2c3nc(c(-c4ccc(S(=O)(=O)[O-])cc4)c4ccc([nH]4)c(-c4ccc(S(=O)(=O)[O-])cc4)c4nc(c(-c5ccc(S(=O)(=O)[O-])cc5)c5ccc2[nH]5)C=C4)C=C3)cc1
REMARK SMILES IDX 15 1 14 2 13 3 12 4 11 5 9 6 10 7 8 8 4 9 5 10 6 11 7 12
REMARK SMILES IDX 2 13 3 14 1 17 16 20 17 21 18 22 19 23 20 24 21 25 79 26
REMARK SMILES IDX 22 27 78 28 23 29 24 30 25 31 72 32 26 33 77 34 71 35 73 36
REMARK SMILES IDX 27 37 76 38 70 39 69 40 28 42 58 43 39 44 57 45 40 46 43 47
REMARK SMILES IDX 56 48 74 49 41 50 42 51 55 53 75 54 44 55 29 56 30 57 38 58
REMARK SMILES IDX 31 59 37 60 32 61 33 62 34 63 35 64 36 65 59 66 60 67 68 68
REMARK SMILES IDX 61 69 67 70 62 71 63 72 64 73 65 74 66 75 45 76 46 77 54 78
REMARK SMILES IDX 47 79 53 80 48 81 49 82 50 83 51 84 52 85
REMARK H PARENT 3 15 3 16 1 18 1 19 73 41 43 52
REMARK Flexibility Score: inf
ROOT
ATOM      1  C   UNL A   1      40.055  22.306  26.643  1.00  0.00     0.202 C 
ENDROOT
BRANCH   1   2
ATOM      2  O   UNL A   1      40.240  21.094  27.376  1.00  0.00    -0.374 OA
BRANCH   2   3
ATOM      3  C   UNL A   1      41.458  20.377  27.179  1.00  0.00     0.202 C 
BRANCH   3   4
ATOM      4  C   UNL A   1      42.355  20.855  26.034  1.00  0.00     0.261 C 
BRANCH   4   5
ATOM      5  O   UNL A   1      43.257  21.887  26.464  1.00  0.00    -0.461 OA
BRANCH   5   6
ATOM      6  C   UNL A   1      43.615  22.785  25.499  1.00  0.00     0.343 C 
ATOM      7  O   UNL A   1      43.398  22.631  24.300  1.00  0.00    -0.248 OA
BRANCH   6   8
ATOM      8  C   UNL A   1      44.178  24.085  26.084  1.00  0.00     0.257 C 
ATOM      9  N   UNL A   1      45.099  23.889  27.224  1.00  0.00    -0.252 N 
ATOM     10  C   UNL A   1      46.469  24.104  26.771  1.00  0.00     0.201 C 
ATOM     11  C   UNL A   1      46.319  25.185  25.716  1.00  0.00     0.042 C 
ATOM     12  C   UNL A   1      45.018  24.820  25.021  1.00  0.00     0.057 C 
BRANCH   9  13
ATOM     13  C   UNL A   1      44.735  24.127  28.514  1.00  0.00     0.341 C 
ATOM     14  N   UNL A   1      45.555  24.509  29.428  1.00  0.00    -0.291 N 
ATOM     15  H   UNL A   1      45.233  24.665  30.345  1.00  0.00     0.256 HD
ATOM     16  H   UNL A   1      46.506  24.645  29.211  1.00  0.00     0.256 HD
ATOM     17  N   UNL A   1      43.433  23.933  28.779  1.00  0.00    -0.291 N 
ATOM     18  H   UNL A   1      43.087  24.083  29.688  1.00  0.00     0.256 HD
ATOM     19  H   UNL A   1      42.823  23.641  28.063  1.00  0.00     0.256 HD
ENDBRANCH   9  13
ENDBRANCH   6   8
ENDBRANCH   5   6
ENDBRANCH   4   5
ENDBRANCH   3   4
ENDBRANCH   2   3
ENDBRANCH   1   2
BRANCH   1  20
ATOM     20  C   UNL A   1      40.199  23.618  27.423  1.00  0.00     0.261 C 
BRANCH  20  21
ATOM     21  O   UNL A   1      39.487  24.702  26.795  1.00  0.00    -0.460 OA
BRANCH  21  22
ATOM     22  C   UNL A   1      40.199  25.848  26.667  1.00  0.00     0.338 C 
ATOM     23  O   UNL A   1      40.860  26.199  25.698  1.00  0.00    -0.246 OA
BRANCH  22  24
ATOM     24  C   UNL A   1      39.914  26.748  27.799  1.00  0.00     0.060 A 
ATOM     25  C   UNL A   1      40.480  28.029  27.762  1.00  0.00     0.016 A 
ATOM     26  C   UNL A   1      39.172  26.330  28.906  1.00  0.00     0.016 A 
ATOM     27  C   UNL A   1      40.353  28.879  28.857  1.00  0.00     0.010 A 
ATOM     28  C   UNL A   1      39.053  27.183  30.009  1.00  0.00     0.010 A 
ATOM     29  C   UNL A   1      39.676  28.444  30.004  1.00  0.00    -0.014 A 
BRANCH  29  30
ATOM     30  C   UNL A   1      39.769  29.247  31.247  1.00  0.00     0.031 A 
ATOM     31  C   UNL A   1      40.914  28.993  32.192  1.00  0.00     0.074 A 
ATOM     32  C   UNL A   1      38.876  30.218  31.511  1.00  0.00     0.049 A 
ATOM     33  N   UNL A   1      41.195  29.577  33.328  1.00  0.00    -0.248 NA
ATOM     34  C   UNL A   1      41.869  27.943  31.802  1.00  0.00     0.031 C 
ATOM     35  C   UNL A   1      37.751  30.589  30.655  1.00  0.00     0.029 A 
ATOM     36  N   UNL A   1      38.782  31.072  32.581  1.00  0.00    -0.354 N 
ATOM     37  C   UNL A   1      42.353  28.963  33.792  1.00  0.00     0.074 A 
ATOM     38  C   UNL A   1      42.706  27.942  32.830  1.00  0.00     0.031 C 
ATOM     39  C   UNL A   1      37.075  31.596  31.236  1.00  0.00     0.029 A 
ATOM     40  C   UNL A   1      37.702  31.920  32.516  1.00  0.00     0.049 A 
ATOM     41  H   UNL A   1      39.427  31.078  33.325  1.00  0.00     0.167 HD
ATOM     42  C   UNL A   1      43.063  29.228  34.914  1.00  0.00     0.031 A 
ATOM     43  C   UNL A   1      37.262  32.843  33.395  1.00  0.00     0.031 A 
ATOM     44  C   UNL A   1      42.705  30.237  35.876  1.00  0.00     0.049 A 
ATOM     45  C   UNL A   1      38.031  33.074  34.669  1.00  0.00     0.074 A 
ATOM     46  C   UNL A   1      43.368  30.591  37.038  1.00  0.00     0.029 A 
ATOM     47  N   UNL A   1      41.583  31.047  35.791  1.00  0.00    -0.354 N 
ATOM     48  N   UNL A   1      39.138  32.502  35.080  1.00  0.00    -0.248 NA
ATOM     49  C   UNL A   1      37.496  34.084  35.593  1.00  0.00     0.031 C 
ATOM     50  C   UNL A   1      42.618  31.580  37.682  1.00  0.00     0.029 A 
ATOM     51  C   UNL A   1      41.522  31.884  36.893  1.00  0.00     0.049 A 
ATOM     52  H   UNL A   1      40.929  31.031  35.056  1.00  0.00     0.167 HD
ATOM     53  C   UNL A   1      39.446  33.102  36.297  1.00  0.00     0.074 A 
ATOM     54  C   UNL A   1      38.416  34.089  36.549  1.00  0.00     0.031 C 
ATOM     55  C   UNL A   1      40.489  32.861  37.130  1.00  0.00     0.031 A 
BRANCH  42  56
ATOM     56  C   UNL A   1      44.284  28.388  35.177  1.00  0.00    -0.014 A 
ATOM     57  C   UNL A   1      45.539  28.740  34.648  1.00  0.00     0.010 A 
ATOM     58  C   UNL A   1      44.180  27.247  35.992  1.00  0.00     0.010 A 
ATOM     59  C   UNL A   1      46.659  27.944  34.898  1.00  0.00     0.020 A 
ATOM     60  C   UNL A   1      45.303  26.463  36.266  1.00  0.00     0.020 A 
ATOM     61  C   UNL A   1      46.534  26.808  35.703  1.00  0.00     0.054 A 
BRANCH  61  62
ATOM     62  S   UNL A   1      48.007  25.801  36.026  1.00  0.00     0.124 S 
ATOM     63  O   UNL A   1      47.419  24.526  36.430  1.00  0.00    -0.237 OA
ATOM     64  O   UNL A   1      48.683  25.797  34.731  1.00  0.00    -0.237 OA
ATOM     65  O   UNL A   1      48.701  26.530  37.085  1.00  0.00    -0.744 OA
ENDBRANCH  61  62
ENDBRANCH  42  56
BRANCH  43  66
ATOM     66  C   UNL A   1      36.019  33.609  33.106  1.00  0.00    -0.014 A 
ATOM     67  C   UNL A   1      34.755  33.018  33.274  1.00  0.00     0.010 A 
ATOM     68  C   UNL A   1      36.099  34.942  32.661  1.00  0.00     0.010 A 
ATOM     69  C   UNL A   1      33.592  33.741  32.987  1.00  0.00     0.020 A 
ATOM     70  C   UNL A   1      34.938  35.675  32.399  1.00  0.00     0.020 A 
ATOM     71  C   UNL A   1      33.692  35.067  32.553  1.00  0.00     0.054 A 
BRANCH  71  72
ATOM     72  S   UNL A   1      32.170  36.003  32.239  1.00  0.00     0.124 S 
ATOM     73  O   UNL A   1      32.277  36.287  30.812  1.00  0.00    -0.237 OA
ATOM     74  O   UNL A   1      31.130  35.051  32.619  1.00  0.00    -0.237 OA
ATOM     75  O   UNL A   1      32.295  37.162  33.120  1.00  0.00    -0.744 OA
ENDBRANCH  71  72
ENDBRANCH  43  66
BRANCH  55  76
ATOM     76  C   UNL A   1      40.595  33.701  38.376  1.00  0.00    -0.014 A 
ATOM     77  C   UNL A   1      41.334  34.896  38.389  1.00  0.00     0.010 A 
ATOM     78  C   UNL A   1      39.894  33.314  39.533  1.00  0.00     0.010 A 
ATOM     79  C   UNL A   1      41.394  35.676  39.548  1.00  0.00     0.020 A 
ATOM     80  C   UNL A   1      39.930  34.103  40.685  1.00  0.00     0.020 A 
ATOM     81  C   UNL A   1      40.692  35.273  40.690  1.00  0.00     0.054 A 
BRANCH  81  82
ATOM     82  S   UNL A   1      40.749  36.323  42.168  1.00  0.00     0.124 S 
ATOM     83  O   UNL A   1      41.152  37.611  41.610  1.00  0.00    -0.237 OA
ATOM     84  O   UNL A   1      39.377  36.256  42.665  1.00  0.00    -0.237 OA
ATOM     85  O   UNL A   1      41.746  35.673  43.016  1.00  0.00    -0.744 OA
ENDBRANCH  81  82
ENDBRANCH  55  76
ENDBRANCH  29  30
ENDBRANCH  22  24
ENDBRANCH  21  22
ENDBRANCH  20  21
ENDBRANCH   1  20
TORSDOF 18
ENDMDL
