MODEL 1
REMARK VINA RESULT:     -10.5      0.000      0.000
REMARK SMILES CC1(C)C(C(=O)Nc2ccc(CC(=O)OCCOCCOC(=O)c3ccc(-c4c5nc(c(-c6ccc(S(=O)(=O)[O-])cc6)c6ccc([nH]6)c(-c6ccc(S(=O)(=O)[O-])cc6)c6nc(c(-c7ccc(S(=O)(=O)[O-])cc7)c7ccc4[nH]7)C=C6)C=C5)cc3)cc2)C1(C)C
REMARK SMILES IDX 18 1 17 2 16 3 15 4 13 5 14 6 12 7 11 8 8 9 9 10 85 11 10 12
REMARK SMILES IDX 84 13 7 14 5 15 6 16 4 18 1 19 2 20 3 21 86 22 87 23 88 24
REMARK SMILES IDX 19 25 20 26 21 27 22 28 23 29 24 30 25 31 83 32 26 33 82 34
REMARK SMILES IDX 27 35 28 36 29 37 76 38 30 39 81 40 75 41 77 42 31 43 80 44
REMARK SMILES IDX 74 45 73 46 32 48 62 49 43 50 61 51 44 52 47 53 60 54 78 55
REMARK SMILES IDX 45 56 46 57 59 59 79 60 48 61 33 62 34 63 42 64 35 65 41 66
REMARK SMILES IDX 36 67 37 68 38 69 39 70 40 71 63 72 64 73 72 74 65 75 71 76
REMARK SMILES IDX 66 77 67 78 68 79 69 80 70 81 49 82 50 83 58 84 51 85 57 86
REMARK SMILES IDX 52 87 53 88 54 89 55 90 56 91
REMARK H PARENT 7 17 77 47 47 58
REMARK Flexibility Score: inf
ROOT
ATOM      1  O   UNL A   1      44.769  23.578  24.141  1.00  0.00    -0.374 OA
ENDROOT
BRANCH   1   2
ATOM      2  C   UNL A   1      44.783  22.160  23.960  1.00  0.00     0.202 C 
BRANCH   2   3
ATOM      3  C   UNL A   1      44.270  21.330  25.139  1.00  0.00     0.261 C 
BRANCH   3   4
ATOM      4  O   UNL A   1      42.849  21.491  25.283  1.00  0.00    -0.463 OA
BRANCH   4   5
ATOM      5  C   UNL A   1      42.264  20.743  26.250  1.00  0.00     0.310 C 
ATOM      6  O   UNL A   1      42.346  19.522  26.344  1.00  0.00    -0.252 OA
BRANCH   5   7
ATOM      7  C   UNL A   1      41.456  21.555  27.222  1.00  0.00     0.158 C 
BRANCH   7   8
ATOM      8  C   UNL A   1      40.064  22.004  26.829  1.00  0.00    -0.037 A 
ATOM      9  C   UNL A   1      37.933  23.126  25.443  1.00  0.00     0.041 A 
ATOM     10  C   UNL A   1      38.165  21.757  25.330  1.00  0.00     0.026 A 
ATOM     11  C   UNL A   1      38.571  23.861  26.438  1.00  0.00     0.026 A 
ATOM     12  C   UNL A   1      39.261  21.206  25.995  1.00  0.00     0.006 A 
ATOM     13  C   UNL A   1      39.633  23.297  27.144  1.00  0.00     0.006 A 
BRANCH   9  14
ATOM     14  N   UNL A   1      37.174  23.750  24.435  1.00  0.00    -0.326 N 
ATOM     15  C   UNL A   1      36.214  23.090  23.698  1.00  0.00     0.228 C 
ATOM     16  O   UNL A   1      36.391  22.884  22.500  1.00  0.00    -0.274 OA
ATOM     17  H   UNL A   1      37.337  24.702  24.248  1.00  0.00     0.169 HD
BRANCH  15  18
ATOM     18  C   UNL A   1      34.819  22.937  24.238  1.00  0.00     0.091 C 
ATOM     19  C   UNL A   1      32.914  21.201  23.980  1.00  0.00     0.012 C 
ATOM     20  C   UNL A   1      34.211  21.596  24.660  1.00  0.00    -0.017 C 
ATOM     21  C   UNL A   1      35.063  20.372  24.892  1.00  0.00     0.012 C 
ATOM     22  C   UNL A   1      34.245  22.793  25.643  1.00  0.00    -0.017 C 
ATOM     23  C   UNL A   1      32.948  23.532  25.931  1.00  0.00     0.012 C 
ATOM     24  C   UNL A   1      35.110  22.806  26.875  1.00  0.00     0.012 C 
ENDBRANCH  15  18
ENDBRANCH   9  14
ENDBRANCH   7   8
ENDBRANCH   5   7
ENDBRANCH   4   5
ENDBRANCH   3   4
ENDBRANCH   2   3
ENDBRANCH   1   2
BRANCH   1  25
ATOM     25  C   UNL A   1      45.325  24.085  25.353  1.00  0.00     0.202 C 
BRANCH  25  26
ATOM     26  C   UNL A   1      44.410  24.960  26.218  1.00  0.00     0.261 C 
BRANCH  26  27
ATOM     27  O   UNL A   1      43.018  24.675  26.000  1.00  0.00    -0.460 OA
BRANCH  27  28
ATOM     28  C   UNL A   1      42.230  25.773  25.909  1.00  0.00     0.338 C 
ATOM     29  O   UNL A   1      41.488  26.069  24.988  1.00  0.00    -0.246 OA
BRANCH  28  30
ATOM     30  C   UNL A   1      42.236  26.516  27.184  1.00  0.00     0.060 A 
ATOM     31  C   UNL A   1      41.441  26.006  28.218  1.00  0.00     0.016 A 
ATOM     32  C   UNL A   1      42.932  27.715  27.350  1.00  0.00     0.016 A 
ATOM     33  C   UNL A   1      41.285  26.726  29.399  1.00  0.00     0.010 A 
ATOM     34  C   UNL A   1      42.768  28.443  28.536  1.00  0.00     0.010 A 
ATOM     35  C   UNL A   1      41.912  27.969  29.547  1.00  0.00    -0.014 A 
BRANCH  35  36
ATOM     36  C   UNL A   1      41.540  28.830  30.698  1.00  0.00     0.031 A 
ATOM     37  C   UNL A   1      42.362  28.759  31.957  1.00  0.00     0.074 A 
ATOM     38  C   UNL A   1      40.524  29.706  30.600  1.00  0.00     0.049 A 
ATOM     39  N   UNL A   1      42.237  29.441  33.066  1.00  0.00    -0.248 NA
ATOM     40  C   UNL A   1      43.475  27.795  31.965  1.00  0.00     0.031 C 
ATOM     41  C   UNL A   1      39.685  29.897  29.417  1.00  0.00     0.029 A 
ATOM     42  N   UNL A   1      40.030  30.603  31.512  1.00  0.00    -0.354 N 
ATOM     43  C   UNL A   1      43.248  28.986  33.905  1.00  0.00     0.074 A 
ATOM     44  C   UNL A   1      43.961  27.951  33.188  1.00  0.00     0.031 C 
ATOM     45  C   UNL A   1      38.777  30.853  29.678  1.00  0.00     0.029 A 
ATOM     46  C   UNL A   1      38.953  31.322  31.051  1.00  0.00     0.049 A 
ATOM     47  H   UNL A   1      40.412  30.722  32.412  1.00  0.00     0.167 HD
ATOM     48  C   UNL A   1      43.561  29.398  35.158  1.00  0.00     0.031 A 
ATOM     49  C   UNL A   1      38.189  32.242  31.671  1.00  0.00     0.031 A 
ATOM     50  C   UNL A   1      42.841  30.418  35.872  1.00  0.00     0.049 A 
ATOM     51  C   UNL A   1      38.515  32.639  33.086  1.00  0.00     0.074 A 
ATOM     52  C   UNL A   1      43.086  30.914  37.142  1.00  0.00     0.029 A 
ATOM     53  N   UNL A   1      41.732  31.092  35.386  1.00  0.00    -0.354 N 
ATOM     54  N   UNL A   1      39.491  32.219  33.856  1.00  0.00    -0.248 NA
ATOM     55  C   UNL A   1      37.644  33.643  33.713  1.00  0.00     0.031 C 
ATOM     56  C   UNL A   1      42.092  31.853  37.441  1.00  0.00     0.029 A 
ATOM     57  C   UNL A   1      41.266  31.984  36.336  1.00  0.00     0.049 A 
ATOM     58  H   UNL A   1      41.336  30.958  34.495  1.00  0.00     0.167 HD
ATOM     59  C   UNL A   1      39.367  32.926  35.047  1.00  0.00     0.074 A 
ATOM     60  C   UNL A   1      38.229  33.810  34.892  1.00  0.00     0.031 C 
ATOM     61  C   UNL A   1      40.130  32.856  36.166  1.00  0.00     0.031 A 
BRANCH  48  62
ATOM     62  C   UNL A   1      44.713  28.716  35.845  1.00  0.00    -0.014 A 
ATOM     63  C   UNL A   1      46.005  29.274  35.832  1.00  0.00     0.010 A 
ATOM     64  C   UNL A   1      44.495  27.514  36.543  1.00  0.00     0.010 A 
ATOM     65  C   UNL A   1      47.064  28.622  36.471  1.00  0.00     0.020 A 
ATOM     66  C   UNL A   1      45.547  26.872  37.204  1.00  0.00     0.020 A 
ATOM     67  C   UNL A   1      46.829  27.422  37.149  1.00  0.00     0.054 A 
BRANCH  67  68
ATOM     68  S   UNL A   1      48.217  26.604  37.982  1.00  0.00     0.124 S 
ATOM     69  O   UNL A   1      48.045  25.216  37.561  1.00  0.00    -0.237 OA
ATOM     70  O   UNL A   1      49.378  27.290  37.420  1.00  0.00    -0.237 OA
ATOM     71  O   UNL A   1      47.972  26.860  39.398  1.00  0.00    -0.744 OA
ENDBRANCH  67  68
ENDBRANCH  48  62
BRANCH  49  72
ATOM     72  C   UNL A   1      37.030  32.844  30.956  1.00  0.00    -0.014 A 
ATOM     73  C   UNL A   1      35.715  32.629  31.403  1.00  0.00     0.010 A 
ATOM     74  C   UNL A   1      37.243  33.651  29.823  1.00  0.00     0.010 A 
ATOM     75  C   UNL A   1      34.634  33.199  30.724  1.00  0.00     0.020 A 
ATOM     76  C   UNL A   1      36.168  34.245  29.158  1.00  0.00     0.020 A 
ATOM     77  C   UNL A   1      34.868  34.008  29.607  1.00  0.00     0.054 A 
BRANCH  77  78
ATOM     78  S   UNL A   1      33.455  34.789  28.779  1.00  0.00     0.124 S 
ATOM     79  O   UNL A   1      33.112  33.798  27.764  1.00  0.00    -0.237 OA
ATOM     80  O   UNL A   1      32.494  34.942  29.868  1.00  0.00    -0.237 OA
ATOM     81  O   UNL A   1      34.010  36.042  28.269  1.00  0.00    -0.744 OA
ENDBRANCH  77  78
ENDBRANCH  49  72
BRANCH  61  82
ATOM     82  C   UNL A   1      39.787  33.782  37.302  1.00  0.00    -0.014 A 
ATOM     83  C   UNL A   1      38.972  33.361  38.366  1.00  0.00     0.010 A 
ATOM     84  C   UNL A   1      40.343  35.075  37.333  1.00  0.00     0.010 A 
ATOM     85  C   UNL A   1      38.696  34.226  39.429  1.00  0.00     0.020 A 
ATOM     86  C   UNL A   1      40.091  35.933  38.406  1.00  0.00     0.020 A 
ATOM     87  C   UNL A   1      39.257  35.508  39.442  1.00  0.00     0.054 A 
BRANCH  87  88
ATOM     88  S   UNL A   1      38.923  36.596  40.854  1.00  0.00     0.124 S 
ATOM     89  O   UNL A   1      40.255  36.765  41.429  1.00  0.00    -0.237 OA
ATOM     90  O   UNL A   1      38.357  37.784  40.219  1.00  0.00    -0.237 OA
ATOM     91  O   UNL A   1      37.985  35.826  41.669  1.00  0.00    -0.744 OA
ENDBRANCH  87  88
ENDBRANCH  61  82
ENDBRANCH  35  36
ENDBRANCH  28  30
ENDBRANCH  27  28
ENDBRANCH  26  27
ENDBRANCH  25  26
ENDBRANCH   1  25
TORSDOF 20
ENDMDL
MODEL 2
REMARK VINA RESULT:     -10.0      1.954      8.605
REMARK SMILES CC1(C)C(C(=O)Nc2ccc(CC(=O)OCCOCCOC(=O)c3ccc(-c4c5nc(c(-c6ccc(S(=O)(=O)[O-])cc6)c6ccc([nH]6)c(-c6ccc(S(=O)(=O)[O-])cc6)c6nc(c(-c7ccc(S(=O)(=O)[O-])cc7)c7ccc4[nH]7)C=C6)C=C5)cc3)cc2)C1(C)C
REMARK SMILES IDX 18 1 17 2 16 3 15 4 13 5 14 6 12 7 11 8 8 9 9 10 85 11 10 12
REMARK SMILES IDX 84 13 7 14 5 15 6 16 4 18 1 19 2 20 3 21 86 22 87 23 88 24
REMARK SMILES IDX 19 25 20 26 21 27 22 28 23 29 24 30 25 31 83 32 26 33 82 34
REMARK SMILES IDX 27 35 28 36 29 37 76 38 30 39 81 40 75 41 77 42 31 43 80 44
REMARK SMILES IDX 74 45 73 46 32 48 62 49 43 50 61 51 44 52 47 53 60 54 78 55
REMARK SMILES IDX 45 56 46 57 59 59 79 60 48 61 33 62 34 63 42 64 35 65 41 66
REMARK SMILES IDX 36 67 37 68 38 69 39 70 40 71 63 72 64 73 72 74 65 75 71 76
REMARK SMILES IDX 66 77 67 78 68 79 69 80 70 81 49 82 50 83 58 84 51 85 57 86
REMARK SMILES IDX 52 87 53 88 54 89 55 90 56 91
REMARK H PARENT 7 17 77 47 47 58
REMARK Flexibility Score: inf
ROOT
ATOM      1  O   UNL A   1      40.881  21.574  27.961  1.00  0.00    -0.374 OA
ENDROOT
BRANCH   1   2
ATOM      2  C   UNL A   1      41.003  20.387  27.173  1.00  0.00     0.202 C 
BRANCH   2   3
ATOM      3  C   UNL A   1      39.965  20.213  26.061  1.00  0.00     0.261 C 
BRANCH   3   4
ATOM      4  O   UNL A   1      39.429  21.490  25.674  1.00  0.00    -0.463 OA
BRANCH   4   5
ATOM      5  C   UNL A   1      38.087  21.536  25.489  1.00  0.00     0.310 C 
ATOM      6  O   UNL A   1      37.395  20.597  25.107  1.00  0.00    -0.252 OA
BRANCH   5   7
ATOM      7  C   UNL A   1      37.494  22.886  25.777  1.00  0.00     0.158 C 
BRANCH   7   8
ATOM      8  C   UNL A   1      36.174  23.261  25.138  1.00  0.00    -0.037 A 
ATOM      9  C   UNL A   1      34.201  24.625  23.733  1.00  0.00     0.041 A 
ATOM     10  C   UNL A   1      34.892  23.596  23.098  1.00  0.00     0.026 A 
ATOM     11  C   UNL A   1      34.296  24.780  25.114  1.00  0.00     0.026 A 
ATOM     12  C   UNL A   1      35.910  22.942  23.794  1.00  0.00     0.006 A 
ATOM     13  C   UNL A   1      35.277  24.088  25.823  1.00  0.00     0.006 A 
BRANCH   9  14
ATOM     14  N   UNL A   1      33.551  25.577  22.926  1.00  0.00    -0.326 N 
ATOM     15  C   UNL A   1      32.244  25.965  23.126  1.00  0.00     0.228 C 
ATOM     16  O   UNL A   1      31.380  25.670  22.303  1.00  0.00    -0.274 OA
ATOM     17  H   UNL A   1      34.053  25.984  22.185  1.00  0.00     0.169 HD
BRANCH  15  18
ATOM     18  C   UNL A   1      31.918  27.036  24.131  1.00  0.00     0.091 C 
ATOM     19  C   UNL A   1      30.696  29.319  24.074  1.00  0.00     0.012 C 
ATOM     20  C   UNL A   1      30.595  27.808  24.155  1.00  0.00    -0.017 C 
ATOM     21  C   UNL A   1      29.381  27.333  23.395  1.00  0.00     0.012 C 
ATOM     22  C   UNL A   1      31.096  27.057  25.415  1.00  0.00    -0.017 C 
ATOM     23  C   UNL A   1      31.653  27.872  26.570  1.00  0.00     0.012 C 
ATOM     24  C   UNL A   1      30.407  25.832  25.955  1.00  0.00     0.012 C 
ENDBRANCH  15  18
ENDBRANCH   9  14
ENDBRANCH   7   8
ENDBRANCH   5   7
ENDBRANCH   4   5
ENDBRANCH   3   4
ENDBRANCH   2   3
ENDBRANCH   1   2
BRANCH   1  25
ATOM     25  C   UNL A   1      42.049  22.382  28.106  1.00  0.00     0.202 C 
BRANCH  25  26
ATOM     26  C   UNL A   1      42.377  23.330  26.946  1.00  0.00     0.261 C 
BRANCH  26  27
ATOM     27  O   UNL A   1      41.242  24.114  26.544  1.00  0.00    -0.460 OA
BRANCH  27  28
ATOM     28  C   UNL A   1      41.541  25.383  26.173  1.00  0.00     0.338 C 
ATOM     29  O   UNL A   1      41.951  25.751  25.085  1.00  0.00    -0.246 OA
BRANCH  28  30
ATOM     30  C   UNL A   1      41.130  26.335  27.223  1.00  0.00     0.060 A 
ATOM     31  C   UNL A   1      41.796  27.567  27.256  1.00  0.00     0.016 A 
ATOM     32  C   UNL A   1      40.181  26.015  28.196  1.00  0.00     0.016 A 
ATOM     33  C   UNL A   1      41.564  28.458  28.300  1.00  0.00     0.010 A 
ATOM     34  C   UNL A   1      39.954  26.910  29.250  1.00  0.00     0.010 A 
ATOM     35  C   UNL A   1      40.675  28.116  29.326  1.00  0.00    -0.014 A 
BRANCH  35  36
ATOM     36  C   UNL A   1      40.626  28.958  30.547  1.00  0.00     0.031 A 
ATOM     37  C   UNL A   1      39.586  30.042  30.644  1.00  0.00     0.074 A 
ATOM     38  C   UNL A   1      41.456  28.720  31.578  1.00  0.00     0.049 A 
ATOM     39  N   UNL A   1      39.344  30.871  31.626  1.00  0.00    -0.248 NA
ATOM     40  C   UNL A   1      38.699  30.211  29.481  1.00  0.00     0.031 C 
ATOM     41  C   UNL A   1      42.475  27.671  31.619  1.00  0.00     0.029 A 
ATOM     42  N   UNL A   1      41.568  29.346  32.794  1.00  0.00    -0.354 N 
ATOM     43  C   UNL A   1      38.283  31.662  31.200  1.00  0.00     0.074 A 
ATOM     44  C   UNL A   1      37.946  31.234  29.860  1.00  0.00     0.031 C 
ATOM     45  C   UNL A   1      43.110  27.727  32.802  1.00  0.00     0.029 A 
ATOM     46  C   UNL A   1      42.563  28.830  33.590  1.00  0.00     0.049 A 
ATOM     47  H   UNL A   1      40.991  30.094  33.071  1.00  0.00     0.167 HD
ATOM     48  C   UNL A   1      37.642  32.651  31.867  1.00  0.00     0.031 A 
ATOM     49  C   UNL A   1      42.992  29.213  34.809  1.00  0.00     0.031 A 
ATOM     50  C   UNL A   1      37.989  33.084  33.195  1.00  0.00     0.049 A 
ATOM     51  C   UNL A   1      42.305  30.357  35.506  1.00  0.00     0.074 A 
ATOM     52  C   UNL A   1      37.393  34.071  33.961  1.00  0.00     0.029 A 
ATOM     53  N   UNL A   1      39.027  32.563  33.950  1.00  0.00    -0.354 N 
ATOM     54  N   UNL A   1      41.287  31.077  35.100  1.00  0.00    -0.248 NA
ATOM     55  C   UNL A   1      42.820  30.734  36.830  1.00  0.00     0.031 C 
ATOM     56  C   UNL A   1      38.105  34.180  35.161  1.00  0.00     0.029 A 
ATOM     57  C   UNL A   1      39.106  33.222  35.165  1.00  0.00     0.049 A 
ATOM     58  H   UNL A   1      39.620  31.831  33.666  1.00  0.00     0.167 HD
ATOM     59  C   UNL A   1      41.021  31.974  36.130  1.00  0.00     0.074 A 
ATOM     60  C   UNL A   1      41.978  31.698  37.182  1.00  0.00     0.031 C 
ATOM     61  C   UNL A   1      40.066  32.935  36.202  1.00  0.00     0.031 A 
BRANCH  48  62
ATOM     62  C   UNL A   1      36.520  33.357  31.152  1.00  0.00    -0.014 A 
ATOM     63  C   UNL A   1      35.212  33.359  31.670  1.00  0.00     0.010 A 
ATOM     64  C   UNL A   1      36.784  34.054  29.960  1.00  0.00     0.010 A 
ATOM     65  C   UNL A   1      34.182  34.014  30.988  1.00  0.00     0.020 A 
ATOM     66  C   UNL A   1      35.762  34.732  29.288  1.00  0.00     0.020 A 
ATOM     67  C   UNL A   1      34.463  34.692  29.798  1.00  0.00     0.054 A 
BRANCH  67  68
ATOM     68  S   UNL A   1      33.112  35.546  28.940  1.00  0.00     0.124 S 
ATOM     69  O   UNL A   1      32.337  36.081  30.057  1.00  0.00    -0.237 OA
ATOM     70  O   UNL A   1      33.819  36.538  28.136  1.00  0.00    -0.237 OA
ATOM     71  O   UNL A   1      32.458  34.484  28.181  1.00  0.00    -0.744 OA
ENDBRANCH  67  68
ENDBRANCH  48  62
BRANCH  49  72
ATOM     72  C   UNL A   1      44.140  28.509  35.443  1.00  0.00    -0.014 A 
ATOM     73  C   UNL A   1      43.933  27.395  36.274  1.00  0.00     0.010 A 
ATOM     74  C   UNL A   1      45.455  28.949  35.206  1.00  0.00     0.010 A 
ATOM     75  C   UNL A   1      45.019  26.740  36.865  1.00  0.00     0.020 A 
ATOM     76  C   UNL A   1      46.544  28.283  35.773  1.00  0.00     0.020 A 
ATOM     77  C   UNL A   1      46.319  27.187  36.608  1.00  0.00     0.054 A 
BRANCH  77  78
ATOM     78  S   UNL A   1      47.716  26.286  37.334  1.00  0.00     0.124 S 
ATOM     79  O   UNL A   1      48.820  27.218  37.125  1.00  0.00    -0.237 OA
ATOM     80  O   UNL A   1      47.291  26.106  38.720  1.00  0.00    -0.237 OA
ATOM     81  O   UNL A   1      47.776  25.057  36.545  1.00  0.00    -0.744 OA
ENDBRANCH  77  78
ENDBRANCH  49  72
BRANCH  61  82
ATOM     82  C   UNL A   1      39.981  33.738  37.471  1.00  0.00    -0.014 A 
ATOM     83  C   UNL A   1      40.671  34.955  37.613  1.00  0.00     0.010 A 
ATOM     84  C   UNL A   1      39.146  33.297  38.515  1.00  0.00     0.010 A 
ATOM     85  C   UNL A   1      40.547  35.703  38.788  1.00  0.00     0.020 A 
ATOM     86  C   UNL A   1      39.001  34.054  39.679  1.00  0.00     0.020 A 
ATOM     87  C   UNL A   1      39.714  35.247  39.815  1.00  0.00     0.054 A 
BRANCH  87  88
ATOM     88  S   UNL A   1      39.534  36.258  41.310  1.00  0.00     0.124 S 
ATOM     89  O   UNL A   1      40.925  36.514  41.673  1.00  0.00    -0.237 OA
ATOM     90  O   UNL A   1      38.786  37.417  40.826  1.00  0.00    -0.237 OA
ATOM     91  O   UNL A   1      38.799  35.390  42.228  1.00  0.00    -0.744 OA
ENDBRANCH  87  88
ENDBRANCH  61  82
ENDBRANCH  35  36
ENDBRANCH  28  30
ENDBRANCH  27  28
ENDBRANCH  26  27
ENDBRANCH  25  26
ENDBRANCH   1  25
TORSDOF 20
ENDMDL
MODEL 3
REMARK VINA RESULT:      -9.9      2.314      8.725
REMARK SMILES CC1(C)C(C(=O)Nc2ccc(CC(=O)OCCOCCOC(=O)c3ccc(-c4c5nc(c(-c6ccc(S(=O)(=O)[O-])cc6)c6ccc([nH]6)c(-c6ccc(S(=O)(=O)[O-])cc6)c6nc(c(-c7ccc(S(=O)(=O)[O-])cc7)c7ccc4[nH]7)C=C6)C=C5)cc3)cc2)C1(C)C
REMARK SMILES IDX 18 1 17 2 16 3 15 4 13 5 14 6 12 7 11 8 8 9 9 10 85 11 10 12
REMARK SMILES IDX 84 13 7 14 5 15 6 16 4 18 1 19 2 20 3 21 86 22 87 23 88 24
REMARK SMILES IDX 19 25 20 26 21 27 22 28 23 29 24 30 25 31 83 32 26 33 82 34
REMARK SMILES IDX 27 35 28 36 29 37 76 38 30 39 81 40 75 41 77 42 31 43 80 44
REMARK SMILES IDX 74 45 73 46 32 48 62 49 43 50 61 51 44 52 47 53 60 54 78 55
REMARK SMILES IDX 45 56 46 57 59 59 79 60 48 61 33 62 34 63 42 64 35 65 41 66
REMARK SMILES IDX 36 67 37 68 38 69 39 70 40 71 63 72 64 73 72 74 65 75 71 76
REMARK SMILES IDX 66 77 67 78 68 79 69 80 70 81 49 82 50 83 58 84 51 85 57 86
REMARK SMILES IDX 52 87 53 88 54 89 55 90 56 91
REMARK H PARENT 7 17 77 47 47 58
REMARK Flexibility Score: inf
ROOT
ATOM      1  O   UNL A   1      40.238  22.273  27.334  1.00  0.00    -0.374 OA
ENDROOT
BRANCH   1   2
ATOM      2  C   UNL A   1      40.408  20.995  26.715  1.00  0.00     0.202 C 
BRANCH   2   3
ATOM      3  C   UNL A   1      39.288  20.556  25.769  1.00  0.00     0.261 C 
BRANCH   3   4
ATOM      4  O   UNL A   1      38.308  21.600  25.635  1.00  0.00    -0.463 OA
BRANCH   4   5
ATOM      5  C   UNL A   1      37.229  21.304  24.871  1.00  0.00     0.310 C 
ATOM      6  O   UNL A   1      36.522  20.309  25.004  1.00  0.00    -0.252 OA
BRANCH   5   7
ATOM      7  C   UNL A   1      36.969  22.316  23.791  1.00  0.00     0.158 C 
BRANCH   7   8
ATOM      8  C   UNL A   1      35.791  23.256  23.931  1.00  0.00    -0.037 A 
ATOM      9  C   UNL A   1      33.300  24.308  24.572  1.00  0.00     0.041 A 
ATOM     10  C   UNL A   1      34.385  24.596  25.395  1.00  0.00     0.026 A 
ATOM     11  C   UNL A   1      33.508  23.746  23.315  1.00  0.00     0.026 A 
ATOM     12  C   UNL A   1      35.625  24.032  25.092  1.00  0.00     0.006 A 
ATOM     13  C   UNL A   1      34.760  23.228  22.986  1.00  0.00     0.006 A 
BRANCH   9  14
ATOM     14  N   UNL A   1      32.008  24.450  25.112  1.00  0.00    -0.326 N 
ATOM     15  C   UNL A   1      31.709  25.340  26.122  1.00  0.00     0.228 C 
ATOM     16  O   UNL A   1      31.398  24.925  27.236  1.00  0.00    -0.274 OA
ATOM     17  H   UNL A   1      31.285  23.889  24.752  1.00  0.00     0.169 HD
BRANCH  15  18
ATOM     18  C   UNL A   1      31.408  26.778  25.799  1.00  0.00     0.091 C 
ATOM     19  C   UNL A   1      31.766  29.055  26.980  1.00  0.00     0.012 C 
ATOM     20  C   UNL A   1      32.348  27.940  26.132  1.00  0.00    -0.017 C 
ATOM     21  C   UNL A   1      33.794  27.716  26.500  1.00  0.00     0.012 C 
ATOM     22  C   UNL A   1      31.847  27.718  24.682  1.00  0.00    -0.017 C 
ATOM     23  C   UNL A   1      30.791  28.661  24.128  1.00  0.00     0.012 C 
ATOM     24  C   UNL A   1      32.760  27.280  23.568  1.00  0.00     0.012 C 
ENDBRANCH  15  18
ENDBRANCH   9  14
ENDBRANCH   7   8
ENDBRANCH   5   7
ENDBRANCH   4   5
ENDBRANCH   3   4
ENDBRANCH   2   3
ENDBRANCH   1   2
BRANCH   1  25
ATOM     25  C   UNL A   1      41.420  23.020  27.619  1.00  0.00     0.202 C 
BRANCH  25  26
ATOM     26  C   UNL A   1      41.681  24.254  26.747  1.00  0.00     0.261 C 
BRANCH  26  27
ATOM     27  O   UNL A   1      40.536  25.119  26.670  1.00  0.00    -0.460 OA
BRANCH  27  28
ATOM     28  C   UNL A   1      40.833  26.422  26.444  1.00  0.00     0.338 C 
ATOM     29  O   UNL A   1      41.145  26.929  25.380  1.00  0.00    -0.246 OA
BRANCH  28  30
ATOM     30  C   UNL A   1      40.556  27.228  27.649  1.00  0.00     0.060 A 
ATOM     31  C   UNL A   1      41.149  28.495  27.713  1.00  0.00     0.016 A 
ATOM     32  C   UNL A   1      39.806  26.740  28.721  1.00  0.00     0.016 A 
ATOM     33  C   UNL A   1      41.049  29.254  28.875  1.00  0.00     0.010 A 
ATOM     34  C   UNL A   1      39.713  27.502  29.893  1.00  0.00     0.010 A 
ATOM     35  C   UNL A   1      40.369  28.743  29.988  1.00  0.00    -0.014 A 
BRANCH  35  36
ATOM     36  C   UNL A   1      40.482  29.450  31.288  1.00  0.00     0.031 A 
ATOM     37  C   UNL A   1      39.430  30.457  31.665  1.00  0.00     0.074 A 
ATOM     38  C   UNL A   1      41.475  29.152  32.146  1.00  0.00     0.049 A 
ATOM     39  N   UNL A   1      39.315  31.163  32.760  1.00  0.00    -0.248 NA
ATOM     40  C   UNL A   1      38.362  30.697  30.679  1.00  0.00     0.031 C 
ATOM     41  C   UNL A   1      42.526  28.162  31.911  1.00  0.00     0.029 A 
ATOM     42  N   UNL A   1      41.755  29.652  33.392  1.00  0.00    -0.354 N 
ATOM     43  C   UNL A   1      38.169  31.934  32.594  1.00  0.00     0.074 A 
ATOM     44  C   UNL A   1      37.640  31.630  31.282  1.00  0.00     0.031 C 
ATOM     45  C   UNL A   1      43.340  28.130  32.981  1.00  0.00     0.029 A 
ATOM     46  C   UNL A   1      42.882  29.112  33.962  1.00  0.00     0.049 A 
ATOM     47  H   UNL A   1      41.200  30.333  33.837  1.00  0.00     0.167 HD
ATOM     48  C   UNL A   1      37.604  32.811  33.459  1.00  0.00     0.031 A 
ATOM     49  C   UNL A   1      43.485  29.388  35.136  1.00  0.00     0.031 A 
ATOM     50  C   UNL A   1      38.142  33.120  34.757  1.00  0.00     0.049 A 
ATOM     51  C   UNL A   1      42.874  30.413  36.054  1.00  0.00     0.074 A 
ATOM     52  C   UNL A   1      37.638  33.987  35.712  1.00  0.00     0.029 A 
ATOM     53  N   UNL A   1      39.307  32.582  35.280  1.00  0.00    -0.354 N 
ATOM     54  N   UNL A   1      41.777  31.114  35.893  1.00  0.00    -0.248 NA
ATOM     55  C   UNL A   1      43.578  30.677  37.317  1.00  0.00     0.031 C 
ATOM     56  C   UNL A   1      38.527  34.010  36.792  1.00  0.00     0.029 A 
ATOM     57  C   UNL A   1      39.553  33.114  36.534  1.00  0.00     0.049 A 
ATOM     58  H   UNL A   1      39.875  31.918  34.827  1.00  0.00     0.167 HD
ATOM     59  C   UNL A   1      41.643  31.881  37.046  1.00  0.00     0.074 A 
ATOM     60  C   UNL A   1      42.766  31.551  37.900  1.00  0.00     0.031 C 
ATOM     61  C   UNL A   1      40.676  32.774  37.371  1.00  0.00     0.031 A 
BRANCH  48  62
ATOM     62  C   UNL A   1      36.356  33.523  33.009  1.00  0.00    -0.014 A 
ATOM     63  C   UNL A   1      35.086  32.940  33.170  1.00  0.00     0.010 A 
ATOM     64  C   UNL A   1      36.454  34.808  32.445  1.00  0.00     0.010 A 
ATOM     65  C   UNL A   1      33.939  33.615  32.740  1.00  0.00     0.020 A 
ATOM     66  C   UNL A   1      35.307  35.496  32.036  1.00  0.00     0.020 A 
ATOM     67  C   UNL A   1      34.057  34.887  32.171  1.00  0.00     0.054 A 
BRANCH  67  68
ATOM     68  S   UNL A   1      32.553  35.746  31.634  1.00  0.00     0.124 S 
ATOM     69  O   UNL A   1      32.923  37.146  31.821  1.00  0.00    -0.237 OA
ATOM     70  O   UNL A   1      32.414  35.314  30.246  1.00  0.00    -0.237 OA
ATOM     71  O   UNL A   1      31.525  35.247  32.544  1.00  0.00    -0.744 OA
ENDBRANCH  67  68
ENDBRANCH  48  62
BRANCH  49  72
ATOM     72  C   UNL A   1      44.746  28.688  35.502  1.00  0.00    -0.014 A 
ATOM     73  C   UNL A   1      44.717  27.480  36.221  1.00  0.00     0.010 A 
ATOM     74  C   UNL A   1      45.989  29.226  35.120  1.00  0.00     0.010 A 
ATOM     75  C   UNL A   1      45.908  26.830  36.561  1.00  0.00     0.020 A 
ATOM     76  C   UNL A   1      47.179  28.566  35.434  1.00  0.00     0.020 A 
ATOM     77  C   UNL A   1      47.132  27.376  36.161  1.00  0.00     0.054 A 
BRANCH  77  78
ATOM     78  S   UNL A   1      48.662  26.483  36.557  1.00  0.00     0.124 S 
ATOM     79  O   UNL A   1      48.308  25.109  36.217  1.00  0.00    -0.237 OA
ATOM     80  O   UNL A   1      49.638  27.123  35.680  1.00  0.00    -0.237 OA
ATOM     81  O   UNL A   1      48.851  26.747  37.983  1.00  0.00    -0.744 OA
ENDBRANCH  77  78
ENDBRANCH  49  72
BRANCH  61  82
ATOM     82  C   UNL A   1      40.763  33.434  38.721  1.00  0.00    -0.014 A 
ATOM     83  C   UNL A   1      41.433  34.658  38.894  1.00  0.00     0.010 A 
ATOM     84  C   UNL A   1      40.109  32.849  39.821  1.00  0.00     0.010 A 
ATOM     85  C   UNL A   1      41.470  35.271  40.149  1.00  0.00     0.020 A 
ATOM     86  C   UNL A   1      40.122  33.472  41.071  1.00  0.00     0.020 A 
ATOM     87  C   UNL A   1      40.814  34.673  41.231  1.00  0.00     0.054 A 
BRANCH  87  88
ATOM     88  S   UNL A   1      40.836  35.511  42.839  1.00  0.00     0.124 S 
ATOM     89  O   UNL A   1      39.898  36.609  42.623  1.00  0.00    -0.237 OA
ATOM     90  O   UNL A   1      40.381  34.466  43.754  1.00  0.00    -0.237 OA
ATOM     91  O   UNL A   1      42.233  35.908  43.004  1.00  0.00    -0.744 OA
ENDBRANCH  87  88
ENDBRANCH  61  82
ENDBRANCH  35  36
ENDBRANCH  28  30
ENDBRANCH  27  28
ENDBRANCH  26  27
ENDBRANCH  25  26
ENDBRANCH   1  25
TORSDOF 20
ENDMDL
