MODEL 1
REMARK VINA RESULT:      -9.7      0.000      0.000
REMARK SMILES COc1cc(OC)cc(-c2ccc(C(=O)OCCOCCOC(=O)c3ccc(-c4c5nc(c(-c6ccc(S(=O)(=O)[O-])cc6)c6ccc([nH]6)c(-c6ccc(S(=O)(=O)[O-])cc6)c6nc(c(-c7ccc(S(=O)(=O)[O-])cc7)c7ccc4[nH]7)C=C6)C=C5)cc3)o2)c1
REMARK SMILES IDX 20 1 19 2 18 3 17 4 16 5 14 6 15 7 13 8 10 9 11 10 85 11
REMARK SMILES IDX 12 12 9 13 3 14 4 15 86 16 5 17 8 18 2 19 1 20 6 21 7 22
REMARK SMILES IDX 21 23 22 24 23 25 24 26 25 27 26 28 84 29 27 30 83 31 28 32
REMARK SMILES IDX 29 33 30 34 77 35 31 36 82 37 76 38 78 39 32 40 81 41 75 42
REMARK SMILES IDX 74 43 33 45 63 46 44 47 62 48 45 49 48 50 61 51 79 52 46 53
REMARK SMILES IDX 47 54 60 56 80 57 49 58 34 59 35 60 43 61 36 62 42 63 37 64
REMARK SMILES IDX 38 65 39 66 40 67 41 68 64 69 65 70 73 71 66 72 72 73 67 74
REMARK SMILES IDX 68 75 69 76 70 77 71 78 50 79 51 80 59 81 52 82 58 83 53 84
REMARK SMILES IDX 54 85 55 86 56 87 57 88
REMARK H PARENT 78 44 48 55
REMARK Flexibility Score: inf
ROOT
ATOM      1  C   UNL A   1      41.623  22.764  27.682  1.00  0.00     0.202 C 
ENDROOT
BRANCH   1   2
ATOM      2  O   UNL A   1      40.442  21.963  27.604  1.00  0.00    -0.374 OA
BRANCH   2   3
ATOM      3  C   UNL A   1      40.277  21.194  26.411  1.00  0.00     0.202 C 
BRANCH   3   4
ATOM      4  C   UNL A   1      40.852  19.776  26.497  1.00  0.00     0.261 C 
BRANCH   4   5
ATOM      5  O   UNL A   1      41.743  19.544  25.393  1.00  0.00    -0.457 OA
BRANCH   5   6
ATOM      6  C   UNL A   1      42.781  18.689  25.624  1.00  0.00     0.374 C 
ATOM      7  O   UNL A   1      42.664  17.527  25.992  1.00  0.00    -0.242 OA
BRANCH   6   8
ATOM      8  C   UNL A   1      44.017  19.337  25.253  1.00  0.00     0.212 A 
ATOM      9  C   UNL A   1      45.414  21.039  25.185  1.00  0.00     0.135 A 
ATOM     10  C   UNL A   1      46.095  19.967  24.655  1.00  0.00     0.052 A 
ATOM     11  O   UNL A   1      44.154  20.670  25.538  1.00  0.00    -0.449 OA
ATOM     12  C   UNL A   1      45.199  18.869  24.699  1.00  0.00     0.059 A 
BRANCH   9  13
ATOM     13  C   UNL A   1      45.740  22.431  25.407  1.00  0.00     0.025 A 
ATOM     14  C   UNL A   1      45.556  24.409  26.790  1.00  0.00     0.123 A 
ATOM     15  C   UNL A   1      46.295  25.120  25.843  1.00  0.00     0.092 A 
ATOM     16  C   UNL A   1      45.266  23.066  26.562  1.00  0.00     0.058 A 
ATOM     17  C   UNL A   1      46.780  24.497  24.689  1.00  0.00     0.123 A 
ATOM     18  C   UNL A   1      46.509  23.145  24.478  1.00  0.00     0.058 A 
BRANCH  14  19
ATOM     19  O   UNL A   1      45.129  25.128  27.872  1.00  0.00    -0.497 OA
ATOM     20  C   UNL A   1      45.250  26.542  27.743  1.00  0.00     0.278 C 
ENDBRANCH  14  19
BRANCH  17  21
ATOM     21  O   UNL A   1      47.499  25.316  23.861  1.00  0.00    -0.497 OA
ATOM     22  C   UNL A   1      47.822  26.609  24.355  1.00  0.00     0.278 C 
ENDBRANCH  17  21
ENDBRANCH   9  13
ENDBRANCH   6   8
ENDBRANCH   5   6
ENDBRANCH   4   5
ENDBRANCH   3   4
ENDBRANCH   2   3
ENDBRANCH   1   2
BRANCH   1  23
ATOM     23  C   UNL A   1      41.779  23.794  26.559  1.00  0.00     0.261 C 
BRANCH  23  24
ATOM     24  O   UNL A   1      41.463  25.119  27.023  1.00  0.00    -0.460 OA
BRANCH  24  25
ATOM     25  C   UNL A   1      40.141  25.362  27.194  1.00  0.00     0.338 C 
ATOM     26  O   UNL A   1      39.212  24.775  26.665  1.00  0.00    -0.246 OA
BRANCH  25  27
ATOM     27  C   UNL A   1      39.947  26.357  28.270  1.00  0.00     0.060 A 
ATOM     28  C   UNL A   1      40.788  27.476  28.267  1.00  0.00     0.016 A 
ATOM     29  C   UNL A   1      39.005  26.182  29.288  1.00  0.00     0.016 A 
ATOM     30  C   UNL A   1      40.725  28.401  29.308  1.00  0.00     0.010 A 
ATOM     31  C   UNL A   1      38.948  27.109  30.336  1.00  0.00     0.010 A 
ATOM     32  C   UNL A   1      39.829  28.205  30.367  1.00  0.00    -0.014 A 
BRANCH  32  33
ATOM     33  C   UNL A   1      39.910  29.077  31.565  1.00  0.00     0.031 A 
ATOM     34  C   UNL A   1      41.019  28.857  32.558  1.00  0.00     0.074 A 
ATOM     35  C   UNL A   1      39.024  30.072  31.752  1.00  0.00     0.049 A 
ATOM     36  N   UNL A   1      41.275  29.501  33.668  1.00  0.00    -0.248 NA
ATOM     37  C   UNL A   1      41.966  27.768  32.262  1.00  0.00     0.031 C 
ATOM     38  C   UNL A   1      37.929  30.413  30.844  1.00  0.00     0.029 A 
ATOM     39  N   UNL A   1      38.911  30.983  32.773  1.00  0.00    -0.354 N 
ATOM     40  C   UNL A   1      42.404  28.894  34.207  1.00  0.00     0.074 A 
ATOM     41  C   UNL A   1      42.769  27.815  33.315  1.00  0.00     0.031 C 
ATOM     42  C   UNL A   1      37.253  31.460  31.349  1.00  0.00     0.029 A 
ATOM     43  C   UNL A   1      37.849  31.844  32.628  1.00  0.00     0.049 A 
ATOM     44  H   UNL A   1      39.531  31.016  33.536  1.00  0.00     0.167 HD
ATOM     45  C   UNL A   1      43.076  29.207  35.340  1.00  0.00     0.031 A 
ATOM     46  C   UNL A   1      37.400  32.821  33.441  1.00  0.00     0.031 A 
ATOM     47  C   UNL A   1      42.711  30.277  36.229  1.00  0.00     0.049 A 
ATOM     48  C   UNL A   1      38.127  33.105  34.730  1.00  0.00     0.074 A 
ATOM     49  C   UNL A   1      43.352  30.691  37.384  1.00  0.00     0.029 A 
ATOM     50  N   UNL A   1      41.605  31.097  36.069  1.00  0.00    -0.354 N 
ATOM     51  N   UNL A   1      39.214  32.544  35.205  1.00  0.00    -0.248 NA
ATOM     52  C   UNL A   1      37.569  34.161  35.588  1.00  0.00     0.031 C 
ATOM     53  C   UNL A   1      42.603  31.727  37.952  1.00  0.00     0.029 A 
ATOM     54  C   UNL A   1      41.527  31.995  37.120  1.00  0.00     0.049 A 
ATOM     55  H   UNL A   1      40.970  31.049  35.318  1.00  0.00     0.167 HD
ATOM     56  C   UNL A   1      39.484  33.199  36.403  1.00  0.00     0.074 A 
ATOM     57  C   UNL A   1      38.455  34.202  36.574  1.00  0.00     0.031 C 
ATOM     58  C   UNL A   1      40.498  32.990  37.279  1.00  0.00     0.031 A 
BRANCH  45  59
ATOM     59  C   UNL A   1      44.261  28.355  35.703  1.00  0.00    -0.014 A 
ATOM     60  C   UNL A   1      45.573  28.766  35.406  1.00  0.00     0.010 A 
ATOM     61  C   UNL A   1      44.061  27.147  36.396  1.00  0.00     0.010 A 
ATOM     62  C   UNL A   1      46.662  27.968  35.767  1.00  0.00     0.020 A 
ATOM     63  C   UNL A   1      45.149  26.358  36.779  1.00  0.00     0.020 A 
ATOM     64  C   UNL A   1      46.442  26.767  36.449  1.00  0.00     0.054 A 
BRANCH  64  65
ATOM     65  S   UNL A   1      47.873  25.761  36.930  1.00  0.00     0.124 S 
ATOM     66  O   UNL A   1      48.886  26.204  35.975  1.00  0.00    -0.237 OA
ATOM     67  O   UNL A   1      48.099  26.166  38.316  1.00  0.00    -0.237 OA
ATOM     68  O   UNL A   1      47.409  24.388  36.753  1.00  0.00    -0.744 OA
ENDBRANCH  64  65
ENDBRANCH  45  59
BRANCH  46  69
ATOM     69  C   UNL A   1      36.187  33.601  33.072  1.00  0.00    -0.014 A 
ATOM     70  C   UNL A   1      34.913  33.011  33.128  1.00  0.00     0.010 A 
ATOM     71  C   UNL A   1      36.306  34.937  32.646  1.00  0.00     0.010 A 
ATOM     72  C   UNL A   1      33.780  33.736  32.746  1.00  0.00     0.020 A 
ATOM     73  C   UNL A   1      35.173  35.672  32.287  1.00  0.00     0.020 A 
ATOM     74  C   UNL A   1      33.918  35.062  32.327  1.00  0.00     0.054 A 
BRANCH  74  75
ATOM     75  S   UNL A   1      32.432  36.000  31.876  1.00  0.00     0.124 S 
ATOM     76  O   UNL A   1      32.159  35.506  30.530  1.00  0.00    -0.237 OA
ATOM     77  O   UNL A   1      31.478  35.597  32.905  1.00  0.00    -0.237 OA
ATOM     78  O   UNL A   1      32.871  37.391  31.956  1.00  0.00    -0.744 OA
ENDBRANCH  74  75
ENDBRANCH  46  69
BRANCH  58  79
ATOM     79  C   UNL A   1      40.568  33.885  38.487  1.00  0.00    -0.014 A 
ATOM     80  C   UNL A   1      41.261  35.108  38.448  1.00  0.00     0.010 A 
ATOM     81  C   UNL A   1      39.881  33.522  39.660  1.00  0.00     0.010 A 
ATOM     82  C   UNL A   1      41.290  35.937  39.574  1.00  0.00     0.020 A 
ATOM     83  C   UNL A   1      39.888  34.360  40.777  1.00  0.00     0.020 A 
ATOM     84  C   UNL A   1      40.604  35.557  40.732  1.00  0.00     0.054 A 
BRANCH  84  85
ATOM     85  S   UNL A   1      40.621  36.670  42.164  1.00  0.00     0.124 S 
ATOM     86  O   UNL A   1      39.267  37.215  42.142  1.00  0.00    -0.237 OA
ATOM     87  O   UNL A   1      40.917  35.766  43.272  1.00  0.00    -0.237 OA
ATOM     88  O   UNL A   1      41.682  37.624  41.848  1.00  0.00    -0.744 OA
ENDBRANCH  84  85
ENDBRANCH  58  79
ENDBRANCH  32  33
ENDBRANCH  25  27
ENDBRANCH  24  25
ENDBRANCH  23  24
ENDBRANCH   1  23
TORSDOF 20
ENDMDL
MODEL 2
REMARK VINA RESULT:      -9.7      0.531      8.271
REMARK SMILES COc1cc(OC)cc(-c2ccc(C(=O)OCCOCCOC(=O)c3ccc(-c4c5nc(c(-c6ccc(S(=O)(=O)[O-])cc6)c6ccc([nH]6)c(-c6ccc(S(=O)(=O)[O-])cc6)c6nc(c(-c7ccc(S(=O)(=O)[O-])cc7)c7ccc4[nH]7)C=C6)C=C5)cc3)o2)c1
REMARK SMILES IDX 20 1 19 2 18 3 17 4 16 5 14 6 15 7 13 8 10 9 11 10 85 11
REMARK SMILES IDX 12 12 9 13 3 14 4 15 86 16 5 17 8 18 2 19 1 20 6 21 7 22
REMARK SMILES IDX 21 23 22 24 23 25 24 26 25 27 26 28 84 29 27 30 83 31 28 32
REMARK SMILES IDX 29 33 30 34 77 35 31 36 82 37 76 38 78 39 32 40 81 41 75 42
REMARK SMILES IDX 74 43 33 45 63 46 44 47 62 48 45 49 48 50 61 51 79 52 46 53
REMARK SMILES IDX 47 54 60 56 80 57 49 58 34 59 35 60 43 61 36 62 42 63 37 64
REMARK SMILES IDX 38 65 39 66 40 67 41 68 64 69 65 70 73 71 66 72 72 73 67 74
REMARK SMILES IDX 68 75 69 76 70 77 71 78 50 79 51 80 59 81 52 82 58 83 53 84
REMARK SMILES IDX 54 85 55 86 56 87 57 88
REMARK H PARENT 78 44 48 55
REMARK Flexibility Score: inf
ROOT
ATOM      1  C   UNL A   1      41.696  22.852  27.756  1.00  0.00     0.202 C 
ENDROOT
BRANCH   1   2
ATOM      2  O   UNL A   1      40.464  22.129  27.766  1.00  0.00    -0.374 OA
BRANCH   2   3
ATOM      3  C   UNL A   1      40.222  21.275  26.646  1.00  0.00     0.202 C 
BRANCH   3   4
ATOM      4  C   UNL A   1      40.996  19.953  26.690  1.00  0.00     0.261 C 
BRANCH   4   5
ATOM      5  O   UNL A   1      41.850  19.849  25.538  1.00  0.00    -0.457 OA
BRANCH   5   6
ATOM      6  C   UNL A   1      42.837  18.909  25.602  1.00  0.00     0.374 C 
ATOM      7  O   UNL A   1      42.655  17.712  25.783  1.00  0.00    -0.242 OA
BRANCH   6   8
ATOM      8  C   UNL A   1      44.104  19.535  25.304  1.00  0.00     0.212 A 
ATOM      9  C   UNL A   1      45.533  21.211  25.323  1.00  0.00     0.135 A 
ATOM     10  C   UNL A   1      46.224  20.128  24.830  1.00  0.00     0.052 A 
ATOM     11  O   UNL A   1      44.248  20.866  25.601  1.00  0.00    -0.449 OA
ATOM     12  C   UNL A   1      45.307  19.047  24.819  1.00  0.00     0.059 A 
BRANCH   9  13
ATOM     13  C   UNL A   1      45.871  22.597  25.567  1.00  0.00     0.025 A 
ATOM     14  C   UNL A   1      46.871  24.657  24.785  1.00  0.00     0.123 A 
ATOM     15  C   UNL A   1      46.590  25.245  26.019  1.00  0.00     0.092 A 
ATOM     16  C   UNL A   1      46.524  23.327  24.567  1.00  0.00     0.058 A 
ATOM     17  C   UNL A   1      45.933  24.531  27.025  1.00  0.00     0.123 A 
ATOM     18  C   UNL A   1      45.562  23.206  26.792  1.00  0.00     0.058 A 
BRANCH  14  19
ATOM     19  O   UNL A   1      47.526  25.452  23.885  1.00  0.00    -0.497 OA
ATOM     20  C   UNL A   1      48.672  26.127  24.396  1.00  0.00     0.278 C 
ENDBRANCH  14  19
BRANCH  17  21
ATOM     21  O   UNL A   1      45.712  25.241  28.174  1.00  0.00    -0.497 OA
ATOM     22  C   UNL A   1      44.907  26.408  28.066  1.00  0.00     0.278 C 
ENDBRANCH  17  21
ENDBRANCH   9  13
ENDBRANCH   6   8
ENDBRANCH   5   6
ENDBRANCH   4   5
ENDBRANCH   3   4
ENDBRANCH   2   3
ENDBRANCH   1   2
BRANCH   1  23
ATOM     23  C   UNL A   1      41.828  23.886  26.633  1.00  0.00     0.261 C 
BRANCH  23  24
ATOM     24  O   UNL A   1      41.673  25.224  27.140  1.00  0.00    -0.460 OA
BRANCH  24  25
ATOM     25  C   UNL A   1      40.392  25.659  27.216  1.00  0.00     0.338 C 
ATOM     26  O   UNL A   1      39.442  25.265  26.560  1.00  0.00    -0.246 OA
BRANCH  25  27
ATOM     27  C   UNL A   1      40.245  26.593  28.352  1.00  0.00     0.060 A 
ATOM     28  C   UNL A   1      41.115  27.689  28.398  1.00  0.00     0.016 A 
ATOM     29  C   UNL A   1      39.318  26.382  29.377  1.00  0.00     0.016 A 
ATOM     30  C   UNL A   1      41.096  28.553  29.493  1.00  0.00     0.010 A 
ATOM     31  C   UNL A   1      39.304  27.247  30.478  1.00  0.00     0.010 A 
ATOM     32  C   UNL A   1      40.214  28.317  30.556  1.00  0.00    -0.014 A 
BRANCH  32  33
ATOM     33  C   UNL A   1      40.341  29.114  31.801  1.00  0.00     0.031 A 
ATOM     34  C   UNL A   1      39.314  30.172  32.102  1.00  0.00     0.074 A 
ATOM     35  C   UNL A   1      41.342  28.878  32.669  1.00  0.00     0.049 A 
ATOM     36  N   UNL A   1      39.235  30.979  33.129  1.00  0.00    -0.248 NA
ATOM     37  C   UNL A   1      38.232  30.342  31.117  1.00  0.00     0.031 C 
ATOM     38  C   UNL A   1      42.377  27.856  32.512  1.00  0.00     0.029 A 
ATOM     39  N   UNL A   1      41.648  29.487  33.861  1.00  0.00    -0.354 N 
ATOM     40  C   UNL A   1      38.104  31.758  32.912  1.00  0.00     0.074 A 
ATOM     41  C   UNL A   1      37.542  31.344  31.645  1.00  0.00     0.031 C 
ATOM     42  C   UNL A   1      43.205  27.907  33.570  1.00  0.00     0.029 A 
ATOM     43  C   UNL A   1      42.777  28.984  34.462  1.00  0.00     0.049 A 
ATOM     44  H   UNL A   1      41.110  30.214  34.248  1.00  0.00     0.167 HD
ATOM     45  C   UNL A   1      37.580  32.729  33.697  1.00  0.00     0.031 A 
ATOM     46  C   UNL A   1      43.404  29.358  35.596  1.00  0.00     0.031 A 
ATOM     47  C   UNL A   1      38.139  33.144  34.955  1.00  0.00     0.049 A 
ATOM     48  C   UNL A   1      42.837  30.488  36.417  1.00  0.00     0.074 A 
ATOM     49  C   UNL A   1      37.659  34.097  35.836  1.00  0.00     0.029 A 
ATOM     50  N   UNL A   1      39.306  32.640  35.507  1.00  0.00    -0.354 N 
ATOM     51  N   UNL A   1      41.746  31.189  36.214  1.00  0.00    -0.248 NA
ATOM     52  C   UNL A   1      43.583  30.870  37.625  1.00  0.00     0.031 C 
ATOM     53  C   UNL A   1      38.565  34.208  36.897  1.00  0.00     0.029 A 
ATOM     54  C   UNL A   1      39.579  33.283  36.702  1.00  0.00     0.049 A 
ATOM     55  H   UNL A   1      39.859  31.929  35.109  1.00  0.00     0.167 HD
ATOM     56  C   UNL A   1      41.663  32.074  37.284  1.00  0.00     0.074 A 
ATOM     57  C   UNL A   1      42.805  31.815  38.134  1.00  0.00     0.031 C 
ATOM     58  C   UNL A   1      40.720  33.015  37.541  1.00  0.00     0.031 A 
BRANCH  45  59
ATOM     59  C   UNL A   1      36.350  33.437  33.199  1.00  0.00    -0.014 A 
ATOM     60  C   UNL A   1      35.069  32.882  33.368  1.00  0.00     0.010 A 
ATOM     61  C   UNL A   1      36.474  34.702  32.594  1.00  0.00     0.010 A 
ATOM     62  C   UNL A   1      33.937  33.564  32.914  1.00  0.00     0.020 A 
ATOM     63  C   UNL A   1      35.344  35.397  32.159  1.00  0.00     0.020 A 
ATOM     64  C   UNL A   1      34.082  34.817  32.308  1.00  0.00     0.054 A 
BRANCH  64  65
ATOM     65  S   UNL A   1      32.596  35.694  31.750  1.00  0.00     0.124 S 
ATOM     66  O   UNL A   1      32.979  37.090  31.951  1.00  0.00    -0.237 OA
ATOM     67  O   UNL A   1      32.477  35.271  30.357  1.00  0.00    -0.237 OA
ATOM     68  O   UNL A   1      31.547  35.202  32.640  1.00  0.00    -0.744 OA
ENDBRANCH  64  65
ENDBRANCH  45  59
BRANCH  46  69
ATOM     69  C   UNL A   1      44.652  28.670  36.022  1.00  0.00    -0.014 A 
ATOM     70  C   UNL A   1      45.907  29.120  35.574  1.00  0.00     0.010 A 
ATOM     71  C   UNL A   1      44.590  27.547  36.867  1.00  0.00     0.010 A 
ATOM     72  C   UNL A   1      47.075  28.449  35.948  1.00  0.00     0.020 A 
ATOM     73  C   UNL A   1      45.757  26.888  37.262  1.00  0.00     0.020 A 
ATOM     74  C   UNL A   1      46.991  27.336  36.789  1.00  0.00     0.054 A 
BRANCH  74  75
ATOM     75  S   UNL A   1      48.521  26.502  37.297  1.00  0.00     0.124 S 
ATOM     76  O   UNL A   1      48.194  26.068  38.651  1.00  0.00    -0.237 OA
ATOM     77  O   UNL A   1      48.647  25.440  36.303  1.00  0.00    -0.237 OA
ATOM     78  O   UNL A   1      49.529  27.555  37.202  1.00  0.00    -0.744 OA
ENDBRANCH  74  75
ENDBRANCH  46  69
BRANCH  58  79
ATOM     79  C   UNL A   1      40.861  33.812  38.810  1.00  0.00    -0.014 A 
ATOM     80  C   UNL A   1      41.574  35.023  38.835  1.00  0.00     0.010 A 
ATOM     81  C   UNL A   1      40.221  33.368  39.982  1.00  0.00     0.010 A 
ATOM     82  C   UNL A   1      41.670  35.761  40.019  1.00  0.00     0.020 A 
ATOM     83  C   UNL A   1      40.294  34.115  41.160  1.00  0.00     0.020 A 
ATOM     84  C   UNL A   1      41.030  35.301  41.174  1.00  0.00     0.054 A 
BRANCH  84  85
ATOM     85  S   UNL A   1      41.132  36.297  42.687  1.00  0.00     0.124 S 
ATOM     86  O   UNL A   1      39.749  36.284  43.154  1.00  0.00    -0.237 OA
ATOM     87  O   UNL A   1      42.080  35.546  43.505  1.00  0.00    -0.237 OA
ATOM     88  O   UNL A   1      41.617  37.592  42.215  1.00  0.00    -0.744 OA
ENDBRANCH  84  85
ENDBRANCH  58  79
ENDBRANCH  32  33
ENDBRANCH  25  27
ENDBRANCH  24  25
ENDBRANCH  23  24
ENDBRANCH   1  23
TORSDOF 20
ENDMDL
MODEL 3
REMARK VINA RESULT:      -9.6      3.075      9.747
REMARK SMILES COc1cc(OC)cc(-c2ccc(C(=O)OCCOCCOC(=O)c3ccc(-c4c5nc(c(-c6ccc(S(=O)(=O)[O-])cc6)c6ccc([nH]6)c(-c6ccc(S(=O)(=O)[O-])cc6)c6nc(c(-c7ccc(S(=O)(=O)[O-])cc7)c7ccc4[nH]7)C=C6)C=C5)cc3)o2)c1
REMARK SMILES IDX 20 1 19 2 18 3 17 4 16 5 14 6 15 7 13 8 10 9 11 10 85 11
REMARK SMILES IDX 12 12 9 13 3 14 4 15 86 16 5 17 8 18 2 19 1 20 6 21 7 22
REMARK SMILES IDX 21 23 22 24 23 25 24 26 25 27 26 28 84 29 27 30 83 31 28 32
REMARK SMILES IDX 29 33 30 34 77 35 31 36 82 37 76 38 78 39 32 40 81 41 75 42
REMARK SMILES IDX 74 43 33 45 63 46 44 47 62 48 45 49 48 50 61 51 79 52 46 53
REMARK SMILES IDX 47 54 60 56 80 57 49 58 34 59 35 60 43 61 36 62 42 63 37 64
REMARK SMILES IDX 38 65 39 66 40 67 41 68 64 69 65 70 73 71 66 72 72 73 67 74
REMARK SMILES IDX 68 75 69 76 70 77 71 78 50 79 51 80 59 81 52 82 58 83 53 84
REMARK SMILES IDX 54 85 55 86 56 87 57 88
REMARK H PARENT 78 44 48 55
REMARK Flexibility Score: inf
ROOT
ATOM      1  C   UNL A   1      43.905  23.424  26.426  1.00  0.00     0.202 C 
ENDROOT
BRANCH   1   2
ATOM      2  O   UNL A   1      43.333  22.268  27.040  1.00  0.00    -0.374 OA
BRANCH   2   3
ATOM      3  C   UNL A   1      42.448  22.506  28.137  1.00  0.00     0.202 C 
BRANCH   3   4
ATOM      4  C   UNL A   1      41.076  21.841  27.988  1.00  0.00     0.261 C 
BRANCH   4   5
ATOM      5  O   UNL A   1      40.628  21.950  26.626  1.00  0.00    -0.457 OA
BRANCH   5   6
ATOM      6  C   UNL A   1      39.393  22.501  26.440  1.00  0.00     0.374 C 
ATOM      7  O   UNL A   1      39.109  23.673  26.651  1.00  0.00    -0.242 OA
BRANCH   6   8
ATOM      8  C   UNL A   1      38.521  21.514  25.846  1.00  0.00     0.212 A 
ATOM      9  C   UNL A   1      36.603  20.814  25.020  1.00  0.00     0.135 A 
ATOM     10  C   UNL A   1      37.508  19.802  24.792  1.00  0.00     0.052 A 
ATOM     11  O   UNL A   1      37.204  21.847  25.667  1.00  0.00    -0.449 OA
ATOM     12  C   UNL A   1      38.744  20.251  25.321  1.00  0.00     0.059 A 
BRANCH   9  13
ATOM     13  C   UNL A   1      35.192  20.984  24.751  1.00  0.00     0.025 A 
ATOM     14  C   UNL A   1      32.956  20.059  24.742  1.00  0.00     0.123 A 
ATOM     15  C   UNL A   1      32.481  21.250  24.191  1.00  0.00     0.092 A 
ATOM     16  C   UNL A   1      34.316  19.922  25.007  1.00  0.00     0.058 A 
ATOM     17  C   UNL A   1      33.343  22.321  23.936  1.00  0.00     0.123 A 
ATOM     18  C   UNL A   1      34.701  22.189  24.228  1.00  0.00     0.058 A 
BRANCH  14  19
ATOM     19  O   UNL A   1      32.019  19.081  24.937  1.00  0.00    -0.497 OA
ATOM     20  C   UNL A   1      32.513  17.747  24.864  1.00  0.00     0.278 C 
ENDBRANCH  14  19
BRANCH  17  21
ATOM     21  O   UNL A   1      32.734  23.427  23.410  1.00  0.00    -0.497 OA
ATOM     22  C   UNL A   1      31.314  23.466  23.459  1.00  0.00     0.278 C 
ENDBRANCH  17  21
ENDBRANCH   9  13
ENDBRANCH   6   8
ENDBRANCH   5   6
ENDBRANCH   4   5
ENDBRANCH   3   4
ENDBRANCH   2   3
ENDBRANCH   1   2
BRANCH   1  23
ATOM     23  C   UNL A   1      43.056  24.050  25.315  1.00  0.00     0.261 C 
BRANCH  23  24
ATOM     24  O   UNL A   1      42.055  24.929  25.859  1.00  0.00    -0.460 OA
BRANCH  24  25
ATOM     25  C   UNL A   1      42.315  26.250  25.707  1.00  0.00     0.338 C 
ATOM     26  O   UNL A   1      42.760  26.802  24.714  1.00  0.00    -0.246 OA
BRANCH  25  27
ATOM     27  C   UNL A   1      41.820  26.999  26.882  1.00  0.00     0.060 A 
ATOM     28  C   UNL A   1      42.166  28.352  26.972  1.00  0.00     0.016 A 
ATOM     29  C   UNL A   1      41.080  26.388  27.898  1.00  0.00     0.016 A 
ATOM     30  C   UNL A   1      41.816  29.090  28.102  1.00  0.00     0.010 A 
ATOM     31  C   UNL A   1      40.734  27.129  29.035  1.00  0.00     0.010 A 
ATOM     32  C   UNL A   1      41.129  28.474  29.156  1.00  0.00    -0.014 A 
BRANCH  32  33
ATOM     33  C   UNL A   1      40.941  29.206  30.434  1.00  0.00     0.031 A 
ATOM     34  C   UNL A   1      39.833  30.218  30.543  1.00  0.00     0.074 A 
ATOM     35  C   UNL A   1      41.730  28.950  31.494  1.00  0.00     0.049 A 
ATOM     36  N   UNL A   1      39.494  30.965  31.562  1.00  0.00    -0.248 NA
ATOM     37  C   UNL A   1      38.994  30.412  29.348  1.00  0.00     0.031 C 
ATOM     38  C   UNL A   1      42.812  27.967  31.527  1.00  0.00     0.029 A 
ATOM     39  N   UNL A   1      41.737  29.502  32.751  1.00  0.00    -0.354 N 
ATOM     40  C   UNL A   1      38.412  31.725  31.131  1.00  0.00     0.074 A 
ATOM     41  C   UNL A   1      38.165  31.364  29.752  1.00  0.00     0.031 C 
ATOM     42  C   UNL A   1      43.379  27.983  32.746  1.00  0.00     0.029 A 
ATOM     43  C   UNL A   1      42.721  28.999  33.568  1.00  0.00     0.049 A 
ATOM     44  H   UNL A   1      41.098  30.193  33.039  1.00  0.00     0.167 HD
ATOM     45  C   UNL A   1      37.687  32.637  31.821  1.00  0.00     0.031 A 
ATOM     46  C   UNL A   1      43.062  29.327  34.830  1.00  0.00     0.031 A 
ATOM     47  C   UNL A   1      37.934  32.999  33.192  1.00  0.00     0.049 A 
ATOM     48  C   UNL A   1      42.282  30.395  35.553  1.00  0.00     0.074 A 
ATOM     49  C   UNL A   1      37.232  33.889  33.985  1.00  0.00     0.029 A 
ATOM     50  N   UNL A   1      38.966  32.497  33.969  1.00  0.00    -0.354 N 
ATOM     51  N   UNL A   1      41.238  31.076  35.142  1.00  0.00    -0.248 NA
ATOM     52  C   UNL A   1      42.723  30.731  36.915  1.00  0.00     0.031 C 
ATOM     53  C   UNL A   1      37.871  33.966  35.227  1.00  0.00     0.029 A 
ATOM     54  C   UNL A   1      38.938  33.082  35.224  1.00  0.00     0.049 A 
ATOM     55  H   UNL A   1      39.620  31.824  33.674  1.00  0.00     0.167 HD
ATOM     56  C   UNL A   1      40.883  31.900  36.205  1.00  0.00     0.074 A 
ATOM     57  C   UNL A   1      41.814  31.626  37.279  1.00  0.00     0.031 C 
ATOM     58  C   UNL A   1      39.871  32.800  36.285  1.00  0.00     0.031 A 
BRANCH  45  59
ATOM     59  C   UNL A   1      36.574  33.338  31.092  1.00  0.00    -0.014 A 
ATOM     60  C   UNL A   1      36.840  34.211  30.022  1.00  0.00     0.010 A 
ATOM     61  C   UNL A   1      35.239  33.080  31.451  1.00  0.00     0.010 A 
ATOM     62  C   UNL A   1      35.791  34.840  29.346  1.00  0.00     0.020 A 
ATOM     63  C   UNL A   1      34.187  33.688  30.763  1.00  0.00     0.020 A 
ATOM     64  C   UNL A   1      34.470  34.577  29.724  1.00  0.00     0.054 A 
BRANCH  64  65
ATOM     65  S   UNL A   1      33.124  35.384  28.814  1.00  0.00     0.124 S 
ATOM     66  O   UNL A   1      32.348  35.985  29.896  1.00  0.00    -0.237 OA
ATOM     67  O   UNL A   1      33.837  36.327  27.955  1.00  0.00    -0.237 OA
ATOM     68  O   UNL A   1      32.468  34.283  28.114  1.00  0.00    -0.744 OA
ENDBRANCH  64  65
ENDBRANCH  45  59
BRANCH  46  69
ATOM     69  C   UNL A   1      44.208  28.651  35.495  1.00  0.00    -0.014 A 
ATOM     70  C   UNL A   1      45.513  29.158  35.363  1.00  0.00     0.010 A 
ATOM     71  C   UNL A   1      44.001  27.483  36.251  1.00  0.00     0.010 A 
ATOM     72  C   UNL A   1      46.592  28.499  35.959  1.00  0.00     0.020 A 
ATOM     73  C   UNL A   1      45.074  26.836  36.869  1.00  0.00     0.020 A 
ATOM     74  C   UNL A   1      46.365  27.341  36.708  1.00  0.00     0.054 A 
BRANCH  74  75
ATOM     75  S   UNL A   1      47.773  26.523  37.509  1.00  0.00     0.124 S 
ATOM     76  O   UNL A   1      47.769  25.214  36.864  1.00  0.00    -0.237 OA
ATOM     77  O   UNL A   1      48.888  27.399  37.161  1.00  0.00    -0.237 OA
ATOM     78  O   UNL A   1      47.407  26.526  38.924  1.00  0.00    -0.744 OA
ENDBRANCH  74  75
ENDBRANCH  46  69
BRANCH  58  79
ATOM     79  C   UNL A   1      39.692  33.530  37.589  1.00  0.00    -0.014 A 
ATOM     80  C   UNL A   1      40.377  34.729  37.853  1.00  0.00     0.010 A 
ATOM     81  C   UNL A   1      38.782  33.036  38.542  1.00  0.00     0.010 A 
ATOM     82  C   UNL A   1      40.175  35.406  39.060  1.00  0.00     0.020 A 
ATOM     83  C   UNL A   1      38.560  33.722  39.738  1.00  0.00     0.020 A 
ATOM     84  C   UNL A   1      39.269  34.897  39.996  1.00  0.00     0.054 A 
BRANCH  84  85
ATOM     85  S   UNL A   1      38.993  35.814  41.535  1.00  0.00     0.124 S 
ATOM     86  O   UNL A   1      37.669  35.346  41.935  1.00  0.00    -0.237 OA
ATOM     87  O   UNL A   1      40.098  35.369  42.380  1.00  0.00    -0.237 OA
ATOM     88  O   UNL A   1      39.059  37.214  41.120  1.00  0.00    -0.744 OA
ENDBRANCH  84  85
ENDBRANCH  58  79
ENDBRANCH  32  33
ENDBRANCH  25  27
ENDBRANCH  24  25
ENDBRANCH  23  24
ENDBRANCH   1  23
TORSDOF 20
ENDMDL
