MODEL 1
REMARK VINA RESULT:     -11.7      0.000      0.000
REMARK SMILES Cc1ccc(C)c(N2C(=O)S[C@H](CC(=O)Nc3ccc(C(=O)OCCOCCOC(=O)c4ccc(-c5c6nc(c(-c7ccc(S(=O)(=O)[O-])cc7)c7ccc([nH]7)c(-c7ccc(S(=O)(=O)[O-])cc7)c7nc(c(-c8ccc(S(=O)(=O)[O-])cc8)c8ccc5[nH]8)C=C7)C=C6)cc4)c(O)c3)C2=O)c1
REMARK SMILES IDX 25 1 24 2 23 3 21 4 22 5 20 6 17 7 18 8 94 9 19 10 92 11
REMARK SMILES IDX 16 12 14 13 15 14 13 16 12 17 8 18 9 19 95 20 10 21 11 22
REMARK SMILES IDX 96 23 7 24 1 25 2 26 3 27 97 28 4 29 5 30 6 31 93 32 26 34
REMARK SMILES IDX 27 35 28 36 29 37 30 38 31 39 32 40 33 41 91 42 34 43 90 44
REMARK SMILES IDX 35 45 36 46 37 47 84 48 38 49 89 50 83 51 85 52 39 53 88 54
REMARK SMILES IDX 82 55 81 56 40 58 70 59 51 60 69 61 52 62 55 63 68 64 86 65
REMARK SMILES IDX 53 66 54 67 67 69 87 70 56 71 41 72 42 73 50 74 43 75 49 76
REMARK SMILES IDX 44 77 45 78 46 79 47 80 48 81 71 82 72 83 80 84 73 85 79 86
REMARK SMILES IDX 74 87 75 88 76 89 77 90 78 91 57 92 58 93 66 94 59 95 65 96
REMARK SMILES IDX 60 97 61 98 62 99 63 100 64 101
REMARK H PARENT 16 15 93 33 85 57 55 68
REMARK Flexibility Score: inf
ROOT
ATOM      1  C   UNL A   1      41.803  19.905  27.183  1.00  0.00     0.202 C 
ENDROOT
BRANCH   1   2
ATOM      2  C   UNL A   1      41.422  21.394  27.183  1.00  0.00     0.261 C 
BRANCH   2   3
ATOM      3  O   UNL A   1      39.988  21.470  27.350  1.00  0.00    -0.460 OA
BRANCH   3   4
ATOM      4  C   UNL A   1      39.525  22.671  26.910  1.00  0.00     0.341 C 
ATOM      5  O   UNL A   1      39.994  23.734  27.213  1.00  0.00    -0.246 OA
BRANCH   4   6
ATOM      6  C   UNL A   1      38.454  22.528  25.897  1.00  0.00     0.101 A 
ATOM      7  C   UNL A   1      36.294  22.533  24.099  1.00  0.00     0.044 A 
ATOM      8  C   UNL A   1      36.596  23.635  24.870  1.00  0.00     0.027 A 
ATOM      9  C   UNL A   1      37.004  21.355  24.328  1.00  0.00     0.073 A 
ATOM     10  C   UNL A   1      37.734  23.688  25.645  1.00  0.00     0.022 A 
ATOM     11  C   UNL A   1      38.078  21.354  25.242  1.00  0.00     0.132 A 
BRANCH   7  12
ATOM     12  N   UNL A   1      35.258  22.649  23.159  1.00  0.00    -0.326 N 
ATOM     13  C   UNL A   1      33.894  22.663  23.419  1.00  0.00     0.226 C 
ATOM     14  O   UNL A   1      33.102  22.400  22.514  1.00  0.00    -0.275 OA
ATOM     15  H   UNL A   1      35.527  22.730  22.215  1.00  0.00     0.169 HD
BRANCH  13  16
ATOM     16  C   UNL A   1      33.388  23.245  24.754  1.00  0.00     0.125 C 
BRANCH  16  17
ATOM     17  C   UNL A   1      31.894  23.577  24.861  1.00  0.00     0.156 C 
ATOM     18  N   UNL A   1      31.354  25.931  24.766  1.00  0.00    -0.240 N 
ATOM     19  C   UNL A   1      31.472  25.803  26.116  1.00  0.00     0.293 C 
ATOM     20  C   UNL A   1      31.531  24.789  23.995  1.00  0.00     0.248 C 
ATOM     21  O   UNL A   1      31.579  26.678  26.958  1.00  0.00    -0.261 OA
ATOM     22  S   UNL A   1      31.415  24.129  26.502  1.00  0.00    -0.050 SA
ATOM     23  O   UNL A   1      31.466  24.736  22.770  1.00  0.00    -0.273 OA
BRANCH  18  24
ATOM     24  C   UNL A   1      30.851  27.147  24.271  1.00  0.00     0.056 A 
ATOM     25  C   UNL A   1      27.494  28.472  23.044  1.00  0.00     0.044 C 
ATOM     26  C   UNL A   1      28.959  28.361  23.344  1.00  0.00    -0.049 A 
ATOM     27  C   UNL A   1      29.836  29.357  22.902  1.00  0.00     0.004 A 
ATOM     28  C   UNL A   1      29.471  27.264  24.048  1.00  0.00     0.030 A 
ATOM     29  C   UNL A   1      31.211  29.233  23.105  1.00  0.00     0.006 A 
ATOM     30  C   UNL A   1      31.740  28.111  23.756  1.00  0.00    -0.027 A 
ATOM     31  C   UNL A   1      33.241  27.981  23.821  1.00  0.00     0.046 C 
ENDBRANCH  18  24
ENDBRANCH  16  17
ENDBRANCH  13  16
ENDBRANCH   7  12
BRANCH  11  32
ATOM     32  O   UNL A   1      38.727  20.166  25.436  1.00  0.00    -0.507 OA
ATOM     33  H   UNL A   1      39.294  20.057  26.174  1.00  0.00     0.293 HD
ENDBRANCH  11  32
ENDBRANCH   4   6
ENDBRANCH   3   4
ENDBRANCH   2   3
ENDBRANCH   1   2
BRANCH   1  34
ATOM     34  O   UNL A   1      42.187  19.534  25.864  1.00  0.00    -0.374 OA
BRANCH  34  35
ATOM     35  C   UNL A   1      43.420  18.854  25.700  1.00  0.00     0.202 C 
BRANCH  35  36
ATOM     36  C   UNL A   1      44.503  19.705  25.027  1.00  0.00     0.261 C 
BRANCH  36  37
ATOM     37  O   UNL A   1      44.629  21.035  25.575  1.00  0.00    -0.460 OA
BRANCH  37  38
ATOM     38  C   UNL A   1      44.355  22.048  24.705  1.00  0.00     0.338 C 
ATOM     39  O   UNL A   1      44.330  21.923  23.492  1.00  0.00    -0.246 OA
BRANCH  38  40
ATOM     40  C   UNL A   1      44.247  23.332  25.455  1.00  0.00     0.060 A 
ATOM     41  C   UNL A   1      44.818  23.444  26.728  1.00  0.00     0.016 A 
ATOM     42  C   UNL A   1      43.351  24.303  25.005  1.00  0.00     0.016 A 
ATOM     43  C   UNL A   1      44.386  24.463  27.594  1.00  0.00     0.010 A 
ATOM     44  C   UNL A   1      42.858  25.243  25.898  1.00  0.00     0.010 A 
ATOM     45  C   UNL A   1      43.345  25.325  27.212  1.00  0.00    -0.014 A 
BRANCH  45  46
ATOM     46  C   UNL A   1      43.066  26.600  27.915  1.00  0.00     0.031 A 
ATOM     47  C   UNL A   1      44.198  27.505  27.682  1.00  0.00     0.074 A 
ATOM     48  C   UNL A   1      42.008  27.050  28.638  1.00  0.00     0.049 A 
ATOM     49  N   UNL A   1      45.114  27.722  28.568  1.00  0.00    -0.248 NA
ATOM     50  C   UNL A   1      44.522  27.993  26.332  1.00  0.00     0.031 C 
ATOM     51  C   UNL A   1      40.923  26.279  29.211  1.00  0.00     0.029 A 
ATOM     52  N   UNL A   1      41.624  28.334  28.981  1.00  0.00    -0.354 N 
ATOM     53  C   UNL A   1      45.933  28.653  27.977  1.00  0.00     0.074 A 
ATOM     54  C   UNL A   1      45.722  28.537  26.555  1.00  0.00     0.031 C 
ATOM     55  C   UNL A   1      39.871  27.059  29.538  1.00  0.00     0.029 A 
ATOM     56  C   UNL A   1      40.281  28.440  29.375  1.00  0.00     0.049 A 
ATOM     57  H   UNL A   1      42.237  29.104  28.952  1.00  0.00     0.167 HD
ATOM     58  C   UNL A   1      46.324  29.732  28.703  1.00  0.00     0.031 A 
ATOM     59  C   UNL A   1      39.572  29.504  29.843  1.00  0.00     0.031 A 
ATOM     60  C   UNL A   1      46.125  29.545  30.121  1.00  0.00     0.049 A 
ATOM     61  C   UNL A   1      40.506  30.282  30.659  1.00  0.00     0.074 A 
ATOM     62  C   UNL A   1      46.673  28.747  31.103  1.00  0.00     0.029 A 
ATOM     63  N   UNL A   1      44.914  29.988  30.594  1.00  0.00    -0.354 N 
ATOM     64  N   UNL A   1      40.947  29.853  31.807  1.00  0.00    -0.248 NA
ATOM     65  C   UNL A   1      41.253  31.372  30.053  1.00  0.00     0.031 C 
ATOM     66  C   UNL A   1      45.703  28.647  32.143  1.00  0.00     0.029 A 
ATOM     67  C   UNL A   1      44.590  29.403  31.793  1.00  0.00     0.049 A 
ATOM     68  H   UNL A   1      44.349  30.647  30.129  1.00  0.00     0.167 HD
ATOM     69  C   UNL A   1      42.267  30.250  31.799  1.00  0.00     0.074 A 
ATOM     70  C   UNL A   1      42.341  31.332  30.826  1.00  0.00     0.031 C 
ATOM     71  C   UNL A   1      43.237  29.445  32.313  1.00  0.00     0.031 A 
BRANCH  58  72
ATOM     72  C   UNL A   1      46.373  31.098  28.079  1.00  0.00    -0.014 A 
ATOM     73  C   UNL A   1      45.177  31.792  27.859  1.00  0.00     0.010 A 
ATOM     74  C   UNL A   1      47.547  31.621  27.488  1.00  0.00     0.010 A 
ATOM     75  C   UNL A   1      45.164  32.967  27.097  1.00  0.00     0.020 A 
ATOM     76  C   UNL A   1      47.555  32.813  26.775  1.00  0.00     0.020 A 
ATOM     77  C   UNL A   1      46.356  33.471  26.567  1.00  0.00     0.054 A 
BRANCH  77  78
ATOM     78  S   UNL A   1      46.329  34.971  25.564  1.00  0.00     0.124 S 
ATOM     79  O   UNL A   1      45.627  35.903  26.440  1.00  0.00    -0.237 OA
ATOM     80  O   UNL A   1      47.750  35.233  25.360  1.00  0.00    -0.237 OA
ATOM     81  O   UNL A   1      45.598  34.565  24.365  1.00  0.00    -0.744 OA
ENDBRANCH  77  78
ENDBRANCH  58  72
BRANCH  59  82
ATOM     82  C   UNL A   1      38.168  29.921  29.596  1.00  0.00    -0.014 A 
ATOM     83  C   UNL A   1      37.327  30.466  30.579  1.00  0.00     0.010 A 
ATOM     84  C   UNL A   1      37.758  30.077  28.270  1.00  0.00     0.010 A 
ATOM     85  C   UNL A   1      36.188  31.224  30.226  1.00  0.00     0.020 A 
ATOM     86  C   UNL A   1      36.635  30.825  27.895  1.00  0.00     0.020 A 
ATOM     87  C   UNL A   1      35.869  31.428  28.880  1.00  0.00     0.054 A 
BRANCH  87  88
ATOM     88  S   UNL A   1      34.566  32.610  28.409  1.00  0.00     0.124 S 
ATOM     89  O   UNL A   1      34.096  33.091  29.704  1.00  0.00    -0.237 OA
ATOM     90  O   UNL A   1      35.293  33.584  27.600  1.00  0.00    -0.237 OA
ATOM     91  O   UNL A   1      33.611  31.789  27.664  1.00  0.00    -0.744 OA
ENDBRANCH  87  88
ENDBRANCH  59  82
BRANCH  71  92
ATOM     92  C   UNL A   1      42.834  28.468  33.387  1.00  0.00    -0.014 A 
ATOM     93  C   UNL A   1      42.595  27.097  33.171  1.00  0.00     0.010 A 
ATOM     94  C   UNL A   1      42.730  28.967  34.696  1.00  0.00     0.010 A 
ATOM     95  C   UNL A   1      42.246  26.254  34.240  1.00  0.00     0.020 A 
ATOM     96  C   UNL A   1      42.398  28.132  35.765  1.00  0.00     0.020 A 
ATOM     97  C   UNL A   1      42.151  26.780  35.532  1.00  0.00     0.054 A 
BRANCH  97  98
ATOM     98  S   UNL A   1      41.748  25.682  36.921  1.00  0.00     0.124 S 
ATOM     99  O   UNL A   1      40.594  26.341  37.527  1.00  0.00    -0.237 OA
ATOM    100  O   UNL A   1      41.468  24.409  36.260  1.00  0.00    -0.237 OA
ATOM    101  O   UNL A   1      42.963  25.690  37.736  1.00  0.00    -0.744 OA
ENDBRANCH  97  98
ENDBRANCH  71  92
ENDBRANCH  45  46
ENDBRANCH  38  40
ENDBRANCH  37  38
ENDBRANCH  36  37
ENDBRANCH  35  36
ENDBRANCH  34  35
ENDBRANCH   1  34
TORSDOF 22
ENDMDL
MODEL 2
REMARK VINA RESULT:     -11.2      2.504      9.901
REMARK SMILES Cc1ccc(C)c(N2C(=O)S[C@H](CC(=O)Nc3ccc(C(=O)OCCOCCOC(=O)c4ccc(-c5c6nc(c(-c7ccc(S(=O)(=O)[O-])cc7)c7ccc([nH]7)c(-c7ccc(S(=O)(=O)[O-])cc7)c7nc(c(-c8ccc(S(=O)(=O)[O-])cc8)c8ccc5[nH]8)C=C7)C=C6)cc4)c(O)c3)C2=O)c1
REMARK SMILES IDX 25 1 24 2 23 3 21 4 22 5 20 6 17 7 18 8 94 9 19 10 92 11
REMARK SMILES IDX 16 12 14 13 15 14 13 16 12 17 8 18 9 19 95 20 10 21 11 22
REMARK SMILES IDX 96 23 7 24 1 25 2 26 3 27 97 28 4 29 5 30 6 31 93 32 26 34
REMARK SMILES IDX 27 35 28 36 29 37 30 38 31 39 32 40 33 41 91 42 34 43 90 44
REMARK SMILES IDX 35 45 36 46 37 47 84 48 38 49 89 50 83 51 85 52 39 53 88 54
REMARK SMILES IDX 82 55 81 56 40 58 70 59 51 60 69 61 52 62 55 63 68 64 86 65
REMARK SMILES IDX 53 66 54 67 67 69 87 70 56 71 41 72 42 73 50 74 43 75 49 76
REMARK SMILES IDX 44 77 45 78 46 79 47 80 48 81 71 82 72 83 80 84 73 85 79 86
REMARK SMILES IDX 74 87 75 88 76 89 77 90 78 91 57 92 58 93 66 94 59 95 65 96
REMARK SMILES IDX 60 97 61 98 62 99 63 100 64 101
REMARK H PARENT 16 15 93 33 85 57 55 68
REMARK Flexibility Score: inf
ROOT
ATOM      1  C   UNL A   1      36.765  32.873  29.050  1.00  0.00     0.202 C 
ENDROOT
BRANCH   1   2
ATOM      2  C   UNL A   1      35.902  32.236  27.951  1.00  0.00     0.261 C 
BRANCH   2   3
ATOM      3  O   UNL A   1      35.244  31.088  28.534  1.00  0.00    -0.460 OA
BRANCH   3   4
ATOM      4  C   UNL A   1      35.389  30.002  27.727  1.00  0.00     0.341 C 
ATOM      5  O   UNL A   1      36.431  29.449  27.509  1.00  0.00    -0.246 OA
BRANCH   4   6
ATOM      6  C   UNL A   1      34.090  29.482  27.240  1.00  0.00     0.101 A 
ATOM      7  C   UNL A   1      31.795  28.244  26.191  1.00  0.00     0.044 A 
ATOM      8  C   UNL A   1      33.004  27.587  26.258  1.00  0.00     0.027 A 
ATOM      9  C   UNL A   1      31.761  29.596  26.532  1.00  0.00     0.073 A 
ATOM     10  C   UNL A   1      34.094  28.136  26.900  1.00  0.00     0.022 A 
ATOM     11  C   UNL A   1      32.918  30.216  27.045  1.00  0.00     0.132 A 
BRANCH   7  12
ATOM     12  N   UNL A   1      30.676  27.525  25.740  1.00  0.00    -0.326 N 
ATOM     13  C   UNL A   1      30.480  26.999  24.470  1.00  0.00     0.226 C 
ATOM     14  O   UNL A   1      29.339  26.725  24.098  1.00  0.00    -0.275 OA
ATOM     15  H   UNL A   1      29.956  27.376  26.394  1.00  0.00     0.169 HD
BRANCH  13  16
ATOM     16  C   UNL A   1      31.701  26.539  23.648  1.00  0.00     0.125 C 
BRANCH  16  17
ATOM     17  C   UNL A   1      31.560  25.249  22.831  1.00  0.00     0.156 C 
ATOM     18  N   UNL A   1      32.814  23.359  23.667  1.00  0.00    -0.240 N 
ATOM     19  C   UNL A   1      33.745  23.859  22.807  1.00  0.00     0.293 C 
ATOM     20  C   UNL A   1      31.590  24.011  23.737  1.00  0.00     0.248 C 
ATOM     21  O   UNL A   1      34.934  23.601  22.738  1.00  0.00    -0.261 OA
ATOM     22  S   UNL A   1      32.956  24.953  21.741  1.00  0.00    -0.050 SA
ATOM     23  O   UNL A   1      30.652  23.695  24.463  1.00  0.00    -0.273 OA
BRANCH  18  24
ATOM     24  C   UNL A   1      33.076  22.107  24.250  1.00  0.00     0.056 A 
ATOM     25  C   UNL A   1      32.289  18.459  23.472  1.00  0.00     0.044 C 
ATOM     26  C   UNL A   1      32.735  19.700  24.186  1.00  0.00    -0.049 A 
ATOM     27  C   UNL A   1      33.171  19.620  25.513  1.00  0.00     0.004 A 
ATOM     28  C   UNL A   1      32.709  20.948  23.551  1.00  0.00     0.030 A 
ATOM     29  C   UNL A   1      33.517  20.773  26.217  1.00  0.00     0.006 A 
ATOM     30  C   UNL A   1      33.438  22.033  25.610  1.00  0.00    -0.027 A 
ATOM     31  C   UNL A   1      33.699  23.244  26.470  1.00  0.00     0.046 C 
ENDBRANCH  18  24
ENDBRANCH  16  17
ENDBRANCH  13  16
ENDBRANCH   7  12
BRANCH  11  32
ATOM     32  O   UNL A   1      32.828  31.546  27.348  1.00  0.00    -0.507 OA
ATOM     33  H   UNL A   1      33.301  32.175  26.839  1.00  0.00     0.293 HD
ENDBRANCH  11  32
ENDBRANCH   4   6
ENDBRANCH   3   4
ENDBRANCH   2   3
ENDBRANCH   1   2
BRANCH   1  34
ATOM     34  O   UNL A   1      36.217  34.145  29.380  1.00  0.00    -0.374 OA
BRANCH  34  35
ATOM     35  C   UNL A   1      34.807  34.255  29.474  1.00  0.00     0.202 C 
BRANCH  35  36
ATOM     36  C   UNL A   1      34.285  34.221  30.915  1.00  0.00     0.261 C 
BRANCH  36  37
ATOM     37  O   UNL A   1      34.289  32.904  31.509  1.00  0.00    -0.460 OA
BRANCH  37  38
ATOM     38  C   UNL A   1      34.813  32.837  32.766  1.00  0.00     0.338 C 
ATOM     39  O   UNL A   1      34.303  33.345  33.750  1.00  0.00    -0.246 OA
BRANCH  38  40
ATOM     40  C   UNL A   1      36.154  32.189  32.711  1.00  0.00     0.060 A 
ATOM     41  C   UNL A   1      37.309  32.966  32.862  1.00  0.00     0.016 A 
ATOM     42  C   UNL A   1      36.253  30.880  32.237  1.00  0.00     0.016 A 
ATOM     43  C   UNL A   1      38.543  32.468  32.413  1.00  0.00     0.010 A 
ATOM     44  C   UNL A   1      37.455  30.436  31.706  1.00  0.00     0.010 A 
ATOM     45  C   UNL A   1      38.613  31.226  31.760  1.00  0.00    -0.014 A 
BRANCH  45  46
ATOM     46  C   UNL A   1      39.889  30.500  31.560  1.00  0.00     0.031 A 
ATOM     47  C   UNL A   1      40.594  30.455  32.847  1.00  0.00     0.074 A 
ATOM     48  C   UNL A   1      40.448  29.881  30.488  1.00  0.00     0.049 A 
ATOM     49  N   UNL A   1      41.586  31.235  33.129  1.00  0.00    -0.248 NA
ATOM     50  C   UNL A   1      40.036  29.731  34.001  1.00  0.00     0.031 C 
ATOM     51  C   UNL A   1      40.084  30.009  29.092  1.00  0.00     0.029 A 
ATOM     52  N   UNL A   1      41.450  28.929  30.410  1.00  0.00    -0.354 N 
ATOM     53  C   UNL A   1      41.979  30.832  34.383  1.00  0.00     0.074 A 
ATOM     54  C   UNL A   1      40.841  30.169  34.972  1.00  0.00     0.031 C 
ATOM     55  C   UNL A   1      40.581  28.997  28.349  1.00  0.00     0.029 A 
ATOM     56  C   UNL A   1      41.477  28.232  29.192  1.00  0.00     0.049 A 
ATOM     57  H   UNL A   1      42.085  28.757  31.142  1.00  0.00     0.167 HD
ATOM     58  C   UNL A   1      43.302  30.645  34.622  1.00  0.00     0.031 A 
ATOM     59  C   UNL A   1      42.345  27.292  28.725  1.00  0.00     0.031 A 
ATOM     60  C   UNL A   1      44.138  31.269  33.623  1.00  0.00     0.049 A 
ATOM     61  C   UNL A   1      43.662  27.671  29.237  1.00  0.00     0.074 A 
ATOM     62  C   UNL A   1      44.438  32.561  33.246  1.00  0.00     0.029 A 
ATOM     63  N   UNL A   1      44.477  30.455  32.570  1.00  0.00    -0.354 N 
ATOM     64  N   UNL A   1      44.299  28.720  28.803  1.00  0.00    -0.248 NA
ATOM     65  C   UNL A   1      44.133  27.111  30.494  1.00  0.00     0.031 C 
ATOM     66  C   UNL A   1      44.879  32.504  31.891  1.00  0.00     0.029 A 
ATOM     67  C   UNL A   1      44.864  31.179  31.470  1.00  0.00     0.049 A 
ATOM     68  H   UNL A   1      44.448  29.471  32.602  1.00  0.00     0.167 HD
ATOM     69  C   UNL A   1      44.872  29.230  29.948  1.00  0.00     0.074 A 
ATOM     70  C   UNL A   1      44.916  28.117  30.888  1.00  0.00     0.031 C 
ATOM     71  C   UNL A   1      44.937  30.574  30.154  1.00  0.00     0.031 A 
BRANCH  58  72
ATOM     72  C   UNL A   1      43.775  29.477  35.439  1.00  0.00    -0.014 A 
ATOM     73  C   UNL A   1      43.392  28.182  35.066  1.00  0.00     0.010 A 
ATOM     74  C   UNL A   1      44.394  29.633  36.702  1.00  0.00     0.010 A 
ATOM     75  C   UNL A   1      43.637  27.094  35.913  1.00  0.00     0.020 A 
ATOM     76  C   UNL A   1      44.689  28.556  37.527  1.00  0.00     0.020 A 
ATOM     77  C   UNL A   1      44.290  27.290  37.135  1.00  0.00     0.054 A 
BRANCH  77  78
ATOM     78  S   UNL A   1      44.579  25.888  38.234  1.00  0.00     0.124 S 
ATOM     79  O   UNL A   1      46.037  25.809  38.240  1.00  0.00    -0.237 OA
ATOM     80  O   UNL A   1      43.959  26.336  39.476  1.00  0.00    -0.237 OA
ATOM     81  O   UNL A   1      43.894  24.785  37.565  1.00  0.00    -0.744 OA
ENDBRANCH  77  78
ENDBRANCH  58  72
BRANCH  59  82
ATOM     82  C   UNL A   1      42.109  26.070  27.915  1.00  0.00    -0.014 A 
ATOM     83  C   UNL A   1      43.116  25.386  27.216  1.00  0.00     0.010 A 
ATOM     84  C   UNL A   1      40.907  25.385  28.103  1.00  0.00     0.010 A 
ATOM     85  C   UNL A   1      42.947  24.037  26.827  1.00  0.00     0.020 A 
ATOM     86  C   UNL A   1      40.716  24.049  27.729  1.00  0.00     0.020 A 
ATOM     87  C   UNL A   1      41.756  23.365  27.119  1.00  0.00     0.054 A 
BRANCH  87  88
ATOM     88  S   UNL A   1      41.624  21.568  26.860  1.00  0.00     0.124 S 
ATOM     89  O   UNL A   1      42.372  21.032  27.992  1.00  0.00    -0.237 OA
ATOM     90  O   UNL A   1      40.181  21.344  26.894  1.00  0.00    -0.237 OA
ATOM     91  O   UNL A   1      42.243  21.363  25.550  1.00  0.00    -0.744 OA
ENDBRANCH  87  88
ENDBRANCH  59  82
BRANCH  71  92
ATOM     92  C   UNL A   1      44.956  31.464  28.938  1.00  0.00    -0.014 A 
ATOM     93  C   UNL A   1      46.125  31.930  28.307  1.00  0.00     0.010 A 
ATOM     94  C   UNL A   1      43.713  31.815  28.386  1.00  0.00     0.010 A 
ATOM     95  C   UNL A   1      46.047  32.739  27.160  1.00  0.00     0.020 A 
ATOM     96  C   UNL A   1      43.627  32.605  27.238  1.00  0.00     0.020 A 
ATOM     97  C   UNL A   1      44.795  33.070  26.633  1.00  0.00     0.054 A 
BRANCH  97  98
ATOM     98  S   UNL A   1      44.693  34.074  25.124  1.00  0.00     0.124 S 
ATOM     99  O   UNL A   1      46.069  34.531  24.950  1.00  0.00    -0.237 OA
ATOM    100  O   UNL A   1      44.219  33.117  24.126  1.00  0.00    -0.237 OA
ATOM    101  O   UNL A   1      43.732  35.123  25.466  1.00  0.00    -0.744 OA
ENDBRANCH  97  98
ENDBRANCH  71  92
ENDBRANCH  45  46
ENDBRANCH  38  40
ENDBRANCH  37  38
ENDBRANCH  36  37
ENDBRANCH  35  36
ENDBRANCH  34  35
ENDBRANCH   1  34
TORSDOF 22
ENDMDL
MODEL 3
REMARK VINA RESULT:     -11.1      2.630     10.065
REMARK SMILES Cc1ccc(C)c(N2C(=O)S[C@H](CC(=O)Nc3ccc(C(=O)OCCOCCOC(=O)c4ccc(-c5c6nc(c(-c7ccc(S(=O)(=O)[O-])cc7)c7ccc([nH]7)c(-c7ccc(S(=O)(=O)[O-])cc7)c7nc(c(-c8ccc(S(=O)(=O)[O-])cc8)c8ccc5[nH]8)C=C7)C=C6)cc4)c(O)c3)C2=O)c1
REMARK SMILES IDX 25 1 24 2 23 3 21 4 22 5 20 6 17 7 18 8 94 9 19 10 92 11
REMARK SMILES IDX 16 12 14 13 15 14 13 16 12 17 8 18 9 19 95 20 10 21 11 22
REMARK SMILES IDX 96 23 7 24 1 25 2 26 3 27 97 28 4 29 5 30 6 31 93 32 26 34
REMARK SMILES IDX 27 35 28 36 29 37 30 38 31 39 32 40 33 41 91 42 34 43 90 44
REMARK SMILES IDX 35 45 36 46 37 47 84 48 38 49 89 50 83 51 85 52 39 53 88 54
REMARK SMILES IDX 82 55 81 56 40 58 70 59 51 60 69 61 52 62 55 63 68 64 86 65
REMARK SMILES IDX 53 66 54 67 67 69 87 70 56 71 41 72 42 73 50 74 43 75 49 76
REMARK SMILES IDX 44 77 45 78 46 79 47 80 48 81 71 82 72 83 80 84 73 85 79 86
REMARK SMILES IDX 74 87 75 88 76 89 77 90 78 91 57 92 58 93 66 94 59 95 65 96
REMARK SMILES IDX 60 97 61 98 62 99 63 100 64 101
REMARK H PARENT 16 15 93 33 85 57 55 68
REMARK Flexibility Score: inf
ROOT
ATOM      1  C   UNL A   1      34.736  32.564  27.847  1.00  0.00     0.202 C 
ENDROOT
BRANCH   1   2
ATOM      2  C   UNL A   1      33.799  31.371  28.090  1.00  0.00     0.261 C 
BRANCH   2   3
ATOM      3  O   UNL A   1      33.751  30.606  26.864  1.00  0.00    -0.460 OA
BRANCH   3   4
ATOM      4  C   UNL A   1      32.462  30.316  26.540  1.00  0.00     0.341 C 
ATOM      5  O   UNL A   1      31.528  31.044  26.741  1.00  0.00    -0.246 OA
BRANCH   4   6
ATOM      6  C   UNL A   1      32.341  29.048  25.783  1.00  0.00     0.101 A 
ATOM      7  C   UNL A   1      32.043  26.502  24.633  1.00  0.00     0.044 A 
ATOM      8  C   UNL A   1      31.641  26.763  25.925  1.00  0.00     0.027 A 
ATOM      9  C   UNL A   1      32.732  27.498  23.944  1.00  0.00     0.073 A 
ATOM     10  C   UNL A   1      31.653  28.040  26.444  1.00  0.00     0.022 A 
ATOM     11  C   UNL A   1      32.891  28.770  24.530  1.00  0.00     0.132 A 
BRANCH   7  12
ATOM     12  N   UNL A   1      31.773  25.229  24.102  1.00  0.00    -0.326 N 
ATOM     13  C   UNL A   1      32.703  24.281  23.699  1.00  0.00     0.226 C 
ATOM     14  O   UNL A   1      32.359  23.385  22.928  1.00  0.00    -0.275 OA
ATOM     15  H   UNL A   1      30.825  24.984  24.007  1.00  0.00     0.169 HD
BRANCH  13  16
ATOM     16  C   UNL A   1      34.071  24.217  24.408  1.00  0.00     0.125 C 
BRANCH  16  17
ATOM     17  C   UNL A   1      34.316  23.049  25.371  1.00  0.00     0.156 C 
ATOM     18  N   UNL A   1      33.255  20.967  24.752  1.00  0.00    -0.240 N 
ATOM     19  C   UNL A   1      32.268  21.472  25.541  1.00  0.00     0.293 C 
ATOM     20  C   UNL A   1      34.416  21.718  24.614  1.00  0.00     0.248 C 
ATOM     21  O   UNL A   1      31.106  21.114  25.631  1.00  0.00    -0.261 OA
ATOM     22  S   UNL A   1      32.933  22.751  26.478  1.00  0.00    -0.050 SA
ATOM     23  O   UNL A   1      35.392  21.409  23.937  1.00  0.00    -0.273 OA
BRANCH  18  24
ATOM     24  C   UNL A   1      33.120  19.637  24.316  1.00  0.00     0.056 A 
ATOM     25  C   UNL A   1      34.701  16.267  25.141  1.00  0.00     0.044 C 
ATOM     26  C   UNL A   1      33.904  17.339  24.460  1.00  0.00    -0.049 A 
ATOM     27  C   UNL A   1      33.241  17.056  23.261  1.00  0.00     0.004 A 
ATOM     28  C   UNL A   1      33.823  18.630  24.995  1.00  0.00     0.030 A 
ATOM     29  C   UNL A   1      32.559  18.060  22.573  1.00  0.00     0.006 A 
ATOM     30  C   UNL A   1      32.521  19.369  23.069  1.00  0.00    -0.027 A 
ATOM     31  C   UNL A   1      31.880  20.428  22.207  1.00  0.00     0.046 C 
ENDBRANCH  18  24
ENDBRANCH  16  17
ENDBRANCH  13  16
ENDBRANCH   7  12
BRANCH  11  32
ATOM     32  O   UNL A   1      33.589  29.702  23.813  1.00  0.00    -0.507 OA
ATOM     33  H   UNL A   1      34.074  29.443  23.055  1.00  0.00     0.293 HD
ENDBRANCH  11  32
ENDBRANCH   4   6
ENDBRANCH   3   4
ENDBRANCH   2   3
ENDBRANCH   1   2
BRANCH   1  34
ATOM     34  O   UNL A   1      34.785  33.354  29.030  1.00  0.00    -0.374 OA
BRANCH  34  35
ATOM     35  C   UNL A   1      33.982  34.521  29.080  1.00  0.00     0.202 C 
BRANCH  35  36
ATOM     36  C   UNL A   1      33.864  35.122  30.486  1.00  0.00     0.261 C 
BRANCH  36  37
ATOM     37  O   UNL A   1      33.828  34.139  31.543  1.00  0.00    -0.460 OA
BRANCH  37  38
ATOM     38  C   UNL A   1      34.852  34.215  32.441  1.00  0.00     0.338 C 
ATOM     39  O   UNL A   1      34.907  35.024  33.352  1.00  0.00    -0.246 OA
BRANCH  38  40
ATOM     40  C   UNL A   1      35.936  33.274  32.040  1.00  0.00     0.060 A 
ATOM     41  C   UNL A   1      35.736  31.893  32.154  1.00  0.00     0.016 A 
ATOM     42  C   UNL A   1      37.220  33.776  31.822  1.00  0.00     0.016 A 
ATOM     43  C   UNL A   1      36.845  31.032  32.180  1.00  0.00     0.010 A 
ATOM     44  C   UNL A   1      38.313  32.931  31.948  1.00  0.00     0.010 A 
ATOM     45  C   UNL A   1      38.149  31.552  32.154  1.00  0.00    -0.014 A 
BRANCH  45  46
ATOM     46  C   UNL A   1      39.336  30.719  31.849  1.00  0.00     0.031 A 
ATOM     47  C   UNL A   1      40.099  30.541  33.091  1.00  0.00     0.074 A 
ATOM     48  C   UNL A   1      39.776  30.106  30.720  1.00  0.00     0.049 A 
ATOM     49  N   UNL A   1      41.175  31.208  33.353  1.00  0.00    -0.248 NA
ATOM     50  C   UNL A   1      39.533  29.815  34.239  1.00  0.00     0.031 C 
ATOM     51  C   UNL A   1      39.356  30.340  29.354  1.00  0.00     0.029 A 
ATOM     52  N   UNL A   1      40.675  29.069  30.542  1.00  0.00    -0.354 N 
ATOM     53  C   UNL A   1      41.591  30.705  34.563  1.00  0.00     0.074 A 
ATOM     54  C   UNL A   1      40.425  30.124  35.183  1.00  0.00     0.031 C 
ATOM     55  C   UNL A   1      39.713  29.326  28.538  1.00  0.00     0.029 A 
ATOM     56  C   UNL A   1      40.572  28.436  29.293  1.00  0.00     0.049 A 
ATOM     57  H   UNL A   1      41.328  28.800  31.228  1.00  0.00     0.167 HD
ATOM     58  C   UNL A   1      42.900  30.382  34.719  1.00  0.00     0.031 A 
ATOM     59  C   UNL A   1      41.319  27.444  28.735  1.00  0.00     0.031 A 
ATOM     60  C   UNL A   1      43.740  30.974  33.705  1.00  0.00     0.049 A 
ATOM     61  C   UNL A   1      42.692  27.669  29.190  1.00  0.00     0.074 A 
ATOM     62  C   UNL A   1      44.146  32.249  33.372  1.00  0.00     0.029 A 
ATOM     63  N   UNL A   1      43.944  30.187  32.597  1.00  0.00    -0.354 N 
ATOM     64  N   UNL A   1      43.405  28.674  28.770  1.00  0.00    -0.248 NA
ATOM     65  C   UNL A   1      43.169  27.002  30.390  1.00  0.00     0.031 C 
ATOM     66  C   UNL A   1      44.508  32.221  31.993  1.00  0.00     0.029 A 
ATOM     67  C   UNL A   1      44.343  30.927  31.512  1.00  0.00     0.049 A 
ATOM     68  H   UNL A   1      43.821  29.210  32.585  1.00  0.00     0.167 HD
ATOM     69  C   UNL A   1      44.083  29.067  29.903  1.00  0.00     0.074 A 
ATOM     70  C   UNL A   1      44.066  27.909  30.787  1.00  0.00     0.031 C 
ATOM     71  C   UNL A   1      44.289  30.387  30.167  1.00  0.00     0.031 A 
BRANCH  58  72
ATOM     72  C   UNL A   1      43.298  29.133  35.453  1.00  0.00    -0.014 A 
ATOM     73  C   UNL A   1      43.957  29.244  36.684  1.00  0.00     0.010 A 
ATOM     74  C   UNL A   1      43.253  27.852  34.853  1.00  0.00     0.010 A 
ATOM     75  C   UNL A   1      44.525  28.118  37.293  1.00  0.00     0.020 A 
ATOM     76  C   UNL A   1      43.766  26.720  35.472  1.00  0.00     0.020 A 
ATOM     77  C   UNL A   1      44.418  26.864  36.684  1.00  0.00     0.054 A 
BRANCH  77  78
ATOM     78  S   UNL A   1      45.175  25.421  37.461  1.00  0.00     0.124 S 
ATOM     79  O   UNL A   1      44.470  24.324  36.805  1.00  0.00    -0.237 OA
ATOM     80  O   UNL A   1      46.581  25.580  37.106  1.00  0.00    -0.237 OA
ATOM     81  O   UNL A   1      44.873  25.601  38.880  1.00  0.00    -0.744 OA
ENDBRANCH  77  78
ENDBRANCH  58  72
BRANCH  59  82
ATOM     82  C   UNL A   1      40.924  26.293  27.883  1.00  0.00    -0.014 A 
ATOM     83  C   UNL A   1      41.782  25.664  26.967  1.00  0.00     0.010 A 
ATOM     84  C   UNL A   1      39.760  25.600  28.223  1.00  0.00     0.010 A 
ATOM     85  C   UNL A   1      41.523  24.353  26.507  1.00  0.00     0.020 A 
ATOM     86  C   UNL A   1      39.483  24.299  27.782  1.00  0.00     0.020 A 
ATOM     87  C   UNL A   1      40.389  23.664  26.948  1.00  0.00     0.054 A 
BRANCH  87  88
ATOM     88  S   UNL A   1      40.181  21.895  26.573  1.00  0.00     0.124 S 
ATOM     89  O   UNL A   1      38.804  21.835  26.091  1.00  0.00    -0.237 OA
ATOM     90  O   UNL A   1      41.213  21.655  25.569  1.00  0.00    -0.237 OA
ATOM     91  O   UNL A   1      40.419  21.241  27.861  1.00  0.00    -0.744 OA
ENDBRANCH  87  88
ENDBRANCH  59  82
BRANCH  71  92
ATOM     92  C   UNL A   1      44.333  31.332  28.995  1.00  0.00    -0.014 A 
ATOM     93  C   UNL A   1      43.555  32.500  28.881  1.00  0.00     0.010 A 
ATOM     94  C   UNL A   1      45.245  31.033  27.969  1.00  0.00     0.010 A 
ATOM     95  C   UNL A   1      43.679  33.338  27.759  1.00  0.00     0.020 A 
ATOM     96  C   UNL A   1      45.385  31.869  26.859  1.00  0.00     0.020 A 
ATOM     97  C   UNL A   1      44.597  33.015  26.755  1.00  0.00     0.054 A 
BRANCH  97  98
ATOM     98  S   UNL A   1      44.794  34.121  25.329  1.00  0.00     0.124 S 
ATOM     99  O   UNL A   1      46.245  34.230  25.206  1.00  0.00    -0.237 OA
ATOM    100  O   UNL A   1      44.125  33.391  24.254  1.00  0.00    -0.237 OA
ATOM    101  O   UNL A   1      44.116  35.350  25.744  1.00  0.00    -0.744 OA
ENDBRANCH  97  98
ENDBRANCH  71  92
ENDBRANCH  45  46
ENDBRANCH  38  40
ENDBRANCH  37  38
ENDBRANCH  36  37
ENDBRANCH  35  36
ENDBRANCH  34  35
ENDBRANCH   1  34
TORSDOF 22
ENDMDL
