MODEL 1
REMARK VINA RESULT:     -11.7      0.000      0.000
REMARK SMILES O=C(OCCOCCOC(=O)[C@H]1CC=CC[C@@H]1C(=O)N[C@@H]1CCCN(c2ccccc2F)C1=O)c1ccc(-c2c3nc(c(-c4ccc(S(=O)(=O)[O-])cc4)c4ccc([nH]4)c(-c4ccc(S(=O)(=O)[O-])cc4)c4nc(c(-c5ccc(S(=O)(=O)[O-])cc5)c5ccc2[nH]5)C=C4)C=C3)cc1
REMARK SMILES IDX 6 1 5 2 4 3 3 4 2 5 1 6 35 7 36 8 94 9 37 10 93 11 38 12
REMARK SMILES IDX 39 13 40 14 87 15 41 16 92 17 86 18 88 19 42 20 91 21 85 22
REMARK SMILES IDX 84 23 43 25 73 26 54 27 72 28 55 29 58 30 71 31 89 32 56 33
REMARK SMILES IDX 57 34 70 36 90 37 59 38 44 39 45 40 53 41 46 42 52 43 47 44
REMARK SMILES IDX 48 45 49 46 50 47 51 48 74 49 75 50 83 51 76 52 82 53 77 54
REMARK SMILES IDX 78 55 79 56 80 57 81 58 60 59 61 60 69 61 62 62 68 63 63 64
REMARK SMILES IDX 64 65 65 66 66 67 67 68 7 69 8 70 9 71 10 72 11 73 12 74
REMARK SMILES IDX 13 75 17 76 14 77 16 78 15 79 18 80 19 81 20 82 21 84 22 85
REMARK SMILES IDX 33 86 23 87 25 88 34 89 24 90 26 91 27 92 31 93 28 94 30 95
REMARK SMILES IDX 32 96 29 97
REMARK H PARENT 88 24 58 35 20 83
REMARK Flexibility Score: inf
ROOT
ATOM      1  O   UNL A   1      37.731  22.244  25.554  1.00  0.00    -0.374 OA
ENDROOT
BRANCH   1   2
ATOM      2  C   UNL A   1      38.921  21.487  25.751  1.00  0.00     0.202 C 
BRANCH   2   3
ATOM      3  C   UNL A   1      39.902  22.218  26.672  1.00  0.00     0.261 C 
BRANCH   3   4
ATOM      4  O   UNL A   1      39.734  23.639  26.564  1.00  0.00    -0.460 OA
BRANCH   4   5
ATOM      5  C   UNL A   1      40.770  24.524  26.626  1.00  0.00     0.338 C 
ATOM      6  O   UNL A   1      41.609  24.548  25.740  1.00  0.00    -0.246 OA
BRANCH   5   7
ATOM      7  C   UNL A   1      40.754  25.618  27.646  1.00  0.00     0.060 A 
ATOM      8  C   UNL A   1      41.661  26.683  27.702  1.00  0.00     0.016 A 
ATOM      9  C   UNL A   1      39.689  25.596  28.558  1.00  0.00     0.016 A 
ATOM     10  C   UNL A   1      41.564  27.660  28.684  1.00  0.00     0.010 A 
ATOM     11  C   UNL A   1      39.555  26.603  29.515  1.00  0.00     0.010 A 
ATOM     12  C   UNL A   1      40.504  27.631  29.586  1.00  0.00    -0.014 A 
BRANCH  12  13
ATOM     13  C   UNL A   1      40.434  28.658  30.640  1.00  0.00     0.031 A 
ATOM     14  C   UNL A   1      41.416  28.592  31.766  1.00  0.00     0.074 A 
ATOM     15  C   UNL A   1      39.536  29.654  30.535  1.00  0.00     0.049 A 
ATOM     16  N   UNL A   1      41.456  29.288  32.868  1.00  0.00    -0.248 NA
ATOM     17  C   UNL A   1      42.503  27.605  31.631  1.00  0.00     0.031 C 
ATOM     18  C   UNL A   1      38.622  29.852  29.405  1.00  0.00     0.029 A 
ATOM     19  N   UNL A   1      39.253  30.695  31.377  1.00  0.00    -0.354 N 
ATOM     20  C   UNL A   1      42.541  28.793  33.580  1.00  0.00     0.074 A 
ATOM     21  C   UNL A   1      43.139  27.746  32.784  1.00  0.00     0.031 C 
ATOM     22  C   UNL A   1      37.895  30.961  29.617  1.00  0.00     0.029 A 
ATOM     23  C   UNL A   1      38.233  31.502  30.928  1.00  0.00     0.049 A 
ATOM     24  H   UNL A   1      39.733  30.852  32.222  1.00  0.00     0.167 HD
ATOM     25  C   UNL A   1      42.977  29.174  34.803  1.00  0.00     0.031 A 
ATOM     26  C   UNL A   1      37.616  32.532  31.538  1.00  0.00     0.031 A 
ATOM     27  C   UNL A   1      42.341  30.214  35.566  1.00  0.00     0.049 A 
ATOM     28  C   UNL A   1      38.070  32.891  32.926  1.00  0.00     0.074 A 
ATOM     29  C   UNL A   1      42.628  30.653  36.844  1.00  0.00     0.029 A 
ATOM     30  N   UNL A   1      41.279  30.983  35.103  1.00  0.00    -0.354 N 
ATOM     31  N   UNL A   1      39.040  32.360  33.636  1.00  0.00    -0.248 NA
ATOM     32  C   UNL A   1      37.343  33.968  33.604  1.00  0.00     0.031 C 
ATOM     33  C   UNL A   1      41.713  31.663  37.167  1.00  0.00     0.029 A 
ATOM     34  C   UNL A   1      40.891  31.889  36.071  1.00  0.00     0.049 A 
ATOM     35  H   UNL A   1      40.864  30.894  34.214  1.00  0.00     0.167 HD
ATOM     36  C   UNL A   1      39.047  33.045  34.844  1.00  0.00     0.074 A 
ATOM     37  C   UNL A   1      37.996  34.042  34.757  1.00  0.00     0.031 C 
ATOM     38  C   UNL A   1      39.839  32.866  35.930  1.00  0.00     0.031 A 
BRANCH  25  39
ATOM     39  C   UNL A   1      44.120  28.396  35.397  1.00  0.00    -0.014 A 
ATOM     40  C   UNL A   1      43.903  27.302  36.255  1.00  0.00     0.010 A 
ATOM     41  C   UNL A   1      45.440  28.802  35.131  1.00  0.00     0.010 A 
ATOM     42  C   UNL A   1      44.982  26.666  36.879  1.00  0.00     0.020 A 
ATOM     43  C   UNL A   1      46.523  28.154  35.733  1.00  0.00     0.020 A 
ATOM     44  C   UNL A   1      46.285  27.105  36.623  1.00  0.00     0.054 A 
BRANCH  44  45
ATOM     45  S   UNL A   1      47.667  26.286  37.467  1.00  0.00     0.124 S 
ATOM     46  O   UNL A   1      47.578  24.926  36.939  1.00  0.00    -0.237 OA
ATOM     47  O   UNL A   1      48.822  27.059  37.019  1.00  0.00    -0.237 OA
ATOM     48  O   UNL A   1      47.339  26.425  38.884  1.00  0.00    -0.744 OA
ENDBRANCH  44  45
ENDBRANCH  25  39
BRANCH  26  49
ATOM     49  C   UNL A   1      36.484  33.234  30.869  1.00  0.00    -0.014 A 
ATOM     50  C   UNL A   1      35.199  33.242  31.439  1.00  0.00     0.010 A 
ATOM     51  C   UNL A   1      36.692  33.927  29.661  1.00  0.00     0.010 A 
ATOM     52  C   UNL A   1      34.147  33.920  30.812  1.00  0.00     0.020 A 
ATOM     53  C   UNL A   1      35.651  34.630  29.046  1.00  0.00     0.020 A 
ATOM     54  C   UNL A   1      34.381  34.612  29.620  1.00  0.00     0.054 A 
BRANCH  54  55
ATOM     55  S   UNL A   1      33.014  35.529  28.851  1.00  0.00     0.124 S 
ATOM     56  O   UNL A   1      32.369  34.496  28.047  1.00  0.00    -0.237 OA
ATOM     57  O   UNL A   1      32.255  35.999  30.007  1.00  0.00    -0.237 OA
ATOM     58  O   UNL A   1      33.691  36.579  28.093  1.00  0.00    -0.744 OA
ENDBRANCH  54  55
ENDBRANCH  26  49
BRANCH  38  59
ATOM     59  C   UNL A   1      39.615  33.794  37.089  1.00  0.00    -0.014 A 
ATOM     60  C   UNL A   1      38.983  33.351  38.263  1.00  0.00     0.010 A 
ATOM     61  C   UNL A   1      40.114  35.108  37.022  1.00  0.00     0.010 A 
ATOM     62  C   UNL A   1      38.833  34.216  39.346  1.00  0.00     0.020 A 
ATOM     63  C   UNL A   1      39.987  35.967  38.114  1.00  0.00     0.020 A 
ATOM     64  C   UNL A   1      39.337  35.518  39.265  1.00  0.00     0.054 A 
BRANCH  64  65
ATOM     65  S   UNL A   1      39.186  36.605  40.708  1.00  0.00     0.124 S 
ATOM     66  O   UNL A   1      40.477  36.418  41.364  1.00  0.00    -0.237 OA
ATOM     67  O   UNL A   1      38.974  37.917  40.101  1.00  0.00    -0.237 OA
ATOM     68  O   UNL A   1      38.034  36.066  41.428  1.00  0.00    -0.744 OA
ENDBRANCH  64  65
ENDBRANCH  38  59
ENDBRANCH  12  13
ENDBRANCH   5   7
ENDBRANCH   4   5
ENDBRANCH   3   4
ENDBRANCH   2   3
ENDBRANCH   1   2
BRANCH   1  69
ATOM     69  C   UNL A   1      36.837  21.732  24.577  1.00  0.00     0.202 C 
BRANCH  69  70
ATOM     70  C   UNL A   1      36.406  22.782  23.557  1.00  0.00     0.261 C 
BRANCH  70  71
ATOM     71  O   UNL A   1      34.977  22.981  23.538  1.00  0.00    -0.463 OA
BRANCH  71  72
ATOM     72  C   UNL A   1      34.498  23.808  24.518  1.00  0.00     0.310 C 
ATOM     73  O   UNL A   1      35.160  24.674  25.074  1.00  0.00    -0.252 OA
BRANCH  72  74
ATOM     74  C   UNL A   1      33.035  23.502  24.817  1.00  0.00     0.115 C 
ATOM     75  C   UNL A   1      32.667  22.087  24.359  1.00  0.00     0.043 C 
ATOM     76  C   UNL A   1      32.708  23.763  26.295  1.00  0.00     0.097 C 
ATOM     77  C   UNL A   1      33.083  21.027  25.323  1.00  0.00    -0.030 C 
ATOM     78  C   UNL A   1      33.373  22.675  27.193  1.00  0.00     0.041 C 
ATOM     79  C   UNL A   1      33.419  21.296  26.590  1.00  0.00    -0.030 C 
BRANCH  76  80
ATOM     80  C   UNL A   1      31.210  23.852  26.581  1.00  0.00     0.224 C 
ATOM     81  O   UNL A   1      30.703  23.246  27.530  1.00  0.00    -0.275 OA
ATOM     82  N   UNL A   1      30.342  24.585  25.843  1.00  0.00    -0.344 N 
ATOM     83  H   UNL A   1      29.488  24.111  25.718  1.00  0.00     0.164 HD
BRANCH  82  84
ATOM     84  C   UNL A   1      30.331  25.900  25.177  1.00  0.00     0.172 C 
ATOM     85  C   UNL A   1      30.531  25.977  23.674  1.00  0.00     0.037 C 
ATOM     86  C   UNL A   1      31.191  26.878  26.029  1.00  0.00     0.249 C 
ATOM     87  C   UNL A   1      30.697  27.416  23.220  1.00  0.00     0.025 C 
ATOM     88  N   UNL A   1      31.763  27.966  25.365  1.00  0.00    -0.308 N 
ATOM     89  O   UNL A   1      31.159  26.770  27.260  1.00  0.00    -0.272 OA
ATOM     90  C   UNL A   1      31.907  27.997  23.913  1.00  0.00     0.126 C 
BRANCH  88  91
ATOM     91  C   UNL A   1      32.425  28.997  26.096  1.00  0.00     0.080 A 
ATOM     92  C   UNL A   1      31.778  30.229  26.278  1.00  0.00     0.029 A 
ATOM     93  C   UNL A   1      33.706  28.828  26.636  1.00  0.00     0.146 A 
ATOM     94  C   UNL A   1      32.394  31.258  26.995  1.00  0.00     0.002 A 
ATOM     95  C   UNL A   1      34.327  29.857  27.344  1.00  0.00     0.041 A 
ATOM     96  F   UNL A   1      34.409  27.711  26.400  1.00  0.00    -0.205 F 
ATOM     97  C   UNL A   1      33.669  31.073  27.528  1.00  0.00     0.003 A 
ENDBRANCH  88  91
ENDBRANCH  82  84
ENDBRANCH  76  80
ENDBRANCH  72  74
ENDBRANCH  71  72
ENDBRANCH  70  71
ENDBRANCH  69  70
ENDBRANCH   1  69
TORSDOF 20
ENDMDL
MODEL 2
REMARK VINA RESULT:     -11.5      6.346     11.389
REMARK SMILES O=C(OCCOCCOC(=O)[C@H]1CC=CC[C@@H]1C(=O)N[C@@H]1CCCN(c2ccccc2F)C1=O)c1ccc(-c2c3nc(c(-c4ccc(S(=O)(=O)[O-])cc4)c4ccc([nH]4)c(-c4ccc(S(=O)(=O)[O-])cc4)c4nc(c(-c5ccc(S(=O)(=O)[O-])cc5)c5ccc2[nH]5)C=C4)C=C3)cc1
REMARK SMILES IDX 6 1 5 2 4 3 3 4 2 5 1 6 35 7 36 8 94 9 37 10 93 11 38 12
REMARK SMILES IDX 39 13 40 14 87 15 41 16 92 17 86 18 88 19 42 20 91 21 85 22
REMARK SMILES IDX 84 23 43 25 73 26 54 27 72 28 55 29 58 30 71 31 89 32 56 33
REMARK SMILES IDX 57 34 70 36 90 37 59 38 44 39 45 40 53 41 46 42 52 43 47 44
REMARK SMILES IDX 48 45 49 46 50 47 51 48 74 49 75 50 83 51 76 52 82 53 77 54
REMARK SMILES IDX 78 55 79 56 80 57 81 58 60 59 61 60 69 61 62 62 68 63 63 64
REMARK SMILES IDX 64 65 65 66 66 67 67 68 7 69 8 70 9 71 10 72 11 73 12 74
REMARK SMILES IDX 13 75 17 76 14 77 16 78 15 79 18 80 19 81 20 82 21 84 22 85
REMARK SMILES IDX 33 86 23 87 25 88 34 89 24 90 26 91 27 92 31 93 28 94 30 95
REMARK SMILES IDX 32 96 29 97
REMARK H PARENT 88 24 58 35 20 83
REMARK Flexibility Score: inf
ROOT
ATOM      1  O   UNL A   1      33.430  30.305  26.608  1.00  0.00    -0.374 OA
ENDROOT
BRANCH   1   2
ATOM      2  C   UNL A   1      33.723  31.209  27.668  1.00  0.00     0.202 C 
BRANCH   2   3
ATOM      3  C   UNL A   1      35.230  31.296  27.928  1.00  0.00     0.261 C 
BRANCH   3   4
ATOM      4  O   UNL A   1      35.707  30.088  28.538  1.00  0.00    -0.460 OA
BRANCH   4   5
ATOM      5  C   UNL A   1      36.646  30.067  29.528  1.00  0.00     0.338 C 
ATOM      6  O   UNL A   1      36.304  30.128  30.697  1.00  0.00    -0.246 OA
BRANCH   5   7
ATOM      7  C   UNL A   1      38.067  29.734  29.198  1.00  0.00     0.060 A 
ATOM      8  C   UNL A   1      39.049  29.381  30.130  1.00  0.00     0.016 A 
ATOM      9  C   UNL A   1      38.394  29.704  27.835  1.00  0.00     0.016 A 
ATOM     10  C   UNL A   1      40.345  29.079  29.731  1.00  0.00     0.010 A 
ATOM     11  C   UNL A   1      39.680  29.353  27.423  1.00  0.00     0.010 A 
ATOM     12  C   UNL A   1      40.662  29.052  28.376  1.00  0.00    -0.014 A 
BRANCH  12  13
ATOM     13  C   UNL A   1      42.048  28.761  27.972  1.00  0.00     0.031 A 
ATOM     14  C   UNL A   1      42.393  27.364  27.563  1.00  0.00     0.074 A 
ATOM     15  C   UNL A   1      42.949  29.759  27.924  1.00  0.00     0.049 A 
ATOM     16  N   UNL A   1      43.561  26.842  27.311  1.00  0.00    -0.248 NA
ATOM     17  C   UNL A   1      41.265  26.427  27.417  1.00  0.00     0.031 C 
ATOM     18  C   UNL A   1      42.659  31.172  28.196  1.00  0.00     0.029 A 
ATOM     19  N   UNL A   1      44.282  29.747  27.616  1.00  0.00    -0.354 N 
ATOM     20  C   UNL A   1      43.316  25.505  27.024  1.00  0.00     0.074 A 
ATOM     21  C   UNL A   1      41.889  25.297  27.122  1.00  0.00     0.031 C 
ATOM     22  C   UNL A   1      43.779  31.891  28.020  1.00  0.00     0.029 A 
ATOM     23  C   UNL A   1      44.876  30.985  27.706  1.00  0.00     0.049 A 
ATOM     24  H   UNL A   1      44.769  28.932  27.354  1.00  0.00     0.167 HD
ATOM     25  C   UNL A   1      44.216  24.539  26.728  1.00  0.00     0.031 A 
ATOM     26  C   UNL A   1      46.173  31.329  27.592  1.00  0.00     0.031 A 
ATOM     27  C   UNL A   1      45.630  24.790  26.655  1.00  0.00     0.049 A 
ATOM     28  C   UNL A   1      47.165  30.227  27.333  1.00  0.00     0.074 A 
ATOM     29  C   UNL A   1      46.661  23.897  26.437  1.00  0.00     0.029 A 
ATOM     30  N   UNL A   1      46.207  26.047  26.797  1.00  0.00    -0.354 N 
ATOM     31  N   UNL A   1      46.940  28.945  27.152  1.00  0.00    -0.248 NA
ATOM     32  C   UNL A   1      48.580  30.607  27.282  1.00  0.00     0.031 C 
ATOM     33  C   UNL A   1      47.865  24.610  26.487  1.00  0.00     0.029 A 
ATOM     34  C   UNL A   1      47.581  25.955  26.681  1.00  0.00     0.049 A 
ATOM     35  H   UNL A   1      45.709  26.881  26.957  1.00  0.00     0.167 HD
ATOM     36  C   UNL A   1      48.185  28.364  26.955  1.00  0.00     0.074 A 
ATOM     37  C   UNL A   1      49.156  29.440  27.020  1.00  0.00     0.031 C 
ATOM     38  C   UNL A   1      48.503  27.062  26.748  1.00  0.00     0.031 A 
BRANCH  25  39
ATOM     39  C   UNL A   1      43.690  23.139  26.563  1.00  0.00    -0.014 A 
ATOM     40  C   UNL A   1      43.003  22.480  27.599  1.00  0.00     0.010 A 
ATOM     41  C   UNL A   1      43.935  22.449  25.361  1.00  0.00     0.010 A 
ATOM     42  C   UNL A   1      42.622  21.141  27.457  1.00  0.00     0.020 A 
ATOM     43  C   UNL A   1      43.535  21.119  25.206  1.00  0.00     0.020 A 
ATOM     44  C   UNL A   1      42.902  20.466  26.265  1.00  0.00     0.054 A 
BRANCH  44  45
ATOM     45  S   UNL A   1      42.426  18.721  26.114  1.00  0.00     0.124 S 
ATOM     46  O   UNL A   1      43.361  18.240  25.099  1.00  0.00    -0.237 OA
ATOM     47  O   UNL A   1      42.648  18.209  27.463  1.00  0.00    -0.237 OA
ATOM     48  O   UNL A   1      41.028  18.778  25.694  1.00  0.00    -0.744 OA
ENDBRANCH  44  45
ENDBRANCH  25  39
BRANCH  26  49
ATOM     49  C   UNL A   1      46.597  32.745  27.785  1.00  0.00    -0.014 A 
ATOM     50  C   UNL A   1      46.756  33.285  29.072  1.00  0.00     0.010 A 
ATOM     51  C   UNL A   1      46.872  33.561  26.670  1.00  0.00     0.010 A 
ATOM     52  C   UNL A   1      47.172  34.611  29.241  1.00  0.00     0.020 A 
ATOM     53  C   UNL A   1      47.315  34.877  26.834  1.00  0.00     0.020 A 
ATOM     54  C   UNL A   1      47.452  35.398  28.120  1.00  0.00     0.054 A 
BRANCH  54  55
ATOM     55  S   UNL A   1      48.041  37.099  28.362  1.00  0.00     0.124 S 
ATOM     56  O   UNL A   1      48.133  37.185  29.817  1.00  0.00    -0.237 OA
ATOM     57  O   UNL A   1      49.314  37.100  27.646  1.00  0.00    -0.237 OA
ATOM     58  O   UNL A   1      46.993  37.914  27.752  1.00  0.00    -0.744 OA
ENDBRANCH  54  55
ENDBRANCH  26  49
BRANCH  38  59
ATOM     59  C   UNL A   1      49.957  26.747  26.542  1.00  0.00    -0.014 A 
ATOM     60  C   UNL A   1      50.539  26.809  25.265  1.00  0.00     0.010 A 
ATOM     61  C   UNL A   1      50.762  26.457  27.659  1.00  0.00     0.010 A 
ATOM     62  C   UNL A   1      51.902  26.563  25.104  1.00  0.00     0.020 A 
ATOM     63  C   UNL A   1      52.130  26.235  27.504  1.00  0.00     0.020 A 
ATOM     64  C   UNL A   1      52.689  26.279  26.225  1.00  0.00     0.054 A 
BRANCH  64  65
ATOM     65  S   UNL A   1      54.471  26.025  26.001  1.00  0.00     0.124 S 
ATOM     66  O   UNL A   1      54.931  25.877  27.379  1.00  0.00    -0.237 OA
ATOM     67  O   UNL A   1      54.521  24.812  25.188  1.00  0.00    -0.237 OA
ATOM     68  O   UNL A   1      54.911  27.241  25.321  1.00  0.00    -0.744 OA
ENDBRANCH  64  65
ENDBRANCH  38  59
ENDBRANCH  12  13
ENDBRANCH   5   7
ENDBRANCH   4   5
ENDBRANCH   3   4
ENDBRANCH   2   3
ENDBRANCH   1   2
BRANCH   1  69
ATOM     69  C   UNL A   1      32.268  29.509  26.789  1.00  0.00     0.202 C 
BRANCH  69  70
ATOM     70  C   UNL A   1      32.583  28.101  27.287  1.00  0.00     0.261 C 
BRANCH  70  71
ATOM     71  O   UNL A   1      32.722  27.151  26.209  1.00  0.00    -0.463 OA
BRANCH  71  72
ATOM     72  C   UNL A   1      31.568  26.500  25.864  1.00  0.00     0.310 C 
ATOM     73  O   UNL A   1      30.607  26.356  26.608  1.00  0.00    -0.252 OA
BRANCH  72  74
ATOM     74  C   UNL A   1      31.646  25.985  24.431  1.00  0.00     0.115 C 
ATOM     75  C   UNL A   1      30.480  26.518  23.592  1.00  0.00     0.043 C 
ATOM     76  C   UNL A   1      33.021  26.285  23.813  1.00  0.00     0.097 C 
ATOM     77  C   UNL A   1      30.693  27.911  23.101  1.00  0.00    -0.030 C 
ATOM     78  C   UNL A   1      33.162  27.812  23.531  1.00  0.00     0.041 C 
ATOM     79  C   UNL A   1      31.895  28.498  23.093  1.00  0.00    -0.030 C 
BRANCH  76  80
ATOM     80  C   UNL A   1      33.308  25.477  22.547  1.00  0.00     0.224 C 
ATOM     81  O   UNL A   1      33.631  26.034  21.493  1.00  0.00    -0.275 OA
ATOM     82  N   UNL A   1      33.240  24.126  22.482  1.00  0.00    -0.344 N 
ATOM     83  H   UNL A   1      32.841  23.828  21.632  1.00  0.00     0.164 HD
BRANCH  82  84
ATOM     84  C   UNL A   1      33.600  22.982  23.339  1.00  0.00     0.172 C 
ATOM     85  C   UNL A   1      32.608  22.483  24.374  1.00  0.00     0.037 C 
ATOM     86  C   UNL A   1      35.057  23.197  23.841  1.00  0.00     0.249 C 
ATOM     87  C   UNL A   1      33.244  21.449  25.285  1.00  0.00     0.025 C 
ATOM     88  N   UNL A   1      35.415  22.577  25.041  1.00  0.00    -0.308 N 
ATOM     89  O   UNL A   1      35.873  23.720  23.073  1.00  0.00    -0.272 OA
ATOM     90  C   UNL A   1      34.416  22.093  25.989  1.00  0.00     0.126 C 
BRANCH  88  91
ATOM     91  C   UNL A   1      36.770  22.584  25.487  1.00  0.00     0.080 A 
ATOM     92  C   UNL A   1      37.290  23.750  26.072  1.00  0.00     0.029 A 
ATOM     93  C   UNL A   1      37.608  21.470  25.359  1.00  0.00     0.146 A 
ATOM     94  C   UNL A   1      38.610  23.790  26.527  1.00  0.00     0.002 A 
ATOM     95  C   UNL A   1      38.929  21.511  25.804  1.00  0.00     0.041 A 
ATOM     96  F   UNL A   1      37.193  20.370  24.713  1.00  0.00    -0.205 F 
ATOM     97  C   UNL A   1      39.430  22.671  26.394  1.00  0.00     0.003 A 
ENDBRANCH  88  91
ENDBRANCH  82  84
ENDBRANCH  76  80
ENDBRANCH  72  74
ENDBRANCH  71  72
ENDBRANCH  70  71
ENDBRANCH  69  70
ENDBRANCH   1  69
TORSDOF 20
ENDMDL
MODEL 3
REMARK VINA RESULT:     -11.4      5.901     10.212
REMARK SMILES O=C(OCCOCCOC(=O)[C@H]1CC=CC[C@@H]1C(=O)N[C@@H]1CCCN(c2ccccc2F)C1=O)c1ccc(-c2c3nc(c(-c4ccc(S(=O)(=O)[O-])cc4)c4ccc([nH]4)c(-c4ccc(S(=O)(=O)[O-])cc4)c4nc(c(-c5ccc(S(=O)(=O)[O-])cc5)c5ccc2[nH]5)C=C4)C=C3)cc1
REMARK SMILES IDX 6 1 5 2 4 3 3 4 2 5 1 6 35 7 36 8 94 9 37 10 93 11 38 12
REMARK SMILES IDX 39 13 40 14 87 15 41 16 92 17 86 18 88 19 42 20 91 21 85 22
REMARK SMILES IDX 84 23 43 25 73 26 54 27 72 28 55 29 58 30 71 31 89 32 56 33
REMARK SMILES IDX 57 34 70 36 90 37 59 38 44 39 45 40 53 41 46 42 52 43 47 44
REMARK SMILES IDX 48 45 49 46 50 47 51 48 74 49 75 50 83 51 76 52 82 53 77 54
REMARK SMILES IDX 78 55 79 56 80 57 81 58 60 59 61 60 69 61 62 62 68 63 63 64
REMARK SMILES IDX 64 65 65 66 66 67 67 68 7 69 8 70 9 71 10 72 11 73 12 74
REMARK SMILES IDX 13 75 17 76 14 77 16 78 15 79 18 80 19 81 20 82 21 84 22 85
REMARK SMILES IDX 33 86 23 87 25 88 34 89 24 90 26 91 27 92 31 93 28 94 30 95
REMARK SMILES IDX 32 96 29 97
REMARK H PARENT 88 24 58 35 20 83
REMARK Flexibility Score: inf
ROOT
ATOM      1  O   UNL A   1      36.679  21.378  25.239  1.00  0.00    -0.374 OA
ENDROOT
BRANCH   1   2
ATOM      2  C   UNL A   1      37.883  20.670  24.964  1.00  0.00     0.202 C 
BRANCH   2   3
ATOM      3  C   UNL A   1      39.017  21.113  25.894  1.00  0.00     0.261 C 
BRANCH   3   4
ATOM      4  O   UNL A   1      39.914  20.024  26.152  1.00  0.00    -0.460 OA
BRANCH   4   5
ATOM      5  C   UNL A   1      41.271  20.133  26.068  1.00  0.00     0.338 C 
ATOM      6  O   UNL A   1      41.919  19.280  25.485  1.00  0.00    -0.246 OA
BRANCH   5   7
ATOM      7  C   UNL A   1      41.942  21.405  26.480  1.00  0.00     0.060 A 
ATOM      8  C   UNL A   1      42.376  21.706  27.777  1.00  0.00     0.016 A 
ATOM      9  C   UNL A   1      42.220  22.318  25.452  1.00  0.00     0.016 A 
ATOM     10  C   UNL A   1      42.998  22.913  28.065  1.00  0.00     0.010 A 
ATOM     11  C   UNL A   1      42.891  23.511  25.726  1.00  0.00     0.010 A 
ATOM     12  C   UNL A   1      43.269  23.814  27.040  1.00  0.00    -0.014 A 
BRANCH  12  13
ATOM     13  C   UNL A   1      43.903  25.103  27.369  1.00  0.00     0.031 A 
ATOM     14  C   UNL A   1      43.066  26.166  28.007  1.00  0.00     0.074 A 
ATOM     15  C   UNL A   1      45.219  25.271  27.144  1.00  0.00     0.049 A 
ATOM     16  N   UNL A   1      43.361  27.412  28.252  1.00  0.00    -0.248 NA
ATOM     17  C   UNL A   1      41.711  25.768  28.429  1.00  0.00     0.031 C 
ATOM     18  C   UNL A   1      46.127  24.239  26.632  1.00  0.00     0.029 A 
ATOM     19  N   UNL A   1      46.025  26.360  27.331  1.00  0.00    -0.354 N 
ATOM     20  C   UNL A   1      42.214  27.962  28.811  1.00  0.00     0.074 A 
ATOM     21  C   UNL A   1      41.222  26.913  28.880  1.00  0.00     0.031 C 
ATOM     22  C   UNL A   1      47.370  24.741  26.567  1.00  0.00     0.029 A 
ATOM     23  C   UNL A   1      47.331  26.147  26.952  1.00  0.00     0.049 A 
ATOM     24  H   UNL A   1      45.703  27.214  27.700  1.00  0.00     0.167 HD
ATOM     25  C   UNL A   1      42.012  29.240  29.207  1.00  0.00     0.031 A 
ATOM     26  C   UNL A   1      48.361  27.011  26.883  1.00  0.00     0.031 A 
ATOM     27  C   UNL A   1      43.026  30.255  29.106  1.00  0.00     0.049 A 
ATOM     28  C   UNL A   1      48.094  28.443  27.261  1.00  0.00     0.074 A 
ATOM     29  C   UNL A   1      42.939  31.601  29.401  1.00  0.00     0.029 A 
ATOM     30  N   UNL A   1      44.326  30.017  28.674  1.00  0.00    -0.354 N 
ATOM     31  N   UNL A   1      46.981  28.981  27.705  1.00  0.00    -0.248 NA
ATOM     32  C   UNL A   1      49.207  29.386  27.114  1.00  0.00     0.031 C 
ATOM     33  C   UNL A   1      44.179  32.185  29.109  1.00  0.00     0.029 A 
ATOM     34  C   UNL A   1      45.052  31.193  28.685  1.00  0.00     0.049 A 
ATOM     35  H   UNL A   1      44.679  29.140  28.401  1.00  0.00     0.167 HD
ATOM     36  C   UNL A   1      47.261  30.327  27.900  1.00  0.00     0.074 A 
ATOM     37  C   UNL A   1      48.655  30.513  27.544  1.00  0.00     0.031 C 
ATOM     38  C   UNL A   1      46.443  31.322  28.325  1.00  0.00     0.031 A 
BRANCH  25  39
ATOM     39  C   UNL A   1      40.632  29.600  29.684  1.00  0.00    -0.014 A 
ATOM     40  C   UNL A   1      39.597  29.918  28.785  1.00  0.00     0.010 A 
ATOM     41  C   UNL A   1      40.378  29.672  31.066  1.00  0.00     0.010 A 
ATOM     42  C   UNL A   1      38.356  30.355  29.258  1.00  0.00     0.020 A 
ATOM     43  C   UNL A   1      39.131  30.084  31.544  1.00  0.00     0.020 A 
ATOM     44  C   UNL A   1      38.135  30.447  30.636  1.00  0.00     0.054 A 
BRANCH  44  45
ATOM     45  S   UNL A   1      36.526  31.046  31.227  1.00  0.00     0.124 S 
ATOM     46  O   UNL A   1      36.026  29.886  31.963  1.00  0.00    -0.237 OA
ATOM     47  O   UNL A   1      36.893  32.198  32.046  1.00  0.00    -0.237 OA
ATOM     48  O   UNL A   1      35.802  31.362  29.999  1.00  0.00    -0.744 OA
ENDBRANCH  44  45
ENDBRANCH  25  39
BRANCH  26  49
ATOM     49  C   UNL A   1      49.691  26.559  26.385  1.00  0.00    -0.014 A 
ATOM     50  C   UNL A   1      50.099  26.822  25.066  1.00  0.00     0.010 A 
ATOM     51  C   UNL A   1      50.577  25.880  27.244  1.00  0.00     0.010 A 
ATOM     52  C   UNL A   1      51.358  26.408  24.615  1.00  0.00     0.020 A 
ATOM     53  C   UNL A   1      51.847  25.491  26.807  1.00  0.00     0.020 A 
ATOM     54  C   UNL A   1      52.226  25.748  25.489  1.00  0.00     0.054 A 
BRANCH  54  55
ATOM     55  S   UNL A   1      53.875  25.267  24.899  1.00  0.00     0.124 S 
ATOM     56  O   UNL A   1      53.924  25.900  23.585  1.00  0.00    -0.237 OA
ATOM     57  O   UNL A   1      54.756  25.843  25.912  1.00  0.00    -0.237 OA
ATOM     58  O   UNL A   1      53.823  23.807  24.889  1.00  0.00    -0.744 OA
ENDBRANCH  54  55
ENDBRANCH  26  49
BRANCH  38  59
ATOM     59  C   UNL A   1      47.055  32.687  28.459  1.00  0.00    -0.014 A 
ATOM     60  C   UNL A   1      47.685  33.086  29.650  1.00  0.00     0.010 A 
ATOM     61  C   UNL A   1      47.058  33.550  27.348  1.00  0.00     0.010 A 
ATOM     62  C   UNL A   1      48.292  34.339  29.735  1.00  0.00     0.020 A 
ATOM     63  C   UNL A   1      47.686  34.794  27.423  1.00  0.00     0.020 A 
ATOM     64  C   UNL A   1      48.290  35.184  28.620  1.00  0.00     0.054 A 
BRANCH  64  65
ATOM     65  S   UNL A   1      49.139  36.782  28.734  1.00  0.00     0.124 S 
ATOM     66  O   UNL A   1      49.481  36.842  30.151  1.00  0.00    -0.237 OA
ATOM     67  O   UNL A   1      50.266  36.612  27.821  1.00  0.00    -0.237 OA
ATOM     68  O   UNL A   1      48.129  37.742  28.292  1.00  0.00    -0.744 OA
ENDBRANCH  64  65
ENDBRANCH  38  59
ENDBRANCH  12  13
ENDBRANCH   5   7
ENDBRANCH   4   5
ENDBRANCH   3   4
ENDBRANCH   2   3
ENDBRANCH   1   2
BRANCH   1  69
ATOM     69  C   UNL A   1      36.848  22.707  25.712  1.00  0.00     0.202 C 
BRANCH  69  70
ATOM     70  C   UNL A   1      36.368  23.759  24.716  1.00  0.00     0.261 C 
BRANCH  70  71
ATOM     71  O   UNL A   1      34.950  24.008  24.815  1.00  0.00    -0.463 OA
BRANCH  71  72
ATOM     72  C   UNL A   1      34.198  23.466  23.807  1.00  0.00     0.310 C 
ATOM     73  O   UNL A   1      34.631  23.187  22.697  1.00  0.00    -0.252 OA
BRANCH  72  74
ATOM     74  C   UNL A   1      32.757  23.260  24.259  1.00  0.00     0.115 C 
ATOM     75  C   UNL A   1      32.179  21.967  23.675  1.00  0.00     0.043 C 
ATOM     76  C   UNL A   1      32.644  23.334  25.790  1.00  0.00     0.097 C 
ATOM     77  C   UNL A   1      32.588  20.744  24.426  1.00  0.00    -0.030 C 
ATOM     78  C   UNL A   1      33.287  22.069  26.438  1.00  0.00     0.041 C 
ATOM     79  C   UNL A   1      33.104  20.794  25.660  1.00  0.00    -0.030 C 
BRANCH  76  80
ATOM     80  C   UNL A   1      31.211  23.521  26.286  1.00  0.00     0.224 C 
ATOM     81  O   UNL A   1      30.805  22.946  27.301  1.00  0.00    -0.275 OA
ATOM     82  N   UNL A   1      30.297  24.314  25.676  1.00  0.00    -0.344 N 
ATOM     83  H   UNL A   1      29.405  23.898  25.676  1.00  0.00     0.164 HD
BRANCH  82  84
ATOM     84  C   UNL A   1      30.279  25.629  25.011  1.00  0.00     0.172 C 
ATOM     85  C   UNL A   1      30.492  25.711  23.511  1.00  0.00     0.037 C 
ATOM     86  C   UNL A   1      31.122  26.615  25.873  1.00  0.00     0.249 C 
ATOM     87  C   UNL A   1      30.648  27.152  23.059  1.00  0.00     0.025 C 
ATOM     88  N   UNL A   1      31.689  27.710  25.215  1.00  0.00    -0.308 N 
ATOM     89  O   UNL A   1      31.079  26.505  27.103  1.00  0.00    -0.272 OA
ATOM     90  C   UNL A   1      31.846  27.744  23.765  1.00  0.00     0.126 C 
BRANCH  88  91
ATOM     91  C   UNL A   1      32.334  28.746  25.953  1.00  0.00     0.080 A 
ATOM     92  C   UNL A   1      31.677  29.976  26.121  1.00  0.00     0.029 A 
ATOM     93  C   UNL A   1      33.606  28.586  26.515  1.00  0.00     0.146 A 
ATOM     94  C   UNL A   1      32.277  31.010  26.845  1.00  0.00     0.002 A 
ATOM     95  C   UNL A   1      34.211  29.620  27.229  1.00  0.00     0.041 A 
ATOM     96  F   UNL A   1      34.319  27.472  26.293  1.00  0.00    -0.205 F 
ATOM     97  C   UNL A   1      33.543  30.833  27.399  1.00  0.00     0.003 A 
ENDBRANCH  88  91
ENDBRANCH  82  84
ENDBRANCH  76  80
ENDBRANCH  72  74
ENDBRANCH  71  72
ENDBRANCH  70  71
ENDBRANCH  69  70
ENDBRANCH   1  69
TORSDOF 20
ENDMDL
