MODEL 1
REMARK VINA RESULT:     -10.1      0.000      0.000
REMARK SMILES Cn1cc(C(=O)NCCc2ccccc2)c(C(=O)OCCOCCOC(=O)c2ccc(-c3c4nc(c(-c5ccc(S(=O)(=O)[O-])cc5)c5ccc([nH]5)c(-c5ccc(S(=O)(=O)[O-])cc5)c5nc(c(-c6ccc(S(=O)(=O)[O-])cc6)c6ccc3[nH]6)C=C5)C=C4)cc2)n1
REMARK SMILES IDX 21 1 20 2 19 3 17 4 18 5 16 6 1 7 2 8 3 9 88 10 4 11 5 12
REMARK SMILES IDX 6 13 7 14 8 16 9 17 10 18 11 19 15 20 12 21 14 22 13 23
REMARK SMILES IDX 22 24 23 25 24 26 25 27 26 28 27 29 28 30 29 31 87 32 30 33
REMARK SMILES IDX 86 34 31 35 32 36 33 37 80 38 34 39 85 40 79 41 81 42 35 43
REMARK SMILES IDX 84 44 78 45 77 46 36 48 66 49 47 50 65 51 48 52 51 53 64 54
REMARK SMILES IDX 82 55 49 56 50 57 63 59 83 60 52 61 37 62 38 63 46 64 39 65
REMARK SMILES IDX 45 66 40 67 41 68 42 69 43 70 44 71 67 72 68 73 76 74 69 75
REMARK SMILES IDX 75 76 70 77 71 78 72 79 73 80 74 81 53 82 54 83 62 84 55 85
REMARK SMILES IDX 61 86 56 87 57 88 58 89 59 90 60 91
REMARK H PARENT 7 15 81 47 51 58
REMARK Flexibility Score: inf
ROOT
ATOM      1  C   UNL A   1      33.519  30.980  27.613  1.00  0.00     0.202 C 
ENDROOT
BRANCH   1   2
ATOM      2  C   UNL A   1      33.184  30.031  26.459  1.00  0.00     0.261 C 
BRANCH   2   3
ATOM      3  O   UNL A   1      33.548  28.706  26.868  1.00  0.00    -0.458 OA
BRANCH   3   4
ATOM      4  C   UNL A   1      32.557  27.791  27.010  1.00  0.00     0.359 C 
ATOM      5  O   UNL A   1      31.535  27.978  27.664  1.00  0.00    -0.244 OA
BRANCH   4   6
ATOM      6  C   UNL A   1      32.769  26.628  26.128  1.00  0.00     0.183 A 
ATOM      7  C   UNL A   1      35.027  24.296  24.818  1.00  0.00     0.173 C 
ATOM      8  N   UNL A   1      33.863  25.054  25.211  1.00  0.00    -0.274 N 
ATOM      9  C   UNL A   1      32.563  24.762  24.938  1.00  0.00     0.123 A 
ATOM     10  N   UNL A   1      34.021  26.160  25.939  1.00  0.00    -0.165 NA
ATOM     11  C   UNL A   1      31.805  25.810  25.435  1.00  0.00     0.092 A 
BRANCH  11  12
ATOM     12  C   UNL A   1      30.368  26.031  25.339  1.00  0.00     0.255 C 
ATOM     13  O   UNL A   1      29.557  25.329  25.940  1.00  0.00    -0.269 OA
ATOM     14  N   UNL A   1      29.843  27.064  24.610  1.00  0.00    -0.352 N 
ATOM     15  H   UNL A   1      28.859  27.091  24.633  1.00  0.00     0.163 HD
BRANCH  14  16
ATOM     16  C   UNL A   1      30.425  28.127  23.810  1.00  0.00     0.121 C 
BRANCH  16  17
ATOM     17  C   UNL A   1      29.661  28.332  22.493  1.00  0.00     0.057 C 
BRANCH  17  18
ATOM     18  C   UNL A   1      29.033  29.706  22.415  1.00  0.00    -0.046 A 
ATOM     19  C   UNL A   1      29.190  30.491  21.264  1.00  0.00     0.004 A 
ATOM     20  C   UNL A   1      28.337  30.242  23.509  1.00  0.00     0.004 A 
ATOM     21  C   UNL A   1      28.684  31.791  21.217  1.00  0.00     0.000 A 
ATOM     22  C   UNL A   1      27.845  31.547  23.466  1.00  0.00     0.000 A 
ATOM     23  C   UNL A   1      28.021  32.323  22.321  1.00  0.00     0.000 A 
ENDBRANCH  17  18
ENDBRANCH  16  17
ENDBRANCH  14  16
ENDBRANCH  11  12
ENDBRANCH   4   6
ENDBRANCH   3   4
ENDBRANCH   2   3
ENDBRANCH   1   2
BRANCH   1  24
ATOM     24  O   UNL A   1      34.911  31.323  27.665  1.00  0.00    -0.374 OA
BRANCH  24  25
ATOM     25  C   UNL A   1      35.206  32.648  28.113  1.00  0.00     0.202 C 
BRANCH  25  26
ATOM     26  C   UNL A   1      35.266  32.782  29.638  1.00  0.00     0.261 C 
BRANCH  26  27
ATOM     27  O   UNL A   1      36.617  32.636  30.113  1.00  0.00    -0.460 OA
BRANCH  27  28
ATOM     28  C   UNL A   1      36.852  31.510  30.828  1.00  0.00     0.338 C 
ATOM     29  O   UNL A   1      36.164  31.054  31.727  1.00  0.00    -0.246 OA
BRANCH  28  30
ATOM     30  C   UNL A   1      38.022  30.793  30.275  1.00  0.00     0.060 A 
ATOM     31  C   UNL A   1      39.038  30.438  31.170  1.00  0.00     0.016 A 
ATOM     32  C   UNL A   1      38.153  30.512  28.911  1.00  0.00     0.016 A 
ATOM     33  C   UNL A   1      40.209  29.843  30.700  1.00  0.00     0.010 A 
ATOM     34  C   UNL A   1      39.331  29.921  28.441  1.00  0.00     0.010 A 
ATOM     35  C   UNL A   1      40.376  29.612  29.329  1.00  0.00    -0.014 A 
BRANCH  35  36
ATOM     36  C   UNL A   1      41.696  29.167  28.821  1.00  0.00     0.031 A 
ATOM     37  C   UNL A   1      42.821  30.163  28.735  1.00  0.00     0.074 A 
ATOM     38  C   UNL A   1      41.902  27.884  28.474  1.00  0.00     0.049 A 
ATOM     39  N   UNL A   1      44.053  29.985  28.334  1.00  0.00    -0.248 NA
ATOM     40  C   UNL A   1      42.517  31.540  29.158  1.00  0.00     0.031 C 
ATOM     41  C   UNL A   1      40.905  26.817  28.543  1.00  0.00     0.029 A 
ATOM     42  N   UNL A   1      43.029  27.262  27.997  1.00  0.00    -0.354 N 
ATOM     43  C   UNL A   1      44.673  31.223  28.456  1.00  0.00     0.074 A 
ATOM     44  C   UNL A   1      43.675  32.150  28.944  1.00  0.00     0.031 C 
ATOM     45  C   UNL A   1      41.464  25.670  28.117  1.00  0.00     0.029 A 
ATOM     46  C   UNL A   1      42.849  25.927  27.728  1.00  0.00     0.049 A 
ATOM     47  H   UNL A   1      43.885  27.728  27.859  1.00  0.00     0.167 HD
ATOM     48  C   UNL A   1      45.957  31.558  28.191  1.00  0.00     0.031 A 
ATOM     49  C   UNL A   1      43.701  25.018  27.213  1.00  0.00     0.031 A 
ATOM     50  C   UNL A   1      46.950  30.642  27.697  1.00  0.00     0.049 A 
ATOM     51  C   UNL A   1      45.110  25.429  26.871  1.00  0.00     0.074 A 
ATOM     52  C   UNL A   1      48.282  30.889  27.412  1.00  0.00     0.029 A 
ATOM     53  N   UNL A   1      46.719  29.308  27.408  1.00  0.00    -0.354 N 
ATOM     54  N   UNL A   1      45.685  26.598  27.018  1.00  0.00    -0.248 NA
ATOM     55  C   UNL A   1      45.983  24.395  26.298  1.00  0.00     0.031 C 
ATOM     56  C   UNL A   1      48.847  29.711  26.911  1.00  0.00     0.029 A 
ATOM     57  C   UNL A   1      47.877  28.722  26.926  1.00  0.00     0.049 A 
ATOM     58  H   UNL A   1      45.859  28.844  27.527  1.00  0.00     0.167 HD
ATOM     59  C   UNL A   1      46.995  26.433  26.579  1.00  0.00     0.074 A 
ATOM     60  C   UNL A   1      47.129  25.050  26.170  1.00  0.00     0.031 C 
ATOM     61  C   UNL A   1      47.997  27.344  26.523  1.00  0.00     0.031 A 
BRANCH  48  62
ATOM     62  C   UNL A   1      46.358  32.991  28.409  1.00  0.00    -0.014 A 
ATOM     63  C   UNL A   1      46.224  33.944  27.384  1.00  0.00     0.010 A 
ATOM     64  C   UNL A   1      46.834  33.396  29.669  1.00  0.00     0.010 A 
ATOM     65  C   UNL A   1      46.587  35.274  27.607  1.00  0.00     0.020 A 
ATOM     66  C   UNL A   1      47.181  34.729  29.901  1.00  0.00     0.020 A 
ATOM     67  C   UNL A   1      47.068  35.659  28.863  1.00  0.00     0.054 A 
BRANCH  67  68
ATOM     68  S   UNL A   1      47.509  37.396  29.138  1.00  0.00     0.124 S 
ATOM     69  O   UNL A   1      48.428  37.298  30.270  1.00  0.00    -0.237 OA
ATOM     70  O   UNL A   1      48.119  37.780  27.868  1.00  0.00    -0.237 OA
ATOM     71  O   UNL A   1      46.229  38.037  29.429  1.00  0.00    -0.744 OA
ENDBRANCH  67  68
ENDBRANCH  48  62
BRANCH  49  72
ATOM     72  C   UNL A   1      43.243  23.624  26.967  1.00  0.00    -0.014 A 
ATOM     73  C   UNL A   1      42.943  22.766  28.040  1.00  0.00     0.010 A 
ATOM     74  C   UNL A   1      43.122  23.145  25.651  1.00  0.00     0.010 A 
ATOM     75  C   UNL A   1      42.550  21.446  27.801  1.00  0.00     0.020 A 
ATOM     76  C   UNL A   1      42.708  21.832  25.408  1.00  0.00     0.020 A 
ATOM     77  C   UNL A   1      42.439  20.987  26.485  1.00  0.00     0.054 A 
BRANCH  77  78
ATOM     78  S   UNL A   1      41.892  19.281  26.189  1.00  0.00     0.124 S 
ATOM     79  O   UNL A   1      42.655  18.921  25.000  1.00  0.00    -0.237 OA
ATOM     80  O   UNL A   1      42.280  18.602  27.422  1.00  0.00    -0.237 OA
ATOM     81  O   UNL A   1      40.450  19.419  25.992  1.00  0.00    -0.744 OA
ENDBRANCH  77  78
ENDBRANCH  49  72
BRANCH  61  82
ATOM     82  C   UNL A   1      49.337  26.874  26.029  1.00  0.00    -0.014 A 
ATOM     83  C   UNL A   1      49.729  27.074  24.694  1.00  0.00     0.010 A 
ATOM     84  C   UNL A   1      50.237  26.274  26.929  1.00  0.00     0.010 A 
ATOM     85  C   UNL A   1      50.991  26.660  24.261  1.00  0.00     0.020 A 
ATOM     86  C   UNL A   1      51.508  25.879  26.503  1.00  0.00     0.020 A 
ATOM     87  C   UNL A   1      51.873  26.062  25.167  1.00  0.00     0.054 A 
BRANCH  87  88
ATOM     88  S   UNL A   1      53.525  25.575  24.596  1.00  0.00     0.124 S 
ATOM     89  O   UNL A   1      53.518  24.136  24.842  1.00  0.00    -0.237 OA
ATOM     90  O   UNL A   1      53.511  25.971  23.189  1.00  0.00    -0.237 OA
ATOM     91  O   UNL A   1      54.426  26.350  25.445  1.00  0.00    -0.744 OA
ENDBRANCH  87  88
ENDBRANCH  61  82
ENDBRANCH  35  36
ENDBRANCH  28  30
ENDBRANCH  27  28
ENDBRANCH  26  27
ENDBRANCH  25  26
ENDBRANCH  24  25
ENDBRANCH   1  24
TORSDOF 21
ENDMDL
MODEL 2
REMARK VINA RESULT:     -10.0      2.417      4.588
REMARK SMILES Cn1cc(C(=O)NCCc2ccccc2)c(C(=O)OCCOCCOC(=O)c2ccc(-c3c4nc(c(-c5ccc(S(=O)(=O)[O-])cc5)c5ccc([nH]5)c(-c5ccc(S(=O)(=O)[O-])cc5)c5nc(c(-c6ccc(S(=O)(=O)[O-])cc6)c6ccc3[nH]6)C=C5)C=C4)cc2)n1
REMARK SMILES IDX 21 1 20 2 19 3 17 4 18 5 16 6 1 7 2 8 3 9 88 10 4 11 5 12
REMARK SMILES IDX 6 13 7 14 8 16 9 17 10 18 11 19 15 20 12 21 14 22 13 23
REMARK SMILES IDX 22 24 23 25 24 26 25 27 26 28 27 29 28 30 29 31 87 32 30 33
REMARK SMILES IDX 86 34 31 35 32 36 33 37 80 38 34 39 85 40 79 41 81 42 35 43
REMARK SMILES IDX 84 44 78 45 77 46 36 48 66 49 47 50 65 51 48 52 51 53 64 54
REMARK SMILES IDX 82 55 49 56 50 57 63 59 83 60 52 61 37 62 38 63 46 64 39 65
REMARK SMILES IDX 45 66 40 67 41 68 42 69 43 70 44 71 67 72 68 73 76 74 69 75
REMARK SMILES IDX 75 76 70 77 71 78 72 79 73 80 74 81 53 82 54 83 62 84 55 85
REMARK SMILES IDX 61 86 56 87 57 88 58 89 59 90 60 91
REMARK H PARENT 7 15 81 47 51 58
REMARK Flexibility Score: inf
ROOT
ATOM      1  C   UNL A   1      32.912  29.030  27.029  1.00  0.00     0.202 C 
ENDROOT
BRANCH   1   2
ATOM      2  C   UNL A   1      33.096  28.530  25.594  1.00  0.00     0.261 C 
BRANCH   2   3
ATOM      3  O   UNL A   1      32.482  27.238  25.503  1.00  0.00    -0.458 OA
BRANCH   3   4
ATOM      4  C   UNL A   1      32.872  26.419  24.496  1.00  0.00     0.359 C 
ATOM      5  O   UNL A   1      33.623  26.756  23.585  1.00  0.00    -0.244 OA
BRANCH   4   6
ATOM      6  C   UNL A   1      32.441  25.028  24.735  1.00  0.00     0.183 A 
ATOM      7  C   UNL A   1      30.306  22.862  26.467  1.00  0.00     0.173 C 
ATOM      8  N   UNL A   1      31.260  23.474  25.574  1.00  0.00    -0.274 N 
ATOM      9  C   UNL A   1      31.946  22.869  24.567  1.00  0.00     0.123 A 
ATOM     10  N   UNL A   1      31.522  24.775  25.692  1.00  0.00    -0.165 NA
ATOM     11  C   UNL A   1      32.806  23.818  24.041  1.00  0.00     0.092 A 
BRANCH  11  12
ATOM     12  C   UNL A   1      33.813  23.670  22.999  1.00  0.00     0.255 C 
ATOM     13  O   UNL A   1      33.649  24.113  21.864  1.00  0.00    -0.269 OA
ATOM     14  N   UNL A   1      35.019  23.070  23.239  1.00  0.00    -0.352 N 
ATOM     15  H   UNL A   1      35.599  23.037  22.445  1.00  0.00     0.163 HD
BRANCH  14  16
ATOM     16  C   UNL A   1      35.626  22.469  24.415  1.00  0.00     0.121 C 
BRANCH  16  17
ATOM     17  C   UNL A   1      36.167  23.533  25.382  1.00  0.00     0.057 C 
BRANCH  17  18
ATOM     18  C   UNL A   1      37.536  23.168  25.912  1.00  0.00    -0.046 A 
ATOM     19  C   UNL A   1      38.296  24.113  26.616  1.00  0.00     0.004 A 
ATOM     20  C   UNL A   1      38.093  21.906  25.657  1.00  0.00     0.004 A 
ATOM     21  C   UNL A   1      39.593  23.810  27.036  1.00  0.00     0.000 A 
ATOM     22  C   UNL A   1      39.395  21.611  26.063  1.00  0.00     0.000 A 
ATOM     23  C   UNL A   1      40.146  22.564  26.749  1.00  0.00     0.000 A 
ENDBRANCH  17  18
ENDBRANCH  16  17
ENDBRANCH  14  16
ENDBRANCH  11  12
ENDBRANCH   4   6
ENDBRANCH   3   4
ENDBRANCH   2   3
ENDBRANCH   1   2
BRANCH   1  24
ATOM     24  O   UNL A   1      33.029  30.455  27.141  1.00  0.00    -0.374 OA
BRANCH  24  25
ATOM     25  C   UNL A   1      34.262  30.935  27.682  1.00  0.00     0.202 C 
BRANCH  25  26
ATOM     26  C   UNL A   1      35.258  29.822  28.022  1.00  0.00     0.261 C 
BRANCH  26  27
ATOM     27  O   UNL A   1      36.500  30.372  28.498  1.00  0.00    -0.460 OA
BRANCH  27  28
ATOM     28  C   UNL A   1      37.135  29.625  29.432  1.00  0.00     0.338 C 
ATOM     29  O   UNL A   1      36.675  29.224  30.489  1.00  0.00    -0.246 OA
BRANCH  28  30
ATOM     30  C   UNL A   1      38.468  29.218  28.936  1.00  0.00     0.060 A 
ATOM     31  C   UNL A   1      39.390  28.752  29.881  1.00  0.00     0.016 A 
ATOM     32  C   UNL A   1      38.833  29.332  27.590  1.00  0.00     0.016 A 
ATOM     33  C   UNL A   1      40.693  28.440  29.493  1.00  0.00     0.010 A 
ATOM     34  C   UNL A   1      40.144  29.025  27.205  1.00  0.00     0.010 A 
ATOM     35  C   UNL A   1      41.087  28.607  28.159  1.00  0.00    -0.014 A 
BRANCH  35  36
ATOM     36  C   UNL A   1      42.518  28.465  27.800  1.00  0.00     0.031 A 
ATOM     37  C   UNL A   1      43.445  29.632  28.012  1.00  0.00     0.074 A 
ATOM     38  C   UNL A   1      42.996  27.302  27.324  1.00  0.00     0.049 A 
ATOM     39  N   UNL A   1      44.729  29.720  27.779  1.00  0.00    -0.248 NA
ATOM     40  C   UNL A   1      42.846  30.860  28.561  1.00  0.00     0.031 C 
ATOM     41  C   UNL A   1      42.209  26.089  27.105  1.00  0.00     0.029 A 
ATOM     42  N   UNL A   1      44.267  26.952  26.942  1.00  0.00    -0.354 N 
ATOM     43  C   UNL A   1      45.093  31.010  28.150  1.00  0.00     0.074 A 
ATOM     44  C   UNL A   1      43.890  31.676  28.602  1.00  0.00     0.031 C 
ATOM     45  C   UNL A   1      43.016  25.128  26.621  1.00  0.00     0.029 A 
ATOM     46  C   UNL A   1      44.369  25.663  26.479  1.00  0.00     0.049 A 
ATOM     47  H   UNL A   1      45.034  27.567  26.995  1.00  0.00     0.167 HD
ATOM     48  C   UNL A   1      46.318  31.585  28.125  1.00  0.00     0.031 A 
ATOM     49  C   UNL A   1      45.428  24.994  25.983  1.00  0.00     0.031 A 
ATOM     50  C   UNL A   1      47.514  30.930  27.669  1.00  0.00     0.049 A 
ATOM     51  C   UNL A   1      46.770  25.677  25.910  1.00  0.00     0.074 A 
ATOM     52  C   UNL A   1      48.804  31.431  27.620  1.00  0.00     0.029 A 
ATOM     53  N   UNL A   1      47.567  29.636  27.178  1.00  0.00    -0.354 N 
ATOM     54  N   UNL A   1      47.100  26.887  26.292  1.00  0.00    -0.248 NA
ATOM     55  C   UNL A   1      47.881  24.899  25.343  1.00  0.00     0.031 C 
ATOM     56  C   UNL A   1      49.631  30.451  27.060  1.00  0.00     0.029 A 
ATOM     57  C   UNL A   1      48.863  29.327  26.802  1.00  0.00     0.049 A 
ATOM     58  H   UNL A   1      46.798  29.026  27.108  1.00  0.00     0.167 HD
ATOM     59  C   UNL A   1      48.462  27.006  26.034  1.00  0.00     0.074 A 
ATOM     60  C   UNL A   1      48.895  25.743  25.473  1.00  0.00     0.031 C 
ATOM     61  C   UNL A   1      49.281  28.066  26.246  1.00  0.00     0.031 A 
BRANCH  48  62
ATOM     62  C   UNL A   1      46.420  33.013  28.584  1.00  0.00    -0.014 A 
ATOM     63  C   UNL A   1      45.881  34.061  27.818  1.00  0.00     0.010 A 
ATOM     64  C   UNL A   1      47.028  33.306  29.819  1.00  0.00     0.010 A 
ATOM     65  C   UNL A   1      45.972  35.381  28.266  1.00  0.00     0.020 A 
ATOM     66  C   UNL A   1      47.105  34.622  30.278  1.00  0.00     0.020 A 
ATOM     67  C   UNL A   1      46.588  35.655  29.491  1.00  0.00     0.054 A 
BRANCH  67  68
ATOM     68  S   UNL A   1      46.672  37.374  30.064  1.00  0.00     0.124 S 
ATOM     69  O   UNL A   1      47.281  37.221  31.384  1.00  0.00    -0.237 OA
ATOM     70  O   UNL A   1      47.514  38.010  29.055  1.00  0.00    -0.237 OA
ATOM     71  O   UNL A   1      45.277  37.806  30.069  1.00  0.00    -0.744 OA
ENDBRANCH  67  68
ENDBRANCH  48  62
BRANCH  49  72
ATOM     72  C   UNL A   1      45.266  23.599  25.493  1.00  0.00    -0.014 A 
ATOM     73  C   UNL A   1      44.814  23.344  24.186  1.00  0.00     0.010 A 
ATOM     74  C   UNL A   1      45.549  22.517  26.344  1.00  0.00     0.010 A 
ATOM     75  C   UNL A   1      44.628  22.030  23.746  1.00  0.00     0.020 A 
ATOM     76  C   UNL A   1      45.385  21.202  25.901  1.00  0.00     0.020 A 
ATOM     77  C   UNL A   1      44.911  20.967  24.609  1.00  0.00     0.054 A 
BRANCH  77  78
ATOM     78  S   UNL A   1      44.700  19.266  24.012  1.00  0.00     0.124 S 
ATOM     79  O   UNL A   1      45.922  18.625  24.486  1.00  0.00    -0.237 OA
ATOM     80  O   UNL A   1      43.466  18.846  24.671  1.00  0.00    -0.237 OA
ATOM     81  O   UNL A   1      44.598  19.428  22.562  1.00  0.00    -0.744 OA
ENDBRANCH  77  78
ENDBRANCH  49  72
BRANCH  61  82
ATOM     82  C   UNL A   1      50.734  27.900  25.900  1.00  0.00    -0.014 A 
ATOM     83  C   UNL A   1      51.646  27.371  26.829  1.00  0.00     0.010 A 
ATOM     84  C   UNL A   1      51.181  28.226  24.606  1.00  0.00     0.010 A 
ATOM     85  C   UNL A   1      52.987  27.193  26.479  1.00  0.00     0.020 A 
ATOM     86  C   UNL A   1      52.517  28.028  24.246  1.00  0.00     0.020 A 
ATOM     87  C   UNL A   1      53.415  27.525  25.190  1.00  0.00     0.054 A 
BRANCH  87  88
ATOM     88  S   UNL A   1      55.150  27.242  24.739  1.00  0.00     0.124 S 
ATOM     89  O   UNL A   1      55.764  28.522  25.079  1.00  0.00    -0.237 OA
ATOM     90  O   UNL A   1      55.527  26.118  25.594  1.00  0.00    -0.237 OA
ATOM     91  O   UNL A   1      55.091  26.937  23.311  1.00  0.00    -0.744 OA
ENDBRANCH  87  88
ENDBRANCH  61  82
ENDBRANCH  35  36
ENDBRANCH  28  30
ENDBRANCH  27  28
ENDBRANCH  26  27
ENDBRANCH  25  26
ENDBRANCH  24  25
ENDBRANCH   1  24
TORSDOF 21
ENDMDL
MODEL 3
REMARK VINA RESULT:     -10.0      1.114      3.395
REMARK SMILES Cn1cc(C(=O)NCCc2ccccc2)c(C(=O)OCCOCCOC(=O)c2ccc(-c3c4nc(c(-c5ccc(S(=O)(=O)[O-])cc5)c5ccc([nH]5)c(-c5ccc(S(=O)(=O)[O-])cc5)c5nc(c(-c6ccc(S(=O)(=O)[O-])cc6)c6ccc3[nH]6)C=C5)C=C4)cc2)n1
REMARK SMILES IDX 21 1 20 2 19 3 17 4 18 5 16 6 1 7 2 8 3 9 88 10 4 11 5 12
REMARK SMILES IDX 6 13 7 14 8 16 9 17 10 18 11 19 15 20 12 21 14 22 13 23
REMARK SMILES IDX 22 24 23 25 24 26 25 27 26 28 27 29 28 30 29 31 87 32 30 33
REMARK SMILES IDX 86 34 31 35 32 36 33 37 80 38 34 39 85 40 79 41 81 42 35 43
REMARK SMILES IDX 84 44 78 45 77 46 36 48 66 49 47 50 65 51 48 52 51 53 64 54
REMARK SMILES IDX 82 55 49 56 50 57 63 59 83 60 52 61 37 62 38 63 46 64 39 65
REMARK SMILES IDX 45 66 40 67 41 68 42 69 43 70 44 71 67 72 68 73 76 74 69 75
REMARK SMILES IDX 75 76 70 77 71 78 72 79 73 80 74 81 53 82 54 83 62 84 55 85
REMARK SMILES IDX 61 86 56 87 57 88 58 89 59 90 60 91
REMARK H PARENT 7 15 81 47 51 58
REMARK Flexibility Score: inf
ROOT
ATOM      1  C   UNL A   1      32.784  30.536  26.914  1.00  0.00     0.202 C 
ENDROOT
BRANCH   1   2
ATOM      2  C   UNL A   1      31.893  29.308  27.120  1.00  0.00     0.261 C 
BRANCH   2   3
ATOM      3  O   UNL A   1      32.535  28.195  26.485  1.00  0.00    -0.458 OA
BRANCH   3   4
ATOM      4  C   UNL A   1      32.552  28.160  25.130  1.00  0.00     0.359 C 
ATOM      5  O   UNL A   1      33.576  28.167  24.453  1.00  0.00    -0.244 OA
BRANCH   4   6
ATOM      6  C   UNL A   1      31.204  27.918  24.582  1.00  0.00     0.183 A 
ATOM      7  C   UNL A   1      28.637  29.026  22.475  1.00  0.00     0.173 C 
ATOM      8  N   UNL A   1      29.505  28.286  23.360  1.00  0.00    -0.274 N 
ATOM      9  C   UNL A   1      29.316  27.022  23.827  1.00  0.00     0.123 A 
ATOM     10  N   UNL A   1      30.638  28.847  23.781  1.00  0.00    -0.165 NA
ATOM     11  C   UNL A   1      30.352  26.762  24.708  1.00  0.00     0.092 A 
BRANCH  11  12
ATOM     12  C   UNL A   1      30.580  25.587  25.538  1.00  0.00     0.255 C 
ATOM     13  O   UNL A   1      30.226  25.539  26.715  1.00  0.00    -0.269 OA
ATOM     14  N   UNL A   1      31.160  24.451  25.041  1.00  0.00    -0.352 N 
ATOM     15  H   UNL A   1      31.254  23.739  25.713  1.00  0.00     0.163 HD
BRANCH  14  16
ATOM     16  C   UNL A   1      31.669  24.073  23.733  1.00  0.00     0.121 C 
BRANCH  16  17
ATOM     17  C   UNL A   1      32.903  24.900  23.341  1.00  0.00     0.057 C 
BRANCH  17  18
ATOM     18  C   UNL A   1      34.183  24.278  23.854  1.00  0.00    -0.046 A 
ATOM     19  C   UNL A   1      34.736  24.701  25.072  1.00  0.00     0.004 A 
ATOM     20  C   UNL A   1      34.870  23.318  23.097  1.00  0.00     0.004 A 
ATOM     21  C   UNL A   1      35.959  24.191  25.511  1.00  0.00     0.000 A 
ATOM     22  C   UNL A   1      36.100  22.821  23.530  1.00  0.00     0.000 A 
ATOM     23  C   UNL A   1      36.646  23.260  24.735  1.00  0.00     0.000 A 
ENDBRANCH  17  18
ENDBRANCH  16  17
ENDBRANCH  14  16
ENDBRANCH  11  12
ENDBRANCH   4   6
ENDBRANCH   3   4
ENDBRANCH   2   3
ENDBRANCH   1   2
BRANCH   1  24
ATOM     24  O   UNL A   1      34.092  30.375  27.480  1.00  0.00    -0.374 OA
BRANCH  24  25
ATOM     25  C   UNL A   1      34.818  31.585  27.715  1.00  0.00     0.202 C 
BRANCH  25  26
ATOM     26  C   UNL A   1      34.784  32.049  29.174  1.00  0.00     0.261 C 
BRANCH  26  27
ATOM     27  O   UNL A   1      36.113  32.309  29.661  1.00  0.00    -0.460 OA
BRANCH  27  28
ATOM     28  C   UNL A   1      36.547  31.458  30.621  1.00  0.00     0.338 C 
ATOM     29  O   UNL A   1      35.984  31.185  31.668  1.00  0.00    -0.246 OA
BRANCH  28  30
ATOM     30  C   UNL A   1      37.773  30.764  30.168  1.00  0.00     0.060 A 
ATOM     31  C   UNL A   1      38.725  30.442  31.142  1.00  0.00     0.016 A 
ATOM     32  C   UNL A   1      38.015  30.474  28.821  1.00  0.00     0.016 A 
ATOM     33  C   UNL A   1      39.942  29.872  30.770  1.00  0.00     0.010 A 
ATOM     34  C   UNL A   1      39.240  29.907  28.449  1.00  0.00     0.010 A 
ATOM     35  C   UNL A   1      40.220  29.632  29.418  1.00  0.00    -0.014 A 
BRANCH  35  36
ATOM     36  C   UNL A   1      41.585  29.214  29.018  1.00  0.00     0.031 A 
ATOM     37  C   UNL A   1      42.703  30.220  29.069  1.00  0.00     0.074 A 
ATOM     38  C   UNL A   1      41.835  27.945  28.649  1.00  0.00     0.049 A 
ATOM     39  N   UNL A   1      43.968  30.064  28.777  1.00  0.00    -0.248 NA
ATOM     40  C   UNL A   1      42.348  31.579  29.510  1.00  0.00     0.031 C 
ATOM     41  C   UNL A   1      40.847  26.869  28.589  1.00  0.00     0.029 A 
ATOM     42  N   UNL A   1      43.007  27.348  28.255  1.00  0.00    -0.354 N 
ATOM     43  C   UNL A   1      44.561  31.302  28.997  1.00  0.00     0.074 A 
ATOM     44  C   UNL A   1      43.514  32.205  29.424  1.00  0.00     0.031 C 
ATOM     45  C   UNL A   1      41.454  25.742  28.178  1.00  0.00     0.029 A 
ATOM     46  C   UNL A   1      42.866  26.021  27.926  1.00  0.00     0.049 A 
ATOM     47  H   UNL A   1      43.867  27.825  28.213  1.00  0.00     0.167 HD
ATOM     48  C   UNL A   1      45.861  31.655  28.862  1.00  0.00     0.031 A 
ATOM     49  C   UNL A   1      43.770  25.137  27.461  1.00  0.00     0.031 A 
ATOM     50  C   UNL A   1      46.904  30.764  28.430  1.00  0.00     0.049 A 
ATOM     51  C   UNL A   1      45.200  25.570  27.263  1.00  0.00     0.074 A 
ATOM     52  C   UNL A   1      48.255  31.030  28.277  1.00  0.00     0.029 A 
ATOM     53  N   UNL A   1      46.714  29.439  28.076  1.00  0.00    -0.354 N 
ATOM     54  N   UNL A   1      45.748  26.738  27.502  1.00  0.00    -0.248 NA
ATOM     55  C   UNL A   1      46.133  24.563  26.737  1.00  0.00     0.031 C 
ATOM     56  C   UNL A   1      48.874  29.875  27.790  1.00  0.00     0.029 A 
ATOM     57  C   UNL A   1      47.917  28.878  27.682  1.00  0.00     0.049 A 
ATOM     58  H   UNL A   1      45.851  28.965  28.101  1.00  0.00     0.167 HD
ATOM     59  C   UNL A   1      47.094  26.597  27.179  1.00  0.00     0.074 A 
ATOM     60  C   UNL A   1      47.279  25.230  26.737  1.00  0.00     0.031 C 
ATOM     61  C   UNL A   1      48.087  27.517  27.246  1.00  0.00     0.031 A 
BRANCH  48  62
ATOM     62  C   UNL A   1      46.226  33.082  29.165  1.00  0.00    -0.014 A 
ATOM     63  C   UNL A   1      46.642  33.466  30.451  1.00  0.00     0.010 A 
ATOM     64  C   UNL A   1      46.190  34.043  28.137  1.00  0.00     0.010 A 
ATOM     65  C   UNL A   1      46.991  34.794  30.712  1.00  0.00     0.020 A 
ATOM     66  C   UNL A   1      46.556  35.366  28.390  1.00  0.00     0.020 A 
ATOM     67  C   UNL A   1      46.941  35.738  29.681  1.00  0.00     0.054 A 
BRANCH  67  68
ATOM     68  S   UNL A   1      47.424  37.449  30.037  1.00  0.00     0.124 S 
ATOM     69  O   UNL A   1      48.133  37.304  31.306  1.00  0.00    -0.237 OA
ATOM     70  O   UNL A   1      48.257  37.796  28.888  1.00  0.00    -0.237 OA
ATOM     71  O   UNL A   1      46.149  38.160  30.113  1.00  0.00    -0.744 OA
ENDBRANCH  67  68
ENDBRANCH  48  62
BRANCH  49  72
ATOM     72  C   UNL A   1      43.351  23.749  27.127  1.00  0.00    -0.014 A 
ATOM     73  C   UNL A   1      42.919  23.421  25.830  1.00  0.00     0.010 A 
ATOM     74  C   UNL A   1      43.368  22.752  28.117  1.00  0.00     0.010 A 
ATOM     75  C   UNL A   1      42.490  22.124  25.534  1.00  0.00     0.020 A 
ATOM     76  C   UNL A   1      42.961  21.449  27.820  1.00  0.00     0.020 A 
ATOM     77  C   UNL A   1      42.511  21.146  26.534  1.00  0.00     0.054 A 
BRANCH  77  78
ATOM     78  S   UNL A   1      41.987  19.457  26.126  1.00  0.00     0.124 S 
ATOM     79  O   UNL A   1      42.270  18.744  27.367  1.00  0.00    -0.237 OA
ATOM     80  O   UNL A   1      40.573  19.630  25.802  1.00  0.00    -0.237 OA
ATOM     81  O   UNL A   1      42.838  19.104  24.991  1.00  0.00    -0.744 OA
ENDBRANCH  77  78
ENDBRANCH  49  72
BRANCH  61  82
ATOM     82  C   UNL A   1      49.471  27.073  26.861  1.00  0.00    -0.014 A 
ATOM     83  C   UNL A   1      50.364  26.564  27.821  1.00  0.00     0.010 A 
ATOM     84  C   UNL A   1      49.862  27.111  25.510  1.00  0.00     0.010 A 
ATOM     85  C   UNL A   1      51.634  26.125  27.440  1.00  0.00     0.020 A 
ATOM     86  C   UNL A   1      51.124  26.652  25.123  1.00  0.00     0.020 A 
ATOM     87  C   UNL A   1      52.008  26.174  26.093  1.00  0.00     0.054 A 
BRANCH  87  88
ATOM     88  S   UNL A   1      53.645  25.554  25.612  1.00  0.00     0.124 S 
ATOM     89  O   UNL A   1      54.132  24.984  26.864  1.00  0.00    -0.237 OA
ATOM     90  O   UNL A   1      53.329  24.588  24.562  1.00  0.00    -0.237 OA
ATOM     91  O   UNL A   1      54.347  26.752  25.156  1.00  0.00    -0.744 OA
ENDBRANCH  87  88
ENDBRANCH  61  82
ENDBRANCH  35  36
ENDBRANCH  28  30
ENDBRANCH  27  28
ENDBRANCH  26  27
ENDBRANCH  25  26
ENDBRANCH  24  25
ENDBRANCH   1  24
TORSDOF 21
ENDMDL
