MODEL 1
REMARK VINA RESULT:      -9.0      0.000      0.000
REMARK SMILES CCN(C(=O)[C@H]1C=C[C@@H]([NH3+])C1)[C@H](C)CC(=O)OCCOCCOC(=O)c1ccc(-c2c3nc(c(-c4ccc(S(=O)(=O)[O-])cc4)c4ccc([nH]4)c(-c4ccc(S(=O)(=O)[O-])cc4)c4nc(c(-c5ccc(S(=O)(=O)[O-])cc5)c5ccc2[nH]5)C=C4)C=C3)cc1
REMARK SMILES IDX 19 1 18 2 17 3 15 4 16 5 14 6 12 7 13 8 3 9 2 10 1 11 4 12
REMARK SMILES IDX 5 13 6 14 7 15 11 16 8 17 9 18 10 19 20 23 21 24 22 25 23 26
REMARK SMILES IDX 24 27 25 28 26 29 27 30 85 31 28 32 84 33 29 34 30 35 31 36
REMARK SMILES IDX 78 37 32 38 83 39 77 40 79 41 33 42 82 43 76 44 75 45 34 47
REMARK SMILES IDX 64 48 45 49 63 50 46 51 49 52 62 53 80 54 47 55 48 56 61 58
REMARK SMILES IDX 81 59 50 60 35 61 36 62 44 63 37 64 43 65 38 66 39 67 40 68
REMARK SMILES IDX 41 69 42 70 65 71 66 72 74 73 67 74 73 75 68 76 69 77 70 78
REMARK SMILES IDX 71 79 72 80 51 81 52 82 60 83 53 84 59 85 54 86 55 87 56 88
REMARK SMILES IDX 57 89 58 90
REMARK H PARENT 10 20 10 21 10 22 79 46 49 57
REMARK Flexibility Score: inf
ROOT
ATOM      1  C   UNL A   1      38.747  22.459  26.022  1.00  0.00     0.202 C 
ENDROOT
BRANCH   1   2
ATOM      2  C   UNL A   1      37.665  22.150  24.985  1.00  0.00     0.261 C 
BRANCH   2   3
ATOM      3  O   UNL A   1      36.647  23.168  24.963  1.00  0.00    -0.463 OA
BRANCH   3   4
ATOM      4  C   UNL A   1      36.048  23.402  23.771  1.00  0.00     0.307 C 
ATOM      5  O   UNL A   1      36.563  23.215  22.675  1.00  0.00    -0.252 OA
BRANCH   4   6
ATOM      6  C   UNL A   1      34.660  23.968  23.929  1.00  0.00     0.147 C 
BRANCH   6   7
ATOM      7  C   UNL A   1      34.085  24.020  25.359  1.00  0.00     0.093 C 
ATOM      8  C   UNL A   1      33.560  25.403  25.783  1.00  0.00     0.031 C 
BRANCH   7   9
ATOM      9  N   UNL A   1      33.038  22.968  25.540  1.00  0.00    -0.339 N 
BRANCH   9  10
ATOM     10  C   UNL A   1      31.633  23.345  25.344  1.00  0.00     0.116 C 
ATOM     11  C   UNL A   1      30.610  22.577  26.172  1.00  0.00     0.027 C 
ENDBRANCH   9  10
BRANCH   9  12
ATOM     12  C   UNL A   1      33.481  21.670  25.801  1.00  0.00     0.229 C 
ATOM     13  O   UNL A   1      33.583  21.284  26.973  1.00  0.00    -0.274 OA
BRANCH  12  14
ATOM     14  C   UNL A   1      33.741  20.650  24.669  1.00  0.00     0.107 C 
ATOM     15  C   UNL A   1      34.729  19.531  24.863  1.00  0.00    -0.012 C 
ATOM     16  C   UNL A   1      32.440  19.841  24.433  1.00  0.00     0.087 C 
ATOM     17  C   UNL A   1      34.259  18.357  24.426  1.00  0.00     0.033 C 
ATOM     18  C   UNL A   1      32.861  18.460  23.927  1.00  0.00     0.205 C 
BRANCH  18  19
ATOM     19  N   UNL A   1      32.026  17.407  24.471  1.00  0.00    -0.352 N 
ATOM     20  H   UNL A   1      31.061  17.732  24.526  1.00  0.00     0.345 HD
ATOM     21  H   UNL A   1      32.355  17.161  25.405  1.00  0.00     0.345 HD
ATOM     22  H   UNL A   1      32.075  16.588  23.867  1.00  0.00     0.345 HD
ENDBRANCH  18  19
ENDBRANCH  12  14
ENDBRANCH   9  12
ENDBRANCH   7   9
ENDBRANCH   6   7
ENDBRANCH   4   6
ENDBRANCH   3   4
ENDBRANCH   2   3
ENDBRANCH   1   2
BRANCH   1  23
ATOM     23  O   UNL A   1      39.758  21.465  26.196  1.00  0.00    -0.374 OA
BRANCH  23  24
ATOM     24  C   UNL A   1      40.960  21.873  26.842  1.00  0.00     0.202 C 
BRANCH  24  25
ATOM     25  C   UNL A   1      41.852  22.854  26.072  1.00  0.00     0.261 C 
BRANCH  25  26
ATOM     26  O   UNL A   1      41.382  24.210  26.175  1.00  0.00    -0.460 OA
BRANCH  26  27
ATOM     27  C   UNL A   1      42.359  25.146  26.154  1.00  0.00     0.338 C 
ATOM     28  O   UNL A   1      43.078  25.435  25.203  1.00  0.00    -0.246 OA
BRANCH  27  29
ATOM     29  C   UNL A   1      42.350  25.937  27.399  1.00  0.00     0.060 A 
ATOM     30  C   UNL A   1      41.404  25.590  28.372  1.00  0.00     0.016 A 
ATOM     31  C   UNL A   1      43.188  27.039  27.589  1.00  0.00     0.016 A 
ATOM     32  C   UNL A   1      41.249  26.377  29.510  1.00  0.00     0.010 A 
ATOM     33  C   UNL A   1      43.026  27.832  28.732  1.00  0.00     0.010 A 
ATOM     34  C   UNL A   1      42.029  27.528  29.678  1.00  0.00    -0.014 A 
BRANCH  34  35
ATOM     35  C   UNL A   1      41.694  28.481  30.767  1.00  0.00     0.031 A 
ATOM     36  C   UNL A   1      42.508  28.458  32.035  1.00  0.00     0.074 A 
ATOM     37  C   UNL A   1      40.707  29.384  30.616  1.00  0.00     0.049 A 
ATOM     38  N   UNL A   1      42.390  29.198  33.107  1.00  0.00    -0.248 NA
ATOM     39  C   UNL A   1      43.599  27.471  32.104  1.00  0.00     0.031 C 
ATOM     40  C   UNL A   1      39.874  29.535  29.424  1.00  0.00     0.029 A 
ATOM     41  N   UNL A   1      40.239  30.346  31.477  1.00  0.00    -0.354 N 
ATOM     42  C   UNL A   1      43.375  28.756  33.984  1.00  0.00     0.074 A 
ATOM     43  C   UNL A   1      44.072  27.673  33.327  1.00  0.00     0.031 C 
ATOM     44  C   UNL A   1      38.991  30.529  29.632  1.00  0.00     0.029 A 
ATOM     45  C   UNL A   1      39.176  31.060  30.981  1.00  0.00     0.049 A 
ATOM     46  H   UNL A   1      40.629  30.507  32.367  1.00  0.00     0.167 HD
ATOM     47  C   UNL A   1      43.674  29.213  35.224  1.00  0.00     0.031 A 
ATOM     48  C   UNL A   1      38.423  32.021  31.556  1.00  0.00     0.031 A 
ATOM     49  C   UNL A   1      42.986  30.297  35.874  1.00  0.00     0.049 A 
ATOM     50  C   UNL A   1      38.741  32.470  32.960  1.00  0.00     0.074 A 
ATOM     51  C   UNL A   1      43.249  30.859  37.111  1.00  0.00     0.029 A 
ATOM     52  N   UNL A   1      41.897  30.974  35.350  1.00  0.00    -0.354 N 
ATOM     53  N   UNL A   1      39.710  32.077  33.752  1.00  0.00    -0.248 NA
ATOM     54  C   UNL A   1      37.870  33.501  33.541  1.00  0.00     0.031 C 
ATOM     55  C   UNL A   1      42.280  31.834  37.362  1.00  0.00     0.029 A 
ATOM     56  C   UNL A   1      41.453  31.923  36.254  1.00  0.00     0.049 A 
ATOM     57  H   UNL A   1      41.499  30.805  34.466  1.00  0.00     0.167 HD
ATOM     58  C   UNL A   1      39.581  32.835  34.913  1.00  0.00     0.074 A 
ATOM     59  C   UNL A   1      38.452  33.718  34.713  1.00  0.00     0.031 C 
ATOM     60  C   UNL A   1      40.332  32.804  36.042  1.00  0.00     0.031 A 
BRANCH  47  61
ATOM     61  C   UNL A   1      44.772  28.520  35.984  1.00  0.00    -0.014 A 
ATOM     62  C   UNL A   1      46.119  28.892  35.832  1.00  0.00     0.010 A 
ATOM     63  C   UNL A   1      44.438  27.523  36.921  1.00  0.00     0.010 A 
ATOM     64  C   UNL A   1      47.114  28.264  36.587  1.00  0.00     0.020 A 
ATOM     65  C   UNL A   1      45.427  26.912  37.695  1.00  0.00     0.020 A 
ATOM     66  C   UNL A   1      46.761  27.278  37.515  1.00  0.00     0.054 A 
BRANCH  66  67
ATOM     67  S   UNL A   1      48.068  26.512  38.514  1.00  0.00     0.124 S 
ATOM     68  O   UNL A   1      49.078  27.566  38.546  1.00  0.00    -0.237 OA
ATOM     69  O   UNL A   1      47.391  26.254  39.782  1.00  0.00    -0.237 OA
ATOM     70  O   UNL A   1      48.434  25.321  37.753  1.00  0.00    -0.744 OA
ENDBRANCH  66  67
ENDBRANCH  47  61
BRANCH  48  71
ATOM     71  C   UNL A   1      37.265  32.607  30.822  1.00  0.00    -0.014 A 
ATOM     72  C   UNL A   1      35.948  32.225  31.130  1.00  0.00     0.010 A 
ATOM     73  C   UNL A   1      37.484  33.528  29.781  1.00  0.00     0.010 A 
ATOM     74  C   UNL A   1      34.873  32.726  30.388  1.00  0.00     0.020 A 
ATOM     75  C   UNL A   1      36.410  34.055  29.058  1.00  0.00     0.020 A 
ATOM     76  C   UNL A   1      35.112  33.636  29.355  1.00  0.00     0.054 A 
BRANCH  76  77
ATOM     77  S   UNL A   1      33.703  34.289  28.416  1.00  0.00     0.124 S 
ATOM     78  O   UNL A   1      32.739  34.572  29.475  1.00  0.00    -0.237 OA
ATOM     79  O   UNL A   1      34.278  35.456  27.754  1.00  0.00    -0.237 OA
ATOM     80  O   UNL A   1      33.349  33.187  27.524  1.00  0.00    -0.744 OA
ENDBRANCH  76  77
ENDBRANCH  48  71
BRANCH  60  81
ATOM     81  C   UNL A   1      39.992  33.781  37.136  1.00  0.00    -0.014 A 
ATOM     82  C   UNL A   1      39.116  33.435  38.180  1.00  0.00     0.010 A 
ATOM     83  C   UNL A   1      40.606  35.047  37.148  1.00  0.00     0.010 A 
ATOM     84  C   UNL A   1      38.837  34.350  39.200  1.00  0.00     0.020 A 
ATOM     85  C   UNL A   1      40.352  35.953  38.182  1.00  0.00     0.020 A 
ATOM     86  C   UNL A   1      39.457  35.604  39.194  1.00  0.00     0.054 A 
BRANCH  86  87
ATOM     87  S   UNL A   1      39.112  36.757  40.551  1.00  0.00     0.124 S 
ATOM     88  O   UNL A   1      38.388  37.823  39.867  1.00  0.00    -0.237 OA
ATOM     89  O   UNL A   1      38.316  35.945  41.469  1.00  0.00    -0.237 OA
ATOM     90  O   UNL A   1      40.439  37.120  41.043  1.00  0.00    -0.744 OA
ENDBRANCH  86  87
ENDBRANCH  60  81
ENDBRANCH  34  35
ENDBRANCH  27  29
ENDBRANCH  26  27
ENDBRANCH  25  26
ENDBRANCH  24  25
ENDBRANCH  23  24
ENDBRANCH   1  23
TORSDOF 23
ENDMDL
MODEL 2
REMARK VINA RESULT:      -8.7      3.327      8.828
REMARK SMILES CCN(C(=O)[C@H]1C=C[C@@H]([NH3+])C1)[C@H](C)CC(=O)OCCOCCOC(=O)c1ccc(-c2c3nc(c(-c4ccc(S(=O)(=O)[O-])cc4)c4ccc([nH]4)c(-c4ccc(S(=O)(=O)[O-])cc4)c4nc(c(-c5ccc(S(=O)(=O)[O-])cc5)c5ccc2[nH]5)C=C4)C=C3)cc1
REMARK SMILES IDX 19 1 18 2 17 3 15 4 16 5 14 6 12 7 13 8 3 9 2 10 1 11 4 12
REMARK SMILES IDX 5 13 6 14 7 15 11 16 8 17 9 18 10 19 20 23 21 24 22 25 23 26
REMARK SMILES IDX 24 27 25 28 26 29 27 30 85 31 28 32 84 33 29 34 30 35 31 36
REMARK SMILES IDX 78 37 32 38 83 39 77 40 79 41 33 42 82 43 76 44 75 45 34 47
REMARK SMILES IDX 64 48 45 49 63 50 46 51 49 52 62 53 80 54 47 55 48 56 61 58
REMARK SMILES IDX 81 59 50 60 35 61 36 62 44 63 37 64 43 65 38 66 39 67 40 68
REMARK SMILES IDX 41 69 42 70 65 71 66 72 74 73 67 74 73 75 68 76 69 77 70 78
REMARK SMILES IDX 71 79 72 80 51 81 52 82 60 83 53 84 59 85 54 86 55 87 56 88
REMARK SMILES IDX 57 89 58 90
REMARK H PARENT 10 20 10 21 10 22 79 46 49 57
REMARK Flexibility Score: inf
ROOT
ATOM      1  C   UNL A   1      31.457  27.629  24.435  1.00  0.00     0.202 C 
ENDROOT
BRANCH   1   2
ATOM      2  C   UNL A   1      31.652  27.160  22.991  1.00  0.00     0.261 C 
BRANCH   2   3
ATOM      3  O   UNL A   1      31.932  25.749  22.927  1.00  0.00    -0.463 OA
BRANCH   3   4
ATOM      4  C   UNL A   1      33.074  25.385  22.294  1.00  0.00     0.307 C 
ATOM      5  O   UNL A   1      33.834  26.154  21.716  1.00  0.00    -0.252 OA
BRANCH   4   6
ATOM      6  C   UNL A   1      33.303  23.897  22.339  1.00  0.00     0.147 C 
BRANCH   6   7
ATOM      7  C   UNL A   1      32.370  23.072  23.247  1.00  0.00     0.093 C 
ATOM      8  C   UNL A   1      32.114  21.635  22.759  1.00  0.00     0.031 C 
BRANCH   7   9
ATOM      9  N   UNL A   1      32.870  23.081  24.656  1.00  0.00    -0.339 N 
BRANCH   9  10
ATOM     10  C   UNL A   1      32.063  23.762  25.675  1.00  0.00     0.116 C 
ATOM     11  C   UNL A   1      30.895  22.967  26.249  1.00  0.00     0.027 C 
ENDBRANCH   9  10
BRANCH   9  12
ATOM     12  C   UNL A   1      34.037  22.361  24.920  1.00  0.00     0.229 C 
ATOM     13  O   UNL A   1      33.957  21.197  25.332  1.00  0.00    -0.274 OA
BRANCH  12  14
ATOM     14  C   UNL A   1      35.439  22.930  24.603  1.00  0.00     0.107 C 
ATOM     15  C   UNL A   1      36.040  24.005  25.469  1.00  0.00    -0.012 C 
ATOM     16  C   UNL A   1      36.480  21.797  24.794  1.00  0.00     0.087 C 
ATOM     17  C   UNL A   1      37.323  23.764  25.761  1.00  0.00     0.033 C 
ATOM     18  C   UNL A   1      37.793  22.466  25.205  1.00  0.00     0.205 C 
BRANCH  18  19
ATOM     19  N   UNL A   1      38.505  21.691  26.203  1.00  0.00    -0.352 N 
ATOM     20  H   UNL A   1      37.858  21.400  26.935  1.00  0.00     0.345 HD
ATOM     21  H   UNL A   1      39.246  22.261  26.610  1.00  0.00     0.345 HD
ATOM     22  H   UNL A   1      38.914  20.866  25.764  1.00  0.00     0.345 HD
ENDBRANCH  18  19
ENDBRANCH  12  14
ENDBRANCH   9  12
ENDBRANCH   7   9
ENDBRANCH   6   7
ENDBRANCH   4   6
ENDBRANCH   3   4
ENDBRANCH   2   3
ENDBRANCH   1   2
BRANCH   1  23
ATOM     23  O   UNL A   1      31.044  28.986  24.608  1.00  0.00    -0.374 OA
BRANCH  23  24
ATOM     24  C   UNL A   1      31.785  29.772  25.537  1.00  0.00     0.202 C 
BRANCH  24  25
ATOM     25  C   UNL A   1      33.265  29.410  25.710  1.00  0.00     0.261 C 
BRANCH  25  26
ATOM     26  O   UNL A   1      33.652  29.356  27.095  1.00  0.00    -0.460 OA
BRANCH  26  27
ATOM     27  C   UNL A   1      34.389  30.411  27.514  1.00  0.00     0.338 C 
ATOM     28  O   UNL A   1      33.997  31.562  27.674  1.00  0.00    -0.246 OA
BRANCH  27  29
ATOM     29  C   UNL A   1      35.730  29.973  27.943  1.00  0.00     0.060 A 
ATOM     30  C   UNL A   1      35.849  29.449  29.237  1.00  0.00     0.016 A 
ATOM     31  C   UNL A   1      36.861  30.135  27.139  1.00  0.00     0.016 A 
ATOM     32  C   UNL A   1      37.105  29.142  29.756  1.00  0.00     0.010 A 
ATOM     33  C   UNL A   1      38.123  29.831  27.666  1.00  0.00     0.010 A 
ATOM     34  C   UNL A   1      38.255  29.371  28.990  1.00  0.00    -0.014 A 
BRANCH  34  35
ATOM     35  C   UNL A   1      39.590  29.268  29.632  1.00  0.00     0.031 A 
ATOM     36  C   UNL A   1      40.567  28.239  29.125  1.00  0.00     0.074 A 
ATOM     37  C   UNL A   1      39.947  30.103  30.626  1.00  0.00     0.049 A 
ATOM     38  N   UNL A   1      41.780  27.977  29.536  1.00  0.00    -0.248 NA
ATOM     39  C   UNL A   1      40.117  27.394  28.006  1.00  0.00     0.031 C 
ATOM     40  C   UNL A   1      39.108  31.166  31.179  1.00  0.00     0.029 A 
ATOM     41  N   UNL A   1      41.112  30.184  31.347  1.00  0.00    -0.354 N 
ATOM     42  C   UNL A   1      42.233  26.928  28.743  1.00  0.00     0.074 A 
ATOM     43  C   UNL A   1      41.158  26.589  27.836  1.00  0.00     0.031 C 
ATOM     44  C   UNL A   1      39.787  31.791  32.158  1.00  0.00     0.029 A 
ATOM     45  C   UNL A   1      41.091  31.152  32.323  1.00  0.00     0.049 A 
ATOM     46  H   UNL A   1      41.890  29.604  31.180  1.00  0.00     0.167 HD
ATOM     47  C   UNL A   1      43.435  26.304  28.766  1.00  0.00     0.031 A 
ATOM     48  C   UNL A   1      42.010  31.473  33.256  1.00  0.00     0.031 A 
ATOM     49  C   UNL A   1      44.507  26.647  29.662  1.00  0.00     0.049 A 
ATOM     50  C   UNL A   1      43.318  30.723  33.296  1.00  0.00     0.074 A 
ATOM     51  C   UNL A   1      45.777  26.101  29.728  1.00  0.00     0.029 A 
ATOM     52  N   UNL A   1      44.435  27.611  30.654  1.00  0.00    -0.354 N 
ATOM     53  N   UNL A   1      43.747  29.770  32.503  1.00  0.00    -0.248 NA
ATOM     54  C   UNL A   1      44.268  31.101  34.352  1.00  0.00     0.031 C 
ATOM     55  C   UNL A   1      46.452  26.691  30.800  1.00  0.00     0.029 A 
ATOM     56  C   UNL A   1      45.624  27.651  31.361  1.00  0.00     0.049 A 
ATOM     57  H   UNL A   1      43.653  28.183  30.830  1.00  0.00     0.167 HD
ATOM     58  C   UNL A   1      45.029  29.457  32.947  1.00  0.00     0.074 A 
ATOM     59  C   UNL A   1      45.310  30.331  34.066  1.00  0.00     0.031 C 
ATOM     60  C   UNL A   1      45.896  28.531  32.469  1.00  0.00     0.031 A 
BRANCH  47  61
ATOM     61  C   UNL A   1      43.651  25.156  27.817  1.00  0.00    -0.014 A 
ATOM     62  C   UNL A   1      44.229  25.348  26.550  1.00  0.00     0.010 A 
ATOM     63  C   UNL A   1      43.333  23.849  28.234  1.00  0.00     0.010 A 
ATOM     64  C   UNL A   1      44.463  24.257  25.708  1.00  0.00     0.020 A 
ATOM     65  C   UNL A   1      43.589  22.754  27.406  1.00  0.00     0.020 A 
ATOM     66  C   UNL A   1      44.142  22.966  26.142  1.00  0.00     0.054 A 
BRANCH  66  67
ATOM     67  S   UNL A   1      44.499  21.564  25.048  1.00  0.00     0.124 S 
ATOM     68  O   UNL A   1      45.870  21.230  25.424  1.00  0.00    -0.237 OA
ATOM     69  O   UNL A   1      43.486  20.587  25.439  1.00  0.00    -0.237 OA
ATOM     70  O   UNL A   1      44.339  22.120  23.707  1.00  0.00    -0.744 OA
ENDBRANCH  66  67
ENDBRANCH  47  61
BRANCH  48  71
ATOM     71  C   UNL A   1      41.721  32.536  34.260  1.00  0.00    -0.014 A 
ATOM     72  C   UNL A   1      41.050  32.233  35.458  1.00  0.00     0.010 A 
ATOM     73  C   UNL A   1      42.085  33.870  33.999  1.00  0.00     0.010 A 
ATOM     74  C   UNL A   1      40.720  33.250  36.361  1.00  0.00     0.020 A 
ATOM     75  C   UNL A   1      41.784  34.883  34.914  1.00  0.00     0.020 A 
ATOM     76  C   UNL A   1      41.087  34.568  36.081  1.00  0.00     0.054 A 
BRANCH  76  77
ATOM     77  S   UNL A   1      40.664  35.869  37.274  1.00  0.00     0.124 S 
ATOM     78  O   UNL A   1      41.974  36.431  37.586  1.00  0.00    -0.237 OA
ATOM     79  O   UNL A   1      39.773  36.729  36.501  1.00  0.00    -0.237 OA
ATOM     80  O   UNL A   1      40.021  35.136  38.362  1.00  0.00    -0.744 OA
ENDBRANCH  76  77
ENDBRANCH  48  71
BRANCH  60  81
ATOM     81  C   UNL A   1      47.252  28.440  33.120  1.00  0.00    -0.014 A 
ATOM     82  C   UNL A   1      47.493  27.557  34.187  1.00  0.00     0.010 A 
ATOM     83  C   UNL A   1      48.316  29.210  32.613  1.00  0.00     0.010 A 
ATOM     84  C   UNL A   1      48.767  27.470  34.757  1.00  0.00     0.020 A 
ATOM     85  C   UNL A   1      49.597  29.103  33.161  1.00  0.00     0.020 A 
ATOM     86  C   UNL A   1      49.811  28.245  34.240  1.00  0.00     0.054 A 
BRANCH  86  87
ATOM     87  S   UNL A   1      51.465  28.081  34.968  1.00  0.00     0.124 S 
ATOM     88  O   UNL A   1      51.536  29.259  35.827  1.00  0.00    -0.237 OA
ATOM     89  O   UNL A   1      51.384  26.800  35.665  1.00  0.00    -0.237 OA
ATOM     90  O   UNL A   1      52.356  28.098  33.811  1.00  0.00    -0.744 OA
ENDBRANCH  86  87
ENDBRANCH  60  81
ENDBRANCH  34  35
ENDBRANCH  27  29
ENDBRANCH  26  27
ENDBRANCH  25  26
ENDBRANCH  24  25
ENDBRANCH  23  24
ENDBRANCH   1  23
TORSDOF 23
ENDMDL
MODEL 3
REMARK VINA RESULT:      -8.7      3.181      8.768
REMARK SMILES CCN(C(=O)[C@H]1C=C[C@@H]([NH3+])C1)[C@H](C)CC(=O)OCCOCCOC(=O)c1ccc(-c2c3nc(c(-c4ccc(S(=O)(=O)[O-])cc4)c4ccc([nH]4)c(-c4ccc(S(=O)(=O)[O-])cc4)c4nc(c(-c5ccc(S(=O)(=O)[O-])cc5)c5ccc2[nH]5)C=C4)C=C3)cc1
REMARK SMILES IDX 19 1 18 2 17 3 15 4 16 5 14 6 12 7 13 8 3 9 2 10 1 11 4 12
REMARK SMILES IDX 5 13 6 14 7 15 11 16 8 17 9 18 10 19 20 23 21 24 22 25 23 26
REMARK SMILES IDX 24 27 25 28 26 29 27 30 85 31 28 32 84 33 29 34 30 35 31 36
REMARK SMILES IDX 78 37 32 38 83 39 77 40 79 41 33 42 82 43 76 44 75 45 34 47
REMARK SMILES IDX 64 48 45 49 63 50 46 51 49 52 62 53 80 54 47 55 48 56 61 58
REMARK SMILES IDX 81 59 50 60 35 61 36 62 44 63 37 64 43 65 38 66 39 67 40 68
REMARK SMILES IDX 41 69 42 70 65 71 66 72 74 73 67 74 73 75 68 76 69 77 70 78
REMARK SMILES IDX 71 79 72 80 51 81 52 82 60 83 53 84 59 85 54 86 55 87 56 88
REMARK SMILES IDX 57 89 58 90
REMARK H PARENT 10 20 10 21 10 22 79 46 49 57
REMARK Flexibility Score: inf
ROOT
ATOM      1  C   UNL A   1      31.485  27.486  25.307  1.00  0.00     0.202 C 
ENDROOT
BRANCH   1   2
ATOM      2  C   UNL A   1      31.419  26.588  26.545  1.00  0.00     0.261 C 
BRANCH   2   3
ATOM      3  O   UNL A   1      32.012  25.299  26.294  1.00  0.00    -0.463 OA
BRANCH   3   4
ATOM      4  C   UNL A   1      31.204  24.222  26.433  1.00  0.00     0.307 C 
ATOM      5  O   UNL A   1      29.980  24.263  26.497  1.00  0.00    -0.252 OA
BRANCH   4   6
ATOM      6  C   UNL A   1      31.979  22.935  26.545  1.00  0.00     0.147 C 
BRANCH   6   7
ATOM      7  C   UNL A   1      33.499  23.010  26.298  1.00  0.00     0.093 C 
ATOM      8  C   UNL A   1      34.346  22.197  27.292  1.00  0.00     0.031 C 
BRANCH   7   9
ATOM      9  N   UNL A   1      33.818  22.635  24.887  1.00  0.00    -0.339 N 
BRANCH   9  10
ATOM     10  C   UNL A   1      33.744  23.679  23.857  1.00  0.00     0.116 C 
ATOM     11  C   UNL A   1      33.485  23.200  22.433  1.00  0.00     0.027 C 
ENDBRANCH   9  10
BRANCH   9  12
ATOM     12  C   UNL A   1      34.250  21.327  24.659  1.00  0.00     0.229 C 
ATOM     13  O   UNL A   1      35.462  21.092  24.564  1.00  0.00    -0.274 OA
BRANCH  12  14
ATOM     14  C   UNL A   1      33.269  20.133  24.639  1.00  0.00     0.107 C 
ATOM     15  C   UNL A   1      32.360  19.913  23.459  1.00  0.00    -0.012 C 
ATOM     16  C   UNL A   1      34.096  18.821  24.607  1.00  0.00     0.087 C 
ATOM     17  C   UNL A   1      32.327  18.632  23.074  1.00  0.00     0.033 C 
ATOM     18  C   UNL A   1      33.249  17.781  23.874  1.00  0.00     0.205 C 
BRANCH  18  19
ATOM     19  N   UNL A   1      34.057  16.930  23.021  1.00  0.00    -0.352 N 
ATOM     20  H   UNL A   1      34.699  17.504  22.476  1.00  0.00     0.345 HD
ATOM     21  H   UNL A   1      33.450  16.406  22.390  1.00  0.00     0.345 HD
ATOM     22  H   UNL A   1      34.589  16.279  23.597  1.00  0.00     0.345 HD
ENDBRANCH  18  19
ENDBRANCH  12  14
ENDBRANCH   9  12
ENDBRANCH   7   9
ENDBRANCH   6   7
ENDBRANCH   4   6
ENDBRANCH   3   4
ENDBRANCH   2   3
ENDBRANCH   1   2
BRANCH   1  23
ATOM     23  O   UNL A   1      31.036  28.832  25.479  1.00  0.00    -0.374 OA
BRANCH  23  24
ATOM     24  C   UNL A   1      32.025  29.855  25.413  1.00  0.00     0.202 C 
BRANCH  24  25
ATOM     25  C   UNL A   1      33.463  29.437  25.740  1.00  0.00     0.261 C 
BRANCH  25  26
ATOM     26  O   UNL A   1      33.722  29.445  27.156  1.00  0.00    -0.460 OA
BRANCH  26  27
ATOM     27  C   UNL A   1      34.471  30.487  27.584  1.00  0.00     0.338 C 
ATOM     28  O   UNL A   1      34.095  31.644  27.744  1.00  0.00    -0.246 OA
BRANCH  27  29
ATOM     29  C   UNL A   1      35.801  30.027  28.025  1.00  0.00     0.060 A 
ATOM     30  C   UNL A   1      35.903  29.512  29.324  1.00  0.00     0.016 A 
ATOM     31  C   UNL A   1      36.940  30.162  27.226  1.00  0.00     0.016 A 
ATOM     32  C   UNL A   1      37.150  29.185  29.852  1.00  0.00     0.010 A 
ATOM     33  C   UNL A   1      38.193  29.838  27.763  1.00  0.00     0.010 A 
ATOM     34  C   UNL A   1      38.308  29.387  29.091  1.00  0.00    -0.014 A 
BRANCH  34  35
ATOM     35  C   UNL A   1      39.637  29.263  29.742  1.00  0.00     0.031 A 
ATOM     36  C   UNL A   1      40.612  28.236  29.224  1.00  0.00     0.074 A 
ATOM     37  C   UNL A   1      39.992  30.079  30.752  1.00  0.00     0.049 A 
ATOM     38  N   UNL A   1      41.820  27.959  29.641  1.00  0.00    -0.248 NA
ATOM     39  C   UNL A   1      40.165  27.414  28.087  1.00  0.00     0.031 C 
ATOM     40  C   UNL A   1      39.156  31.138  31.317  1.00  0.00     0.029 A 
ATOM     41  N   UNL A   1      41.152  30.140  31.484  1.00  0.00    -0.354 N 
ATOM     42  C   UNL A   1      42.272  26.921  28.833  1.00  0.00     0.074 A 
ATOM     43  C   UNL A   1      41.202  26.605  27.912  1.00  0.00     0.031 C 
ATOM     44  C   UNL A   1      39.830  31.741  32.313  1.00  0.00     0.029 A 
ATOM     45  C   UNL A   1      41.129  31.091  32.476  1.00  0.00     0.049 A 
ATOM     46  H   UNL A   1      41.927  29.558  31.313  1.00  0.00     0.167 HD
ATOM     47  C   UNL A   1      43.470  26.289  28.855  1.00  0.00     0.031 A 
ATOM     48  C   UNL A   1      42.043  31.389  33.422  1.00  0.00     0.031 A 
ATOM     49  C   UNL A   1      44.537  26.609  29.765  1.00  0.00     0.049 A 
ATOM     50  C   UNL A   1      43.345  30.630  33.460  1.00  0.00     0.074 A 
ATOM     51  C   UNL A   1      45.803  26.054  29.831  1.00  0.00     0.029 A 
ATOM     52  N   UNL A   1      44.463  27.556  30.773  1.00  0.00    -0.354 N 
ATOM     53  N   UNL A   1      43.775  29.688  32.654  1.00  0.00    -0.248 NA
ATOM     54  C   UNL A   1      44.290  30.984  34.529  1.00  0.00     0.031 C 
ATOM     55  C   UNL A   1      46.472  26.621  30.919  1.00  0.00     0.029 A 
ATOM     56  C   UNL A   1      45.647  27.576  31.490  1.00  0.00     0.049 A 
ATOM     57  H   UNL A   1      43.684  28.131  30.953  1.00  0.00     0.167 HD
ATOM     58  C   UNL A   1      45.051  29.359  33.102  1.00  0.00     0.074 A 
ATOM     59  C   UNL A   1      45.329  30.212  34.238  1.00  0.00     0.031 C 
ATOM     60  C   UNL A   1      45.916  28.436  32.615  1.00  0.00     0.031 A 
BRANCH  47  61
ATOM     61  C   UNL A   1      43.686  25.156  27.888  1.00  0.00    -0.014 A 
ATOM     62  C   UNL A   1      44.296  25.362  26.639  1.00  0.00     0.010 A 
ATOM     63  C   UNL A   1      43.333  23.848  28.271  1.00  0.00     0.010 A 
ATOM     64  C   UNL A   1      44.529  24.283  25.781  1.00  0.00     0.020 A 
ATOM     65  C   UNL A   1      43.587  22.764  27.427  1.00  0.00     0.020 A 
ATOM     66  C   UNL A   1      44.174  22.990  26.181  1.00  0.00     0.054 A 
BRANCH  66  67
ATOM     67  S   UNL A   1      44.529  21.604  25.067  1.00  0.00     0.124 S 
ATOM     68  O   UNL A   1      45.884  21.235  25.468  1.00  0.00    -0.237 OA
ATOM     69  O   UNL A   1      43.488  20.639  25.414  1.00  0.00    -0.237 OA
ATOM     70  O   UNL A   1      44.412  22.190  23.735  1.00  0.00    -0.744 OA
ENDBRANCH  66  67
ENDBRANCH  47  61
BRANCH  48  71
ATOM     71  C   UNL A   1      41.752  32.437  34.442  1.00  0.00    -0.014 A 
ATOM     72  C   UNL A   1      41.070  32.119  35.629  1.00  0.00     0.010 A 
ATOM     73  C   UNL A   1      42.129  33.773  34.208  1.00  0.00     0.010 A 
ATOM     74  C   UNL A   1      40.739  33.121  36.547  1.00  0.00     0.020 A 
ATOM     75  C   UNL A   1      41.827  34.772  35.137  1.00  0.00     0.020 A 
ATOM     76  C   UNL A   1      41.117  34.442  36.293  1.00  0.00     0.054 A 
BRANCH  76  77
ATOM     77  S   UNL A   1      40.694  35.725  37.505  1.00  0.00     0.124 S 
ATOM     78  O   UNL A   1      42.009  36.242  37.869  1.00  0.00    -0.237 OA
ATOM     79  O   UNL A   1      39.850  36.628  36.727  1.00  0.00    -0.237 OA
ATOM     80  O   UNL A   1      39.998  34.984  38.554  1.00  0.00    -0.744 OA
ENDBRANCH  76  77
ENDBRANCH  48  71
BRANCH  60  81
ATOM     81  C   UNL A   1      47.266  28.324  33.275  1.00  0.00    -0.014 A 
ATOM     82  C   UNL A   1      47.494  27.419  34.326  1.00  0.00     0.010 A 
ATOM     83  C   UNL A   1      48.337  29.099  32.793  1.00  0.00     0.010 A 
ATOM     84  C   UNL A   1      48.762  27.313  34.904  1.00  0.00     0.020 A 
ATOM     85  C   UNL A   1      49.613  28.974  33.349  1.00  0.00     0.020 A 
ATOM     86  C   UNL A   1      49.814  28.093  34.412  1.00  0.00     0.054 A 
BRANCH  86  87
ATOM     87  S   UNL A   1      51.461  27.906  35.150  1.00  0.00     0.124 S 
ATOM     88  O   UNL A   1      51.737  29.259  35.622  1.00  0.00    -0.237 OA
ATOM     89  O   UNL A   1      51.234  26.910  36.194  1.00  0.00    -0.237 OA
ATOM     90  O   UNL A   1      52.290  27.453  34.036  1.00  0.00    -0.744 OA
ENDBRANCH  86  87
ENDBRANCH  60  81
ENDBRANCH  34  35
ENDBRANCH  27  29
ENDBRANCH  26  27
ENDBRANCH  25  26
ENDBRANCH  24  25
ENDBRANCH  23  24
ENDBRANCH   1  23
TORSDOF 23
ENDMDL
