MODEL 1
REMARK VINA RESULT:     -10.4      0.000      0.000
REMARK SMILES C[C@@H](C(=O)OCCOCCOC(=O)c1ccc(-c2c3nc(c(-c4ccc(S(=O)(=O)[O-])cc4)c4ccc([nH]4)c(-c4ccc(S(=O)(=O)[O-])cc4)c4nc(c(-c5ccc(S(=O)(=O)[O-])cc5)c5ccc2[nH]5)C=C4)C=C3)cc1)[N@@H+]1CCc2n[nH]c(C(c3ccccc3)c3ccccc3)c2C1
REMARK SMILES IDX 8 1 7 2 6 3 5 4 3 5 4 6 2 7 1 8 74 9 75 10 95 11 76 13 94 14
REMARK SMILES IDX 77 15 80 16 78 17 79 18 81 20 82 21 83 22 87 23 84 24 86 25
REMARK SMILES IDX 85 26 88 27 89 28 93 29 90 30 92 31 91 32 9 33 10 34 11 35
REMARK SMILES IDX 12 36 13 37 14 38 15 39 73 40 16 41 72 42 17 43 18 44 19 45
REMARK SMILES IDX 66 46 20 47 71 48 65 49 67 50 21 51 70 52 64 53 63 54 22 56
REMARK SMILES IDX 52 57 33 58 51 59 34 60 37 61 50 62 68 63 35 64 36 65 49 67
REMARK SMILES IDX 69 68 38 69 23 70 24 71 32 72 25 73 31 74 26 75 27 76 28 77
REMARK SMILES IDX 29 78 30 79 53 80 54 81 62 82 55 83 61 84 56 85 57 86 58 87
REMARK SMILES IDX 59 88 60 89 39 90 40 91 48 92 41 93 47 94 42 95 43 96 44 97
REMARK SMILES IDX 45 98 46 99
REMARK H PARENT 74 12 79 19 67 55 37 66
REMARK Flexibility Score: inf
ROOT
ATOM      1  O   UNL A   1      38.865  21.085  25.279  1.00  0.00    -0.374 OA
ENDROOT
BRANCH   1   2
ATOM      2  C   UNL A   1      37.649  21.689  25.757  1.00  0.00     0.202 C 
BRANCH   2   3
ATOM      3  C   UNL A   1      36.447  21.411  24.801  1.00  0.00     0.261 C 
BRANCH   3   4
ATOM      4  O   UNL A   1      36.371  22.341  23.683  1.00  0.00    -0.459 OA
BRANCH   4   5
ATOM      5  C   UNL A   1      35.394  23.306  23.795  1.00  0.00     0.364 C 
ATOM      6  O   UNL A   1      35.643  24.478  24.069  1.00  0.00    -0.245 OA
BRANCH   5   7
ATOM      7  C   UNL A   1      33.946  22.811  23.437  1.00  0.00     0.292 C 
ATOM      8  C   UNL A   1      33.309  23.675  22.355  1.00  0.00     0.088 C 
BRANCH   7   9
ATOM      9  N   UNL A   1      33.107  22.483  24.642  1.00  0.00    -0.319 N 
ATOM     10  C   UNL A   1      31.648  22.217  24.426  1.00  0.00     0.269 C 
ATOM     11  C   UNL A   1      33.296  23.452  25.716  1.00  0.00     0.303 C 
ATOM     12  H   UNL A   1      33.478  21.573  24.914  1.00  0.00     0.349 HD
ATOM     13  C   UNL A   1      30.646  22.863  25.468  1.00  0.00     0.120 C 
ATOM     14  C   UNL A   1      32.414  24.635  25.456  1.00  0.00     0.052 A 
ATOM     15  C   UNL A   1      31.080  24.262  25.747  1.00  0.00     0.077 A 
ATOM     16  C   UNL A   1      32.410  25.989  25.766  1.00  0.00     0.056 A 
ATOM     17  N   UNL A   1      30.629  25.011  26.760  1.00  0.00    -0.180 NA
ATOM     18  N   UNL A   1      31.630  25.909  26.899  1.00  0.00    -0.281 N 
ATOM     19  H   UNL A   1      31.783  26.443  27.712  1.00  0.00     0.190 HD
BRANCH  16  20
ATOM     20  C   UNL A   1      32.602  27.320  24.983  1.00  0.00     0.098 C 
BRANCH  20  21
ATOM     21  C   UNL A   1      31.424  27.673  24.034  1.00  0.00    -0.035 A 
ATOM     22  C   UNL A   1      31.578  28.644  23.024  1.00  0.00     0.005 A 
ATOM     23  C   UNL A   1      30.124  27.166  24.254  1.00  0.00     0.005 A 
ATOM     24  C   UNL A   1      30.478  29.101  22.284  1.00  0.00     0.000 A 
ATOM     25  C   UNL A   1      29.025  27.634  23.519  1.00  0.00     0.000 A 
ATOM     26  C   UNL A   1      29.201  28.604  22.536  1.00  0.00     0.000 A 
ENDBRANCH  20  21
BRANCH  20  27
ATOM     27  C   UNL A   1      32.994  28.544  25.891  1.00  0.00    -0.035 A 
ATOM     28  C   UNL A   1      32.106  29.594  26.200  1.00  0.00     0.005 A 
ATOM     29  C   UNL A   1      34.294  28.676  26.417  1.00  0.00     0.005 A 
ATOM     30  C   UNL A   1      32.462  30.637  27.066  1.00  0.00     0.000 A 
ATOM     31  C   UNL A   1      34.650  29.698  27.300  1.00  0.00     0.000 A 
ATOM     32  C   UNL A   1      33.727  30.674  27.637  1.00  0.00     0.000 A 
ENDBRANCH  20  27
ENDBRANCH  16  20
ENDBRANCH   7   9
ENDBRANCH   5   7
ENDBRANCH   4   5
ENDBRANCH   3   4
ENDBRANCH   2   3
ENDBRANCH   1   2
BRANCH   1  33
ATOM     33  C   UNL A   1      38.972  19.666  25.427  1.00  0.00     0.202 C 
BRANCH  33  34
ATOM     34  C   UNL A   1      40.287  19.169  26.040  1.00  0.00     0.261 C 
BRANCH  34  35
ATOM     35  O   UNL A   1      40.885  20.183  26.861  1.00  0.00    -0.460 OA
BRANCH  35  36
ATOM     36  C   UNL A   1      42.045  20.698  26.390  1.00  0.00     0.338 C 
ATOM     37  O   UNL A   1      42.765  20.225  25.532  1.00  0.00    -0.246 OA
BRANCH  36  38
ATOM     38  C   UNL A   1      42.215  22.051  26.942  1.00  0.00     0.060 A 
ATOM     39  C   UNL A   1      42.036  23.126  26.076  1.00  0.00     0.016 A 
ATOM     40  C   UNL A   1      42.604  22.269  28.265  1.00  0.00     0.016 A 
ATOM     41  C   UNL A   1      42.319  24.414  26.517  1.00  0.00     0.010 A 
ATOM     42  C   UNL A   1      42.845  23.564  28.724  1.00  0.00     0.010 A 
ATOM     43  C   UNL A   1      42.770  24.635  27.828  1.00  0.00    -0.014 A 
BRANCH  43  44
ATOM     44  C   UNL A   1      43.333  25.960  28.172  1.00  0.00     0.031 A 
ATOM     45  C   UNL A   1      44.772  26.252  27.836  1.00  0.00     0.074 A 
ATOM     46  C   UNL A   1      42.540  26.919  28.682  1.00  0.00     0.049 A 
ATOM     47  N   UNL A   1      45.405  27.395  27.851  1.00  0.00    -0.248 NA
ATOM     48  C   UNL A   1      45.610  25.110  27.426  1.00  0.00     0.031 C 
ATOM     49  C   UNL A   1      41.141  26.740  29.071  1.00  0.00     0.029 A 
ATOM     50  N   UNL A   1      42.796  28.242  28.932  1.00  0.00    -0.354 N 
ATOM     51  C   UNL A   1      46.703  27.114  27.439  1.00  0.00     0.074 A 
ATOM     52  C   UNL A   1      46.787  25.686  27.240  1.00  0.00     0.031 C 
ATOM     53  C   UNL A   1      40.651  27.922  29.484  1.00  0.00     0.029 A 
ATOM     54  C   UNL A   1      41.701  28.934  29.389  1.00  0.00     0.049 A 
ATOM     55  H   UNL A   1      43.678  28.655  28.798  1.00  0.00     0.167 HD
ATOM     56  C   UNL A   1      47.728  27.971  27.219  1.00  0.00     0.031 A 
ATOM     57  C   UNL A   1      41.556  30.242  29.675  1.00  0.00     0.031 A 
ATOM     58  C   UNL A   1      47.642  29.389  27.426  1.00  0.00     0.049 A 
ATOM     59  C   UNL A   1      42.709  31.178  29.429  1.00  0.00     0.074 A 
ATOM     60  C   UNL A   1      48.608  30.354  27.202  1.00  0.00     0.029 A 
ATOM     61  N   UNL A   1      46.522  30.047  27.911  1.00  0.00    -0.354 N 
ATOM     62  N   UNL A   1      43.904  30.906  28.960  1.00  0.00    -0.248 NA
ATOM     63  C   UNL A   1      42.485  32.600  29.722  1.00  0.00     0.031 C 
ATOM     64  C   UNL A   1      48.086  31.591  27.595  1.00  0.00     0.029 A 
ATOM     65  C   UNL A   1      46.778  31.402  28.015  1.00  0.00     0.049 A 
ATOM     66  H   UNL A   1      45.670  29.614  28.148  1.00  0.00     0.167 HD
ATOM     67  C   UNL A   1      44.568  32.127  28.884  1.00  0.00     0.074 A 
ATOM     68  C   UNL A   1      43.634  33.138  29.339  1.00  0.00     0.031 C 
ATOM     69  C   UNL A   1      45.834  32.388  28.476  1.00  0.00     0.031 A 
BRANCH  56  70
ATOM     70  C   UNL A   1      49.027  27.387  26.731  1.00  0.00    -0.014 A 
ATOM     71  C   UNL A   1      49.311  27.303  25.356  1.00  0.00     0.010 A 
ATOM     72  C   UNL A   1      49.987  26.941  27.657  1.00  0.00     0.010 A 
ATOM     73  C   UNL A   1      50.514  26.747  24.913  1.00  0.00     0.020 A 
ATOM     74  C   UNL A   1      51.204  26.408  27.219  1.00  0.00     0.020 A 
ATOM     75  C   UNL A   1      51.452  26.298  25.849  1.00  0.00     0.054 A 
BRANCH  75  76
ATOM     76  S   UNL A   1      53.014  25.600  25.249  1.00  0.00     0.124 S 
ATOM     77  O   UNL A   1      52.860  24.187  25.586  1.00  0.00    -0.237 OA
ATOM     78  O   UNL A   1      52.980  25.911  23.822  1.00  0.00    -0.237 OA
ATOM     79  O   UNL A   1      54.031  26.316  26.015  1.00  0.00    -0.744 OA
ENDBRANCH  75  76
ENDBRANCH  56  70
BRANCH  57  80
ATOM     80  C   UNL A   1      40.258  30.742  30.199  1.00  0.00    -0.014 A 
ATOM     81  C   UNL A   1      40.084  31.007  31.569  1.00  0.00     0.010 A 
ATOM     82  C   UNL A   1      39.190  30.981  29.314  1.00  0.00     0.010 A 
ATOM     83  C   UNL A   1      38.862  31.491  32.045  1.00  0.00     0.020 A 
ATOM     84  C   UNL A   1      37.975  31.487  29.784  1.00  0.00     0.020 A 
ATOM     85  C   UNL A   1      37.816  31.730  31.149  1.00  0.00     0.054 A 
BRANCH  85  86
ATOM     86  S   UNL A   1      36.259  32.419  31.778  1.00  0.00     0.124 S 
ATOM     87  O   UNL A   1      36.112  31.723  33.052  1.00  0.00    -0.237 OA
ATOM     88  O   UNL A   1      36.558  33.846  31.867  1.00  0.00    -0.237 OA
ATOM     89  O   UNL A   1      35.287  32.058  30.748  1.00  0.00    -0.744 OA
ENDBRANCH  85  86
ENDBRANCH  57  80
BRANCH  69  90
ATOM     90  C   UNL A   1      46.280  33.825  28.486  1.00  0.00    -0.014 A 
ATOM     91  C   UNL A   1      46.925  34.374  29.607  1.00  0.00     0.010 A 
ATOM     92  C   UNL A   1      46.104  34.614  27.335  1.00  0.00     0.010 A 
ATOM     93  C   UNL A   1      47.359  35.702  29.588  1.00  0.00     0.020 A 
ATOM     94  C   UNL A   1      46.559  35.935  27.305  1.00  0.00     0.020 A 
ATOM     95  C   UNL A   1      47.171  36.475  28.438  1.00  0.00     0.054 A 
BRANCH  95  96
ATOM     96  S   UNL A   1      47.779  38.183  28.423  1.00  0.00     0.124 S 
ATOM     97  O   UNL A   1      47.131  38.725  27.232  1.00  0.00    -0.237 OA
ATOM     98  O   UNL A   1      47.295  38.709  29.697  1.00  0.00    -0.237 OA
ATOM     99  O   UNL A   1      49.230  38.032  28.330  1.00  0.00    -0.744 OA
ENDBRANCH  95  96
ENDBRANCH  69  90
ENDBRANCH  43  44
ENDBRANCH  36  38
ENDBRANCH  35  36
ENDBRANCH  34  35
ENDBRANCH  33  34
ENDBRANCH   1  33
TORSDOF 21
ENDMDL
MODEL 2
REMARK VINA RESULT:      -9.9      2.336      8.371
REMARK SMILES C[C@@H](C(=O)OCCOCCOC(=O)c1ccc(-c2c3nc(c(-c4ccc(S(=O)(=O)[O-])cc4)c4ccc([nH]4)c(-c4ccc(S(=O)(=O)[O-])cc4)c4nc(c(-c5ccc(S(=O)(=O)[O-])cc5)c5ccc2[nH]5)C=C4)C=C3)cc1)[N@@H+]1CCc2n[nH]c(C(c3ccccc3)c3ccccc3)c2C1
REMARK SMILES IDX 8 1 7 2 6 3 5 4 3 5 4 6 2 7 1 8 74 9 75 10 95 11 76 13 94 14
REMARK SMILES IDX 77 15 80 16 78 17 79 18 81 20 82 21 83 22 87 23 84 24 86 25
REMARK SMILES IDX 85 26 88 27 89 28 93 29 90 30 92 31 91 32 9 33 10 34 11 35
REMARK SMILES IDX 12 36 13 37 14 38 15 39 73 40 16 41 72 42 17 43 18 44 19 45
REMARK SMILES IDX 66 46 20 47 71 48 65 49 67 50 21 51 70 52 64 53 63 54 22 56
REMARK SMILES IDX 52 57 33 58 51 59 34 60 37 61 50 62 68 63 35 64 36 65 49 67
REMARK SMILES IDX 69 68 38 69 23 70 24 71 32 72 25 73 31 74 26 75 27 76 28 77
REMARK SMILES IDX 29 78 30 79 53 80 54 81 62 82 55 83 61 84 56 85 57 86 58 87
REMARK SMILES IDX 59 88 60 89 39 90 40 91 48 92 41 93 47 94 42 95 43 96 44 97
REMARK SMILES IDX 45 98 46 99
REMARK H PARENT 74 12 79 19 67 55 37 66
REMARK Flexibility Score: inf
ROOT
ATOM      1  O   UNL A   1      40.350  21.215  25.735  1.00  0.00    -0.374 OA
ENDROOT
BRANCH   1   2
ATOM      2  C   UNL A   1      39.361  22.060  26.354  1.00  0.00     0.202 C 
BRANCH   2   3
ATOM      3  C   UNL A   1      37.992  21.994  25.607  1.00  0.00     0.261 C 
BRANCH   3   4
ATOM      4  O   UNL A   1      37.642  23.237  24.934  1.00  0.00    -0.459 OA
BRANCH   4   5
ATOM      5  C   UNL A   1      36.307  23.575  24.992  1.00  0.00     0.364 C 
ATOM      6  O   UNL A   1      35.903  24.607  25.521  1.00  0.00    -0.245 OA
BRANCH   5   7
ATOM      7  C   UNL A   1      35.352  22.585  24.232  1.00  0.00     0.292 C 
ATOM      8  C   UNL A   1      34.670  23.261  23.049  1.00  0.00     0.088 C 
BRANCH   7   9
ATOM      9  N   UNL A   1      34.491  21.758  25.147  1.00  0.00    -0.319 N 
ATOM     10  C   UNL A   1      33.414  20.921  24.523  1.00  0.00     0.269 C 
ATOM     11  C   UNL A   1      33.950  22.549  26.246  1.00  0.00     0.303 C 
ATOM     12  H   UNL A   1      35.157  21.069  25.495  1.00  0.00     0.349 HD
ATOM     13  C   UNL A   1      32.009  20.914  25.253  1.00  0.00     0.120 C 
ATOM     14  C   UNL A   1      32.721  23.258  25.770  1.00  0.00     0.052 A 
ATOM     15  C   UNL A   1      31.676  22.308  25.667  1.00  0.00     0.077 A 
ATOM     16  C   UNL A   1      32.025  24.417  26.090  1.00  0.00     0.056 A 
ATOM     17  N   UNL A   1      30.703  22.635  26.526  1.00  0.00    -0.180 NA
ATOM     18  N   UNL A   1      31.118  23.847  26.956  1.00  0.00    -0.281 N 
ATOM     19  H   UNL A   1      30.810  24.272  27.789  1.00  0.00     0.190 HD
BRANCH  16  20
ATOM     20  C   UNL A   1      31.775  25.797  25.416  1.00  0.00     0.098 C 
BRANCH  20  21
ATOM     21  C   UNL A   1      32.377  27.001  26.193  1.00  0.00    -0.035 A 
ATOM     22  C   UNL A   1      31.542  27.994  26.742  1.00  0.00     0.005 A 
ATOM     23  C   UNL A   1      33.770  27.230  26.229  1.00  0.00     0.005 A 
ATOM     24  C   UNL A   1      32.077  29.173  27.283  1.00  0.00     0.000 A 
ATOM     25  C   UNL A   1      34.300  28.414  26.761  1.00  0.00     0.000 A 
ATOM     26  C   UNL A   1      33.454  29.388  27.285  1.00  0.00     0.000 A 
ENDBRANCH  20  21
BRANCH  20  27
ATOM     27  C   UNL A   1      32.165  25.845  23.893  1.00  0.00    -0.035 A 
ATOM     28  C   UNL A   1      31.521  25.075  22.904  1.00  0.00     0.005 A 
ATOM     29  C   UNL A   1      33.230  26.647  23.437  1.00  0.00     0.005 A 
ATOM     30  C   UNL A   1      31.845  25.190  21.545  1.00  0.00     0.000 A 
ATOM     31  C   UNL A   1      33.544  26.786  22.083  1.00  0.00     0.000 A 
ATOM     32  C   UNL A   1      32.840  26.066  21.132  1.00  0.00     0.000 A 
ENDBRANCH  20  27
ENDBRANCH  16  20
ENDBRANCH   7   9
ENDBRANCH   5   7
ENDBRANCH   4   5
ENDBRANCH   3   4
ENDBRANCH   2   3
ENDBRANCH   1   2
BRANCH   1  33
ATOM     33  C   UNL A   1      40.406  19.861  26.193  1.00  0.00     0.202 C 
BRANCH  33  34
ATOM     34  C   UNL A   1      41.817  19.295  26.393  1.00  0.00     0.261 C 
BRANCH  34  35
ATOM     35  O   UNL A   1      42.793  20.347  26.410  1.00  0.00    -0.460 OA
BRANCH  35  36
ATOM     36  C   UNL A   1      43.582  20.421  25.313  1.00  0.00     0.338 C 
ATOM     37  O   UNL A   1      43.629  19.635  24.386  1.00  0.00    -0.246 OA
BRANCH  36  38
ATOM     38  C   UNL A   1      44.255  21.730  25.308  1.00  0.00     0.060 A 
ATOM     39  C   UNL A   1      45.368  21.882  26.129  1.00  0.00     0.016 A 
ATOM     40  C   UNL A   1      43.774  22.809  24.565  1.00  0.00     0.016 A 
ATOM     41  C   UNL A   1      45.953  23.137  26.261  1.00  0.00     0.010 A 
ATOM     42  C   UNL A   1      44.386  24.059  24.659  1.00  0.00     0.010 A 
ATOM     43  C   UNL A   1      45.437  24.241  25.564  1.00  0.00    -0.014 A 
BRANCH  43  44
ATOM     44  C   UNL A   1      45.890  25.598  25.944  1.00  0.00     0.031 A 
ATOM     45  C   UNL A   1      45.028  26.426  26.859  1.00  0.00     0.074 A 
ATOM     46  C   UNL A   1      47.102  26.037  25.559  1.00  0.00     0.049 A 
ATOM     47  N   UNL A   1      45.321  27.537  27.483  1.00  0.00    -0.248 NA
ATOM     48  C   UNL A   1      43.658  25.944  27.109  1.00  0.00     0.031 C 
ATOM     49  C   UNL A   1      48.008  25.331  24.653  1.00  0.00     0.029 A 
ATOM     50  N   UNL A   1      47.787  27.171  25.908  1.00  0.00    -0.354 N 
ATOM     51  C   UNL A   1      44.184  27.874  28.209  1.00  0.00     0.074 A 
ATOM     52  C   UNL A   1      43.175  26.887  27.902  1.00  0.00     0.031 C 
ATOM     53  C   UNL A   1      49.147  26.037  24.541  1.00  0.00     0.029 A 
ATOM     54  C   UNL A   1      49.046  27.240  25.364  1.00  0.00     0.049 A 
ATOM     55  H   UNL A   1      47.412  27.869  26.491  1.00  0.00     0.167 HD
ATOM     56  C   UNL A   1      44.003  28.898  29.076  1.00  0.00     0.031 A 
ATOM     57  C   UNL A   1      50.017  28.158  25.532  1.00  0.00     0.031 A 
ATOM     58  C   UNL A   1      45.006  29.881  29.372  1.00  0.00     0.049 A 
ATOM     59  C   UNL A   1      49.795  29.293  26.496  1.00  0.00     0.074 A 
ATOM     60  C   UNL A   1      44.941  30.941  30.259  1.00  0.00     0.029 A 
ATOM     61  N   UNL A   1      46.261  29.927  28.782  1.00  0.00    -0.354 N 
ATOM     62  N   UNL A   1      48.741  29.549  27.236  1.00  0.00    -0.248 NA
ATOM     63  C   UNL A   1      50.900  30.244  26.668  1.00  0.00     0.031 C 
ATOM     64  C   UNL A   1      46.141  31.654  30.172  1.00  0.00     0.029 A 
ATOM     65  C   UNL A   1      46.971  31.009  29.269  1.00  0.00     0.049 A 
ATOM     66  H   UNL A   1      46.596  29.285  28.115  1.00  0.00     0.167 HD
ATOM     67  C   UNL A   1      49.066  30.681  27.977  1.00  0.00     0.074 A 
ATOM     68  C   UNL A   1      50.419  31.047  27.607  1.00  0.00     0.031 C 
ATOM     69  C   UNL A   1      48.315  31.356  28.881  1.00  0.00     0.031 A 
BRANCH  56  70
ATOM     70  C   UNL A   1      42.665  28.999  29.759  1.00  0.00    -0.014 A 
ATOM     71  C   UNL A   1      41.600  29.700  29.165  1.00  0.00     0.010 A 
ATOM     72  C   UNL A   1      42.460  28.365  30.998  1.00  0.00     0.010 A 
ATOM     73  C   UNL A   1      40.367  29.799  29.813  1.00  0.00     0.020 A 
ATOM     74  C   UNL A   1      41.219  28.440  31.639  1.00  0.00     0.020 A 
ATOM     75  C   UNL A   1      40.186  29.172  31.050  1.00  0.00     0.054 A 
BRANCH  75  76
ATOM     76  S   UNL A   1      38.569  29.298  31.862  1.00  0.00     0.124 S 
ATOM     77  O   UNL A   1      38.586  30.675  32.351  1.00  0.00    -0.237 OA
ATOM     78  O   UNL A   1      37.637  29.033  30.768  1.00  0.00    -0.237 OA
ATOM     79  O   UNL A   1      38.619  28.269  32.897  1.00  0.00    -0.744 OA
ENDBRANCH  75  76
ENDBRANCH  56  70
BRANCH  57  80
ATOM     80  C   UNL A   1      51.297  28.020  24.788  1.00  0.00    -0.014 A 
ATOM     81  C   UNL A   1      52.397  27.357  25.359  1.00  0.00     0.010 A 
ATOM     82  C   UNL A   1      51.408  28.533  23.483  1.00  0.00     0.010 A 
ATOM     83  C   UNL A   1      53.590  27.221  24.642  1.00  0.00     0.020 A 
ATOM     84  C   UNL A   1      52.591  28.378  22.754  1.00  0.00     0.020 A 
ATOM     85  C   UNL A   1      53.678  27.730  23.343  1.00  0.00     0.054 A 
BRANCH  85  86
ATOM     86  S   UNL A   1      55.213  27.488  22.405  1.00  0.00     0.124 S 
ATOM     87  O   UNL A   1      55.643  28.861  22.166  1.00  0.00    -0.237 OA
ATOM     88  O   UNL A   1      56.035  26.719  23.337  1.00  0.00    -0.237 OA
ATOM     89  O   UNL A   1      54.775  26.750  21.222  1.00  0.00    -0.744 OA
ENDBRANCH  85  86
ENDBRANCH  57  80
BRANCH  69  90
ATOM     90  C   UNL A   1      48.943  32.551  29.546  1.00  0.00    -0.014 A 
ATOM     91  C   UNL A   1      49.750  32.402  30.687  1.00  0.00     0.010 A 
ATOM     92  C   UNL A   1      48.771  33.828  28.985  1.00  0.00     0.010 A 
ATOM     93  C   UNL A   1      50.350  33.518  31.275  1.00  0.00     0.020 A 
ATOM     94  C   UNL A   1      49.390  34.943  29.556  1.00  0.00     0.020 A 
ATOM     95  C   UNL A   1      50.164  34.782  30.707  1.00  0.00     0.054 A 
BRANCH  95  96
ATOM     96  S   UNL A   1      50.986  36.211  31.464  1.00  0.00     0.124 S 
ATOM     97  O   UNL A   1      49.959  37.244  31.354  1.00  0.00    -0.237 OA
ATOM     98  O   UNL A   1      51.264  35.742  32.820  1.00  0.00    -0.237 OA
ATOM     99  O   UNL A   1      52.167  36.413  30.628  1.00  0.00    -0.744 OA
ENDBRANCH  95  96
ENDBRANCH  69  90
ENDBRANCH  43  44
ENDBRANCH  36  38
ENDBRANCH  35  36
ENDBRANCH  34  35
ENDBRANCH  33  34
ENDBRANCH   1  33
TORSDOF 21
ENDMDL
MODEL 3
REMARK VINA RESULT:      -9.8      5.337      8.178
REMARK SMILES C[C@@H](C(=O)OCCOCCOC(=O)c1ccc(-c2c3nc(c(-c4ccc(S(=O)(=O)[O-])cc4)c4ccc([nH]4)c(-c4ccc(S(=O)(=O)[O-])cc4)c4nc(c(-c5ccc(S(=O)(=O)[O-])cc5)c5ccc2[nH]5)C=C4)C=C3)cc1)[N@@H+]1CCc2n[nH]c(C(c3ccccc3)c3ccccc3)c2C1
REMARK SMILES IDX 8 1 7 2 6 3 5 4 3 5 4 6 2 7 1 8 74 9 75 10 95 11 76 13 94 14
REMARK SMILES IDX 77 15 80 16 78 17 79 18 81 20 82 21 83 22 87 23 84 24 86 25
REMARK SMILES IDX 85 26 88 27 89 28 93 29 90 30 92 31 91 32 9 33 10 34 11 35
REMARK SMILES IDX 12 36 13 37 14 38 15 39 73 40 16 41 72 42 17 43 18 44 19 45
REMARK SMILES IDX 66 46 20 47 71 48 65 49 67 50 21 51 70 52 64 53 63 54 22 56
REMARK SMILES IDX 52 57 33 58 51 59 34 60 37 61 50 62 68 63 35 64 36 65 49 67
REMARK SMILES IDX 69 68 38 69 23 70 24 71 32 72 25 73 31 74 26 75 27 76 28 77
REMARK SMILES IDX 29 78 30 79 53 80 54 81 62 82 55 83 61 84 56 85 57 86 58 87
REMARK SMILES IDX 59 88 60 89 39 90 40 91 48 92 41 93 47 94 42 95 43 96 44 97
REMARK SMILES IDX 45 98 46 99
REMARK H PARENT 74 12 79 19 67 55 37 66
REMARK Flexibility Score: inf
ROOT
ATOM      1  O   UNL A   1      41.956  22.809  26.222  1.00  0.00    -0.374 OA
ENDROOT
BRANCH   1   2
ATOM      2  C   UNL A   1      42.190  21.684  27.089  1.00  0.00     0.202 C 
BRANCH   2   3
ATOM      3  C   UNL A   1      41.603  20.364  26.500  1.00  0.00     0.261 C 
BRANCH   3   4
ATOM      4  O   UNL A   1      40.602  20.588  25.466  1.00  0.00    -0.459 OA
BRANCH   4   5
ATOM      5  C   UNL A   1      39.485  19.786  25.554  1.00  0.00     0.364 C 
ATOM      6  O   UNL A   1      39.549  18.571  25.730  1.00  0.00    -0.245 OA
BRANCH   5   7
ATOM      7  C   UNL A   1      38.120  20.564  25.518  1.00  0.00     0.292 C 
ATOM      8  C   UNL A   1      37.043  19.774  24.783  1.00  0.00     0.088 C 
BRANCH   7   9
ATOM      9  N   UNL A   1      38.267  22.021  25.171  1.00  0.00    -0.319 N 
ATOM     10  C   UNL A   1      38.526  22.982  26.291  1.00  0.00     0.269 C 
ATOM     11  C   UNL A   1      37.169  22.494  24.336  1.00  0.00     0.303 C 
ATOM     12  H   UNL A   1      39.141  22.024  24.646  1.00  0.00     0.349 HD
ATOM     13  C   UNL A   1      37.725  24.347  26.255  1.00  0.00     0.120 C 
ATOM     14  C   UNL A   1      36.011  22.846  25.218  1.00  0.00     0.052 A 
ATOM     15  C   UNL A   1      36.311  24.065  25.873  1.00  0.00     0.077 A 
ATOM     16  C   UNL A   1      34.628  22.913  25.105  1.00  0.00     0.056 A 
ATOM     17  N   UNL A   1      35.426  24.993  25.494  1.00  0.00    -0.180 NA
ATOM     18  N   UNL A   1      34.540  24.252  24.793  1.00  0.00    -0.281 N 
ATOM     19  H   UNL A   1      33.907  24.623  24.136  1.00  0.00     0.190 HD
BRANCH  16  20
ATOM     20  C   UNL A   1      33.417  22.109  25.660  1.00  0.00     0.098 C 
BRANCH  20  21
ATOM     21  C   UNL A   1      32.169  22.979  25.975  1.00  0.00    -0.035 A 
ATOM     22  C   UNL A   1      31.112  22.468  26.754  1.00  0.00     0.005 A 
ATOM     23  C   UNL A   1      31.973  24.235  25.359  1.00  0.00     0.005 A 
ATOM     24  C   UNL A   1      29.906  23.172  26.892  1.00  0.00     0.000 A 
ATOM     25  C   UNL A   1      30.762  24.930  25.491  1.00  0.00     0.000 A 
ATOM     26  C   UNL A   1      29.727  24.397  26.254  1.00  0.00     0.000 A 
ENDBRANCH  20  21
BRANCH  20  27
ATOM     27  C   UNL A   1      33.036  20.850  24.797  1.00  0.00    -0.035 A 
ATOM     28  C   UNL A   1      33.128  19.527  25.274  1.00  0.00     0.005 A 
ATOM     29  C   UNL A   1      32.612  20.984  23.460  1.00  0.00     0.005 A 
ATOM     30  C   UNL A   1      32.715  18.431  24.504  1.00  0.00     0.000 A 
ATOM     31  C   UNL A   1      32.177  19.900  22.694  1.00  0.00     0.000 A 
ATOM     32  C   UNL A   1      32.216  18.620  23.223  1.00  0.00     0.000 A 
ENDBRANCH  20  27
ENDBRANCH  16  20
ENDBRANCH   7   9
ENDBRANCH   5   7
ENDBRANCH   4   5
ENDBRANCH   3   4
ENDBRANCH   2   3
ENDBRANCH   1   2
BRANCH   1  33
ATOM     33  C   UNL A   1      43.041  23.195  25.373  1.00  0.00     0.202 C 
BRANCH  33  34
ATOM     34  C   UNL A   1      44.345  23.549  26.098  1.00  0.00     0.261 C 
BRANCH  34  35
ATOM     35  O   UNL A   1      44.146  24.642  27.007  1.00  0.00    -0.460 OA
BRANCH  35  36
ATOM     36  C   UNL A   1      43.779  25.811  26.433  1.00  0.00     0.338 C 
ATOM     37  O   UNL A   1      43.923  26.137  25.271  1.00  0.00    -0.246 OA
BRANCH  36  38
ATOM     38  C   UNL A   1      42.981  26.579  27.403  1.00  0.00     0.060 A 
ATOM     39  C   UNL A   1      43.240  27.943  27.509  1.00  0.00     0.016 A 
ATOM     40  C   UNL A   1      42.043  25.972  28.238  1.00  0.00     0.016 A 
ATOM     41  C   UNL A   1      42.610  28.682  28.505  1.00  0.00     0.010 A 
ATOM     42  C   UNL A   1      41.375  26.719  29.208  1.00  0.00     0.010 A 
ATOM     43  C   UNL A   1      41.710  28.065  29.389  1.00  0.00    -0.014 A 
BRANCH  43  44
ATOM     44  C   UNL A   1      41.286  28.801  30.601  1.00  0.00     0.031 A 
ATOM     45  C   UNL A   1      42.121  28.697  31.849  1.00  0.00     0.074 A 
ATOM     46  C   UNL A   1      40.228  29.630  30.551  1.00  0.00     0.049 A 
ATOM     47  N   UNL A   1      42.060  29.411  32.942  1.00  0.00    -0.248 NA
ATOM     48  C   UNL A   1      43.166  27.657  31.872  1.00  0.00     0.031 C 
ATOM     49  C   UNL A   1      39.332  29.790  29.405  1.00  0.00     0.029 A 
ATOM     50  N   UNL A   1      39.749  30.515  31.481  1.00  0.00    -0.354 N 
ATOM     51  C   UNL A   1      43.062  28.919  33.772  1.00  0.00     0.074 A 
ATOM     52  C   UNL A   1      43.677  27.808  33.083  1.00  0.00     0.031 C 
ATOM     53  C   UNL A   1      38.427  30.742  29.690  1.00  0.00     0.029 A 
ATOM     54  C   UNL A   1      38.680  31.253  31.036  1.00  0.00     0.049 A 
ATOM     55  H   UNL A   1      40.134  30.611  32.382  1.00  0.00     0.167 HD
ATOM     56  C   UNL A   1      43.455  29.369  34.986  1.00  0.00     0.031 A 
ATOM     57  C   UNL A   1      37.998  32.247  31.637  1.00  0.00     0.031 A 
ATOM     58  C   UNL A   1      42.835  30.469  35.670  1.00  0.00     0.049 A 
ATOM     59  C   UNL A   1      38.447  32.730  32.990  1.00  0.00     0.074 A 
ATOM     60  C   UNL A   1      43.175  31.030  36.889  1.00  0.00     0.029 A 
ATOM     61  N   UNL A   1      41.741  31.175  35.194  1.00  0.00    -0.354 N 
ATOM     62  N   UNL A   1      39.450  32.307  33.724  1.00  0.00    -0.248 NA
ATOM     63  C   UNL A   1      37.692  33.841  33.583  1.00  0.00     0.031 C 
ATOM     64  C   UNL A   1      42.257  32.047  37.169  1.00  0.00     0.029 A 
ATOM     65  C   UNL A   1      41.378  32.152  36.102  1.00  0.00     0.049 A 
ATOM     66  H   UNL A   1      41.289  31.006  34.336  1.00  0.00     0.167 HD
ATOM     67  C   UNL A   1      39.457  33.114  34.857  1.00  0.00     0.074 A 
ATOM     68  C   UNL A   1      38.371  34.060  34.701  1.00  0.00     0.031 C 
ATOM     69  C   UNL A   1      40.288  33.078  35.928  1.00  0.00     0.031 A 
BRANCH  56  70
ATOM     70  C   UNL A   1      44.610  28.663  35.646  1.00  0.00    -0.014 A 
ATOM     71  C   UNL A   1      44.391  27.673  36.622  1.00  0.00     0.010 A 
ATOM     72  C   UNL A   1      45.929  28.973  35.270  1.00  0.00     0.010 A 
ATOM     73  C   UNL A   1      45.469  27.034  37.238  1.00  0.00     0.020 A 
ATOM     74  C   UNL A   1      47.011  28.317  35.866  1.00  0.00     0.020 A 
ATOM     75  C   UNL A   1      46.774  27.364  36.859  1.00  0.00     0.054 A 
BRANCH  75  76
ATOM     76  S   UNL A   1      48.156  26.504  37.659  1.00  0.00     0.124 S 
ATOM     77  O   UNL A   1      48.300  27.260  38.901  1.00  0.00    -0.237 OA
ATOM     78  O   UNL A   1      47.646  25.143  37.809  1.00  0.00    -0.237 OA
ATOM     79  O   UNL A   1      49.255  26.653  36.708  1.00  0.00    -0.744 OA
ENDBRANCH  75  76
ENDBRANCH  56  70
BRANCH  57  80
ATOM     80  C   UNL A   1      36.838  32.867  30.945  1.00  0.00    -0.014 A 
ATOM     81  C   UNL A   1      35.554  32.836  31.516  1.00  0.00     0.010 A 
ATOM     82  C   UNL A   1      37.024  33.521  29.713  1.00  0.00     0.010 A 
ATOM     83  C   UNL A   1      34.474  33.437  30.861  1.00  0.00     0.020 A 
ATOM     84  C   UNL A   1      35.951  34.143  29.067  1.00  0.00     0.020 A 
ATOM     85  C   UNL A   1      34.681  34.088  29.642  1.00  0.00     0.054 A 
BRANCH  85  86
ATOM     86  S   UNL A   1      33.280  34.917  28.839  1.00  0.00     0.124 S 
ATOM     87  O   UNL A   1      32.358  35.105  29.954  1.00  0.00    -0.237 OA
ATOM     88  O   UNL A   1      33.893  36.134  28.311  1.00  0.00    -0.237 OA
ATOM     89  O   UNL A   1      32.852  33.956  27.824  1.00  0.00    -0.744 OA
ENDBRANCH  85  86
ENDBRANCH  57  80
BRANCH  69  90
ATOM     90  C   UNL A   1      40.064  34.099  37.010  1.00  0.00    -0.014 A 
ATOM     91  C   UNL A   1      40.516  35.421  36.861  1.00  0.00     0.010 A 
ATOM     92  C   UNL A   1      39.339  33.743  38.161  1.00  0.00     0.010 A 
ATOM     93  C   UNL A   1      40.274  36.365  37.862  1.00  0.00     0.020 A 
ATOM     94  C   UNL A   1      39.074  34.691  39.153  1.00  0.00     0.020 A 
ATOM     95  C   UNL A   1      39.556  35.993  39.003  1.00  0.00     0.054 A 
BRANCH  95  96
ATOM     96  S   UNL A   1      39.219  37.245  40.271  1.00  0.00     0.124 S 
ATOM     97  O   UNL A   1      38.437  38.228  39.525  1.00  0.00    -0.237 OA
ATOM     98  O   UNL A   1      38.481  36.491  41.281  1.00  0.00    -0.237 OA
ATOM     99  O   UNL A   1      40.549  37.688  40.682  1.00  0.00    -0.744 OA
ENDBRANCH  95  96
ENDBRANCH  69  90
ENDBRANCH  43  44
ENDBRANCH  36  38
ENDBRANCH  35  36
ENDBRANCH  34  35
ENDBRANCH  33  34
ENDBRANCH   1  33
TORSDOF 21
ENDMDL
