MODEL 1
REMARK VINA RESULT:      -9.5      0.000      0.000
REMARK SMILES O=C(CC1(Nc2nc(C3CC3)ns2)CCC1)OCCOCCOC(=O)c1ccc(-c2c3nc(c(-c4ccc(S(=O)(=O)[O-])cc4)c4ccc([nH]4)c(-c4ccc(S(=O)(=O)[O-])cc4)c4nc(c(-c5ccc(S(=O)(=O)[O-])cc5)c5ccc2[nH]5)C=C4)C=C3)cc1
REMARK SMILES IDX 19 1 18 2 17 3 2 4 1 5 3 6 4 7 14 8 16 9 15 10 5 11 6 13
REMARK SMILES IDX 7 14 13 15 8 16 12 17 9 18 10 19 11 20 20 21 21 22 22 23
REMARK SMILES IDX 23 24 24 25 25 26 26 27 27 28 85 29 28 30 84 31 29 32 30 33
REMARK SMILES IDX 31 34 78 35 32 36 83 37 77 38 79 39 33 40 82 41 76 42 75 43
REMARK SMILES IDX 34 45 64 46 45 47 63 48 46 49 49 50 62 51 80 52 47 53 48 54
REMARK SMILES IDX 61 56 81 57 50 58 35 59 36 60 44 61 37 62 43 63 38 64 39 65
REMARK SMILES IDX 40 66 41 67 42 68 65 69 66 70 74 71 67 72 73 73 68 74 69 75
REMARK SMILES IDX 70 76 71 77 72 78 51 79 52 80 60 81 53 82 59 83 54 84 55 85
REMARK SMILES IDX 56 86 57 87 58 88
REMARK H PARENT 5 12 79 44 49 55
REMARK Flexibility Score: inf
ROOT
ATOM      1  C   UNL A   1      37.217  23.633  25.665  1.00  0.00     0.202 C 
ENDROOT
BRANCH   1   2
ATOM      2  C   UNL A   1      35.906  23.257  26.366  1.00  0.00     0.261 C 
BRANCH   2   3
ATOM      3  O   UNL A   1      35.619  21.854  26.385  1.00  0.00    -0.463 OA
BRANCH   3   4
ATOM      4  C   UNL A   1      35.654  21.134  25.232  1.00  0.00     0.308 C 
ATOM      5  O   UNL A   1      36.572  20.349  25.019  1.00  0.00    -0.252 OA
BRANCH   4   6
ATOM      6  C   UNL A   1      34.575  21.428  24.221  1.00  0.00     0.151 C 
BRANCH   6   7
ATOM      7  C   UNL A   1      33.185  20.863  24.516  1.00  0.00     0.050 C 
ATOM      8  C   UNL A   1      32.141  20.761  23.368  1.00  0.00     0.029 C 
ATOM      9  C   UNL A   1      33.224  19.290  24.541  1.00  0.00     0.029 C 
ATOM     10  C   UNL A   1      32.284  19.235  23.338  1.00  0.00     0.005 C 
BRANCH   7  11
ATOM     11  N   UNL A   1      32.590  21.317  25.761  1.00  0.00    -0.354 N 
ATOM     12  H   UNL A   1      32.634  20.709  26.533  1.00  0.00     0.163 HD
BRANCH  11  13
ATOM     13  C   UNL A   1      31.977  22.512  25.943  1.00  0.00     0.203 A 
ATOM     14  N   UNL A   1      32.527  23.699  25.839  1.00  0.00    -0.203 NA
ATOM     15  S   UNL A   1      30.352  22.633  26.520  1.00  0.00     0.004 S 
ATOM     16  C   UNL A   1      31.673  24.648  26.380  1.00  0.00     0.147 A 
ATOM     17  N   UNL A   1      30.474  24.270  26.832  1.00  0.00    -0.174 NA
BRANCH  16  18
ATOM     18  C   UNL A   1      32.100  26.112  26.494  1.00  0.00     0.059 C 
ATOM     19  C   UNL A   1      32.015  27.016  25.280  1.00  0.00     0.012 C 
ATOM     20  C   UNL A   1      31.030  27.179  26.387  1.00  0.00     0.012 C 
ENDBRANCH  16  18
ENDBRANCH  11  13
ENDBRANCH   7  11
ENDBRANCH   6   7
ENDBRANCH   4   6
ENDBRANCH   3   4
ENDBRANCH   2   3
ENDBRANCH   1   2
BRANCH   1  21
ATOM     21  O   UNL A   1      38.292  24.179  26.422  1.00  0.00    -0.374 OA
BRANCH  21  22
ATOM     22  C   UNL A   1      39.308  23.286  26.898  1.00  0.00     0.202 C 
BRANCH  22  23
ATOM     23  C   UNL A   1      39.338  21.881  26.290  1.00  0.00     0.261 C 
BRANCH  23  24
ATOM     24  O   UNL A   1      40.049  20.968  27.140  1.00  0.00    -0.460 OA
BRANCH  24  25
ATOM     25  C   UNL A   1      41.163  20.430  26.587  1.00  0.00     0.338 C 
ATOM     26  O   UNL A   1      41.240  19.404  25.935  1.00  0.00    -0.246 OA
BRANCH  25  27
ATOM     27  C   UNL A   1      42.247  21.430  26.647  1.00  0.00     0.060 A 
ATOM     28  C   UNL A   1      42.671  21.847  27.919  1.00  0.00     0.016 A 
ATOM     29  C   UNL A   1      42.808  21.971  25.489  1.00  0.00     0.016 A 
ATOM     30  C   UNL A   1      43.596  22.871  28.040  1.00  0.00     0.010 A 
ATOM     31  C   UNL A   1      43.712  23.024  25.610  1.00  0.00     0.010 A 
ATOM     32  C   UNL A   1      44.047  23.517  26.885  1.00  0.00    -0.014 A 
BRANCH  32  33
ATOM     33  C   UNL A   1      44.574  24.888  27.027  1.00  0.00     0.031 A 
ATOM     34  C   UNL A   1      43.608  25.952  27.480  1.00  0.00     0.074 A 
ATOM     35  C   UNL A   1      45.873  25.160  26.830  1.00  0.00     0.049 A 
ATOM     36  N   UNL A   1      43.813  27.223  27.694  1.00  0.00    -0.248 NA
ATOM     37  C   UNL A   1      42.220  25.517  27.726  1.00  0.00     0.031 C 
ATOM     38  C   UNL A   1      46.897  24.185  26.461  1.00  0.00     0.029 A 
ATOM     39  N   UNL A   1      46.549  26.346  26.926  1.00  0.00    -0.354 N 
ATOM     40  C   UNL A   1      42.580  27.741  28.076  1.00  0.00     0.074 A 
ATOM     41  C   UNL A   1      41.628  26.657  28.042  1.00  0.00     0.031 C 
ATOM     42  C   UNL A   1      48.081  24.818  26.362  1.00  0.00     0.029 A 
ATOM     43  C   UNL A   1      47.885  26.242  26.629  1.00  0.00     0.049 A 
ATOM     44  H   UNL A   1      46.119  27.194  27.183  1.00  0.00     0.167 HD
ATOM     45  C   UNL A   1      42.270  29.010  28.425  1.00  0.00     0.031 A 
ATOM     46  C   UNL A   1      48.833  27.196  26.571  1.00  0.00     0.031 A 
ATOM     47  C   UNL A   1      43.229  30.079  28.444  1.00  0.00     0.049 A 
ATOM     48  C   UNL A   1      48.451  28.616  26.903  1.00  0.00     0.074 A 
ATOM     49  C   UNL A   1      43.036  31.404  28.788  1.00  0.00     0.029 A 
ATOM     50  N   UNL A   1      44.565  29.944  28.092  1.00  0.00    -0.354 N 
ATOM     51  N   UNL A   1      47.284  29.095  27.272  1.00  0.00    -0.248 NA
ATOM     52  C   UNL A   1      49.518  29.620  26.827  1.00  0.00     0.031 C 
ATOM     53  C   UNL A   1      44.243  32.082  28.587  1.00  0.00     0.029 A 
ATOM     54  C   UNL A   1      45.204  31.165  28.189  1.00  0.00     0.049 A 
ATOM     55  H   UNL A   1      44.993  29.101  27.815  1.00  0.00     0.167 HD
ATOM     56  C   UNL A   1      47.489  30.449  27.515  1.00  0.00     0.074 A 
ATOM     57  C   UNL A   1      48.891  30.708  27.256  1.00  0.00     0.031 C 
ATOM     58  C   UNL A   1      46.604  31.393  27.927  1.00  0.00     0.031 A 
BRANCH  45  59
ATOM     59  C   UNL A   1      40.830  29.309  28.751  1.00  0.00    -0.014 A 
ATOM     60  C   UNL A   1      40.404  29.549  30.071  1.00  0.00     0.010 A 
ATOM     61  C   UNL A   1      39.884  29.350  27.712  1.00  0.00     0.010 A 
ATOM     62  C   UNL A   1      39.054  29.779  30.349  1.00  0.00     0.020 A 
ATOM     63  C   UNL A   1      38.538  29.611  27.980  1.00  0.00     0.020 A 
ATOM     64  C   UNL A   1      38.128  29.805  29.301  1.00  0.00     0.054 A 
BRANCH  64  65
ATOM     65  S   UNL A   1      36.383  30.119  29.686  1.00  0.00     0.124 S 
ATOM     66  O   UNL A   1      36.375  31.567  29.887  1.00  0.00    -0.237 OA
ATOM     67  O   UNL A   1      35.701  29.649  28.483  1.00  0.00    -0.237 OA
ATOM     68  O   UNL A   1      36.144  29.324  30.886  1.00  0.00    -0.744 OA
ENDBRANCH  64  65
ENDBRANCH  45  59
BRANCH  46  69
ATOM     69  C   UNL A   1      50.228  26.839  26.198  1.00  0.00    -0.014 A 
ATOM     70  C   UNL A   1      50.628  26.828  24.850  1.00  0.00     0.010 A 
ATOM     71  C   UNL A   1      51.169  26.516  27.193  1.00  0.00     0.010 A 
ATOM     72  C   UNL A   1      51.938  26.487  24.503  1.00  0.00     0.020 A 
ATOM     73  C   UNL A   1      52.488  26.204  26.852  1.00  0.00     0.020 A 
ATOM     74  C   UNL A   1      52.862  26.181  25.507  1.00  0.00     0.054 A 
BRANCH  74  75
ATOM     75  S   UNL A   1      54.571  25.796  25.033  1.00  0.00     0.124 S 
ATOM     76  O   UNL A   1      54.635  26.320  23.672  1.00  0.00    -0.237 OA
ATOM     77  O   UNL A   1      55.345  26.527  26.033  1.00  0.00    -0.237 OA
ATOM     78  O   UNL A   1      54.637  24.340  25.146  1.00  0.00    -0.744 OA
ENDBRANCH  74  75
ENDBRANCH  46  69
BRANCH  58  79
ATOM     79  C   UNL A   1      47.141  32.775  28.185  1.00  0.00    -0.014 A 
ATOM     80  C   UNL A   1      47.147  33.766  27.188  1.00  0.00     0.010 A 
ATOM     81  C   UNL A   1      47.615  33.093  29.472  1.00  0.00     0.010 A 
ATOM     82  C   UNL A   1      47.665  35.035  27.460  1.00  0.00     0.020 A 
ATOM     83  C   UNL A   1      48.100  34.370  29.757  1.00  0.00     0.020 A 
ATOM     84  C   UNL A   1      48.143  35.327  28.742  1.00  0.00     0.054 A 
BRANCH  84  85
ATOM     85  S   UNL A   1      48.796  36.985  29.075  1.00  0.00     0.124 S 
ATOM     86  O   UNL A   1      48.911  37.541  27.729  1.00  0.00    -0.237 OA
ATOM     87  O   UNL A   1      47.756  37.577  29.913  1.00  0.00    -0.237 OA
ATOM     88  O   UNL A   1      50.064  36.728  29.754  1.00  0.00    -0.744 OA
ENDBRANCH  84  85
ENDBRANCH  58  79
ENDBRANCH  32  33
ENDBRANCH  25  27
ENDBRANCH  24  25
ENDBRANCH  23  24
ENDBRANCH  22  23
ENDBRANCH  21  22
ENDBRANCH   1  21
TORSDOF 21
ENDMDL
MODEL 2
REMARK VINA RESULT:      -9.4      5.763      8.913
REMARK SMILES O=C(CC1(Nc2nc(C3CC3)ns2)CCC1)OCCOCCOC(=O)c1ccc(-c2c3nc(c(-c4ccc(S(=O)(=O)[O-])cc4)c4ccc([nH]4)c(-c4ccc(S(=O)(=O)[O-])cc4)c4nc(c(-c5ccc(S(=O)(=O)[O-])cc5)c5ccc2[nH]5)C=C4)C=C3)cc1
REMARK SMILES IDX 19 1 18 2 17 3 2 4 1 5 3 6 4 7 14 8 16 9 15 10 5 11 6 13
REMARK SMILES IDX 7 14 13 15 8 16 12 17 9 18 10 19 11 20 20 21 21 22 22 23
REMARK SMILES IDX 23 24 24 25 25 26 26 27 27 28 85 29 28 30 84 31 29 32 30 33
REMARK SMILES IDX 31 34 78 35 32 36 83 37 77 38 79 39 33 40 82 41 76 42 75 43
REMARK SMILES IDX 34 45 64 46 45 47 63 48 46 49 49 50 62 51 80 52 47 53 48 54
REMARK SMILES IDX 61 56 81 57 50 58 35 59 36 60 44 61 37 62 43 63 38 64 39 65
REMARK SMILES IDX 40 66 41 67 42 68 65 69 66 70 74 71 67 72 73 73 68 74 69 75
REMARK SMILES IDX 70 76 71 77 72 78 51 79 52 80 60 81 53 82 59 83 54 84 55 85
REMARK SMILES IDX 56 86 57 87 58 88
REMARK H PARENT 5 12 79 44 49 55
REMARK Flexibility Score: inf
ROOT
ATOM      1  C   UNL A   1      31.334  27.762  25.594  1.00  0.00     0.202 C 
ENDROOT
BRANCH   1   2
ATOM      2  C   UNL A   1      31.338  26.562  26.548  1.00  0.00     0.261 C 
BRANCH   2   3
ATOM      3  O   UNL A   1      30.376  25.547  26.238  1.00  0.00    -0.463 OA
BRANCH   3   4
ATOM      4  C   UNL A   1      30.745  24.239  26.219  1.00  0.00     0.308 C 
ATOM      5  O   UNL A   1      31.033  23.661  27.262  1.00  0.00    -0.252 OA
BRANCH   4   6
ATOM      6  C   UNL A   1      30.866  23.593  24.862  1.00  0.00     0.151 C 
BRANCH   6   7
ATOM      7  C   UNL A   1      32.277  23.239  24.393  1.00  0.00     0.050 C 
ATOM      8  C   UNL A   1      32.520  22.880  22.900  1.00  0.00     0.029 C 
ATOM      9  C   UNL A   1      33.123  24.545  24.156  1.00  0.00     0.029 C 
ATOM     10  C   UNL A   1      33.242  24.212  22.670  1.00  0.00     0.005 C 
BRANCH   7  11
ATOM     11  N   UNL A   1      33.024  22.377  25.293  1.00  0.00    -0.354 N 
ATOM     12  H   UNL A   1      33.095  22.657  26.234  1.00  0.00     0.163 HD
BRANCH  11  13
ATOM     13  C   UNL A   1      33.633  21.219  24.940  1.00  0.00     0.203 A 
ATOM     14  N   UNL A   1      33.047  20.077  24.669  1.00  0.00    -0.203 NA
ATOM     15  S   UNL A   1      35.352  21.042  24.955  1.00  0.00     0.004 S 
ATOM     16  C   UNL A   1      33.998  19.069  24.642  1.00  0.00     0.147 A 
ATOM     17  N   UNL A   1      35.287  19.379  24.809  1.00  0.00    -0.174 NA
BRANCH  16  18
ATOM     18  C   UNL A   1      33.588  17.608  24.454  1.00  0.00     0.059 C 
ATOM     19  C   UNL A   1      33.106  17.131  23.097  1.00  0.00     0.012 C 
ATOM     20  C   UNL A   1      34.457  16.727  23.581  1.00  0.00     0.012 C 
ENDBRANCH  16  18
ENDBRANCH  11  13
ENDBRANCH   7  11
ENDBRANCH   6   7
ENDBRANCH   4   6
ENDBRANCH   3   4
ENDBRANCH   2   3
ENDBRANCH   1   2
BRANCH   1  21
ATOM     21  O   UNL A   1      32.150  28.894  25.877  1.00  0.00    -0.374 OA
BRANCH  21  22
ATOM     22  C   UNL A   1      31.832  29.689  27.027  1.00  0.00     0.202 C 
BRANCH  22  23
ATOM     23  C   UNL A   1      32.494  31.066  27.125  1.00  0.00     0.261 C 
BRANCH  23  24
ATOM     24  O   UNL A   1      33.924  30.951  27.118  1.00  0.00    -0.460 OA
BRANCH  24  25
ATOM     25  C   UNL A   1      34.553  31.638  28.102  1.00  0.00     0.338 C 
ATOM     26  O   UNL A   1      34.052  32.413  28.897  1.00  0.00    -0.246 OA
BRANCH  25  27
ATOM     27  C   UNL A   1      35.915  31.089  28.262  1.00  0.00     0.060 A 
ATOM     28  C   UNL A   1      36.055  29.692  28.229  1.00  0.00     0.016 A 
ATOM     29  C   UNL A   1      37.017  31.917  28.476  1.00  0.00     0.016 A 
ATOM     30  C   UNL A   1      37.285  29.113  28.497  1.00  0.00     0.010 A 
ATOM     31  C   UNL A   1      38.246  31.335  28.779  1.00  0.00     0.010 A 
ATOM     32  C   UNL A   1      38.357  29.934  28.858  1.00  0.00    -0.014 A 
BRANCH  32  33
ATOM     33  C   UNL A   1      39.454  29.328  29.637  1.00  0.00     0.031 A 
ATOM     34  C   UNL A   1      39.574  29.731  31.084  1.00  0.00     0.074 A 
ATOM     35  C   UNL A   1      40.263  28.403  29.099  1.00  0.00     0.049 A 
ATOM     36  N   UNL A   1      40.434  29.342  31.985  1.00  0.00    -0.248 NA
ATOM     37  C   UNL A   1      38.586  30.709  31.578  1.00  0.00     0.031 C 
ATOM     38  C   UNL A   1      40.179  27.895  27.731  1.00  0.00     0.029 A 
ATOM     39  N   UNL A   1      41.313  27.721  29.652  1.00  0.00    -0.354 N 
ATOM     40  C   UNL A   1      40.104  30.042  33.143  1.00  0.00     0.074 A 
ATOM     41  C   UNL A   1      38.985  30.896  32.825  1.00  0.00     0.031 C 
ATOM     42  C   UNL A   1      41.143  26.974  27.552  1.00  0.00     0.029 A 
ATOM     43  C   UNL A   1      41.926  26.857  28.781  1.00  0.00     0.049 A 
ATOM     44  H   UNL A   1      41.601  27.839  30.587  1.00  0.00     0.167 HD
ATOM     45  C   UNL A   1      40.685  29.976  34.361  1.00  0.00     0.031 A 
ATOM     46  C   UNL A   1      43.006  26.073  28.961  1.00  0.00     0.031 A 
ATOM     47  C   UNL A   1      41.806  29.128  34.657  1.00  0.00     0.049 A 
ATOM     48  C   UNL A   1      43.677  26.063  30.311  1.00  0.00     0.074 A 
ATOM     49  C   UNL A   1      42.474  28.969  35.857  1.00  0.00     0.029 A 
ATOM     50  N   UNL A   1      42.430  28.300  33.734  1.00  0.00    -0.354 N 
ATOM     51  N   UNL A   1      43.352  26.721  31.401  1.00  0.00    -0.248 NA
ATOM     52  C   UNL A   1      44.847  25.191  30.459  1.00  0.00     0.031 C 
ATOM     53  C   UNL A   1      43.540  28.088  35.643  1.00  0.00     0.029 A 
ATOM     54  C   UNL A   1      43.490  27.643  34.331  1.00  0.00     0.049 A 
ATOM     55  H   UNL A   1      42.156  28.195  32.794  1.00  0.00     0.167 HD
ATOM     56  C   UNL A   1      44.254  26.308  32.376  1.00  0.00     0.074 A 
ATOM     57  C   UNL A   1      45.130  25.340  31.746  1.00  0.00     0.031 C 
ATOM     58  C   UNL A   1      44.344  26.682  33.678  1.00  0.00     0.031 A 
BRANCH  45  59
ATOM     59  C   UNL A   1      40.153  30.890  35.435  1.00  0.00    -0.014 A 
ATOM     60  C   UNL A   1      40.929  31.934  35.971  1.00  0.00     0.010 A 
ATOM     61  C   UNL A   1      38.845  30.697  35.915  1.00  0.00     0.010 A 
ATOM     62  C   UNL A   1      40.425  32.736  36.998  1.00  0.00     0.020 A 
ATOM     63  C   UNL A   1      38.325  31.516  36.920  1.00  0.00     0.020 A 
ATOM     64  C   UNL A   1      39.126  32.520  37.469  1.00  0.00     0.054 A 
BRANCH  64  65
ATOM     65  S   UNL A   1      38.489  33.584  38.793  1.00  0.00     0.124 S 
ATOM     66  O   UNL A   1      39.436  33.319  39.874  1.00  0.00    -0.237 OA
ATOM     67  O   UNL A   1      38.569  34.916  38.199  1.00  0.00    -0.237 OA
ATOM     68  O   UNL A   1      37.135  33.086  39.017  1.00  0.00    -0.744 OA
ENDBRANCH  64  65
ENDBRANCH  45  59
BRANCH  46  69
ATOM     69  C   UNL A   1      43.507  25.228  27.843  1.00  0.00    -0.014 A 
ATOM     70  C   UNL A   1      43.041  23.912  27.676  1.00  0.00     0.010 A 
ATOM     71  C   UNL A   1      44.448  25.741  26.931  1.00  0.00     0.010 A 
ATOM     72  C   UNL A   1      43.517  23.119  26.628  1.00  0.00     0.020 A 
ATOM     73  C   UNL A   1      44.904  24.962  25.864  1.00  0.00     0.020 A 
ATOM     74  C   UNL A   1      44.443  23.651  25.725  1.00  0.00     0.054 A 
BRANCH  74  75
ATOM     75  S   UNL A   1      45.004  22.619  24.342  1.00  0.00     0.124 S 
ATOM     76  O   UNL A   1      46.084  23.425  23.781  1.00  0.00    -0.237 OA
ATOM     77  O   UNL A   1      45.413  21.389  25.014  1.00  0.00    -0.237 OA
ATOM     78  O   UNL A   1      43.814  22.496  23.502  1.00  0.00    -0.744 OA
ENDBRANCH  74  75
ENDBRANCH  46  69
BRANCH  58  79
ATOM     79  C   UNL A   1      45.385  25.996  34.522  1.00  0.00    -0.014 A 
ATOM     80  C   UNL A   1      45.137  24.761  35.146  1.00  0.00     0.010 A 
ATOM     81  C   UNL A   1      46.655  26.589  34.654  1.00  0.00     0.010 A 
ATOM     82  C   UNL A   1      46.122  24.159  35.932  1.00  0.00     0.020 A 
ATOM     83  C   UNL A   1      47.654  25.972  35.409  1.00  0.00     0.020 A 
ATOM     84  C   UNL A   1      47.374  24.771  36.062  1.00  0.00     0.054 A 
BRANCH  84  85
ATOM     85  S   UNL A   1      48.642  23.962  37.073  1.00  0.00     0.124 S 
ATOM     86  O   UNL A   1      48.587  24.742  38.307  1.00  0.00    -0.237 OA
ATOM     87  O   UNL A   1      48.147  22.592  37.174  1.00  0.00    -0.237 OA
ATOM     88  O   UNL A   1      49.865  24.122  36.289  1.00  0.00    -0.744 OA
ENDBRANCH  84  85
ENDBRANCH  58  79
ENDBRANCH  32  33
ENDBRANCH  25  27
ENDBRANCH  24  25
ENDBRANCH  23  24
ENDBRANCH  22  23
ENDBRANCH  21  22
ENDBRANCH   1  21
TORSDOF 21
ENDMDL
MODEL 3
REMARK VINA RESULT:      -9.1      2.710      8.944
REMARK SMILES O=C(CC1(Nc2nc(C3CC3)ns2)CCC1)OCCOCCOC(=O)c1ccc(-c2c3nc(c(-c4ccc(S(=O)(=O)[O-])cc4)c4ccc([nH]4)c(-c4ccc(S(=O)(=O)[O-])cc4)c4nc(c(-c5ccc(S(=O)(=O)[O-])cc5)c5ccc2[nH]5)C=C4)C=C3)cc1
REMARK SMILES IDX 19 1 18 2 17 3 2 4 1 5 3 6 4 7 14 8 16 9 15 10 5 11 6 13
REMARK SMILES IDX 7 14 13 15 8 16 12 17 9 18 10 19 11 20 20 21 21 22 22 23
REMARK SMILES IDX 23 24 24 25 25 26 26 27 27 28 85 29 28 30 84 31 29 32 30 33
REMARK SMILES IDX 31 34 78 35 32 36 83 37 77 38 79 39 33 40 82 41 76 42 75 43
REMARK SMILES IDX 34 45 64 46 45 47 63 48 46 49 49 50 62 51 80 52 47 53 48 54
REMARK SMILES IDX 61 56 81 57 50 58 35 59 36 60 44 61 37 62 43 63 38 64 39 65
REMARK SMILES IDX 40 66 41 67 42 68 65 69 66 70 74 71 67 72 73 73 68 74 69 75
REMARK SMILES IDX 70 76 71 77 72 78 51 79 52 80 60 81 53 82 59 83 54 84 55 85
REMARK SMILES IDX 56 86 57 87 58 88
REMARK H PARENT 5 12 79 44 49 55
REMARK Flexibility Score: inf
ROOT
ATOM      1  C   UNL A   1      33.365  32.267  27.530  1.00  0.00     0.202 C 
ENDROOT
BRANCH   1   2
ATOM      2  C   UNL A   1      32.997  30.799  27.286  1.00  0.00     0.261 C 
BRANCH   2   3
ATOM      3  O   UNL A   1      33.232  30.336  25.951  1.00  0.00    -0.463 OA
BRANCH   3   4
ATOM      4  C   UNL A   1      33.304  29.004  25.692  1.00  0.00     0.308 C 
ATOM      5  O   UNL A   1      33.294  28.192  26.611  1.00  0.00    -0.252 OA
BRANCH   4   6
ATOM      6  C   UNL A   1      33.491  28.608  24.249  1.00  0.00     0.151 C 
BRANCH   6   7
ATOM      7  C   UNL A   1      32.684  27.407  23.756  1.00  0.00     0.050 C 
ATOM      8  C   UNL A   1      32.676  27.061  22.240  1.00  0.00     0.029 C 
ATOM      9  C   UNL A   1      33.481  26.071  23.997  1.00  0.00     0.029 C 
ATOM     10  C   UNL A   1      33.549  25.826  22.490  1.00  0.00     0.005 C 
BRANCH   7  11
ATOM     11  N   UNL A   1      31.371  27.261  24.359  1.00  0.00    -0.354 N 
ATOM     12  H   UNL A   1      31.325  26.847  25.251  1.00  0.00     0.163 HD
BRANCH  11  13
ATOM     13  C   UNL A   1      30.203  27.649  23.792  1.00  0.00     0.203 A 
ATOM     14  N   UNL A   1      29.922  28.837  23.311  1.00  0.00    -0.203 NA
ATOM     15  S   UNL A   1      28.808  26.629  23.769  1.00  0.00     0.004 S 
ATOM     16  C   UNL A   1      28.556  28.931  23.092  1.00  0.00     0.147 A 
ATOM     17  N   UNL A   1      27.782  27.865  23.312  1.00  0.00    -0.174 NA
BRANCH  16  18
ATOM     18  C   UNL A   1      27.925  30.246  22.632  1.00  0.00     0.059 C 
ATOM     19  C   UNL A   1      27.509  31.280  23.660  1.00  0.00     0.012 C 
ATOM     20  C   UNL A   1      28.716  31.523  22.820  1.00  0.00     0.012 C 
ENDBRANCH  16  18
ENDBRANCH  11  13
ENDBRANCH   7  11
ENDBRANCH   6   7
ENDBRANCH   4   6
ENDBRANCH   3   4
ENDBRANCH   2   3
ENDBRANCH   1   2
BRANCH   1  21
ATOM     21  O   UNL A   1      34.733  32.640  27.664  1.00  0.00    -0.374 OA
BRANCH  21  22
ATOM     22  C   UNL A   1      35.674  31.633  28.059  1.00  0.00     0.202 C 
BRANCH  22  23
ATOM     23  C   UNL A   1      35.800  31.349  29.558  1.00  0.00     0.261 C 
BRANCH  23  24
ATOM     24  O   UNL A   1      35.987  29.947  29.802  1.00  0.00    -0.460 OA
BRANCH  24  25
ATOM     25  C   UNL A   1      36.888  29.655  30.771  1.00  0.00     0.338 C 
ATOM     26  O   UNL A   1      36.667  29.138  31.851  1.00  0.00    -0.246 OA
BRANCH  25  27
ATOM     27  C   UNL A   1      38.245  29.796  30.208  1.00  0.00     0.060 A 
ATOM     28  C   UNL A   1      38.402  29.556  28.833  1.00  0.00     0.016 A 
ATOM     29  C   UNL A   1      39.340  30.117  31.011  1.00  0.00     0.016 A 
ATOM     30  C   UNL A   1      39.668  29.550  28.270  1.00  0.00     0.010 A 
ATOM     31  C   UNL A   1      40.616  30.078  30.453  1.00  0.00     0.010 A 
ATOM     32  C   UNL A   1      40.779  29.724  29.101  1.00  0.00    -0.014 A 
BRANCH  32  33
ATOM     33  C   UNL A   1      42.076  29.199  28.630  1.00  0.00     0.031 A 
ATOM     34  C   UNL A   1      43.235  30.162  28.595  1.00  0.00     0.074 A 
ATOM     35  C   UNL A   1      42.233  27.905  28.317  1.00  0.00     0.049 A 
ATOM     36  N   UNL A   1      44.473  29.957  28.238  1.00  0.00    -0.248 NA
ATOM     37  C   UNL A   1      42.953  31.545  29.024  1.00  0.00     0.031 C 
ATOM     38  C   UNL A   1      41.190  26.882  28.389  1.00  0.00     0.029 A 
ATOM     39  N   UNL A   1      43.342  27.231  27.883  1.00  0.00    -0.354 N 
ATOM     40  C   UNL A   1      45.110  31.187  28.378  1.00  0.00     0.074 A 
ATOM     41  C   UNL A   1      44.120  32.136  28.827  1.00  0.00     0.031 C 
ATOM     42  C   UNL A   1      41.714  25.703  28.011  1.00  0.00     0.029 A 
ATOM     43  C   UNL A   1      43.115  25.899  27.641  1.00  0.00     0.049 A 
ATOM     44  H   UNL A   1      44.219  27.660  27.756  1.00  0.00     0.167 HD
ATOM     45  C   UNL A   1      46.407  31.495  28.151  1.00  0.00     0.031 A 
ATOM     46  C   UNL A   1      43.948  24.955  27.164  1.00  0.00     0.031 A 
ATOM     47  C   UNL A   1      47.377  30.540  27.693  1.00  0.00     0.049 A 
ATOM     48  C   UNL A   1      45.374  25.336  26.858  1.00  0.00     0.074 A 
ATOM     49  C   UNL A   1      48.721  30.732  27.437  1.00  0.00     0.029 A 
ATOM     50  N   UNL A   1      47.098  29.209  27.415  1.00  0.00    -0.354 N 
ATOM     51  N   UNL A   1      45.969  26.499  27.001  1.00  0.00    -0.248 NA
ATOM     52  C   UNL A   1      46.244  24.273  26.342  1.00  0.00     0.031 C 
ATOM     53  C   UNL A   1      49.242  29.529  26.946  1.00  0.00     0.029 A 
ATOM     54  C   UNL A   1      48.240  28.572  26.967  1.00  0.00     0.049 A 
ATOM     55  H   UNL A   1      46.217  28.782  27.522  1.00  0.00     0.167 HD
ATOM     56  C   UNL A   1      47.296  26.295  26.635  1.00  0.00     0.074 A 
ATOM     57  C   UNL A   1      47.413  24.897  26.269  1.00  0.00     0.031 C 
ATOM     58  C   UNL A   1      48.328  27.177  26.613  1.00  0.00     0.031 A 
BRANCH  45  59
ATOM     59  C   UNL A   1      46.822  32.932  28.337  1.00  0.00    -0.014 A 
ATOM     60  C   UNL A   1      46.936  33.817  27.249  1.00  0.00     0.010 A 
ATOM     61  C   UNL A   1      47.105  33.403  29.632  1.00  0.00     0.010 A 
ATOM     62  C   UNL A   1      47.368  35.131  27.447  1.00  0.00     0.020 A 
ATOM     63  C   UNL A   1      47.507  34.725  29.839  1.00  0.00     0.020 A 
ATOM     64  C   UNL A   1      47.654  35.576  28.742  1.00  0.00     0.054 A 
BRANCH  64  65
ATOM     65  S   UNL A   1      48.199  37.291  28.975  1.00  0.00     0.124 S 
ATOM     66  O   UNL A   1      49.505  37.108  29.605  1.00  0.00    -0.237 OA
ATOM     67  O   UNL A   1      48.228  37.805  27.609  1.00  0.00    -0.237 OA
ATOM     68  O   UNL A   1      47.170  37.869  29.834  1.00  0.00    -0.744 OA
ENDBRANCH  64  65
ENDBRANCH  45  59
BRANCH  46  69
ATOM     69  C   UNL A   1      43.460  23.564  26.961  1.00  0.00    -0.014 A 
ATOM     70  C   UNL A   1      43.189  22.733  28.062  1.00  0.00     0.010 A 
ATOM     71  C   UNL A   1      43.252  23.066  25.661  1.00  0.00     0.010 A 
ATOM     72  C   UNL A   1      42.735  21.425  27.868  1.00  0.00     0.020 A 
ATOM     73  C   UNL A   1      42.770  21.770  25.463  1.00  0.00     0.020 A 
ATOM     74  C   UNL A   1      42.524  20.953  26.569  1.00  0.00     0.054 A 
BRANCH  74  75
ATOM     75  S   UNL A   1      41.882  19.271  26.346  1.00  0.00     0.124 S 
ATOM     76  O   UNL A   1      42.093  18.687  27.667  1.00  0.00    -0.237 OA
ATOM     77  O   UNL A   1      40.490  19.514  25.974  1.00  0.00    -0.237 OA
ATOM     78  O   UNL A   1      42.718  18.724  25.279  1.00  0.00    -0.744 OA
ENDBRANCH  74  75
ENDBRANCH  46  69
BRANCH  58  79
ATOM     79  C   UNL A   1      49.685  26.640  26.243  1.00  0.00    -0.014 A 
ATOM     80  C   UNL A   1      50.266  26.894  24.989  1.00  0.00     0.010 A 
ATOM     81  C   UNL A   1      50.407  25.895  27.196  1.00  0.00     0.010 A 
ATOM     82  C   UNL A   1      51.522  26.369  24.675  1.00  0.00     0.020 A 
ATOM     83  C   UNL A   1      51.677  25.400  26.899  1.00  0.00     0.020 A 
ATOM     84  C   UNL A   1      52.217  25.621  25.631  1.00  0.00     0.054 A 
BRANCH  84  85
ATOM     85  S   UNL A   1      53.853  24.964  25.207  1.00  0.00     0.124 S 
ATOM     86  O   UNL A   1      54.654  25.383  26.354  1.00  0.00    -0.237 OA
ATOM     87  O   UNL A   1      53.605  23.528  25.105  1.00  0.00    -0.237 OA
ATOM     88  O   UNL A   1      54.176  25.626  23.945  1.00  0.00    -0.744 OA
ENDBRANCH  84  85
ENDBRANCH  58  79
ENDBRANCH  32  33
ENDBRANCH  25  27
ENDBRANCH  24  25
ENDBRANCH  23  24
ENDBRANCH  22  23
ENDBRANCH  21  22
ENDBRANCH   1  21
TORSDOF 21
ENDMDL
