MODEL 1
REMARK VINA RESULT:     -10.9      0.000      0.000
REMARK SMILES C[C@H]1CC=C(C2=NN=C(C(=O)OCCOCCOC(=O)c3ccc(-c4c5nc(c(-c6ccc(S(=O)(=O)[O-])cc6)c6ccc([nH]6)c(-c6ccc(S(=O)(=O)[O-])cc6)c6nc(c(-c7ccc(S(=O)(=O)[O-])cc7)c7ccc4[nH]7)C=C6)C=C5)cc3)C2)O1
REMARK SMILES IDX 16 1 15 2 14 3 13 4 12 5 10 6 11 7 9 8 6 9 7 10 81 11 8 12
REMARK SMILES IDX 5 13 1 14 2 15 3 16 82 17 4 18 17 19 18 20 19 21 20 22 21 23
REMARK SMILES IDX 22 24 80 25 23 26 79 27 24 28 25 29 26 30 73 31 27 32 78 33
REMARK SMILES IDX 72 34 74 35 28 36 77 37 71 38 70 39 29 41 59 42 40 43 58 44
REMARK SMILES IDX 41 45 44 46 57 47 75 48 42 49 43 50 56 52 76 53 45 54 30 55
REMARK SMILES IDX 31 56 39 57 32 58 38 59 33 60 34 61 35 62 36 63 37 64 60 65
REMARK SMILES IDX 61 66 69 67 62 68 68 69 63 70 64 71 65 72 66 73 67 74 46 75
REMARK SMILES IDX 47 76 55 77 48 78 54 79 49 80 50 81 51 82 52 83 53 84
REMARK H PARENT 74 40 44 51
REMARK Flexibility Score: inf
ROOT
ATOM      1  C   UNL A   1      40.115  19.988  26.082  1.00  0.00     0.202 C 
ENDROOT
BRANCH   1   2
ATOM      2  O   UNL A   1      41.024  18.941  25.755  1.00  0.00    -0.374 OA
BRANCH   2   3
ATOM      3  C   UNL A   1      42.327  18.904  26.337  1.00  0.00     0.202 C 
BRANCH   3   4
ATOM      4  C   UNL A   1      43.499  18.403  25.490  1.00  0.00     0.261 C 
BRANCH   4   5
ATOM      5  O   UNL A   1      44.580  19.342  25.418  1.00  0.00    -0.459 OA
BRANCH   5   6
ATOM      6  C   UNL A   1      44.712  19.939  24.222  1.00  0.00     0.355 C 
ATOM      7  O   UNL A   1      44.472  19.481  23.116  1.00  0.00    -0.245 OA
BRANCH   6   8
ATOM      8  C   UNL A   1      45.012  21.394  24.357  1.00  0.00     0.154 C 
ATOM      9  C   UNL A   1      45.483  23.333  25.332  1.00  0.00     0.111 C 
ATOM     10  N   UNL A   1      44.951  23.583  24.175  1.00  0.00    -0.151 NA
ATOM     11  C   UNL A   1      45.691  21.880  25.579  1.00  0.00     0.128 C 
ATOM     12  N   UNL A   1      44.651  22.329  23.535  1.00  0.00    -0.147 NA
BRANCH   9  13
ATOM     13  C   UNL A   1      45.810  24.284  26.405  1.00  0.00     0.139 C 
ATOM     14  C   UNL A   1      47.920  25.593  28.849  1.00  0.00     0.053 C 
ATOM     15  C   UNL A   1      46.653  24.898  28.372  1.00  0.00     0.174 C 
ATOM     16  C   UNL A   1      45.510  25.863  28.023  1.00  0.00     0.076 C 
ATOM     17  O   UNL A   1      46.935  24.099  27.199  1.00  0.00    -0.489 OA
ATOM     18  C   UNL A   1      44.963  25.228  26.803  1.00  0.00     0.025 C 
ENDBRANCH   9  13
ENDBRANCH   6   8
ENDBRANCH   5   6
ENDBRANCH   4   5
ENDBRANCH   3   4
ENDBRANCH   2   3
ENDBRANCH   1   2
BRANCH   1  19
ATOM     19  C   UNL A   1      40.565  21.118  26.999  1.00  0.00     0.261 C 
BRANCH  19  20
ATOM     20  O   UNL A   1      39.961  22.346  26.641  1.00  0.00    -0.460 OA
BRANCH  20  21
ATOM     21  C   UNL A   1      40.850  23.343  26.419  1.00  0.00     0.338 C 
ATOM     22  O   UNL A   1      42.018  23.228  26.103  1.00  0.00    -0.246 OA
BRANCH  21  23
ATOM     23  C   UNL A   1      40.195  24.621  26.718  1.00  0.00     0.060 A 
ATOM     24  C   UNL A   1      40.696  25.720  26.019  1.00  0.00     0.016 A 
ATOM     25  C   UNL A   1      39.471  24.749  27.911  1.00  0.00     0.016 A 
ATOM     26  C   UNL A   1      40.787  26.909  26.698  1.00  0.00     0.010 A 
ATOM     27  C   UNL A   1      39.572  25.932  28.589  1.00  0.00     0.010 A 
ATOM     28  C   UNL A   1      40.345  26.940  28.022  1.00  0.00    -0.014 A 
BRANCH  28  29
ATOM     29  C   UNL A   1      40.692  28.081  28.831  1.00  0.00     0.031 A 
ATOM     30  C   UNL A   1      42.000  28.644  28.448  1.00  0.00     0.074 A 
ATOM     31  C   UNL A   1      39.834  28.602  29.728  1.00  0.00     0.049 A 
ATOM     32  N   UNL A   1      43.121  28.525  29.077  1.00  0.00    -0.248 NA
ATOM     33  C   UNL A   1      42.124  29.180  27.081  1.00  0.00     0.031 C 
ATOM     34  C   UNL A   1      38.417  28.292  29.948  1.00  0.00     0.029 A 
ATOM     35  N   UNL A   1      40.041  29.629  30.583  1.00  0.00    -0.354 N 
ATOM     36  C   UNL A   1      44.049  29.180  28.281  1.00  0.00     0.074 A 
ATOM     37  C   UNL A   1      43.445  29.315  26.981  1.00  0.00     0.031 C 
ATOM     38  C   UNL A   1      37.851  29.288  30.673  1.00  0.00     0.029 A 
ATOM     39  C   UNL A   1      38.890  30.220  31.082  1.00  0.00     0.049 A 
ATOM     40  H   UNL A   1      40.944  29.934  30.833  1.00  0.00     0.167 HD
ATOM     41  C   UNL A   1      45.116  29.833  28.816  1.00  0.00     0.031 A 
ATOM     42  C   UNL A   1      38.824  31.433  31.696  1.00  0.00     0.031 A 
ATOM     43  C   UNL A   1      45.323  29.468  30.193  1.00  0.00     0.049 A 
ATOM     44  C   UNL A   1      40.213  31.770  32.121  1.00  0.00     0.074 A 
ATOM     45  C   UNL A   1      45.636  28.292  30.844  1.00  0.00     0.029 A 
ATOM     46  N   UNL A   1      44.778  30.301  31.145  1.00  0.00    -0.354 N 
ATOM     47  N   UNL A   1      40.874  31.081  33.013  1.00  0.00    -0.248 NA
ATOM     48  C   UNL A   1      41.039  32.527  31.188  1.00  0.00     0.031 C 
ATOM     49  C   UNL A   1      44.840  28.303  32.026  1.00  0.00     0.029 A 
ATOM     50  C   UNL A   1      44.146  29.516  32.077  1.00  0.00     0.049 A 
ATOM     51  H   UNL A   1      44.833  31.284  31.156  1.00  0.00     0.167 HD
ATOM     52  C   UNL A   1      42.165  30.977  32.510  1.00  0.00     0.074 A 
ATOM     53  C   UNL A   1      42.221  31.942  31.411  1.00  0.00     0.031 C 
ATOM     54  C   UNL A   1      42.974  29.922  32.829  1.00  0.00     0.031 A 
BRANCH  41  55
ATOM     55  C   UNL A   1      45.686  31.090  28.215  1.00  0.00    -0.014 A 
ATOM     56  C   UNL A   1      44.932  32.274  28.276  1.00  0.00     0.010 A 
ATOM     57  C   UNL A   1      46.821  31.094  27.372  1.00  0.00     0.010 A 
ATOM     58  C   UNL A   1      45.267  33.385  27.492  1.00  0.00     0.020 A 
ATOM     59  C   UNL A   1      47.191  32.208  26.623  1.00  0.00     0.020 A 
ATOM     60  C   UNL A   1      46.391  33.338  26.663  1.00  0.00     0.054 A 
BRANCH  60  61
ATOM     61  S   UNL A   1      46.759  34.740  25.583  1.00  0.00     0.124 S 
ATOM     62  O   UNL A   1      48.118  34.434  25.148  1.00  0.00    -0.237 OA
ATOM     63  O   UNL A   1      45.723  34.622  24.562  1.00  0.00    -0.237 OA
ATOM     64  O   UNL A   1      46.629  35.897  26.466  1.00  0.00    -0.744 OA
ENDBRANCH  60  61
ENDBRANCH  41  55
BRANCH  42  65
ATOM     65  C   UNL A   1      37.764  32.468  31.522  1.00  0.00    -0.014 A 
ATOM     66  C   UNL A   1      36.878  32.447  30.426  1.00  0.00     0.010 A 
ATOM     67  C   UNL A   1      37.444  33.326  32.595  1.00  0.00     0.010 A 
ATOM     68  C   UNL A   1      35.699  33.222  30.426  1.00  0.00     0.020 A 
ATOM     69  C   UNL A   1      36.276  34.100  32.603  1.00  0.00     0.020 A 
ATOM     70  C   UNL A   1      35.397  34.032  31.525  1.00  0.00     0.054 A 
BRANCH  70  71
ATOM     71  S   UNL A   1      33.802  34.908  31.594  1.00  0.00     0.124 S 
ATOM     72  O   UNL A   1      33.260  34.674  30.258  1.00  0.00    -0.237 OA
ATOM     73  O   UNL A   1      33.111  34.227  32.683  1.00  0.00    -0.237 OA
ATOM     74  O   UNL A   1      34.181  36.292  31.874  1.00  0.00    -0.744 OA
ENDBRANCH  70  71
ENDBRANCH  42  65
BRANCH  54  75
ATOM     75  C   UNL A   1      42.525  28.970  33.919  1.00  0.00    -0.014 A 
ATOM     76  C   UNL A   1      41.754  27.811  33.691  1.00  0.00     0.010 A 
ATOM     77  C   UNL A   1      43.070  29.166  35.199  1.00  0.00     0.010 A 
ATOM     78  C   UNL A   1      41.526  26.885  34.724  1.00  0.00     0.020 A 
ATOM     79  C   UNL A   1      42.862  28.242  36.225  1.00  0.00     0.020 A 
ATOM     80  C   UNL A   1      42.085  27.108  35.987  1.00  0.00     0.054 A 
BRANCH  80  81
ATOM     81  S   UNL A   1      41.837  25.891  37.313  1.00  0.00     0.124 S 
ATOM     82  O   UNL A   1      42.807  26.316  38.319  1.00  0.00    -0.237 OA
ATOM     83  O   UNL A   1      40.433  26.082  37.672  1.00  0.00    -0.237 OA
ATOM     84  O   UNL A   1      42.134  24.612  36.670  1.00  0.00    -0.744 OA
ENDBRANCH  80  81
ENDBRANCH  54  75
ENDBRANCH  28  29
ENDBRANCH  21  23
ENDBRANCH  20  21
ENDBRANCH  19  20
ENDBRANCH   1  19
TORSDOF 18
ENDMDL
MODEL 2
REMARK VINA RESULT:     -10.5      4.601     11.089
REMARK SMILES C[C@H]1CC=C(C2=NN=C(C(=O)OCCOCCOC(=O)c3ccc(-c4c5nc(c(-c6ccc(S(=O)(=O)[O-])cc6)c6ccc([nH]6)c(-c6ccc(S(=O)(=O)[O-])cc6)c6nc(c(-c7ccc(S(=O)(=O)[O-])cc7)c7ccc4[nH]7)C=C6)C=C5)cc3)C2)O1
REMARK SMILES IDX 16 1 15 2 14 3 13 4 12 5 10 6 11 7 9 8 6 9 7 10 81 11 8 12
REMARK SMILES IDX 5 13 1 14 2 15 3 16 82 17 4 18 17 19 18 20 19 21 20 22 21 23
REMARK SMILES IDX 22 24 80 25 23 26 79 27 24 28 25 29 26 30 73 31 27 32 78 33
REMARK SMILES IDX 72 34 74 35 28 36 77 37 71 38 70 39 29 41 59 42 40 43 58 44
REMARK SMILES IDX 41 45 44 46 57 47 75 48 42 49 43 50 56 52 76 53 45 54 30 55
REMARK SMILES IDX 31 56 39 57 32 58 38 59 33 60 34 61 35 62 36 63 37 64 60 65
REMARK SMILES IDX 61 66 69 67 62 68 68 69 63 70 64 71 65 72 66 73 67 74 46 75
REMARK SMILES IDX 47 76 55 77 48 78 54 79 49 80 50 81 51 82 52 83 53 84
REMARK H PARENT 74 40 44 51
REMARK Flexibility Score: inf
ROOT
ATOM      1  C   UNL A   1      32.292  29.844  27.244  1.00  0.00     0.202 C 
ENDROOT
BRANCH   1   2
ATOM      2  O   UNL A   1      32.271  28.983  26.110  1.00  0.00    -0.374 OA
BRANCH   2   3
ATOM      3  C   UNL A   1      31.502  29.322  24.956  1.00  0.00     0.202 C 
BRANCH   3   4
ATOM      4  C   UNL A   1      32.054  28.971  23.573  1.00  0.00     0.261 C 
BRANCH   4   5
ATOM      5  O   UNL A   1      33.187  28.092  23.629  1.00  0.00    -0.459 OA
BRANCH   5   6
ATOM      6  C   UNL A   1      33.637  27.699  22.426  1.00  0.00     0.355 C 
ATOM      7  O   UNL A   1      34.386  28.291  21.666  1.00  0.00    -0.245 OA
BRANCH   6   8
ATOM      8  C   UNL A   1      33.284  26.278  22.139  1.00  0.00     0.154 C 
ATOM      9  C   UNL A   1      32.951  24.111  22.493  1.00  0.00     0.111 C 
ATOM     10  N   UNL A   1      33.147  24.286  21.221  1.00  0.00    -0.151 NA
ATOM     11  C   UNL A   1      32.913  25.386  23.259  1.00  0.00     0.128 C 
ATOM     12  N   UNL A   1      33.356  25.690  20.985  1.00  0.00    -0.147 NA
BRANCH   9  13
ATOM     13  C   UNL A   1      32.850  22.843  23.228  1.00  0.00     0.139 C 
ATOM     14  C   UNL A   1      33.568  20.759  25.928  1.00  0.00     0.053 C 
ATOM     15  C   UNL A   1      33.620  21.154  24.458  1.00  0.00     0.174 C 
ATOM     16  C   UNL A   1      32.431  20.638  23.635  1.00  0.00     0.076 C 
ATOM     17  O   UNL A   1      33.658  22.595  24.331  1.00  0.00    -0.489 OA
ATOM     18  C   UNL A   1      32.153  21.806  22.771  1.00  0.00     0.025 C 
ENDBRANCH   9  13
ENDBRANCH   6   8
ENDBRANCH   5   6
ENDBRANCH   4   5
ENDBRANCH   3   4
ENDBRANCH   2   3
ENDBRANCH   1   2
BRANCH   1  19
ATOM     19  C   UNL A   1      33.212  31.058  27.253  1.00  0.00     0.261 C 
BRANCH  19  20
ATOM     20  O   UNL A   1      34.570  30.678  27.145  1.00  0.00    -0.460 OA
BRANCH  20  21
ATOM     21  C   UNL A   1      35.423  31.545  27.743  1.00  0.00     0.338 C 
ATOM     22  O   UNL A   1      35.590  32.716  27.470  1.00  0.00    -0.246 OA
BRANCH  21  23
ATOM     23  C   UNL A   1      36.205  30.807  28.741  1.00  0.00     0.060 A 
ATOM     24  C   UNL A   1      37.026  31.595  29.549  1.00  0.00     0.016 A 
ATOM     25  C   UNL A   1      36.419  29.434  28.556  1.00  0.00     0.016 A 
ATOM     26  C   UNL A   1      38.260  31.090  29.875  1.00  0.00     0.010 A 
ATOM     27  C   UNL A   1      37.652  28.937  28.873  1.00  0.00     0.010 A 
ATOM     28  C   UNL A   1      38.590  29.817  29.403  1.00  0.00    -0.014 A 
BRANCH  28  29
ATOM     29  C   UNL A   1      39.964  29.394  29.487  1.00  0.00     0.031 A 
ATOM     30  C   UNL A   1      40.359  29.091  30.876  1.00  0.00     0.074 A 
ATOM     31  C   UNL A   1      40.714  29.196  28.386  1.00  0.00     0.049 A 
ATOM     32  N   UNL A   1      41.087  29.813  31.659  1.00  0.00    -0.248 NA
ATOM     33  C   UNL A   1      39.649  27.989  31.548  1.00  0.00     0.031 C 
ATOM     34  C   UNL A   1      40.310  29.179  26.977  1.00  0.00     0.029 A 
ATOM     35  N   UNL A   1      42.020  28.851  28.317  1.00  0.00    -0.354 N 
ATOM     36  C   UNL A   1      41.110  29.121  32.862  1.00  0.00     0.074 A 
ATOM     37  C   UNL A   1      40.019  28.184  32.812  1.00  0.00     0.031 C 
ATOM     38  C   UNL A   1      41.282  28.585  26.242  1.00  0.00     0.029 A 
ATOM     39  C   UNL A   1      42.423  28.314  27.103  1.00  0.00     0.049 A 
ATOM     40  H   UNL A   1      42.640  28.974  29.073  1.00  0.00     0.167 HD
ATOM     41  C   UNL A   1      42.194  29.150  33.683  1.00  0.00     0.031 A 
ATOM     42  C   UNL A   1      43.573  27.620  26.886  1.00  0.00     0.031 A 
ATOM     43  C   UNL A   1      43.102  30.207  33.323  1.00  0.00     0.049 A 
ATOM     44  C   UNL A   1      44.482  27.937  28.026  1.00  0.00     0.074 A 
ATOM     45  C   UNL A   1      43.015  31.584  33.286  1.00  0.00     0.029 A 
ATOM     46  N   UNL A   1      44.162  29.868  32.511  1.00  0.00    -0.354 N 
ATOM     47  N   UNL A   1      44.956  29.133  28.248  1.00  0.00    -0.248 NA
ATOM     48  C   UNL A   1      44.428  27.065  29.193  1.00  0.00     0.031 C 
ATOM     49  C   UNL A   1      43.708  31.965  32.101  1.00  0.00     0.029 A 
ATOM     50  C   UNL A   1      44.251  30.814  31.521  1.00  0.00     0.049 A 
ATOM     51  H   UNL A   1      44.749  29.086  32.621  1.00  0.00     0.167 HD
ATOM     52  C   UNL A   1      44.870  29.309  29.624  1.00  0.00     0.074 A 
ATOM     53  C   UNL A   1      44.594  27.975  30.159  1.00  0.00     0.031 C 
ATOM     54  C   UNL A   1      44.736  30.551  30.179  1.00  0.00     0.031 A 
BRANCH  41  55
ATOM     55  C   UNL A   1      42.613  27.971  34.520  1.00  0.00    -0.014 A 
ATOM     56  C   UNL A   1      42.824  28.157  35.897  1.00  0.00     0.010 A 
ATOM     57  C   UNL A   1      43.051  26.748  33.964  1.00  0.00     0.010 A 
ATOM     58  C   UNL A   1      43.488  27.191  36.663  1.00  0.00     0.020 A 
ATOM     59  C   UNL A   1      43.670  25.760  34.725  1.00  0.00     0.020 A 
ATOM     60  C   UNL A   1      43.915  26.002  36.066  1.00  0.00     0.054 A 
BRANCH  60  61
ATOM     61  S   UNL A   1      44.855  24.805  37.040  1.00  0.00     0.124 S 
ATOM     62  O   UNL A   1      44.280  24.982  38.370  1.00  0.00    -0.237 OA
ATOM     63  O   UNL A   1      44.535  23.547  36.372  1.00  0.00    -0.237 OA
ATOM     64  O   UNL A   1      46.238  25.251  36.890  1.00  0.00    -0.744 OA
ENDBRANCH  60  61
ENDBRANCH  41  55
BRANCH  42  65
ATOM     65  C   UNL A   1      43.738  26.401  26.043  1.00  0.00    -0.014 A 
ATOM     66  C   UNL A   1      44.989  26.026  25.513  1.00  0.00     0.010 A 
ATOM     67  C   UNL A   1      42.703  25.444  25.989  1.00  0.00     0.010 A 
ATOM     68  C   UNL A   1      45.204  24.734  24.992  1.00  0.00     0.020 A 
ATOM     69  C   UNL A   1      42.906  24.158  25.472  1.00  0.00     0.020 A 
ATOM     70  C   UNL A   1      44.163  23.800  24.991  1.00  0.00     0.054 A 
BRANCH  70  71
ATOM     71  S   UNL A   1      44.483  22.086  24.466  1.00  0.00     0.124 S 
ATOM     72  O   UNL A   1      45.842  21.861  24.950  1.00  0.00    -0.237 OA
ATOM     73  O   UNL A   1      43.435  21.340  25.155  1.00  0.00    -0.237 OA
ATOM     74  O   UNL A   1      44.346  22.140  23.011  1.00  0.00    -0.744 OA
ENDBRANCH  70  71
ENDBRANCH  42  65
BRANCH  54  75
ATOM     75  C   UNL A   1      44.903  31.764  29.286  1.00  0.00    -0.014 A 
ATOM     76  C   UNL A   1      46.150  32.286  28.884  1.00  0.00     0.010 A 
ATOM     77  C   UNL A   1      43.741  32.277  28.685  1.00  0.00     0.010 A 
ATOM     78  C   UNL A   1      46.224  33.303  27.915  1.00  0.00     0.020 A 
ATOM     79  C   UNL A   1      43.809  33.275  27.710  1.00  0.00     0.020 A 
ATOM     80  C   UNL A   1      45.049  33.790  27.333  1.00  0.00     0.054 A 
BRANCH  80  81
ATOM     81  S   UNL A   1      45.140  35.067  26.045  1.00  0.00     0.124 S 
ATOM     82  O   UNL A   1      46.271  35.880  26.484  1.00  0.00    -0.237 OA
ATOM     83  O   UNL A   1      45.362  34.287  24.828  1.00  0.00    -0.237 OA
ATOM     84  O   UNL A   1      43.838  35.728  26.117  1.00  0.00    -0.744 OA
ENDBRANCH  80  81
ENDBRANCH  54  75
ENDBRANCH  28  29
ENDBRANCH  21  23
ENDBRANCH  20  21
ENDBRANCH  19  20
ENDBRANCH   1  19
TORSDOF 18
ENDMDL
MODEL 3
REMARK VINA RESULT:     -10.4      3.358     11.532
REMARK SMILES C[C@H]1CC=C(C2=NN=C(C(=O)OCCOCCOC(=O)c3ccc(-c4c5nc(c(-c6ccc(S(=O)(=O)[O-])cc6)c6ccc([nH]6)c(-c6ccc(S(=O)(=O)[O-])cc6)c6nc(c(-c7ccc(S(=O)(=O)[O-])cc7)c7ccc4[nH]7)C=C6)C=C5)cc3)C2)O1
REMARK SMILES IDX 16 1 15 2 14 3 13 4 12 5 10 6 11 7 9 8 6 9 7 10 81 11 8 12
REMARK SMILES IDX 5 13 1 14 2 15 3 16 82 17 4 18 17 19 18 20 19 21 20 22 21 23
REMARK SMILES IDX 22 24 80 25 23 26 79 27 24 28 25 29 26 30 73 31 27 32 78 33
REMARK SMILES IDX 72 34 74 35 28 36 77 37 71 38 70 39 29 41 59 42 40 43 58 44
REMARK SMILES IDX 41 45 44 46 57 47 75 48 42 49 43 50 56 52 76 53 45 54 30 55
REMARK SMILES IDX 31 56 39 57 32 58 38 59 33 60 34 61 35 62 36 63 37 64 60 65
REMARK SMILES IDX 61 66 69 67 62 68 68 69 63 70 64 71 65 72 66 73 67 74 46 75
REMARK SMILES IDX 47 76 55 77 48 78 54 79 49 80 50 81 51 82 52 83 53 84
REMARK H PARENT 74 40 44 51
REMARK Flexibility Score: inf
ROOT
ATOM      1  C   UNL A   1      33.389  35.599  31.234  1.00  0.00     0.202 C 
ENDROOT
BRANCH   1   2
ATOM      2  O   UNL A   1      32.879  34.967  30.064  1.00  0.00    -0.374 OA
BRANCH   2   3
ATOM      3  C   UNL A   1      33.495  35.184  28.796  1.00  0.00     0.202 C 
BRANCH   3   4
ATOM      4  C   UNL A   1      33.828  33.974  27.921  1.00  0.00     0.261 C 
BRANCH   4   5
ATOM      5  O   UNL A   1      34.123  32.795  28.684  1.00  0.00    -0.459 OA
BRANCH   5   6
ATOM      6  C   UNL A   1      34.709  31.815  27.977  1.00  0.00     0.355 C 
ATOM      7  O   UNL A   1      35.900  31.626  27.786  1.00  0.00    -0.245 OA
BRANCH   6   8
ATOM      8  C   UNL A   1      33.731  30.766  27.566  1.00  0.00     0.154 C 
ATOM      9  C   UNL A   1      32.970  28.838  26.770  1.00  0.00     0.111 C 
ATOM     10  N   UNL A   1      32.019  29.717  26.671  1.00  0.00    -0.151 NA
ATOM     11  C   UNL A   1      34.184  29.362  27.452  1.00  0.00     0.128 C 
ATOM     12  N   UNL A   1      32.506  30.967  27.194  1.00  0.00    -0.147 NA
BRANCH   9  13
ATOM     13  C   UNL A   1      32.999  27.471  26.230  1.00  0.00     0.139 C 
ATOM     14  C   UNL A   1      34.405  24.928  24.307  1.00  0.00     0.053 C 
ATOM     15  C   UNL A   1      33.311  25.928  24.656  1.00  0.00     0.174 C 
ATOM     16  C   UNL A   1      32.272  25.389  25.650  1.00  0.00     0.076 C 
ATOM     17  O   UNL A   1      33.893  27.124  25.225  1.00  0.00    -0.489 OA
ATOM     18  C   UNL A   1      32.060  26.573  26.511  1.00  0.00     0.025 C 
ENDBRANCH   9  13
ENDBRANCH   6   8
ENDBRANCH   5   6
ENDBRANCH   4   5
ENDBRANCH   3   4
ENDBRANCH   2   3
ENDBRANCH   1   2
BRANCH   1  19
ATOM     19  C   UNL A   1      33.517  34.803  32.527  1.00  0.00     0.261 C 
BRANCH  19  20
ATOM     20  O   UNL A   1      34.001  33.496  32.283  1.00  0.00    -0.460 OA
BRANCH  20  21
ATOM     21  C   UNL A   1      35.293  33.321  32.648  1.00  0.00     0.338 C 
ATOM     22  O   UNL A   1      35.819  33.677  33.684  1.00  0.00    -0.246 OA
BRANCH  21  23
ATOM     23  C   UNL A   1      36.009  32.700  31.528  1.00  0.00     0.060 A 
ATOM     24  C   UNL A   1      35.828  31.322  31.402  1.00  0.00     0.016 A 
ATOM     25  C   UNL A   1      37.098  33.375  30.960  1.00  0.00     0.016 A 
ATOM     26  C   UNL A   1      36.916  30.576  31.026  1.00  0.00     0.010 A 
ATOM     27  C   UNL A   1      38.184  32.630  30.596  1.00  0.00     0.010 A 
ATOM     28  C   UNL A   1      38.112  31.250  30.767  1.00  0.00    -0.014 A 
BRANCH  28  29
ATOM     29  C   UNL A   1      39.321  30.476  30.654  1.00  0.00     0.031 A 
ATOM     30  C   UNL A   1      39.990  30.315  31.959  1.00  0.00     0.074 A 
ATOM     31  C   UNL A   1      39.683  29.891  29.497  1.00  0.00     0.049 A 
ATOM     32  N   UNL A   1      41.048  30.923  32.379  1.00  0.00    -0.248 NA
ATOM     33  C   UNL A   1      39.250  29.589  33.006  1.00  0.00     0.031 C 
ATOM     34  C   UNL A   1      38.925  29.750  28.250  1.00  0.00     0.029 A 
ATOM     35  N   UNL A   1      40.806  29.184  29.234  1.00  0.00    -0.354 N 
ATOM     36  C   UNL A   1      41.230  30.468  33.677  1.00  0.00     0.074 A 
ATOM     37  C   UNL A   1      39.978  29.883  34.080  1.00  0.00     0.031 C 
ATOM     38  C   UNL A   1      39.500  28.789  27.486  1.00  0.00     0.029 A 
ATOM     39  C   UNL A   1      40.733  28.357  28.124  1.00  0.00     0.049 A 
ATOM     40  H   UNL A   1      41.616  29.253  29.791  1.00  0.00     0.167 HD
ATOM     41  C   UNL A   1      42.470  30.327  34.218  1.00  0.00     0.031 A 
ATOM     42  C   UNL A   1      41.590  27.340  27.836  1.00  0.00     0.031 A 
ATOM     43  C   UNL A   1      43.469  31.008  33.436  1.00  0.00     0.049 A 
ATOM     44  C   UNL A   1      42.818  27.576  28.649  1.00  0.00     0.074 A 
ATOM     45  C   UNL A   1      43.697  32.326  33.098  1.00  0.00     0.029 A 
ATOM     46  N   UNL A   1      44.164  30.249  32.520  1.00  0.00    -0.354 N 
ATOM     47  N   UNL A   1      43.599  28.608  28.479  1.00  0.00    -0.248 NA
ATOM     48  C   UNL A   1      42.877  26.965  29.972  1.00  0.00     0.031 C 
ATOM     49  C   UNL A   1      44.118  32.288  31.737  1.00  0.00     0.029 A 
ATOM     50  C   UNL A   1      44.203  30.950  31.340  1.00  0.00     0.049 A 
ATOM     51  H   UNL A   1      44.561  29.364  32.682  1.00  0.00     0.167 HD
ATOM     52  C   UNL A   1      43.927  29.032  29.762  1.00  0.00     0.074 A 
ATOM     53  C   UNL A   1      43.501  27.941  30.640  1.00  0.00     0.031 C 
ATOM     54  C   UNL A   1      44.238  30.337  30.026  1.00  0.00     0.031 A 
BRANCH  41  55
ATOM     55  C   UNL A   1      42.811  29.238  35.200  1.00  0.00    -0.014 A 
ATOM     56  C   UNL A   1      43.264  29.596  36.480  1.00  0.00     0.010 A 
ATOM     57  C   UNL A   1      42.944  27.881  34.828  1.00  0.00     0.010 A 
ATOM     58  C   UNL A   1      43.869  28.654  37.322  1.00  0.00     0.020 A 
ATOM     59  C   UNL A   1      43.501  26.926  35.675  1.00  0.00     0.020 A 
ATOM     60  C   UNL A   1      43.991  27.326  36.907  1.00  0.00     0.054 A 
BRANCH  60  61
ATOM     61  S   UNL A   1      44.858  26.140  37.959  1.00  0.00     0.124 S 
ATOM     62  O   UNL A   1      46.254  26.428  37.648  1.00  0.00    -0.237 OA
ATOM     63  O   UNL A   1      44.411  26.529  39.294  1.00  0.00    -0.237 OA
ATOM     64  O   UNL A   1      44.365  24.845  37.495  1.00  0.00    -0.744 OA
ENDBRANCH  60  61
ENDBRANCH  41  55
BRANCH  42  65
ATOM     65  C   UNL A   1      41.236  25.999  27.286  1.00  0.00    -0.014 A 
ATOM     66  C   UNL A   1      42.076  25.322  26.378  1.00  0.00     0.010 A 
ATOM     67  C   UNL A   1      40.193  25.256  27.877  1.00  0.00     0.010 A 
ATOM     68  C   UNL A   1      41.902  23.949  26.108  1.00  0.00     0.020 A 
ATOM     69  C   UNL A   1      40.011  23.891  27.613  1.00  0.00     0.020 A 
ATOM     70  C   UNL A   1      40.879  23.237  26.743  1.00  0.00     0.054 A 
BRANCH  70  71
ATOM     71  S   UNL A   1      40.754  21.435  26.517  1.00  0.00     0.124 S 
ATOM     72  O   UNL A   1      40.716  20.950  27.893  1.00  0.00    -0.237 OA
ATOM     73  O   UNL A   1      39.513  21.293  25.762  1.00  0.00    -0.237 OA
ATOM     74  O   UNL A   1      41.968  21.095  25.775  1.00  0.00    -0.744 OA
ENDBRANCH  70  71
ENDBRANCH  42  65
BRANCH  54  75
ATOM     75  C   UNL A   1      44.437  31.283  28.859  1.00  0.00    -0.014 A 
ATOM     76  C   UNL A   1      45.371  31.077  27.823  1.00  0.00     0.010 A 
ATOM     77  C   UNL A   1      43.506  32.325  28.719  1.00  0.00     0.010 A 
ATOM     78  C   UNL A   1      45.377  31.904  26.686  1.00  0.00     0.020 A 
ATOM     79  C   UNL A   1      43.495  33.140  27.584  1.00  0.00     0.020 A 
ATOM     80  C   UNL A   1      44.434  32.932  26.575  1.00  0.00     0.054 A 
BRANCH  80  81
ATOM     81  S   UNL A   1      44.402  33.972  25.086  1.00  0.00     0.124 S 
ATOM     82  O   UNL A   1      43.325  34.913  25.379  1.00  0.00    -0.237 OA
ATOM     83  O   UNL A   1      45.747  34.544  25.059  1.00  0.00    -0.237 OA
ATOM     84  O   UNL A   1      44.121  33.026  24.007  1.00  0.00    -0.744 OA
ENDBRANCH  80  81
ENDBRANCH  54  75
ENDBRANCH  28  29
ENDBRANCH  21  23
ENDBRANCH  20  21
ENDBRANCH  19  20
ENDBRANCH   1  19
TORSDOF 18
ENDMDL
