MODEL 1
REMARK VINA RESULT:     -11.9      0.000      0.000
REMARK SMILES O=C(OCCOCCOC(=O)[C@H]1Cc2c([nH]c3ccccc23)[C@H](c2c[nH]c3ccccc23)[NH2+]1)c1ccc(-c2c3nc(c(-c4ccc(S(=O)(=O)[O-])cc4)c4ccc([nH]4)c(-c4ccc(S(=O)(=O)[O-])cc4)c4nc(c(-c5ccc(S(=O)(=O)[O-])cc5)c5ccc2[nH]5)C=C4)C=C3)cc1
REMARK SMILES IDX 5 1 4 2 3 3 2 4 1 5 34 6 35 7 93 8 36 9 92 10 37 11 38 12
REMARK SMILES IDX 39 13 86 14 40 15 91 16 85 17 87 18 41 19 90 20 84 21 83 22
REMARK SMILES IDX 42 24 72 25 53 26 71 27 54 28 57 29 70 30 88 31 55 32 56 33
REMARK SMILES IDX 69 35 89 36 58 37 43 38 44 39 52 40 45 41 51 42 46 43 47 44
REMARK SMILES IDX 48 45 49 46 50 47 73 48 74 49 82 50 75 51 81 52 76 53 77 54
REMARK SMILES IDX 78 55 79 56 80 57 59 58 60 59 68 60 61 61 67 62 62 63 63 64
REMARK SMILES IDX 64 65 65 66 66 67 6 68 7 69 8 70 9 71 10 72 11 73 12 74
REMARK SMILES IDX 13 75 33 76 14 77 23 78 15 81 22 82 16 83 17 84 21 85 18 87
REMARK SMILES IDX 20 88 19 89 24 90 25 91 32 92 26 93 27 94 31 95 28 97 30 98
REMARK SMILES IDX 29 99
REMARK H PARENT 87 23 57 34 33 79 33 80 16 86 26 96
REMARK Flexibility Score: inf
ROOT
ATOM      1  C   UNL A   1      37.962  22.176  25.722  1.00  0.00     0.202 C 
ENDROOT
BRANCH   1   2
ATOM      2  C   UNL A   1      38.194  23.650  26.091  1.00  0.00     0.261 C 
BRANCH   2   3
ATOM      3  O   UNL A   1      39.566  23.902  26.431  1.00  0.00    -0.460 OA
BRANCH   3   4
ATOM      4  C   UNL A   1      40.206  25.098  26.424  1.00  0.00     0.338 C 
ATOM      5  O   UNL A   1      40.808  25.436  25.406  1.00  0.00    -0.246 OA
BRANCH   4   6
ATOM      6  C   UNL A   1      40.218  26.028  27.596  1.00  0.00     0.060 A 
ATOM      7  C   UNL A   1      39.378  25.914  28.700  1.00  0.00     0.016 A 
ATOM      8  C   UNL A   1      41.184  27.048  27.617  1.00  0.00     0.016 A 
ATOM      9  C   UNL A   1      39.438  26.775  29.765  1.00  0.00     0.010 A 
ATOM     10  C   UNL A   1      41.274  27.924  28.706  1.00  0.00     0.010 A 
ATOM     11  C   UNL A   1      40.388  27.780  29.778  1.00  0.00    -0.014 A 
BRANCH  11  12
ATOM     12  C   UNL A   1      40.245  28.724  30.888  1.00  0.00     0.031 A 
ATOM     13  C   UNL A   1      41.311  28.714  31.936  1.00  0.00     0.074 A 
ATOM     14  C   UNL A   1      39.372  29.739  30.751  1.00  0.00     0.049 A 
ATOM     15  N   UNL A   1      41.452  29.493  32.968  1.00  0.00    -0.248 NA
ATOM     16  C   UNL A   1      42.388  27.715  31.776  1.00  0.00     0.031 C 
ATOM     17  C   UNL A   1      38.459  29.918  29.611  1.00  0.00     0.029 A 
ATOM     18  N   UNL A   1      39.162  30.848  31.518  1.00  0.00    -0.354 N 
ATOM     19  C   UNL A   1      42.613  29.062  33.599  1.00  0.00     0.074 A 
ATOM     20  C   UNL A   1      43.144  27.960  32.833  1.00  0.00     0.031 C 
ATOM     21  C   UNL A   1      37.813  31.087  29.744  1.00  0.00     0.029 A 
ATOM     22  C   UNL A   1      38.200  31.690  31.012  1.00  0.00     0.049 A 
ATOM     23  H   UNL A   1      39.653  31.028  32.352  1.00  0.00     0.167 HD
ATOM     24  C   UNL A   1      43.165  29.550  34.730  1.00  0.00     0.031 A 
ATOM     25  C   UNL A   1      37.667  32.802  31.552  1.00  0.00     0.031 A 
ATOM     26  C   UNL A   1      42.584  30.639  35.462  1.00  0.00     0.049 A 
ATOM     27  C   UNL A   1      38.202  33.231  32.890  1.00  0.00     0.074 A 
ATOM     28  C   UNL A   1      42.941  31.147  36.694  1.00  0.00     0.029 A 
ATOM     29  N   UNL A   1      41.508  31.394  35.006  1.00  0.00    -0.354 N 
ATOM     30  N   UNL A   1      39.209  32.727  33.571  1.00  0.00    -0.248 NA
ATOM     31  C   UNL A   1      37.529  34.355  33.545  1.00  0.00     0.031 C 
ATOM     32  C   UNL A   1      42.052  32.184  37.003  1.00  0.00     0.029 A 
ATOM     33  C   UNL A   1      41.181  32.360  35.936  1.00  0.00     0.049 A 
ATOM     34  H   UNL A   1      41.049  31.259  34.146  1.00  0.00     0.167 HD
ATOM     35  C   UNL A   1      39.293  33.477  34.734  1.00  0.00     0.074 A 
ATOM     36  C   UNL A   1      38.256  34.490  34.646  1.00  0.00     0.031 C 
ATOM     37  C   UNL A   1      40.137  33.343  35.789  1.00  0.00     0.031 A 
BRANCH  24  38
ATOM     38  C   UNL A   1      44.376  28.837  35.262  1.00  0.00    -0.014 A 
ATOM     39  C   UNL A   1      44.262  27.758  36.158  1.00  0.00     0.010 A 
ATOM     40  C   UNL A   1      45.655  29.288  34.894  1.00  0.00     0.010 A 
ATOM     41  C   UNL A   1      45.407  27.166  36.700  1.00  0.00     0.020 A 
ATOM     42  C   UNL A   1      46.802  28.685  35.415  1.00  0.00     0.020 A 
ATOM     43  C   UNL A   1      46.670  27.637  36.328  1.00  0.00     0.054 A 
BRANCH  43  44
ATOM     44  S   UNL A   1      48.141  26.848  37.040  1.00  0.00     0.124 S 
ATOM     45  O   UNL A   1      47.779  26.757  38.453  1.00  0.00    -0.237 OA
ATOM     46  O   UNL A   1      48.199  25.576  36.325  1.00  0.00    -0.237 OA
ATOM     47  O   UNL A   1      49.220  27.783  36.733  1.00  0.00    -0.744 OA
ENDBRANCH  43  44
ENDBRANCH  24  38
BRANCH  25  48
ATOM     48  C   UNL A   1      36.512  33.485  30.902  1.00  0.00    -0.014 A 
ATOM     49  C   UNL A   1      36.551  33.886  29.556  1.00  0.00     0.010 A 
ATOM     50  C   UNL A   1      35.357  33.770  31.658  1.00  0.00     0.010 A 
ATOM     51  C   UNL A   1      35.476  34.586  28.992  1.00  0.00     0.020 A 
ATOM     52  C   UNL A   1      34.267  34.436  31.091  1.00  0.00     0.020 A 
ATOM     53  C   UNL A   1      34.344  34.861  29.766  1.00  0.00     0.054 A 
BRANCH  53  54
ATOM     54  S   UNL A   1      32.961  35.771  29.022  1.00  0.00     0.124 S 
ATOM     55  O   UNL A   1      32.358  34.755  28.164  1.00  0.00    -0.237 OA
ATOM     56  O   UNL A   1      32.174  36.163  30.189  1.00  0.00    -0.237 OA
ATOM     57  O   UNL A   1      33.614  36.874  28.322  1.00  0.00    -0.744 OA
ENDBRANCH  53  54
ENDBRANCH  25  48
BRANCH  37  58
ATOM     58  C   UNL A   1      39.981  34.340  36.899  1.00  0.00    -0.014 A 
ATOM     59  C   UNL A   1      40.487  35.644  36.778  1.00  0.00     0.010 A 
ATOM     60  C   UNL A   1      39.270  33.971  38.056  1.00  0.00     0.010 A 
ATOM     61  C   UNL A   1      40.317  36.558  37.819  1.00  0.00     0.020 A 
ATOM     62  C   UNL A   1      39.072  34.892  39.082  1.00  0.00     0.020 A 
ATOM     63  C   UNL A   1      39.611  36.176  38.964  1.00  0.00     0.054 A 
BRANCH  63  64
ATOM     64  S   UNL A   1      39.367  37.392  40.283  1.00  0.00     0.124 S 
ATOM     65  O   UNL A   1      38.624  36.619  41.274  1.00  0.00    -0.237 OA
ATOM     66  O   UNL A   1      40.736  37.743  40.653  1.00  0.00    -0.237 OA
ATOM     67  O   UNL A   1      38.612  38.461  39.631  1.00  0.00    -0.744 OA
ENDBRANCH  63  64
ENDBRANCH  37  58
ENDBRANCH  11  12
ENDBRANCH   4   6
ENDBRANCH   3   4
ENDBRANCH   2   3
ENDBRANCH   1   2
BRANCH   1  68
ATOM     68  O   UNL A   1      36.886  21.880  24.830  1.00  0.00    -0.374 OA
BRANCH  68  69
ATOM     69  C   UNL A   1      36.769  22.725  23.680  1.00  0.00     0.202 C 
BRANCH  69  70
ATOM     70  C   UNL A   1      35.309  22.920  23.288  1.00  0.00     0.261 C 
BRANCH  70  71
ATOM     71  O   UNL A   1      34.871  24.177  23.827  1.00  0.00    -0.459 OA
BRANCH  71  72
ATOM     72  C   UNL A   1      33.609  24.165  24.328  1.00  0.00     0.365 C 
ATOM     73  O   UNL A   1      32.943  23.154  24.536  1.00  0.00    -0.245 OA
BRANCH  72  74
ATOM     74  C   UNL A   1      33.078  25.569  24.582  1.00  0.00     0.298 C 
ATOM     75  C   UNL A   1      33.986  26.395  25.517  1.00  0.00     0.115 C 
ATOM     76  N   UNL A   1      32.794  26.219  23.274  1.00  0.00    -0.323 N 
ATOM     77  C   UNL A   1      33.558  27.807  25.519  1.00  0.00    -0.006 A 
ATOM     78  C   UNL A   1      32.082  27.492  23.428  1.00  0.00     0.264 C 
ATOM     79  H   UNL A   1      32.222  25.588  22.713  1.00  0.00     0.347 HD
ATOM     80  H   UNL A   1      33.688  26.413  22.823  1.00  0.00     0.347 HD
ATOM     81  C   UNL A   1      32.694  28.287  24.556  1.00  0.00     0.083 A 
ATOM     82  C   UNL A   1      33.857  28.845  26.433  1.00  0.00     0.003 A 
ATOM     83  N   UNL A   1      32.540  29.626  24.798  1.00  0.00    -0.353 N 
ATOM     84  C   UNL A   1      33.223  29.988  25.946  1.00  0.00     0.046 A 
ATOM     85  C   UNL A   1      34.601  28.924  27.627  1.00  0.00     0.010 A 
ATOM     86  H   UNL A   1      32.019  30.244  24.235  1.00  0.00     0.166 HD
ATOM     87  C   UNL A   1      33.326  31.226  26.594  1.00  0.00     0.026 A 
ATOM     88  C   UNL A   1      34.688  30.147  28.300  1.00  0.00     0.001 A 
ATOM     89  C   UNL A   1      34.067  31.281  27.782  1.00  0.00     0.002 A 
BRANCH  78  90
ATOM     90  C   UNL A   1      30.571  27.310  23.533  1.00  0.00     0.041 A 
ATOM     91  C   UNL A   1      30.005  26.092  23.889  1.00  0.00     0.093 A 
ATOM     92  C   UNL A   1      29.445  28.228  23.387  1.00  0.00     0.009 A 
ATOM     93  N   UNL A   1      28.647  26.211  23.912  1.00  0.00    -0.361 N 
ATOM     94  C   UNL A   1      28.273  27.491  23.596  1.00  0.00     0.046 A 
ATOM     95  C   UNL A   1      29.260  29.606  23.112  1.00  0.00     0.011 A 
ATOM     96  H   UNL A   1      28.024  25.481  24.124  1.00  0.00     0.166 HD
ATOM     97  C   UNL A   1      26.984  28.039  23.502  1.00  0.00     0.026 A 
ATOM     98  C   UNL A   1      27.983  30.167  22.981  1.00  0.00     0.001 A 
ATOM     99  C   UNL A   1      26.856  29.387  23.172  1.00  0.00     0.002 A 
ENDBRANCH  78  90
ENDBRANCH  72  74
ENDBRANCH  71  72
ENDBRANCH  70  71
ENDBRANCH  69  70
ENDBRANCH  68  69
ENDBRANCH   1  68
TORSDOF 18
ENDMDL
MODEL 2
REMARK VINA RESULT:     -11.6      2.150      4.375
REMARK SMILES O=C(OCCOCCOC(=O)[C@H]1Cc2c([nH]c3ccccc23)[C@H](c2c[nH]c3ccccc23)[NH2+]1)c1ccc(-c2c3nc(c(-c4ccc(S(=O)(=O)[O-])cc4)c4ccc([nH]4)c(-c4ccc(S(=O)(=O)[O-])cc4)c4nc(c(-c5ccc(S(=O)(=O)[O-])cc5)c5ccc2[nH]5)C=C4)C=C3)cc1
REMARK SMILES IDX 5 1 4 2 3 3 2 4 1 5 34 6 35 7 93 8 36 9 92 10 37 11 38 12
REMARK SMILES IDX 39 13 86 14 40 15 91 16 85 17 87 18 41 19 90 20 84 21 83 22
REMARK SMILES IDX 42 24 72 25 53 26 71 27 54 28 57 29 70 30 88 31 55 32 56 33
REMARK SMILES IDX 69 35 89 36 58 37 43 38 44 39 52 40 45 41 51 42 46 43 47 44
REMARK SMILES IDX 48 45 49 46 50 47 73 48 74 49 82 50 75 51 81 52 76 53 77 54
REMARK SMILES IDX 78 55 79 56 80 57 59 58 60 59 68 60 61 61 67 62 62 63 63 64
REMARK SMILES IDX 64 65 65 66 66 67 6 68 7 69 8 70 9 71 10 72 11 73 12 74
REMARK SMILES IDX 13 75 33 76 14 77 23 78 15 81 22 82 16 83 17 84 21 85 18 87
REMARK SMILES IDX 20 88 19 89 24 90 25 91 32 92 26 93 27 94 31 95 28 97 30 98
REMARK SMILES IDX 29 99
REMARK H PARENT 87 23 57 34 33 79 33 80 16 86 26 96
REMARK Flexibility Score: inf
ROOT
ATOM      1  C   UNL A   1      41.824  22.071  26.696  1.00  0.00     0.202 C 
ENDROOT
BRANCH   1   2
ATOM      2  C   UNL A   1      42.495  23.298  26.057  1.00  0.00     0.261 C 
BRANCH   2   3
ATOM      3  O   UNL A   1      41.562  24.374  25.866  1.00  0.00    -0.460 OA
BRANCH   3   4
ATOM      4  C   UNL A   1      41.818  25.704  25.935  1.00  0.00     0.338 C 
ATOM      5  O   UNL A   1      42.382  26.244  24.985  1.00  0.00    -0.246 OA
BRANCH   4   6
ATOM      6  C   UNL A   1      41.451  26.549  27.115  1.00  0.00     0.060 A 
ATOM      7  C   UNL A   1      41.866  27.864  27.301  1.00  0.00     0.016 A 
ATOM      8  C   UNL A   1      40.577  26.002  28.069  1.00  0.00     0.016 A 
ATOM      9  C   UNL A   1      41.487  28.611  28.386  1.00  0.00     0.010 A 
ATOM     10  C   UNL A   1      40.162  26.756  29.173  1.00  0.00     0.010 A 
ATOM     11  C   UNL A   1      40.630  28.065  29.325  1.00  0.00    -0.014 A 
BRANCH  11  12
ATOM     12  C   UNL A   1      40.430  28.902  30.510  1.00  0.00     0.031 A 
ATOM     13  C   UNL A   1      41.473  28.836  31.578  1.00  0.00     0.074 A 
ATOM     14  C   UNL A   1      39.524  29.895  30.440  1.00  0.00     0.049 A 
ATOM     15  N   UNL A   1      41.565  29.525  32.677  1.00  0.00    -0.248 NA
ATOM     16  C   UNL A   1      42.587  27.892  31.359  1.00  0.00     0.031 C 
ATOM     17  C   UNL A   1      38.631  30.143  29.297  1.00  0.00     0.029 A 
ATOM     18  N   UNL A   1      39.259  30.925  31.295  1.00  0.00    -0.354 N 
ATOM     19  C   UNL A   1      42.726  29.080  33.296  1.00  0.00     0.074 A 
ATOM     20  C   UNL A   1      43.312  28.068  32.451  1.00  0.00     0.031 C 
ATOM     21  C   UNL A   1      37.940  31.273  29.517  1.00  0.00     0.029 A 
ATOM     22  C   UNL A   1      38.279  31.776  30.840  1.00  0.00     0.049 A 
ATOM     23  H   UNL A   1      39.725  31.048  32.153  1.00  0.00     0.167 HD
ATOM     24  C   UNL A   1      43.237  29.485  34.479  1.00  0.00     0.031 A 
ATOM     25  C   UNL A   1      37.695  32.817  31.462  1.00  0.00     0.031 A 
ATOM     26  C   UNL A   1      42.601  30.486  35.288  1.00  0.00     0.049 A 
ATOM     27  C   UNL A   1      38.186  33.145  32.846  1.00  0.00     0.074 A 
ATOM     28  C   UNL A   1      42.914  30.896  36.568  1.00  0.00     0.029 A 
ATOM     29  N   UNL A   1      41.509  31.241  34.873  1.00  0.00    -0.354 N 
ATOM     30  N   UNL A   1      39.195  32.618  33.504  1.00  0.00    -0.248 NA
ATOM     31  C   UNL A   1      37.460  34.184  33.579  1.00  0.00     0.031 C 
ATOM     32  C   UNL A   1      41.982  31.871  36.944  1.00  0.00     0.029 A 
ATOM     33  C   UNL A   1      41.128  32.111  35.876  1.00  0.00     0.049 A 
ATOM     34  H   UNL A   1      41.074  31.167  33.994  1.00  0.00     0.167 HD
ATOM     35  C   UNL A   1      39.228  33.265  34.730  1.00  0.00     0.074 A 
ATOM     36  C   UNL A   1      38.158  34.246  34.705  1.00  0.00     0.031 C 
ATOM     37  C   UNL A   1      40.053  33.067  35.789  1.00  0.00     0.031 A 
BRANCH  24  38
ATOM     38  C   UNL A   1      44.460  28.769  34.976  1.00  0.00    -0.014 A 
ATOM     39  C   UNL A   1      45.755  29.234  34.689  1.00  0.00     0.010 A 
ATOM     40  C   UNL A   1      44.307  27.579  35.708  1.00  0.00     0.010 A 
ATOM     41  C   UNL A   1      46.875  28.502  35.096  1.00  0.00     0.020 A 
ATOM     42  C   UNL A   1      45.422  26.857  36.137  1.00  0.00     0.020 A 
ATOM     43  C   UNL A   1      46.700  27.315  35.814  1.00  0.00     0.054 A 
BRANCH  43  44
ATOM     44  S   UNL A   1      48.169  26.387  36.337  1.00  0.00     0.124 S 
ATOM     45  O   UNL A   1      49.226  27.385  36.189  1.00  0.00    -0.237 OA
ATOM     46  O   UNL A   1      47.843  26.019  37.712  1.00  0.00    -0.237 OA
ATOM     47  O   UNL A   1      48.230  25.272  35.395  1.00  0.00    -0.744 OA
ENDBRANCH  43  44
ENDBRANCH  24  38
BRANCH  25  48
ATOM     48  C   UNL A   1      36.531  33.516  30.846  1.00  0.00    -0.014 A 
ATOM     49  C   UNL A   1      36.598  34.071  29.557  1.00  0.00     0.010 A 
ATOM     50  C   UNL A   1      35.336  33.657  31.581  1.00  0.00     0.010 A 
ATOM     51  C   UNL A   1      35.509  34.780  29.032  1.00  0.00     0.020 A 
ATOM     52  C   UNL A   1      34.235  34.332  31.048  1.00  0.00     0.020 A 
ATOM     53  C   UNL A   1      34.337  34.910  29.784  1.00  0.00     0.054 A 
BRANCH  53  54
ATOM     54  S   UNL A   1      32.937  35.833  29.090  1.00  0.00     0.124 S 
ATOM     55  O   UNL A   1      32.362  34.861  28.166  1.00  0.00    -0.237 OA
ATOM     56  O   UNL A   1      32.135  36.133  30.275  1.00  0.00    -0.237 OA
ATOM     57  O   UNL A   1      33.567  36.994  28.465  1.00  0.00    -0.744 OA
ENDBRANCH  53  54
ENDBRANCH  25  48
BRANCH  37  58
ATOM     58  C   UNL A   1      39.838  33.957  36.978  1.00  0.00    -0.014 A 
ATOM     59  C   UNL A   1      40.594  35.128  37.153  1.00  0.00     0.010 A 
ATOM     60  C   UNL A   1      38.827  33.635  37.900  1.00  0.00     0.010 A 
ATOM     61  C   UNL A   1      40.366  35.947  38.259  1.00  0.00     0.020 A 
ATOM     62  C   UNL A   1      38.576  34.469  38.988  1.00  0.00     0.020 A 
ATOM     63  C   UNL A   1      39.359  35.611  39.169  1.00  0.00     0.054 A 
BRANCH  63  64
ATOM     64  S   UNL A   1      39.053  36.713  40.574  1.00  0.00     0.124 S 
ATOM     65  O   UNL A   1      38.311  35.844  41.483  1.00  0.00    -0.237 OA
ATOM     66  O   UNL A   1      40.404  37.068  41.003  1.00  0.00    -0.237 OA
ATOM     67  O   UNL A   1      38.283  37.810  39.991  1.00  0.00    -0.744 OA
ENDBRANCH  63  64
ENDBRANCH  37  58
ENDBRANCH  11  12
ENDBRANCH   4   6
ENDBRANCH   3   4
ENDBRANCH   2   3
ENDBRANCH   1   2
BRANCH   1  68
ATOM     68  O   UNL A   1      41.374  21.036  25.822  1.00  0.00    -0.374 OA
BRANCH  68  69
ATOM     69  C   UNL A   1      40.002  20.650  25.954  1.00  0.00     0.202 C 
BRANCH  69  70
ATOM     70  C   UNL A   1      39.155  21.804  26.479  1.00  0.00     0.261 C 
BRANCH  70  71
ATOM     71  O   UNL A   1      37.942  21.847  25.712  1.00  0.00    -0.459 OA
BRANCH  71  72
ATOM     72  C   UNL A   1      37.296  23.041  25.747  1.00  0.00     0.365 C 
ATOM     73  O   UNL A   1      37.816  24.115  26.038  1.00  0.00    -0.245 OA
BRANCH  72  74
ATOM     74  C   UNL A   1      35.817  22.905  25.412  1.00  0.00     0.298 C 
ATOM     75  C   UNL A   1      35.109  24.267  25.255  1.00  0.00     0.115 C 
ATOM     76  N   UNL A   1      35.673  22.002  24.239  1.00  0.00    -0.323 N 
ATOM     77  C   UNL A   1      33.761  24.072  24.688  1.00  0.00    -0.006 A 
ATOM     78  C   UNL A   1      34.273  21.647  23.979  1.00  0.00     0.264 C 
ATOM     79  H   UNL A   1      36.201  21.147  24.416  1.00  0.00     0.347 HD
ATOM     80  H   UNL A   1      36.027  22.496  23.420  1.00  0.00     0.347 HD
ATOM     81  C   UNL A   1      33.403  22.873  24.107  1.00  0.00     0.083 A 
ATOM     82  C   UNL A   1      32.650  24.949  24.667  1.00  0.00     0.003 A 
ATOM     83  N   UNL A   1      32.127  23.031  23.634  1.00  0.00    -0.353 N 
ATOM     84  C   UNL A   1      31.639  24.279  23.978  1.00  0.00     0.046 A 
ATOM     85  C   UNL A   1      32.404  26.242  25.170  1.00  0.00     0.010 A 
ATOM     86  H   UNL A   1      31.628  22.354  23.122  1.00  0.00     0.166 HD
ATOM     87  C   UNL A   1      30.388  24.867  23.742  1.00  0.00     0.026 A 
ATOM     88  C   UNL A   1      31.151  26.829  24.967  1.00  0.00     0.001 A 
ATOM     89  C   UNL A   1      30.164  26.151  24.255  1.00  0.00     0.002 A 
BRANCH  78  90
ATOM     90  C   UNL A   1      33.807  20.454  24.807  1.00  0.00     0.041 A 
ATOM     91  C   UNL A   1      33.415  20.593  26.133  1.00  0.00     0.093 A 
ATOM     92  C   UNL A   1      33.596  19.044  24.491  1.00  0.00     0.009 A 
ATOM     93  N   UNL A   1      33.044  19.378  26.627  1.00  0.00    -0.361 N 
ATOM     94  C   UNL A   1      33.156  18.413  25.661  1.00  0.00     0.046 A 
ATOM     95  C   UNL A   1      33.709  18.209  23.351  1.00  0.00     0.011 A 
ATOM     96  H   UNL A   1      32.738  19.217  27.548  1.00  0.00     0.166 HD
ATOM     97  C   UNL A   1      32.882  17.039  25.746  1.00  0.00     0.026 A 
ATOM     98  C   UNL A   1      33.472  16.830  23.421  1.00  0.00     0.001 A 
ATOM     99  C   UNL A   1      33.065  16.252  24.611  1.00  0.00     0.002 A 
ENDBRANCH  78  90
ENDBRANCH  72  74
ENDBRANCH  71  72
ENDBRANCH  70  71
ENDBRANCH  69  70
ENDBRANCH  68  69
ENDBRANCH   1  68
TORSDOF 18
ENDMDL
MODEL 3
REMARK VINA RESULT:     -11.5      2.427      8.690
REMARK SMILES O=C(OCCOCCOC(=O)[C@H]1Cc2c([nH]c3ccccc23)[C@H](c2c[nH]c3ccccc23)[NH2+]1)c1ccc(-c2c3nc(c(-c4ccc(S(=O)(=O)[O-])cc4)c4ccc([nH]4)c(-c4ccc(S(=O)(=O)[O-])cc4)c4nc(c(-c5ccc(S(=O)(=O)[O-])cc5)c5ccc2[nH]5)C=C4)C=C3)cc1
REMARK SMILES IDX 5 1 4 2 3 3 2 4 1 5 34 6 35 7 93 8 36 9 92 10 37 11 38 12
REMARK SMILES IDX 39 13 86 14 40 15 91 16 85 17 87 18 41 19 90 20 84 21 83 22
REMARK SMILES IDX 42 24 72 25 53 26 71 27 54 28 57 29 70 30 88 31 55 32 56 33
REMARK SMILES IDX 69 35 89 36 58 37 43 38 44 39 52 40 45 41 51 42 46 43 47 44
REMARK SMILES IDX 48 45 49 46 50 47 73 48 74 49 82 50 75 51 81 52 76 53 77 54
REMARK SMILES IDX 78 55 79 56 80 57 59 58 60 59 68 60 61 61 67 62 62 63 63 64
REMARK SMILES IDX 64 65 65 66 66 67 6 68 7 69 8 70 9 71 10 72 11 73 12 74
REMARK SMILES IDX 13 75 33 76 14 77 23 78 15 81 22 82 16 83 17 84 21 85 18 87
REMARK SMILES IDX 20 88 19 89 24 90 25 91 32 92 26 93 27 94 31 95 28 97 30 98
REMARK SMILES IDX 29 99
REMARK H PARENT 87 23 57 34 33 79 33 80 16 86 26 96
REMARK Flexibility Score: inf
ROOT
ATOM      1  C   UNL A   1      33.558  34.263  28.277  1.00  0.00     0.202 C 
ENDROOT
BRANCH   1   2
ATOM      2  C   UNL A   1      33.702  35.603  29.016  1.00  0.00     0.261 C 
BRANCH   2   3
ATOM      3  O   UNL A   1      32.770  35.713  30.103  1.00  0.00    -0.460 OA
BRANCH   3   4
ATOM      4  C   UNL A   1      32.906  35.207  31.354  1.00  0.00     0.338 C 
ATOM      5  O   UNL A   1      31.929  35.216  32.101  1.00  0.00    -0.246 OA
BRANCH   4   6
ATOM      6  C   UNL A   1      34.189  34.639  31.873  1.00  0.00     0.060 A 
ATOM      7  C   UNL A   1      35.305  35.398  32.214  1.00  0.00     0.016 A 
ATOM      8  C   UNL A   1      34.255  33.253  32.090  1.00  0.00     0.016 A 
ATOM      9  C   UNL A   1      36.455  34.839  32.709  1.00  0.00     0.010 A 
ATOM     10  C   UNL A   1      35.414  32.666  32.613  1.00  0.00     0.010 A 
ATOM     11  C   UNL A   1      36.516  33.472  32.916  1.00  0.00    -0.014 A 
BRANCH  11  12
ATOM     12  C   UNL A   1      37.843  32.983  33.293  1.00  0.00     0.031 A 
ATOM     13  C   UNL A   1      38.243  33.127  34.725  1.00  0.00     0.074 A 
ATOM     14  C   UNL A   1      38.484  32.163  32.438  1.00  0.00     0.049 A 
ATOM     15  N   UNL A   1      39.323  32.711  35.320  1.00  0.00    -0.248 NA
ATOM     16  C   UNL A   1      37.277  33.797  35.619  1.00  0.00     0.031 C 
ATOM     17  C   UNL A   1      38.004  31.803  31.095  1.00  0.00     0.029 A 
ATOM     18  N   UNL A   1      39.619  31.423  32.593  1.00  0.00    -0.354 N 
ATOM     19  C   UNL A   1      39.183  33.093  36.648  1.00  0.00     0.074 A 
ATOM     20  C   UNL A   1      37.914  33.767  36.778  1.00  0.00     0.031 C 
ATOM     21  C   UNL A   1      38.829  30.886  30.566  1.00  0.00     0.029 A 
ATOM     22  C   UNL A   1      39.931  30.661  31.490  1.00  0.00     0.049 A 
ATOM     23  H   UNL A   1      40.162  31.431  33.414  1.00  0.00     0.167 HD
ATOM     24  C   UNL A   1      40.059  32.901  37.658  1.00  0.00     0.031 A 
ATOM     25  C   UNL A   1      41.019  29.906  31.252  1.00  0.00     0.031 A 
ATOM     26  C   UNL A   1      41.318  32.238  37.467  1.00  0.00     0.049 A 
ATOM     27  C   UNL A   1      42.051  29.838  32.345  1.00  0.00     0.074 A 
ATOM     28  C   UNL A   1      42.368  32.096  38.351  1.00  0.00     0.029 A 
ATOM     29  N   UNL A   1      41.686  31.595  36.290  1.00  0.00    -0.354 N 
ATOM     30  N   UNL A   1      41.991  30.333  33.562  1.00  0.00    -0.248 NA
ATOM     31  C   UNL A   1      43.299  29.136  32.037  1.00  0.00     0.031 C 
ATOM     32  C   UNL A   1      43.391  31.404  37.692  1.00  0.00     0.029 A 
ATOM     33  C   UNL A   1      42.953  31.062  36.419  1.00  0.00     0.049 A 
ATOM     34  H   UNL A   1      41.125  31.530  35.483  1.00  0.00     0.167 HD
ATOM     35  C   UNL A   1      43.192  29.998  34.169  1.00  0.00     0.074 A 
ATOM     36  C   UNL A   1      43.943  29.227  33.193  1.00  0.00     0.031 C 
ATOM     37  C   UNL A   1      43.648  30.301  35.410  1.00  0.00     0.031 A 
BRANCH  24  38
ATOM     38  C   UNL A   1      39.711  33.504  38.989  1.00  0.00    -0.014 A 
ATOM     39  C   UNL A   1      40.075  34.822  39.319  1.00  0.00     0.010 A 
ATOM     40  C   UNL A   1      39.047  32.716  39.946  1.00  0.00     0.010 A 
ATOM     41  C   UNL A   1      39.809  35.328  40.596  1.00  0.00     0.020 A 
ATOM     42  C   UNL A   1      38.759  33.226  41.213  1.00  0.00     0.020 A 
ATOM     43  C   UNL A   1      39.157  34.525  41.536  1.00  0.00     0.054 A 
BRANCH  43  44
ATOM     44  S   UNL A   1      38.818  35.208  43.183  1.00  0.00     0.124 S 
ATOM     45  O   UNL A   1      39.485  34.241  44.053  1.00  0.00    -0.237 OA
ATOM     46  O   UNL A   1      39.443  36.527  43.117  1.00  0.00    -0.237 OA
ATOM     47  O   UNL A   1      37.360  35.215  43.263  1.00  0.00    -0.744 OA
ENDBRANCH  43  44
ENDBRANCH  24  38
BRANCH  25  48
ATOM     48  C   UNL A   1      41.235  29.283  29.916  1.00  0.00    -0.014 A 
ATOM     49  C   UNL A   1      40.738  28.006  29.605  1.00  0.00     0.010 A 
ATOM     50  C   UNL A   1      41.985  29.971  28.940  1.00  0.00     0.010 A 
ATOM     51  C   UNL A   1      41.015  27.419  28.363  1.00  0.00     0.020 A 
ATOM     52  C   UNL A   1      42.234  29.405  27.687  1.00  0.00     0.020 A 
ATOM     53  C   UNL A   1      41.766  28.121  27.415  1.00  0.00     0.054 A 
BRANCH  53  54
ATOM     54  S   UNL A   1      42.118  27.346  25.812  1.00  0.00     0.124 S 
ATOM     55  O   UNL A   1      40.999  26.420  25.673  1.00  0.00    -0.237 OA
ATOM     56  O   UNL A   1      42.115  28.487  24.899  1.00  0.00    -0.237 OA
ATOM     57  O   UNL A   1      43.424  26.723  26.013  1.00  0.00    -0.744 OA
ENDBRANCH  53  54
ENDBRANCH  25  48
BRANCH  37  58
ATOM     58  C   UNL A   1      45.000  29.765  35.774  1.00  0.00    -0.014 A 
ATOM     59  C   UNL A   1      45.144  28.489  36.343  1.00  0.00     0.010 A 
ATOM     60  C   UNL A   1      46.142  30.537  35.492  1.00  0.00     0.010 A 
ATOM     61  C   UNL A   1      46.414  28.006  36.660  1.00  0.00     0.020 A 
ATOM     62  C   UNL A   1      47.413  30.043  35.779  1.00  0.00     0.020 A 
ATOM     63  C   UNL A   1      47.540  28.787  36.377  1.00  0.00     0.054 A 
BRANCH  63  64
ATOM     64  S   UNL A   1      49.180  28.121  36.759  1.00  0.00     0.124 S 
ATOM     65  O   UNL A   1      49.457  28.726  38.058  1.00  0.00    -0.237 OA
ATOM     66  O   UNL A   1      48.945  26.679  36.772  1.00  0.00    -0.237 OA
ATOM     67  O   UNL A   1      50.012  28.600  35.657  1.00  0.00    -0.744 OA
ENDBRANCH  63  64
ENDBRANCH  37  58
ENDBRANCH  11  12
ENDBRANCH   4   6
ENDBRANCH   3   4
ENDBRANCH   2   3
ENDBRANCH   1   2
BRANCH   1  68
ATOM     68  O   UNL A   1      32.244  33.862  27.888  1.00  0.00    -0.374 OA
BRANCH  68  69
ATOM     69  C   UNL A   1      32.153  32.659  27.117  1.00  0.00     0.202 C 
BRANCH  69  70
ATOM     70  C   UNL A   1      33.221  31.655  27.537  1.00  0.00     0.261 C 
BRANCH  70  71
ATOM     71  O   UNL A   1      32.681  30.337  27.360  1.00  0.00    -0.459 OA
BRANCH  71  72
ATOM     72  C   UNL A   1      33.607  29.379  27.099  1.00  0.00     0.365 C 
ATOM     73  O   UNL A   1      34.695  29.280  27.662  1.00  0.00    -0.245 OA
BRANCH  72  74
ATOM     74  C   UNL A   1      33.164  28.437  25.989  1.00  0.00     0.298 C 
ATOM     75  C   UNL A   1      33.928  27.096  25.998  1.00  0.00     0.115 C 
ATOM     76  N   UNL A   1      31.684  28.297  26.041  1.00  0.00    -0.323 N 
ATOM     77  C   UNL A   1      33.285  26.142  25.073  1.00  0.00    -0.006 A 
ATOM     78  C   UNL A   1      31.151  27.576  24.880  1.00  0.00     0.264 C 
ATOM     79  H   UNL A   1      31.268  29.228  26.069  1.00  0.00     0.347 HD
ATOM     80  H   UNL A   1      31.451  27.759  26.876  1.00  0.00     0.347 HD
ATOM     81  C   UNL A   1      32.019  26.378  24.581  1.00  0.00     0.083 A 
ATOM     82  C   UNL A   1      33.788  24.945  24.511  1.00  0.00     0.003 A 
ATOM     83  N   UNL A   1      31.690  25.296  23.808  1.00  0.00    -0.353 N 
ATOM     84  C   UNL A   1      32.757  24.417  23.734  1.00  0.00     0.046 A 
ATOM     85  C   UNL A   1      35.019  24.262  24.581  1.00  0.00     0.010 A 
ATOM     86  H   UNL A   1      30.819  25.161  23.368  1.00  0.00     0.166 HD
ATOM     87  C   UNL A   1      32.896  23.207  23.041  1.00  0.00     0.026 A 
ATOM     88  C   UNL A   1      35.180  23.068  23.873  1.00  0.00     0.001 A 
ATOM     89  C   UNL A   1      34.129  22.547  23.122  1.00  0.00     0.002 A 
BRANCH  78  90
ATOM     90  C   UNL A   1      30.906  28.491  23.684  1.00  0.00     0.041 A 
ATOM     91  C   UNL A   1      31.928  28.843  22.811  1.00  0.00     0.093 A 
ATOM     92  C   UNL A   1      29.704  29.116  23.138  1.00  0.00     0.009 A 
ATOM     93  N   UNL A   1      31.433  29.658  21.837  1.00  0.00    -0.361 N 
ATOM     94  C   UNL A   1      30.090  29.857  22.015  1.00  0.00     0.046 A 
ATOM     95  C   UNL A   1      28.320  29.143  23.444  1.00  0.00     0.011 A 
ATOM     96  H   UNL A   1      31.967  30.050  21.109  1.00  0.00     0.166 HD
ATOM     97  C   UNL A   1      29.198  30.625  21.248  1.00  0.00     0.026 A 
ATOM     98  C   UNL A   1      27.419  29.927  22.713  1.00  0.00     0.001 A 
ATOM     99  C   UNL A   1      27.858  30.663  21.626  1.00  0.00     0.002 A 
ENDBRANCH  78  90
ENDBRANCH  72  74
ENDBRANCH  71  72
ENDBRANCH  70  71
ENDBRANCH  69  70
ENDBRANCH  68  69
ENDBRANCH   1  68
TORSDOF 18
ENDMDL
