MODEL 1
REMARK VINA RESULT:      -9.7      0.000      0.000
REMARK SMILES O=C(OCCOCCOC(=O)c1ccc(-c2c3nc(c(-c4ccc(S(=O)(=O)[O-])cc4)c4ccc([nH]4)c(-c4ccc(S(=O)(=O)[O-])cc4)c4nc(c(-c5ccc(S(=O)(=O)[O-])cc5)c5ccc2[nH]5)C=C4)C=C3)cc1)c1ccc(-c2ccc(=O)[nH]c2)cc1
REMARK SMILES IDX 7 1 6 2 5 3 4 4 3 5 2 6 1 7 72 8 73 9 84 10 74 11 83 12
REMARK SMILES IDX 75 13 76 14 77 15 82 16 78 17 81 18 79 19 80 21 8 22 9 23
REMARK SMILES IDX 10 24 11 25 12 26 13 27 71 28 14 29 70 30 15 31 16 32 17 33
REMARK SMILES IDX 64 34 18 35 69 36 63 37 65 38 19 39 68 40 62 41 61 42 20 44
REMARK SMILES IDX 50 45 31 46 49 47 32 48 35 49 48 50 66 51 33 52 34 53 47 55
REMARK SMILES IDX 67 56 36 57 21 58 22 59 30 60 23 61 29 62 24 63 25 64 26 65
REMARK SMILES IDX 27 66 28 67 51 68 52 69 60 70 53 71 59 72 54 73 55 74 56 75
REMARK SMILES IDX 57 76 58 77 37 78 38 79 46 80 39 81 45 82 40 83 41 84 42 85
REMARK SMILES IDX 43 86 44 87
REMARK H PARENT 81 20 65 43 35 54
REMARK Flexibility Score: inf
ROOT
ATOM      1  C   UNL A   1      33.981  34.657  28.764  1.00  0.00     0.202 C 
ENDROOT
BRANCH   1   2
ATOM      2  O   UNL A   1      32.915  34.860  29.701  1.00  0.00    -0.374 OA
BRANCH   2   3
ATOM      3  C   UNL A   1      32.810  36.178  30.238  1.00  0.00     0.202 C 
BRANCH   3   4
ATOM      4  C   UNL A   1      33.408  36.319  31.637  1.00  0.00     0.261 C 
BRANCH   4   5
ATOM      5  O   UNL A   1      34.326  35.238  31.896  1.00  0.00    -0.460 OA
BRANCH   5   6
ATOM      6  C   UNL A   1      35.092  35.066  33.000  1.00  0.00     0.338 C 
ATOM      7  O   UNL A   1      34.858  35.710  34.020  1.00  0.00    -0.246 OA
BRANCH   6   8
ATOM      8  C   UNL A   1      36.215  34.094  33.031  1.00  0.00     0.060 A 
ATOM      9  C   UNL A   1      37.548  34.477  33.159  1.00  0.00     0.016 A 
ATOM     10  C   UNL A   1      35.907  32.727  33.048  1.00  0.00     0.016 A 
ATOM     11  C   UNL A   1      38.565  33.531  33.217  1.00  0.00     0.009 A 
ATOM     12  C   UNL A   1      36.927  31.769  33.146  1.00  0.00     0.009 A 
ATOM     13  C   UNL A   1      38.267  32.167  33.227  1.00  0.00    -0.017 A 
BRANCH  13  14
ATOM     14  C   UNL A   1      39.383  31.206  33.294  1.00  0.00    -0.002 A 
ATOM     15  C   UNL A   1      39.215  29.774  33.099  1.00  0.00     0.016 A 
ATOM     16  C   UNL A   1      40.634  31.685  33.441  1.00  0.00     0.094 A 
ATOM     17  C   UNL A   1      40.273  28.954  33.014  1.00  0.00     0.072 A 
ATOM     18  N   UNL A   1      41.724  30.857  33.365  1.00  0.00    -0.328 N 
ATOM     19  C   UNL A   1      41.646  29.507  33.135  1.00  0.00     0.247 A 
ATOM     20  H   UNL A   1      42.617  31.256  33.481  1.00  0.00     0.169 HD
ATOM     21  O   UNL A   1      42.633  28.789  33.035  1.00  0.00    -0.270 OA
ENDBRANCH  13  14
ENDBRANCH   6   8
ENDBRANCH   5   6
ENDBRANCH   4   5
ENDBRANCH   3   4
ENDBRANCH   2   3
ENDBRANCH   1   2
BRANCH   1  22
ATOM     22  C   UNL A   1      33.808  33.289  28.095  1.00  0.00     0.261 C 
BRANCH  22  23
ATOM     23  O   UNL A   1      34.601  32.339  28.818  1.00  0.00    -0.460 OA
BRANCH  23  24
ATOM     24  C   UNL A   1      34.493  31.062  28.371  1.00  0.00     0.338 C 
ATOM     25  O   UNL A   1      33.561  30.574  27.755  1.00  0.00    -0.246 OA
BRANCH  24  26
ATOM     26  C   UNL A   1      35.812  30.414  28.552  1.00  0.00     0.060 A 
ATOM     27  C   UNL A   1      36.193  30.013  29.841  1.00  0.00     0.016 A 
ATOM     28  C   UNL A   1      36.636  30.147  27.455  1.00  0.00     0.016 A 
ATOM     29  C   UNL A   1      37.419  29.378  30.042  1.00  0.00     0.010 A 
ATOM     30  C   UNL A   1      37.856  29.515  27.653  1.00  0.00     0.010 A 
ATOM     31  C   UNL A   1      38.267  29.167  28.950  1.00  0.00    -0.014 A 
BRANCH  31  32
ATOM     32  C   UNL A   1      39.689  28.814  29.132  1.00  0.00     0.031 A 
ATOM     33  C   UNL A   1      40.635  29.938  29.441  1.00  0.00     0.074 A 
ATOM     34  C   UNL A   1      40.135  27.572  28.888  1.00  0.00     0.049 A 
ATOM     35  N   UNL A   1      41.939  29.961  29.402  1.00  0.00    -0.248 NA
ATOM     36  C   UNL A   1      40.013  31.225  29.804  1.00  0.00     0.031 C 
ATOM     37  C   UNL A   1      39.296  26.413  28.590  1.00  0.00     0.029 A 
ATOM     38  N   UNL A   1      41.417  27.096  28.803  1.00  0.00    -0.354 N 
ATOM     39  C   UNL A   1      42.293  31.272  29.695  1.00  0.00     0.074 A 
ATOM     40  C   UNL A   1      41.068  32.016  29.891  1.00  0.00     0.031 C 
ATOM     41  C   UNL A   1      40.089  25.364  28.313  1.00  0.00     0.029 A 
ATOM     42  C   UNL A   1      41.486  25.793  28.371  1.00  0.00     0.049 A 
ATOM     43  H   UNL A   1      42.211  27.634  29.029  1.00  0.00     0.167 HD
ATOM     44  C   UNL A   1      43.532  31.810  29.781  1.00  0.00     0.031 A 
ATOM     45  C   UNL A   1      42.554  25.051  28.019  1.00  0.00     0.031 A 
ATOM     46  C   UNL A   1      44.734  31.057  29.555  1.00  0.00     0.049 A 
ATOM     47  C   UNL A   1      43.926  25.666  28.099  1.00  0.00     0.074 A 
ATOM     48  C   UNL A   1      46.047  31.479  29.650  1.00  0.00     0.029 A 
ATOM     49  N   UNL A   1      44.764  29.723  29.174  1.00  0.00    -0.354 N 
ATOM     50  N   UNL A   1      44.260  26.894  28.423  1.00  0.00    -0.248 NA
ATOM     51  C   UNL A   1      45.066  24.797  27.780  1.00  0.00     0.031 C 
ATOM     52  C   UNL A   1      46.870  30.413  29.274  1.00  0.00     0.029 A 
ATOM     53  C   UNL A   1      46.072  29.308  29.007  1.00  0.00     0.049 A 
ATOM     54  H   UNL A   1      43.970  29.155  29.041  1.00  0.00     0.167 HD
ATOM     55  C   UNL A   1      45.649  26.938  28.373  1.00  0.00     0.074 A 
ATOM     56  C   UNL A   1      46.092  25.612  27.990  1.00  0.00     0.031 C 
ATOM     57  C   UNL A   1      46.483  27.977  28.631  1.00  0.00     0.031 A 
BRANCH  44  58
ATOM     58  C   UNL A   1      43.620  33.285  30.073  1.00  0.00    -0.014 A 
ATOM     59  C   UNL A   1      43.752  34.232  29.040  1.00  0.00     0.010 A 
ATOM     60  C   UNL A   1      43.609  33.729  31.408  1.00  0.00     0.010 A 
ATOM     61  C   UNL A   1      43.941  35.584  29.338  1.00  0.00     0.020 A 
ATOM     62  C   UNL A   1      43.763  35.084  31.709  1.00  0.00     0.020 A 
ATOM     63  C   UNL A   1      43.958  35.999  30.673  1.00  0.00     0.054 A 
BRANCH  63  64
ATOM     64  S   UNL A   1      44.232  37.755  31.036  1.00  0.00     0.124 S 
ATOM     65  O   UNL A   1      43.404  38.404  30.022  1.00  0.00    -0.237 OA
ATOM     66  O   UNL A   1      43.752  37.877  32.410  1.00  0.00    -0.237 OA
ATOM     67  O   UNL A   1      45.673  37.924  30.865  1.00  0.00    -0.744 OA
ENDBRANCH  63  64
ENDBRANCH  44  58
BRANCH  45  68
ATOM     68  C   UNL A   1      42.347  23.655  27.552  1.00  0.00    -0.014 A 
ATOM     69  C   UNL A   1      42.325  23.359  26.178  1.00  0.00     0.010 A 
ATOM     70  C   UNL A   1      42.254  22.601  28.480  1.00  0.00     0.010 A 
ATOM     71  C   UNL A   1      42.229  22.035  25.741  1.00  0.00     0.020 A 
ATOM     72  C   UNL A   1      42.181  21.273  28.046  1.00  0.00     0.020 A 
ATOM     73  C   UNL A   1      42.171  20.998  26.677  1.00  0.00     0.054 A 
BRANCH  73  74
ATOM     74  S   UNL A   1      42.165  19.283  26.083  1.00  0.00     0.124 S 
ATOM     75  O   UNL A   1      42.654  18.554  27.248  1.00  0.00    -0.237 OA
ATOM     76  O   UNL A   1      40.758  19.073  25.750  1.00  0.00    -0.237 OA
ATOM     77  O   UNL A   1      43.070  19.315  24.936  1.00  0.00    -0.744 OA
ENDBRANCH  73  74
ENDBRANCH  45  68
BRANCH  57  78
ATOM     78  C   UNL A   1      47.964  27.720  28.558  1.00  0.00    -0.014 A 
ATOM     79  C   UNL A   1      48.631  26.989  29.554  1.00  0.00     0.010 A 
ATOM     80  C   UNL A   1      48.674  28.133  27.414  1.00  0.00     0.010 A 
ATOM     81  C   UNL A   1      49.987  26.683  29.412  1.00  0.00     0.020 A 
ATOM     82  C   UNL A   1      50.021  27.807  27.257  1.00  0.00     0.020 A 
ATOM     83  C   UNL A   1      50.673  27.089  28.262  1.00  0.00     0.054 A 
BRANCH  83  84
ATOM     84  S   UNL A   1      52.412  26.613  28.066  1.00  0.00     0.124 S 
ATOM     85  O   UNL A   1      52.308  25.421  27.230  1.00  0.00    -0.237 OA
ATOM     86  O   UNL A   1      52.994  27.788  27.419  1.00  0.00    -0.237 OA
ATOM     87  O   UNL A   1      52.863  26.377  29.436  1.00  0.00    -0.744 OA
ENDBRANCH  83  84
ENDBRANCH  57  78
ENDBRANCH  31  32
ENDBRANCH  24  26
ENDBRANCH  23  24
ENDBRANCH  22  23
ENDBRANCH   1  22
TORSDOF 18
ENDMDL
MODEL 2
REMARK VINA RESULT:      -9.2      3.732      9.033
REMARK SMILES O=C(OCCOCCOC(=O)c1ccc(-c2c3nc(c(-c4ccc(S(=O)(=O)[O-])cc4)c4ccc([nH]4)c(-c4ccc(S(=O)(=O)[O-])cc4)c4nc(c(-c5ccc(S(=O)(=O)[O-])cc5)c5ccc2[nH]5)C=C4)C=C3)cc1)c1ccc(-c2ccc(=O)[nH]c2)cc1
REMARK SMILES IDX 7 1 6 2 5 3 4 4 3 5 2 6 1 7 72 8 73 9 84 10 74 11 83 12
REMARK SMILES IDX 75 13 76 14 77 15 82 16 78 17 81 18 79 19 80 21 8 22 9 23
REMARK SMILES IDX 10 24 11 25 12 26 13 27 71 28 14 29 70 30 15 31 16 32 17 33
REMARK SMILES IDX 64 34 18 35 69 36 63 37 65 38 19 39 68 40 62 41 61 42 20 44
REMARK SMILES IDX 50 45 31 46 49 47 32 48 35 49 48 50 66 51 33 52 34 53 47 55
REMARK SMILES IDX 67 56 36 57 21 58 22 59 30 60 23 61 29 62 24 63 25 64 26 65
REMARK SMILES IDX 27 66 28 67 51 68 52 69 60 70 53 71 59 72 54 73 55 74 56 75
REMARK SMILES IDX 57 76 58 77 37 78 38 79 46 80 39 81 45 82 40 83 41 84 42 85
REMARK SMILES IDX 43 86 44 87
REMARK H PARENT 81 20 65 43 35 54
REMARK Flexibility Score: inf
ROOT
ATOM      1  C   UNL A   1      34.181  35.073  28.035  1.00  0.00     0.202 C 
ENDROOT
BRANCH   1   2
ATOM      2  O   UNL A   1      33.993  35.244  29.446  1.00  0.00    -0.374 OA
BRANCH   2   3
ATOM      3  C   UNL A   1      33.211  36.376  29.830  1.00  0.00     0.202 C 
BRANCH   3   4
ATOM      4  C   UNL A   1      32.245  36.092  30.979  1.00  0.00     0.261 C 
BRANCH   4   5
ATOM      5  O   UNL A   1      32.593  36.887  32.130  1.00  0.00    -0.460 OA
BRANCH   5   6
ATOM      6  C   UNL A   1      33.638  36.691  32.969  1.00  0.00     0.338 C 
ATOM      7  O   UNL A   1      34.028  37.604  33.694  1.00  0.00    -0.246 OA
BRANCH   6   8
ATOM      8  C   UNL A   1      34.334  35.382  33.061  1.00  0.00     0.060 A 
ATOM      9  C   UNL A   1      33.673  34.160  32.946  1.00  0.00     0.016 A 
ATOM     10  C   UNL A   1      35.732  35.380  33.152  1.00  0.00     0.016 A 
ATOM     11  C   UNL A   1      34.370  32.959  33.005  1.00  0.00     0.009 A 
ATOM     12  C   UNL A   1      36.443  34.171  33.172  1.00  0.00     0.009 A 
ATOM     13  C   UNL A   1      35.763  32.949  33.103  1.00  0.00    -0.017 A 
BRANCH  13  14
ATOM     14  C   UNL A   1      36.453  31.647  33.158  1.00  0.00    -0.002 A 
ATOM     15  C   UNL A   1      36.307  30.625  32.134  1.00  0.00     0.016 A 
ATOM     16  C   UNL A   1      37.338  31.432  34.151  1.00  0.00     0.094 A 
ATOM     17  C   UNL A   1      37.068  29.520  32.141  1.00  0.00     0.072 A 
ATOM     18  N   UNL A   1      38.116  30.303  34.175  1.00  0.00    -0.328 N 
ATOM     19  C   UNL A   1      38.070  29.321  33.220  1.00  0.00     0.247 A 
ATOM     20  H   UNL A   1      38.747  30.192  34.923  1.00  0.00     0.169 HD
ATOM     21  O   UNL A   1      38.797  28.336  33.239  1.00  0.00    -0.270 OA
ENDBRANCH  13  14
ENDBRANCH   6   8
ENDBRANCH   5   6
ENDBRANCH   4   5
ENDBRANCH   3   4
ENDBRANCH   2   3
ENDBRANCH   1   2
BRANCH   1  22
ATOM     22  C   UNL A   1      33.501  33.772  27.593  1.00  0.00     0.261 C 
BRANCH  22  23
ATOM     23  O   UNL A   1      33.919  32.729  28.482  1.00  0.00    -0.460 OA
BRANCH  23  24
ATOM     24  C   UNL A   1      34.333  31.595  27.861  1.00  0.00     0.338 C 
ATOM     25  O   UNL A   1      33.755  30.988  26.975  1.00  0.00    -0.246 OA
BRANCH  24  26
ATOM     26  C   UNL A   1      35.730  31.344  28.279  1.00  0.00     0.060 A 
ATOM     27  C   UNL A   1      36.220  30.030  28.234  1.00  0.00     0.016 A 
ATOM     28  C   UNL A   1      36.568  32.398  28.652  1.00  0.00     0.016 A 
ATOM     29  C   UNL A   1      37.540  29.762  28.599  1.00  0.00     0.010 A 
ATOM     30  C   UNL A   1      37.881  32.134  29.015  1.00  0.00     0.010 A 
ATOM     31  C   UNL A   1      38.357  30.813  29.028  1.00  0.00    -0.014 A 
BRANCH  31  32
ATOM     32  C   UNL A   1      39.630  30.564  29.734  1.00  0.00     0.031 A 
ATOM     33  C   UNL A   1      40.414  29.353  29.318  1.00  0.00     0.074 A 
ATOM     34  C   UNL A   1      39.995  31.304  30.793  1.00  0.00     0.049 A 
ATOM     35  N   UNL A   1      41.411  28.763  29.917  1.00  0.00    -0.248 NA
ATOM     36  C   UNL A   1      39.978  28.698  28.071  1.00  0.00     0.031 C 
ATOM     37  C   UNL A   1      39.306  32.502  31.268  1.00  0.00     0.029 A 
ATOM     38  N   UNL A   1      41.012  31.116  31.691  1.00  0.00    -0.354 N 
ATOM     39  C   UNL A   1      41.696  27.645  29.144  1.00  0.00     0.074 A 
ATOM     40  C   UNL A   1      40.755  27.629  28.045  1.00  0.00     0.031 C 
ATOM     41  C   UNL A   1      39.898  32.921  32.399  1.00  0.00     0.029 A 
ATOM     42  C   UNL A   1      40.974  31.995  32.747  1.00  0.00     0.049 A 
ATOM     43  H   UNL A   1      41.702  30.420  31.591  1.00  0.00     0.167 HD
ATOM     44  C   UNL A   1      42.650  26.707  29.341  1.00  0.00     0.031 A 
ATOM     45  C   UNL A   1      41.697  32.016  33.884  1.00  0.00     0.031 A 
ATOM     46  C   UNL A   1      43.556  26.727  30.456  1.00  0.00     0.049 A 
ATOM     47  C   UNL A   1      42.743  30.955  34.103  1.00  0.00     0.074 A 
ATOM     48  C   UNL A   1      44.589  25.856  30.744  1.00  0.00     0.029 A 
ATOM     49  N   UNL A   1      43.522  27.668  31.476  1.00  0.00    -0.354 N 
ATOM     50  N   UNL A   1      43.041  29.925  33.344  1.00  0.00    -0.248 NA
ATOM     51  C   UNL A   1      43.558  31.063  35.320  1.00  0.00     0.031 C 
ATOM     52  C   UNL A   1      45.147  26.239  31.968  1.00  0.00     0.029 A 
ATOM     53  C   UNL A   1      44.503  27.387  32.409  1.00  0.00     0.049 A 
ATOM     54  H   UNL A   1      42.893  28.423  31.528  1.00  0.00     0.167 HD
ATOM     55  C   UNL A   1      44.096  29.277  33.978  1.00  0.00     0.074 A 
ATOM     56  C   UNL A   1      44.385  30.034  35.180  1.00  0.00     0.031 C 
ATOM     57  C   UNL A   1      44.771  28.164  33.596  1.00  0.00     0.031 A 
BRANCH  44  58
ATOM     58  C   UNL A   1      42.705  25.566  28.359  1.00  0.00    -0.014 A 
ATOM     59  C   UNL A   1      41.943  24.398  28.546  1.00  0.00     0.010 A 
ATOM     60  C   UNL A   1      43.562  25.651  27.246  1.00  0.00     0.010 A 
ATOM     61  C   UNL A   1      42.090  23.310  27.682  1.00  0.00     0.020 A 
ATOM     62  C   UNL A   1      43.686  24.578  26.360  1.00  0.00     0.020 A 
ATOM     63  C   UNL A   1      42.970  23.403  26.600  1.00  0.00     0.054 A 
BRANCH  63  64
ATOM     64  S   UNL A   1      43.165  21.968  25.508  1.00  0.00     0.124 S 
ATOM     65  O   UNL A   1      43.236  22.601  24.193  1.00  0.00    -0.237 OA
ATOM     66  O   UNL A   1      44.409  21.369  25.984  1.00  0.00    -0.237 OA
ATOM     67  O   UNL A   1      41.962  21.178  25.755  1.00  0.00    -0.744 OA
ENDBRANCH  63  64
ENDBRANCH  44  58
BRANCH  45  68
ATOM     68  C   UNL A   1      41.433  33.076  34.893  1.00  0.00    -0.014 A 
ATOM     69  C   UNL A   1      40.552  32.839  35.961  1.00  0.00     0.010 A 
ATOM     70  C   UNL A   1      42.126  34.300  34.837  1.00  0.00     0.010 A 
ATOM     71  C   UNL A   1      40.379  33.800  36.963  1.00  0.00     0.020 A 
ATOM     72  C   UNL A   1      41.974  35.253  35.849  1.00  0.00     0.020 A 
ATOM     73  C   UNL A   1      41.102  34.995  36.908  1.00  0.00     0.054 A 
BRANCH  73  74
ATOM     74  S   UNL A   1      40.948  36.173  38.281  1.00  0.00     0.124 S 
ATOM     75  O   UNL A   1      42.138  37.000  38.109  1.00  0.00    -0.237 OA
ATOM     76  O   UNL A   1      39.675  36.828  37.989  1.00  0.00    -0.237 OA
ATOM     77  O   UNL A   1      40.942  35.319  39.466  1.00  0.00    -0.744 OA
ENDBRANCH  73  74
ENDBRANCH  45  68
BRANCH  57  78
ATOM     78  C   UNL A   1      45.924  27.716  34.453  1.00  0.00    -0.014 A 
ATOM     79  C   UNL A   1      47.217  28.233  34.272  1.00  0.00     0.010 A 
ATOM     80  C   UNL A   1      45.677  26.839  35.526  1.00  0.00     0.010 A 
ATOM     81  C   UNL A   1      48.247  27.872  35.144  1.00  0.00     0.020 A 
ATOM     82  C   UNL A   1      46.696  26.496  36.414  1.00  0.00     0.020 A 
ATOM     83  C   UNL A   1      47.979  27.009  36.214  1.00  0.00     0.054 A 
BRANCH  83  84
ATOM     84  S   UNL A   1      49.314  26.616  37.377  1.00  0.00     0.124 S 
ATOM     85  O   UNL A   1      50.251  25.887  36.528  1.00  0.00    -0.237 OA
ATOM     86  O   UNL A   1      49.757  27.939  37.814  1.00  0.00    -0.237 OA
ATOM     87  O   UNL A   1      48.653  25.817  38.406  1.00  0.00    -0.744 OA
ENDBRANCH  83  84
ENDBRANCH  57  78
ENDBRANCH  31  32
ENDBRANCH  24  26
ENDBRANCH  23  24
ENDBRANCH  22  23
ENDBRANCH   1  22
TORSDOF 18
ENDMDL
MODEL 3
REMARK VINA RESULT:      -9.1      3.147      4.536
REMARK SMILES O=C(OCCOCCOC(=O)c1ccc(-c2c3nc(c(-c4ccc(S(=O)(=O)[O-])cc4)c4ccc([nH]4)c(-c4ccc(S(=O)(=O)[O-])cc4)c4nc(c(-c5ccc(S(=O)(=O)[O-])cc5)c5ccc2[nH]5)C=C4)C=C3)cc1)c1ccc(-c2ccc(=O)[nH]c2)cc1
REMARK SMILES IDX 7 1 6 2 5 3 4 4 3 5 2 6 1 7 72 8 73 9 84 10 74 11 83 12
REMARK SMILES IDX 75 13 76 14 77 15 82 16 78 17 81 18 79 19 80 21 8 22 9 23
REMARK SMILES IDX 10 24 11 25 12 26 13 27 71 28 14 29 70 30 15 31 16 32 17 33
REMARK SMILES IDX 64 34 18 35 69 36 63 37 65 38 19 39 68 40 62 41 61 42 20 44
REMARK SMILES IDX 50 45 31 46 49 47 32 48 35 49 48 50 66 51 33 52 34 53 47 55
REMARK SMILES IDX 67 56 36 57 21 58 22 59 30 60 23 61 29 62 24 63 25 64 26 65
REMARK SMILES IDX 27 66 28 67 51 68 52 69 60 70 53 71 59 72 54 73 55 74 56 75
REMARK SMILES IDX 57 76 58 77 37 78 38 79 46 80 39 81 45 82 40 83 41 84 42 85
REMARK SMILES IDX 43 86 44 87
REMARK H PARENT 81 20 65 43 35 54
REMARK Flexibility Score: inf
ROOT
ATOM      1  C   UNL A   1      34.278  34.752  29.117  1.00  0.00     0.202 C 
ENDROOT
BRANCH   1   2
ATOM      2  O   UNL A   1      33.267  34.795  30.133  1.00  0.00    -0.374 OA
BRANCH   2   3
ATOM      3  C   UNL A   1      33.570  35.605  31.269  1.00  0.00     0.202 C 
BRANCH   3   4
ATOM      4  C   UNL A   1      33.544  34.838  32.591  1.00  0.00     0.261 C 
BRANCH   4   5
ATOM      5  O   UNL A   1      34.739  34.043  32.728  1.00  0.00    -0.460 OA
BRANCH   5   6
ATOM      6  C   UNL A   1      35.943  34.455  33.190  1.00  0.00     0.338 C 
ATOM      7  O   UNL A   1      36.047  34.908  34.327  1.00  0.00    -0.246 OA
BRANCH   6   8
ATOM      8  C   UNL A   1      37.173  34.362  32.361  1.00  0.00     0.060 A 
ATOM      9  C   UNL A   1      37.148  34.174  30.981  1.00  0.00     0.016 A 
ATOM     10  C   UNL A   1      38.408  34.591  32.982  1.00  0.00     0.016 A 
ATOM     11  C   UNL A   1      38.323  34.126  30.241  1.00  0.00     0.009 A 
ATOM     12  C   UNL A   1      39.594  34.583  32.233  1.00  0.00     0.009 A 
ATOM     13  C   UNL A   1      39.559  34.346  30.854  1.00  0.00    -0.017 A 
BRANCH  13  14
ATOM     14  C   UNL A   1      40.774  34.288  30.021  1.00  0.00    -0.002 A 
ATOM     15  C   UNL A   1      41.109  35.297  29.029  1.00  0.00     0.016 A 
ATOM     16  C   UNL A   1      41.669  33.310  30.261  1.00  0.00     0.094 A 
ATOM     17  C   UNL A   1      42.296  35.291  28.403  1.00  0.00     0.072 A 
ATOM     18  N   UNL A   1      42.883  33.287  29.623  1.00  0.00    -0.328 N 
ATOM     19  C   UNL A   1      43.287  34.229  28.712  1.00  0.00     0.247 A 
ATOM     20  H   UNL A   1      43.502  32.549  29.831  1.00  0.00     0.169 HD
ATOM     21  O   UNL A   1      44.389  34.212  28.178  1.00  0.00    -0.270 OA
ENDBRANCH  13  14
ENDBRANCH   6   8
ENDBRANCH   5   6
ENDBRANCH   4   5
ENDBRANCH   3   4
ENDBRANCH   2   3
ENDBRANCH   1   2
BRANCH   1  22
ATOM     22  C   UNL A   1      33.839  33.785  28.012  1.00  0.00     0.261 C 
BRANCH  22  23
ATOM     23  O   UNL A   1      34.952  32.940  27.695  1.00  0.00    -0.460 OA
BRANCH  23  24
ATOM     24  C   UNL A   1      34.669  31.613  27.707  1.00  0.00     0.338 C 
ATOM     25  O   UNL A   1      33.685  31.064  27.243  1.00  0.00    -0.246 OA
BRANCH  24  26
ATOM     26  C   UNL A   1      35.881  30.905  28.179  1.00  0.00     0.060 A 
ATOM     27  C   UNL A   1      35.775  29.553  28.538  1.00  0.00     0.016 A 
ATOM     28  C   UNL A   1      37.121  31.548  28.208  1.00  0.00     0.016 A 
ATOM     29  C   UNL A   1      36.902  28.851  28.964  1.00  0.00     0.010 A 
ATOM     30  C   UNL A   1      38.245  30.851  28.631  1.00  0.00     0.010 A 
ATOM     31  C   UNL A   1      38.130  29.515  29.048  1.00  0.00    -0.014 A 
BRANCH  31  32
ATOM     32  C   UNL A   1      39.270  28.944  29.792  1.00  0.00     0.031 A 
ATOM     33  C   UNL A   1      39.692  29.657  31.044  1.00  0.00     0.074 A 
ATOM     34  C   UNL A   1      39.984  27.921  29.295  1.00  0.00     0.049 A 
ATOM     35  N   UNL A   1      40.787  29.532  31.742  1.00  0.00    -0.248 NA
ATOM     36  C   UNL A   1      38.761  30.683  31.549  1.00  0.00     0.031 C 
ATOM     37  C   UNL A   1      39.650  27.160  28.093  1.00  0.00     0.029 A 
ATOM     38  N   UNL A   1      41.172  27.387  29.720  1.00  0.00    -0.354 N 
ATOM     39  C   UNL A   1      40.696  30.491  32.744  1.00  0.00     0.074 A 
ATOM     40  C   UNL A   1      39.450  31.199  32.552  1.00  0.00     0.031 C 
ATOM     41  C   UNL A   1      40.635  26.278  27.853  1.00  0.00     0.029 A 
ATOM     42  C   UNL A   1      41.685  26.449  28.856  1.00  0.00     0.049 A 
ATOM     43  H   UNL A   1      41.614  27.649  30.560  1.00  0.00     0.167 HD
ATOM     44  C   UNL A   1      41.581  30.763  33.730  1.00  0.00     0.031 A 
ATOM     45  C   UNL A   1      42.885  25.837  28.855  1.00  0.00     0.031 A 
ATOM     46  C   UNL A   1      42.827  30.064  33.886  1.00  0.00     0.049 A 
ATOM     47  C   UNL A   1      43.871  26.162  29.946  1.00  0.00     0.074 A 
ATOM     48  C   UNL A   1      43.788  30.222  34.865  1.00  0.00     0.029 A 
ATOM     49  N   UNL A   1      43.286  29.079  33.022  1.00  0.00    -0.354 N 
ATOM     50  N   UNL A   1      43.760  27.036  30.920  1.00  0.00    -0.248 NA
ATOM     51  C   UNL A   1      45.135  25.415  29.948  1.00  0.00     0.031 C 
ATOM     52  C   UNL A   1      44.854  29.369  34.564  1.00  0.00     0.029 A 
ATOM     53  C   UNL A   1      44.529  28.634  33.432  1.00  0.00     0.049 A 
ATOM     54  H   UNL A   1      42.799  28.748  32.233  1.00  0.00     0.167 HD
ATOM     55  C   UNL A   1      44.928  26.924  31.667  1.00  0.00     0.074 A 
ATOM     56  C   UNL A   1      45.729  25.896  31.032  1.00  0.00     0.031 C 
ATOM     57  C   UNL A   1      45.300  27.602  32.782  1.00  0.00     0.031 A 
BRANCH  44  58
ATOM     58  C   UNL A   1      41.243  31.897  34.662  1.00  0.00    -0.014 A 
ATOM     59  C   UNL A   1      40.279  31.752  35.677  1.00  0.00     0.010 A 
ATOM     60  C   UNL A   1      41.875  33.143  34.494  1.00  0.00     0.010 A 
ATOM     61  C   UNL A   1      39.903  32.847  36.459  1.00  0.00     0.020 A 
ATOM     62  C   UNL A   1      41.526  34.232  35.297  1.00  0.00     0.020 A 
ATOM     63  C   UNL A   1      40.521  34.084  36.255  1.00  0.00     0.054 A 
BRANCH  63  64
ATOM     64  S   UNL A   1      39.997  35.497  37.263  1.00  0.00     0.124 S 
ATOM     65  O   UNL A   1      38.845  34.948  37.974  1.00  0.00    -0.237 OA
ATOM     66  O   UNL A   1      41.175  35.759  38.086  1.00  0.00    -0.237 OA
ATOM     67  O   UNL A   1      39.687  36.530  36.279  1.00  0.00    -0.744 OA
ENDBRANCH  63  64
ENDBRANCH  44  58
BRANCH  45  68
ATOM     68  C   UNL A   1      43.206  24.869  27.772  1.00  0.00    -0.014 A 
ATOM     69  C   UNL A   1      43.905  25.286  26.628  1.00  0.00     0.010 A 
ATOM     70  C   UNL A   1      42.886  23.506  27.919  1.00  0.00     0.010 A 
ATOM     71  C   UNL A   1      44.292  24.358  25.656  1.00  0.00     0.020 A 
ATOM     72  C   UNL A   1      43.291  22.571  26.961  1.00  0.00     0.020 A 
ATOM     73  C   UNL A   1      43.995  23.003  25.836  1.00  0.00     0.054 A 
BRANCH  73  74
ATOM     74  S   UNL A   1      44.611  21.805  24.620  1.00  0.00     0.124 S 
ATOM     75  O   UNL A   1      44.266  22.448  23.356  1.00  0.00    -0.237 OA
ATOM     76  O   UNL A   1      46.038  21.749  24.932  1.00  0.00    -0.237 OA
ATOM     77  O   UNL A   1      43.866  20.588  24.930  1.00  0.00    -0.744 OA
ENDBRANCH  73  74
ENDBRANCH  45  68
BRANCH  57  78
ATOM     78  C   UNL A   1      46.608  27.228  33.425  1.00  0.00    -0.014 A 
ATOM     79  C   UNL A   1      47.799  27.905  33.113  1.00  0.00     0.010 A 
ATOM     80  C   UNL A   1      46.618  26.249  34.436  1.00  0.00     0.010 A 
ATOM     81  C   UNL A   1      48.980  27.601  33.795  1.00  0.00     0.020 A 
ATOM     82  C   UNL A   1      47.789  25.961  35.137  1.00  0.00     0.020 A 
ATOM     83  C   UNL A   1      48.967  26.635  34.807  1.00  0.00     0.054 A 
BRANCH  83  84
ATOM     84  S   UNL A   1      50.494  26.314  35.730  1.00  0.00     0.124 S 
ATOM     85  O   UNL A   1      51.283  25.561  34.759  1.00  0.00    -0.237 OA
ATOM     86  O   UNL A   1      50.977  27.660  36.028  1.00  0.00    -0.237 OA
ATOM     87  O   UNL A   1      50.043  25.551  36.893  1.00  0.00    -0.744 OA
ENDBRANCH  83  84
ENDBRANCH  57  78
ENDBRANCH  31  32
ENDBRANCH  24  26
ENDBRANCH  23  24
ENDBRANCH  22  23
ENDBRANCH   1  22
TORSDOF 18
ENDMDL
