MODEL 1
REMARK VINA RESULT:     -10.1      0.000      0.000
REMARK SMILES Cn1nc(N2CCC(CC(=O)OCCOCCOC(=O)c3ccc(-c4c5nc(c(-c6ccc(S(=O)(=O)[O-])cc6)c6ccc([nH]6)c(-c6ccc(S(=O)(=O)[O-])cc6)c6nc(c(-c7ccc(S(=O)(=O)[O-])cc7)c7ccc4[nH]7)C=C6)C=C5)cc3)CC2)c(=O)n(C)c1=O
REMARK SMILES IDX 16 1 15 2 14 3 13 4 12 5 10 6 11 7 9 8 8 9 5 10 6 11 82 12
REMARK SMILES IDX 7 13 81 14 4 15 1 16 2 17 3 18 87 19 85 20 88 21 83 22 86 23
REMARK SMILES IDX 84 24 17 25 18 26 19 27 20 28 21 29 22 30 80 31 23 32 79 33
REMARK SMILES IDX 24 34 25 35 26 36 73 37 27 38 78 39 72 40 74 41 28 42 77 43
REMARK SMILES IDX 71 44 70 45 29 47 59 48 40 49 58 50 41 51 44 52 57 53 75 54
REMARK SMILES IDX 42 55 43 56 56 58 76 59 45 60 30 61 31 62 39 63 32 64 38 65
REMARK SMILES IDX 33 66 34 67 35 68 36 69 37 70 60 71 61 72 69 73 62 74 68 75
REMARK SMILES IDX 63 76 64 77 65 78 66 79 67 80 46 81 47 82 55 83 48 84 54 85
REMARK SMILES IDX 49 86 50 87 51 88 52 89 53 90
REMARK H PARENT 74 46 44 57
REMARK Flexibility Score: inf
ROOT
ATOM      1  C   UNL A   1      39.023  22.884  26.721  1.00  0.00     0.202 C 
ENDROOT
BRANCH   1   2
ATOM      2  O   UNL A   1      38.719  21.899  25.736  1.00  0.00    -0.374 OA
BRANCH   2   3
ATOM      3  C   UNL A   1      37.351  21.765  25.349  1.00  0.00     0.202 C 
BRANCH   3   4
ATOM      4  C   UNL A   1      37.007  22.189  23.919  1.00  0.00     0.261 C 
BRANCH   4   5
ATOM      5  O   UNL A   1      36.352  23.470  23.899  1.00  0.00    -0.463 OA
BRANCH   5   6
ATOM      6  C   UNL A   1      35.048  23.483  23.532  1.00  0.00     0.306 C 
ATOM      7  O   UNL A   1      34.635  23.254  22.401  1.00  0.00    -0.252 OA
BRANCH   6   8
ATOM      8  C   UNL A   1      34.120  23.857  24.671  1.00  0.00     0.126 C 
BRANCH   8   9
ATOM      9  C   UNL A   1      33.073  24.969  24.439  1.00  0.00     0.003 C 
ATOM     10  N   UNL A   1      32.287  27.705  24.969  1.00  0.00    -0.351 N 
ATOM     11  C   UNL A   1      31.497  26.631  25.549  1.00  0.00     0.118 C 
ATOM     12  C   UNL A   1      32.872  27.413  23.670  1.00  0.00     0.118 C 
ATOM     13  C   UNL A   1      32.357  25.386  25.738  1.00  0.00     0.026 C 
ATOM     14  C   UNL A   1      33.781  26.188  23.800  1.00  0.00     0.026 C 
BRANCH  10  15
ATOM     15  C   UNL A   1      32.718  28.779  25.740  1.00  0.00     0.215 A 
ATOM     16  C   UNL A   1      35.466  29.617  27.897  1.00  0.00     0.180 C 
ATOM     17  N   UNL A   1      34.192  29.762  27.214  1.00  0.00    -0.216 N 
ATOM     18  N   UNL A   1      33.801  28.691  26.459  1.00  0.00    -0.145 NA
ATOM     19  C   UNL A   1      33.488  30.955  27.343  1.00  0.00     0.346 A 
ATOM     20  N   UNL A   1      32.298  31.036  26.649  1.00  0.00    -0.259 N 
ATOM     21  O   UNL A   1      33.914  31.893  28.019  1.00  0.00    -0.246 OA
ATOM     22  C   UNL A   1      31.879  30.064  25.766  1.00  0.00     0.299 A 
ATOM     23  C   UNL A   1      31.463  32.211  26.790  1.00  0.00     0.159 C 
ATOM     24  O   UNL A   1      30.893  30.162  25.040  1.00  0.00    -0.265 OA
ENDBRANCH  10  15
ENDBRANCH   8   9
ENDBRANCH   6   8
ENDBRANCH   5   6
ENDBRANCH   4   5
ENDBRANCH   3   4
ENDBRANCH   2   3
ENDBRANCH   1   2
BRANCH   1  25
ATOM     25  C   UNL A   1      39.390  24.281  26.205  1.00  0.00     0.261 C 
BRANCH  25  26
ATOM     26  O   UNL A   1      40.554  24.821  26.859  1.00  0.00    -0.460 OA
BRANCH  26  27
ATOM     27  C   UNL A   1      40.804  26.123  26.576  1.00  0.00     0.338 C 
ATOM     28  O   UNL A   1      41.124  26.591  25.490  1.00  0.00    -0.246 OA
BRANCH  27  29
ATOM     29  C   UNL A   1      40.456  26.974  27.727  1.00  0.00     0.060 A 
ATOM     30  C   UNL A   1      41.030  28.251  27.781  1.00  0.00     0.016 A 
ATOM     31  C   UNL A   1      39.651  26.516  28.772  1.00  0.00     0.016 A 
ATOM     32  C   UNL A   1      40.840  29.057  28.900  1.00  0.00     0.010 A 
ATOM     33  C   UNL A   1      39.469  27.324  29.902  1.00  0.00     0.010 A 
ATOM     34  C   UNL A   1      40.090  28.584  29.986  1.00  0.00    -0.014 A 
BRANCH  34  35
ATOM     35  C   UNL A   1      40.094  29.352  31.257  1.00  0.00     0.031 A 
ATOM     36  C   UNL A   1      41.220  29.137  32.234  1.00  0.00     0.074 A 
ATOM     37  C   UNL A   1      39.152  30.281  31.507  1.00  0.00     0.049 A 
ATOM     38  N   UNL A   1      41.425  29.703  33.396  1.00  0.00    -0.248 NA
ATOM     39  C   UNL A   1      42.259  28.165  31.848  1.00  0.00     0.031 C 
ATOM     40  C   UNL A   1      38.051  30.634  30.609  1.00  0.00     0.029 A 
ATOM     41  N   UNL A   1      38.981  31.111  32.588  1.00  0.00    -0.354 N 
ATOM     42  C   UNL A   1      42.616  29.166  33.874  1.00  0.00     0.074 A 
ATOM     43  C   UNL A   1      43.071  28.202  32.897  1.00  0.00     0.031 C 
ATOM     44  C   UNL A   1      37.326  31.616  31.174  1.00  0.00     0.029 A 
ATOM     45  C   UNL A   1      37.887  31.938  32.484  1.00  0.00     0.049 A 
ATOM     46  H   UNL A   1      39.586  31.113  33.364  1.00  0.00     0.167 HD
ATOM     47  C   UNL A   1      43.279  29.461  35.016  1.00  0.00     0.031 A 
ATOM     48  C   UNL A   1      37.389  32.842  33.352  1.00  0.00     0.031 A 
ATOM     49  C   UNL A   1      42.827  30.415  35.993  1.00  0.00     0.049 A 
ATOM     50  C   UNL A   1      38.088  33.063  34.671  1.00  0.00     0.074 A 
ATOM     51  C   UNL A   1      43.426  30.766  37.190  1.00  0.00     0.029 A 
ATOM     52  N   UNL A   1      41.672  31.172  35.886  1.00  0.00    -0.354 N 
ATOM     53  N   UNL A   1      39.208  32.540  35.110  1.00  0.00    -0.248 NA
ATOM     54  C   UNL A   1      37.454  34.000  35.612  1.00  0.00     0.031 C 
ATOM     55  C   UNL A   1      42.607  31.699  37.831  1.00  0.00     0.029 A 
ATOM     56  C   UNL A   1      41.530  31.974  37.005  1.00  0.00     0.049 A 
ATOM     57  H   UNL A   1      41.045  31.144  35.127  1.00  0.00     0.167 HD
ATOM     58  C   UNL A   1      39.428  33.110  36.360  1.00  0.00     0.074 A 
ATOM     59  C   UNL A   1      38.334  34.026  36.603  1.00  0.00     0.031 C 
ATOM     60  C   UNL A   1      40.445  32.893  37.229  1.00  0.00     0.031 A 
BRANCH  47  61
ATOM     61  C   UNL A   1      44.577  28.748  35.285  1.00  0.00    -0.014 A 
ATOM     62  C   UNL A   1      44.585  27.483  35.898  1.00  0.00     0.010 A 
ATOM     63  C   UNL A   1      45.787  29.296  34.822  1.00  0.00     0.010 A 
ATOM     64  C   UNL A   1      45.782  26.779  36.044  1.00  0.00     0.020 A 
ATOM     65  C   UNL A   1      46.983  28.584  34.946  1.00  0.00     0.020 A 
ATOM     66  C   UNL A   1      46.973  27.329  35.559  1.00  0.00     0.054 A 
BRANCH  66  67
ATOM     67  S   UNL A   1      48.496  26.354  35.694  1.00  0.00     0.124 S 
ATOM     68  O   UNL A   1      49.459  27.357  36.142  1.00  0.00    -0.237 OA
ATOM     69  O   UNL A   1      48.138  25.342  36.684  1.00  0.00    -0.237 OA
ATOM     70  O   UNL A   1      48.709  25.850  34.339  1.00  0.00    -0.744 OA
ENDBRANCH  66  67
ENDBRANCH  47  61
BRANCH  48  71
ATOM     71  C   UNL A   1      36.150  33.602  33.026  1.00  0.00    -0.014 A 
ATOM     72  C   UNL A   1      36.220  34.952  32.635  1.00  0.00     0.010 A 
ATOM     73  C   UNL A   1      34.887  32.993  33.151  1.00  0.00     0.010 A 
ATOM     74  C   UNL A   1      35.051  35.686  32.409  1.00  0.00     0.020 A 
ATOM     75  C   UNL A   1      33.718  33.715  32.897  1.00  0.00     0.020 A 
ATOM     76  C   UNL A   1      33.808  35.063  32.544  1.00  0.00     0.054 A 
BRANCH  76  77
ATOM     77  S   UNL A   1      32.306  36.033  32.236  1.00  0.00     0.124 S 
ATOM     78  O   UNL A   1      32.508  37.190  33.102  1.00  0.00    -0.237 OA
ATOM     79  O   UNL A   1      32.389  36.293  30.801  1.00  0.00    -0.237 OA
ATOM     80  O   UNL A   1      31.228  35.131  32.638  1.00  0.00    -0.744 OA
ENDBRANCH  76  77
ENDBRANCH  48  71
BRANCH  60  81
ATOM     81  C   UNL A   1      40.458  33.681  38.512  1.00  0.00    -0.014 A 
ATOM     82  C   UNL A   1      39.881  33.167  39.686  1.00  0.00     0.010 A 
ATOM     83  C   UNL A   1      41.134  34.915  38.563  1.00  0.00     0.010 A 
ATOM     84  C   UNL A   1      39.967  33.882  40.885  1.00  0.00     0.020 A 
ATOM     85  C   UNL A   1      41.245  35.619  39.765  1.00  0.00     0.020 A 
ATOM     86  C   UNL A   1      40.652  35.100  40.917  1.00  0.00     0.054 A 
BRANCH  86  87
ATOM     87  S   UNL A   1      40.801  35.972  42.501  1.00  0.00     0.124 S 
ATOM     88  O   UNL A   1      41.801  36.991  42.195  1.00  0.00    -0.237 OA
ATOM     89  O   UNL A   1      39.445  36.467  42.721  1.00  0.00    -0.237 OA
ATOM     90  O   UNL A   1      41.237  34.932  43.431  1.00  0.00    -0.744 OA
ENDBRANCH  86  87
ENDBRANCH  60  81
ENDBRANCH  34  35
ENDBRANCH  27  29
ENDBRANCH  26  27
ENDBRANCH  25  26
ENDBRANCH   1  25
TORSDOF 19
ENDMDL
MODEL 2
REMARK VINA RESULT:     -10.1      6.374     13.234
REMARK SMILES Cn1nc(N2CCC(CC(=O)OCCOCCOC(=O)c3ccc(-c4c5nc(c(-c6ccc(S(=O)(=O)[O-])cc6)c6ccc([nH]6)c(-c6ccc(S(=O)(=O)[O-])cc6)c6nc(c(-c7ccc(S(=O)(=O)[O-])cc7)c7ccc4[nH]7)C=C6)C=C5)cc3)CC2)c(=O)n(C)c1=O
REMARK SMILES IDX 16 1 15 2 14 3 13 4 12 5 10 6 11 7 9 8 8 9 5 10 6 11 82 12
REMARK SMILES IDX 7 13 81 14 4 15 1 16 2 17 3 18 87 19 85 20 88 21 83 22 86 23
REMARK SMILES IDX 84 24 17 25 18 26 19 27 20 28 21 29 22 30 80 31 23 32 79 33
REMARK SMILES IDX 24 34 25 35 26 36 73 37 27 38 78 39 72 40 74 41 28 42 77 43
REMARK SMILES IDX 71 44 70 45 29 47 59 48 40 49 58 50 41 51 44 52 57 53 75 54
REMARK SMILES IDX 42 55 43 56 56 58 76 59 45 60 30 61 31 62 39 63 32 64 38 65
REMARK SMILES IDX 33 66 34 67 35 68 36 69 37 70 60 71 61 72 69 73 62 74 68 75
REMARK SMILES IDX 63 76 64 77 65 78 66 79 67 80 46 81 47 82 55 83 48 84 54 85
REMARK SMILES IDX 49 86 50 87 51 88 52 89 53 90
REMARK H PARENT 74 46 44 57
REMARK Flexibility Score: inf
ROOT
ATOM      1  C   UNL A   1      34.187  31.253  27.656  1.00  0.00     0.202 C 
ENDROOT
BRANCH   1   2
ATOM      2  O   UNL A   1      33.466  32.382  28.144  1.00  0.00    -0.374 OA
BRANCH   2   3
ATOM      3  C   UNL A   1      34.157  33.263  29.029  1.00  0.00     0.202 C 
BRANCH   3   4
ATOM      4  C   UNL A   1      33.836  34.754  28.887  1.00  0.00     0.261 C 
BRANCH   4   5
ATOM      5  O   UNL A   1      32.672  35.110  29.656  1.00  0.00    -0.463 OA
BRANCH   5   6
ATOM      6  C   UNL A   1      32.766  36.220  30.427  1.00  0.00     0.306 C 
ATOM      7  O   UNL A   1      33.222  37.295  30.056  1.00  0.00    -0.252 OA
BRANCH   6   8
ATOM      8  C   UNL A   1      32.280  35.994  31.845  1.00  0.00     0.126 C 
BRANCH   8   9
ATOM      9  C   UNL A   1      33.222  35.292  32.848  1.00  0.00     0.003 C 
ATOM     10  N   UNL A   1      35.711  33.866  33.244  1.00  0.00    -0.351 N 
ATOM     11  C   UNL A   1      34.461  33.140  33.408  1.00  0.00     0.118 C 
ATOM     12  C   UNL A   1      35.669  35.267  33.632  1.00  0.00     0.118 C 
ATOM     13  C   UNL A   1      33.364  33.784  32.567  1.00  0.00     0.026 C 
ATOM     14  C   UNL A   1      34.606  35.982  32.793  1.00  0.00     0.026 C 
BRANCH  10  15
ATOM     15  C   UNL A   1      36.747  33.350  32.474  1.00  0.00     0.215 A 
ATOM     16  C   UNL A   1      38.068  33.703  29.152  1.00  0.00     0.180 C 
ATOM     17  N   UNL A   1      37.915  33.173  30.495  1.00  0.00    -0.216 N 
ATOM     18  N   UNL A   1      36.891  33.705  31.229  1.00  0.00    -0.145 NA
ATOM     19  C   UNL A   1      38.811  32.209  30.947  1.00  0.00     0.346 A 
ATOM     20  N   UNL A   1      38.625  31.765  32.241  1.00  0.00    -0.259 N 
ATOM     21  O   UNL A   1      39.731  31.793  30.241  1.00  0.00    -0.246 OA
ATOM     22  C   UNL A   1      37.703  32.326  33.099  1.00  0.00     0.299 A 
ATOM     23  C   UNL A   1      39.463  30.706  32.763  1.00  0.00     0.159 C 
ATOM     24  O   UNL A   1      37.599  32.042  34.289  1.00  0.00    -0.265 OA
ENDBRANCH  10  15
ENDBRANCH   8   9
ENDBRANCH   6   8
ENDBRANCH   5   6
ENDBRANCH   4   5
ENDBRANCH   3   4
ENDBRANCH   2   3
ENDBRANCH   1   2
BRANCH   1  25
ATOM     25  C   UNL A   1      35.591  31.033  28.236  1.00  0.00     0.261 C 
BRANCH  25  26
ATOM     26  O   UNL A   1      35.860  29.645  28.512  1.00  0.00    -0.460 OA
BRANCH  26  27
ATOM     27  C   UNL A   1      36.719  29.434  29.539  1.00  0.00     0.338 C 
ATOM     28  O   UNL A   1      36.449  29.423  30.733  1.00  0.00    -0.246 OA
BRANCH  27  29
ATOM     29  C   UNL A   1      38.037  29.018  29.027  1.00  0.00     0.060 A 
ATOM     30  C   UNL A   1      38.913  28.401  29.929  1.00  0.00     0.016 A 
ATOM     31  C   UNL A   1      38.445  29.291  27.719  1.00  0.00     0.016 A 
ATOM     32  C   UNL A   1      40.216  28.095  29.542  1.00  0.00     0.010 A 
ATOM     33  C   UNL A   1      39.758  28.992  27.335  1.00  0.00     0.010 A 
ATOM     34  C   UNL A   1      40.660  28.425  28.254  1.00  0.00    -0.014 A 
BRANCH  34  35
ATOM     35  C   UNL A   1      42.106  28.311  27.936  1.00  0.00     0.031 A 
ATOM     36  C   UNL A   1      43.018  29.464  28.268  1.00  0.00     0.074 A 
ATOM     37  C   UNL A   1      42.616  27.172  27.430  1.00  0.00     0.049 A 
ATOM     38  N   UNL A   1      44.308  29.576  28.085  1.00  0.00    -0.248 NA
ATOM     39  C   UNL A   1      42.397  30.641  28.900  1.00  0.00     0.031 C 
ATOM     40  C   UNL A   1      41.850  25.960  27.132  1.00  0.00     0.029 A 
ATOM     41  N   UNL A   1      43.905  26.845  27.090  1.00  0.00    -0.354 N 
ATOM     42  C   UNL A   1      44.655  30.826  28.585  1.00  0.00     0.074 A 
ATOM     43  C   UNL A   1      43.436  31.452  29.047  1.00  0.00     0.031 C 
ATOM     44  C   UNL A   1      42.689  25.019  26.665  1.00  0.00     0.029 A 
ATOM     45  C   UNL A   1      44.041  25.568  26.596  1.00  0.00     0.049 A 
ATOM     46  H   UNL A   1      44.662  27.466  27.192  1.00  0.00     0.167 HD
ATOM     47  C   UNL A   1      45.880  31.394  28.668  1.00  0.00     0.031 A 
ATOM     48  C   UNL A   1      45.130  24.922  26.131  1.00  0.00     0.031 A 
ATOM     49  C   UNL A   1      47.094  30.777  28.205  1.00  0.00     0.049 A 
ATOM     50  C   UNL A   1      46.463  25.628  26.128  1.00  0.00     0.074 A 
ATOM     51  C   UNL A   1      48.380  31.287  28.233  1.00  0.00     0.029 A 
ATOM     52  N   UNL A   1      47.175  29.516  27.637  1.00  0.00    -0.354 N 
ATOM     53  N   UNL A   1      46.770  26.814  26.597  1.00  0.00    -0.248 NA
ATOM     54  C   UNL A   1      47.599  24.906  25.533  1.00  0.00     0.031 C 
ATOM     55  C   UNL A   1      49.232  30.354  27.636  1.00  0.00     0.029 A 
ATOM     56  C   UNL A   1      48.486  29.240  27.292  1.00  0.00     0.049 A 
ATOM     57  H   UNL A   1      46.412  28.907  27.501  1.00  0.00     0.167 HD
ATOM     58  C   UNL A   1      48.138  26.963  26.384  1.00  0.00     0.074 A 
ATOM     59  C   UNL A   1      48.601  25.744  25.756  1.00  0.00     0.031 C 
ATOM     60  C   UNL A   1      48.938  28.016  26.681  1.00  0.00     0.031 A 
BRANCH  47  61
ATOM     61  C   UNL A   1      45.985  32.763  29.286  1.00  0.00    -0.014 A 
ATOM     62  C   UNL A   1      45.820  33.918  28.502  1.00  0.00     0.010 A 
ATOM     63  C   UNL A   1      46.138  32.893  30.678  1.00  0.00     0.010 A 
ATOM     64  C   UNL A   1      45.808  35.180  29.101  1.00  0.00     0.020 A 
ATOM     65  C   UNL A   1      46.104  34.153  31.283  1.00  0.00     0.020 A 
ATOM     66  C   UNL A   1      45.941  35.289  30.488  1.00  0.00     0.054 A 
BRANCH  66  67
ATOM     67  S   UNL A   1      45.842  36.937  31.240  1.00  0.00     0.124 S 
ATOM     68  O   UNL A   1      47.221  37.404  31.129  1.00  0.00    -0.237 OA
ATOM     69  O   UNL A   1      44.876  37.619  30.383  1.00  0.00    -0.237 OA
ATOM     70  O   UNL A   1      45.383  36.671  32.602  1.00  0.00    -0.744 OA
ENDBRANCH  66  67
ENDBRANCH  47  61
BRANCH  48  71
ATOM     71  C   UNL A   1      45.018  23.533  25.604  1.00  0.00    -0.014 A 
ATOM     72  C   UNL A   1      45.172  22.428  26.461  1.00  0.00     0.010 A 
ATOM     73  C   UNL A   1      44.805  23.307  24.231  1.00  0.00     0.010 A 
ATOM     74  C   UNL A   1      45.148  21.126  25.951  1.00  0.00     0.020 A 
ATOM     75  C   UNL A   1      44.751  22.006  23.722  1.00  0.00     0.020 A 
ATOM     76  C   UNL A   1      44.941  20.924  24.584  1.00  0.00     0.054 A 
BRANCH  76  77
ATOM     77  S   UNL A   1      44.905  19.226  23.946  1.00  0.00     0.124 S 
ATOM     78  O   UNL A   1      46.293  18.809  24.113  1.00  0.00    -0.237 OA
ATOM     79  O   UNL A   1      43.938  18.579  24.830  1.00  0.00    -0.237 OA
ATOM     80  O   UNL A   1      44.462  19.390  22.563  1.00  0.00    -0.744 OA
ENDBRANCH  76  77
ENDBRANCH  48  71
BRANCH  60  81
ATOM     81  C   UNL A   1      50.406  27.896  26.373  1.00  0.00    -0.014 A 
ATOM     82  C   UNL A   1      50.950  28.451  25.202  1.00  0.00     0.010 A 
ATOM     83  C   UNL A   1      51.266  27.297  27.312  1.00  0.00     0.010 A 
ATOM     84  C   UNL A   1      52.327  28.394  24.969  1.00  0.00     0.020 A 
ATOM     85  C   UNL A   1      52.647  27.261  27.095  1.00  0.00     0.020 A 
ATOM     86  C   UNL A   1      53.167  27.803  25.919  1.00  0.00     0.054 A 
BRANCH  86  87
ATOM     87  S   UNL A   1      54.955  27.801  25.616  1.00  0.00     0.124 S 
ATOM     88  O   UNL A   1      55.403  26.684  26.444  1.00  0.00    -0.237 OA
ATOM     89  O   UNL A   1      55.035  27.587  24.174  1.00  0.00    -0.237 OA
ATOM     90  O   UNL A   1      55.387  29.122  26.069  1.00  0.00    -0.744 OA
ENDBRANCH  86  87
ENDBRANCH  60  81
ENDBRANCH  34  35
ENDBRANCH  27  29
ENDBRANCH  26  27
ENDBRANCH  25  26
ENDBRANCH   1  25
TORSDOF 19
ENDMDL
MODEL 3
REMARK VINA RESULT:     -10.1      1.770      2.435
REMARK SMILES Cn1nc(N2CCC(CC(=O)OCCOCCOC(=O)c3ccc(-c4c5nc(c(-c6ccc(S(=O)(=O)[O-])cc6)c6ccc([nH]6)c(-c6ccc(S(=O)(=O)[O-])cc6)c6nc(c(-c7ccc(S(=O)(=O)[O-])cc7)c7ccc4[nH]7)C=C6)C=C5)cc3)CC2)c(=O)n(C)c1=O
REMARK SMILES IDX 16 1 15 2 14 3 13 4 12 5 10 6 11 7 9 8 8 9 5 10 6 11 82 12
REMARK SMILES IDX 7 13 81 14 4 15 1 16 2 17 3 18 87 19 85 20 88 21 83 22 86 23
REMARK SMILES IDX 84 24 17 25 18 26 19 27 20 28 21 29 22 30 80 31 23 32 79 33
REMARK SMILES IDX 24 34 25 35 26 36 73 37 27 38 78 39 72 40 74 41 28 42 77 43
REMARK SMILES IDX 71 44 70 45 29 47 59 48 40 49 58 50 41 51 44 52 57 53 75 54
REMARK SMILES IDX 42 55 43 56 56 58 76 59 45 60 30 61 31 62 39 63 32 64 38 65
REMARK SMILES IDX 33 66 34 67 35 68 36 69 37 70 60 71 61 72 69 73 62 74 68 75
REMARK SMILES IDX 63 76 64 77 65 78 66 79 67 80 46 81 47 82 55 83 48 84 54 85
REMARK SMILES IDX 49 86 50 87 51 88 52 89 53 90
REMARK H PARENT 74 46 44 57
REMARK Flexibility Score: inf
ROOT
ATOM      1  C   UNL A   1      39.526  21.798  26.214  1.00  0.00     0.202 C 
ENDROOT
BRANCH   1   2
ATOM      2  O   UNL A   1      38.119  21.832  25.986  1.00  0.00    -0.374 OA
BRANCH   2   3
ATOM      3  C   UNL A   1      37.666  21.535  24.666  1.00  0.00     0.202 C 
BRANCH   3   4
ATOM      4  C   UNL A   1      36.196  21.841  24.369  1.00  0.00     0.261 C 
BRANCH   4   5
ATOM      5  O   UNL A   1      35.361  21.527  25.500  1.00  0.00    -0.463 OA
BRANCH   5   6
ATOM      6  C   UNL A   1      34.236  22.266  25.651  1.00  0.00     0.306 C 
ATOM      7  O   UNL A   1      34.118  23.217  26.415  1.00  0.00    -0.252 OA
BRANCH   6   8
ATOM      8  C   UNL A   1      33.088  21.771  24.794  1.00  0.00     0.126 C 
BRANCH   8   9
ATOM      9  C   UNL A   1      32.444  22.746  23.783  1.00  0.00     0.003 C 
ATOM     10  N   UNL A   1      31.676  25.476  23.202  1.00  0.00    -0.351 N 
ATOM     11  C   UNL A   1      30.628  24.491  23.417  1.00  0.00     0.118 C 
ATOM     12  C   UNL A   1      32.884  24.969  22.572  1.00  0.00     0.118 C 
ATOM     13  C   UNL A   1      31.137  23.367  24.312  1.00  0.00     0.026 C 
ATOM     14  C   UNL A   1      33.469  23.855  23.445  1.00  0.00     0.026 C 
BRANCH  10  15
ATOM     15  C   UNL A   1      31.649  26.708  23.847  1.00  0.00     0.215 A 
ATOM     16  C   UNL A   1      33.026  28.239  26.791  1.00  0.00     0.180 C 
ATOM     17  N   UNL A   1      32.217  28.101  25.592  1.00  0.00    -0.216 N 
ATOM     18  N   UNL A   1      32.271  26.881  24.978  1.00  0.00    -0.145 NA
ATOM     19  C   UNL A   1      31.486  29.196  25.142  1.00  0.00     0.346 A 
ATOM     20  N   UNL A   1      30.758  29.006  23.985  1.00  0.00    -0.259 N 
ATOM     21  O   UNL A   1      31.505  30.279  25.730  1.00  0.00    -0.246 OA
ATOM     22  C   UNL A   1      30.843  27.858  23.228  1.00  0.00     0.299 A 
ATOM     23  C   UNL A   1      29.906  30.067  23.491  1.00  0.00     0.159 C 
ATOM     24  O   UNL A   1      30.310  27.706  22.131  1.00  0.00    -0.265 OA
ENDBRANCH  10  15
ENDBRANCH   8   9
ENDBRANCH   6   8
ENDBRANCH   5   6
ENDBRANCH   4   5
ENDBRANCH   3   4
ENDBRANCH   2   3
ENDBRANCH   1   2
BRANCH   1  25
ATOM     25  C   UNL A   1      40.135  23.008  26.935  1.00  0.00     0.261 C 
BRANCH  25  26
ATOM     26  O   UNL A   1      39.531  24.251  26.528  1.00  0.00    -0.460 OA
BRANCH  26  27
ATOM     27  C   UNL A   1      40.408  25.269  26.349  1.00  0.00     0.338 C 
ATOM     28  O   UNL A   1      40.935  25.610  25.297  1.00  0.00    -0.246 OA
BRANCH  27  29
ATOM     29  C   UNL A   1      40.521  26.070  27.581  1.00  0.00     0.060 A 
ATOM     30  C   UNL A   1      39.493  25.950  28.524  1.00  0.00     0.016 A 
ATOM     31  C   UNL A   1      41.565  26.976  27.784  1.00  0.00     0.016 A 
ATOM     32  C   UNL A   1      39.477  26.767  29.651  1.00  0.00     0.010 A 
ATOM     33  C   UNL A   1      41.542  27.805  28.913  1.00  0.00     0.010 A 
ATOM     34  C   UNL A   1      40.480  27.728  29.834  1.00  0.00    -0.014 A 
BRANCH  34  35
ATOM     35  C   UNL A   1      40.324  28.744  30.906  1.00  0.00     0.031 A 
ATOM     36  C   UNL A   1      41.258  28.705  32.088  1.00  0.00     0.074 A 
ATOM     37  C   UNL A   1      39.415  29.732  30.797  1.00  0.00     0.049 A 
ATOM     38  N   UNL A   1      41.304  29.493  33.130  1.00  0.00    -0.248 NA
ATOM     39  C   UNL A   1      42.281  27.644  32.092  1.00  0.00     0.031 C 
ATOM     40  C   UNL A   1      38.502  29.922  29.669  1.00  0.00     0.029 A 
ATOM     41  N   UNL A   1      39.122  30.773  31.643  1.00  0.00    -0.354 N 
ATOM     42  C   UNL A   1      42.362  29.033  33.907  1.00  0.00     0.074 A 
ATOM     43  C   UNL A   1      42.909  27.875  33.237  1.00  0.00     0.031 C 
ATOM     44  C   UNL A   1      37.760  31.020  29.890  1.00  0.00     0.029 A 
ATOM     45  C   UNL A   1      38.116  31.591  31.186  1.00  0.00     0.049 A 
ATOM     46  H   UNL A   1      39.590  30.919  32.496  1.00  0.00     0.167 HD
ATOM     47  C   UNL A   1      42.846  29.541  35.064  1.00  0.00     0.031 A 
ATOM     48  C   UNL A   1      37.541  32.671  31.755  1.00  0.00     0.031 A 
ATOM     49  C   UNL A   1      42.301  30.690  35.737  1.00  0.00     0.049 A 
ATOM     50  C   UNL A   1      38.025  33.141  33.104  1.00  0.00     0.074 A 
ATOM     51  C   UNL A   1      42.716  31.265  36.925  1.00  0.00     0.029 A 
ATOM     52  N   UNL A   1      41.231  31.441  35.280  1.00  0.00    -0.354 N 
ATOM     53  N   UNL A   1      39.022  32.688  33.827  1.00  0.00    -0.248 NA
ATOM     54  C   UNL A   1      37.307  34.272  33.713  1.00  0.00     0.031 C 
ATOM     55  C   UNL A   1      41.865  32.335  37.213  1.00  0.00     0.029 A 
ATOM     56  C   UNL A   1      40.959  32.462  36.174  1.00  0.00     0.049 A 
ATOM     57  H   UNL A   1      40.738  31.274  34.444  1.00  0.00     0.167 HD
ATOM     58  C   UNL A   1      39.069  33.500  34.957  1.00  0.00     0.074 A 
ATOM     59  C   UNL A   1      38.011  34.478  34.817  1.00  0.00     0.031 C 
ATOM     60  C   UNL A   1      39.913  33.440  36.016  1.00  0.00     0.031 A 
BRANCH  47  61
ATOM     61  C   UNL A   1      44.033  28.862  35.693  1.00  0.00    -0.014 A 
ATOM     62  C   UNL A   1      45.338  29.320  35.441  1.00  0.00     0.010 A 
ATOM     63  C   UNL A   1      43.836  27.832  36.631  1.00  0.00     0.010 A 
ATOM     64  C   UNL A   1      46.425  28.758  36.113  1.00  0.00     0.020 A 
ATOM     65  C   UNL A   1      44.919  27.283  37.323  1.00  0.00     0.020 A 
ATOM     66  C   UNL A   1      46.208  27.749  37.057  1.00  0.00     0.054 A 
BRANCH  66  67
ATOM     67  S   UNL A   1      47.633  27.097  37.970  1.00  0.00     0.124 S 
ATOM     68  O   UNL A   1      48.060  28.262  38.738  1.00  0.00    -0.237 OA
ATOM     69  O   UNL A   1      47.041  26.013  38.749  1.00  0.00    -0.237 OA
ATOM     70  O   UNL A   1      48.556  26.673  36.919  1.00  0.00    -0.744 OA
ENDBRANCH  66  67
ENDBRANCH  47  61
BRANCH  48  71
ATOM     71  C   UNL A   1      36.424  33.382  31.072  1.00  0.00    -0.014 A 
ATOM     72  C   UNL A   1      36.597  33.913  29.781  1.00  0.00     0.010 A 
ATOM     73  C   UNL A   1      35.195  33.575  31.730  1.00  0.00     0.010 A 
ATOM     74  C   UNL A   1      35.575  34.650  29.175  1.00  0.00     0.020 A 
ATOM     75  C   UNL A   1      34.160  34.286  31.115  1.00  0.00     0.020 A 
ATOM     76  C   UNL A   1      34.364  34.835  29.847  1.00  0.00     0.054 A 
BRANCH  76  77
ATOM     77  S   UNL A   1      33.049  35.787  29.038  1.00  0.00     0.124 S 
ATOM     78  O   UNL A   1      32.375  34.763  28.247  1.00  0.00    -0.237 OA
ATOM     79  O   UNL A   1      32.295  36.309  30.175  1.00  0.00    -0.237 OA
ATOM     80  O   UNL A   1      33.779  36.793  28.269  1.00  0.00    -0.744 OA
ENDBRANCH  76  77
ENDBRANCH  48  71
BRANCH  60  81
ATOM     81  C   UNL A   1      39.765  34.477  37.098  1.00  0.00    -0.014 A 
ATOM     82  C   UNL A   1      38.928  34.257  38.205  1.00  0.00     0.010 A 
ATOM     83  C   UNL A   1      40.542  35.649  37.046  1.00  0.00     0.010 A 
ATOM     84  C   UNL A   1      38.860  35.201  39.234  1.00  0.00     0.020 A 
ATOM     85  C   UNL A   1      40.497  36.582  38.086  1.00  0.00     0.020 A 
ATOM     86  C   UNL A   1      39.648  36.354  39.171  1.00  0.00     0.054 A 
BRANCH  86  87
ATOM     87  S   UNL A   1      39.584  37.528  40.552  1.00  0.00     0.124 S 
ATOM     88  O   UNL A   1      38.938  36.736  41.596  1.00  0.00    -0.237 OA
ATOM     89  O   UNL A   1      40.994  37.833  40.776  1.00  0.00    -0.237 OA
ATOM     90  O   UNL A   1      38.787  38.637  40.031  1.00  0.00    -0.744 OA
ENDBRANCH  86  87
ENDBRANCH  60  81
ENDBRANCH  34  35
ENDBRANCH  27  29
ENDBRANCH  26  27
ENDBRANCH  25  26
ENDBRANCH   1  25
TORSDOF 19
ENDMDL
