MODEL 1
REMARK VINA RESULT:     -12.5      0.000      0.000
REMARK SMILES Cc1c(-c2nn(-c3ccccc3)cc2/C=N/O)nnn1-c1ccc(C(=O)OCCOCCOC(=O)c2ccc(-c3c4nc(c(-c5ccc(S(=O)(=O)[O-])cc5)c5ccc([nH]5)c(-c5ccc(S(=O)(=O)[O-])cc5)c5nc(c(-c6ccc(S(=O)(=O)[O-])cc6)c6ccc3[nH]6)C=C5)C=C4)cc2)cc1
REMARK SMILES IDX 29 1 28 2 27 3 25 4 26 5 24 6 21 7 22 8 97 9 23 10 96 11
REMARK SMILES IDX 20 12 1 13 2 14 3 15 18 16 19 17 4 18 5 19 14 20 6 21 13 22
REMARK SMILES IDX 15 23 16 24 17 25 7 27 8 28 12 29 9 30 11 31 10 32 30 33
REMARK SMILES IDX 31 34 32 35 33 36 34 37 35 38 36 39 37 40 95 41 38 42 94 43
REMARK SMILES IDX 39 44 40 45 41 46 88 47 42 48 93 49 87 50 89 51 43 52 92 53
REMARK SMILES IDX 86 54 85 55 44 57 74 58 55 59 73 60 56 61 59 62 72 63 90 64
REMARK SMILES IDX 57 65 58 66 71 68 91 69 60 70 45 71 46 72 54 73 47 74 53 75
REMARK SMILES IDX 48 76 49 77 50 78 51 79 52 80 75 81 76 82 84 83 77 84 83 85
REMARK SMILES IDX 78 86 79 87 80 88 81 89 82 90 61 91 62 92 70 93 63 94 69 95
REMARK SMILES IDX 64 96 65 97 66 98 67 99 68 100
REMARK H PARENT 17 26 89 56 59 67
REMARK Flexibility Score: inf
ROOT
ATOM      1  C   UNL A   1      41.111  21.223  27.542  1.00  0.00     0.202 C 
ENDROOT
BRANCH   1   2
ATOM      2  C   UNL A   1      40.587  21.740  26.201  1.00  0.00     0.261 C 
BRANCH   2   3
ATOM      3  O   UNL A   1      39.152  21.746  26.116  1.00  0.00    -0.460 OA
BRANCH   3   4
ATOM      4  C   UNL A   1      38.634  20.668  25.479  1.00  0.00     0.338 C 
ATOM      5  O   UNL A   1      39.070  19.527  25.493  1.00  0.00    -0.246 OA
BRANCH   4   6
ATOM      6  C   UNL A   1      37.343  20.995  24.841  1.00  0.00     0.060 A 
ATOM      7  C   UNL A   1      34.907  21.996  23.957  1.00  0.00     0.067 A 
ATOM      8  C   UNL A   1      36.089  22.619  23.549  1.00  0.00     0.029 A 
ATOM      9  C   UNL A   1      34.948  20.795  24.686  1.00  0.00     0.029 A 
ATOM     10  C   UNL A   1      37.304  22.136  24.025  1.00  0.00     0.018 A 
ATOM     11  C   UNL A   1      36.176  20.280  25.115  1.00  0.00     0.018 A 
BRANCH   7  12
ATOM     12  N   UNL A   1      33.680  22.654  23.712  1.00  0.00    -0.217 N 
ATOM     13  C   UNL A   1      34.035  24.832  25.009  1.00  0.00     0.069 C 
ATOM     14  C   UNL A   1      33.239  23.864  24.219  1.00  0.00     0.071 A 
ATOM     15  C   UNL A   1      31.967  23.977  23.692  1.00  0.00     0.137 A 
ATOM     16  N   UNL A   1      31.729  22.967  22.808  1.00  0.00    -0.128 NA
ATOM     17  N   UNL A   1      32.819  22.210  22.763  1.00  0.00    -0.061 NA
BRANCH  15  18
ATOM     18  C   UNL A   1      30.981  25.021  23.957  1.00  0.00     0.124 A 
ATOM     19  N   UNL A   1      30.612  25.927  23.040  1.00  0.00    -0.165 NA
ATOM     20  C   UNL A   1      30.396  25.261  25.224  1.00  0.00     0.044 A 
ATOM     21  N   UNL A   1      29.886  26.826  23.739  1.00  0.00    -0.240 N 
ATOM     22  C   UNL A   1      29.745  26.467  25.059  1.00  0.00     0.125 A 
BRANCH  20  23
ATOM     23  C   UNL A   1      30.430  24.504  26.450  1.00  0.00     0.166 C 
ATOM     24  N   UNL A   1      30.113  23.253  26.446  1.00  0.00    -0.097 NA
BRANCH  24  25
ATOM     25  O   UNL A   1      30.177  22.760  27.754  1.00  0.00    -0.411 OA
ATOM     26  H   UNL A   1      30.465  23.315  28.451  1.00  0.00     0.330 HD
ENDBRANCH  24  25
ENDBRANCH  20  23
BRANCH  21  27
ATOM     27  C   UNL A   1      29.387  27.999  23.132  1.00  0.00     0.065 A 
ATOM     28  C   UNL A   1      28.021  28.293  23.218  1.00  0.00     0.028 A 
ATOM     29  C   UNL A   1      30.257  28.862  22.454  1.00  0.00     0.028 A 
ATOM     30  C   UNL A   1      27.535  29.474  22.657  1.00  0.00     0.002 A 
ATOM     31  C   UNL A   1      29.751  30.010  21.844  1.00  0.00     0.002 A 
ATOM     32  C   UNL A   1      28.396  30.324  21.959  1.00  0.00     0.000 A 
ENDBRANCH  21  27
ENDBRANCH  15  18
ENDBRANCH   7  12
ENDBRANCH   4   6
ENDBRANCH   3   4
ENDBRANCH   2   3
ENDBRANCH   1   2
BRANCH   1  33
ATOM     33  O   UNL A   1      42.261  20.379  27.542  1.00  0.00    -0.374 OA
BRANCH  33  34
ATOM     34  C   UNL A   1      42.261  19.184  26.769  1.00  0.00     0.202 C 
BRANCH  34  35
ATOM     35  C   UNL A   1      43.285  19.027  25.656  1.00  0.00     0.261 C 
BRANCH  35  36
ATOM     36  O   UNL A   1      43.394  20.185  24.844  1.00  0.00    -0.460 OA
BRANCH  36  37
ATOM     37  C   UNL A   1      44.675  20.550  24.597  1.00  0.00     0.338 C 
ATOM     38  O   UNL A   1      45.602  19.824  24.293  1.00  0.00    -0.246 OA
BRANCH  37  39
ATOM     39  C   UNL A   1      44.819  21.972  24.922  1.00  0.00     0.060 A 
ATOM     40  C   UNL A   1      45.690  22.286  25.967  1.00  0.00     0.016 A 
ATOM     41  C   UNL A   1      43.889  22.895  24.419  1.00  0.00     0.016 A 
ATOM     42  C   UNL A   1      45.472  23.454  26.660  1.00  0.00     0.010 A 
ATOM     43  C   UNL A   1      43.662  24.049  25.124  1.00  0.00     0.010 A 
ATOM     44  C   UNL A   1      44.396  24.267  26.285  1.00  0.00    -0.014 A 
BRANCH  44  45
ATOM     45  C   UNL A   1      44.131  25.453  27.066  1.00  0.00     0.031 A 
ATOM     46  C   UNL A   1      45.179  26.478  26.869  1.00  0.00     0.074 A 
ATOM     47  C   UNL A   1      43.000  25.626  27.777  1.00  0.00     0.049 A 
ATOM     48  N   UNL A   1      46.098  26.829  27.705  1.00  0.00    -0.248 NA
ATOM     49  C   UNL A   1      45.368  27.004  25.505  1.00  0.00     0.031 C 
ATOM     50  C   UNL A   1      41.797  24.790  27.800  1.00  0.00     0.029 A 
ATOM     51  N   UNL A   1      42.650  26.672  28.566  1.00  0.00    -0.354 N 
ATOM     52  C   UNL A   1      46.824  27.813  27.047  1.00  0.00     0.074 A 
ATOM     53  C   UNL A   1      46.495  27.698  25.649  1.00  0.00     0.031 C 
ATOM     54  C   UNL A   1      40.779  25.490  28.358  1.00  0.00     0.029 A 
ATOM     55  C   UNL A   1      41.292  26.758  28.853  1.00  0.00     0.049 A 
ATOM     56  H   UNL A   1      43.308  27.322  28.908  1.00  0.00     0.167 HD
ATOM     57  C   UNL A   1      47.382  28.848  27.730  1.00  0.00     0.031 A 
ATOM     58  C   UNL A   1      40.653  27.828  29.397  1.00  0.00     0.031 A 
ATOM     59  C   UNL A   1      47.487  28.565  29.138  1.00  0.00     0.049 A 
ATOM     60  C   UNL A   1      41.693  28.678  30.033  1.00  0.00     0.074 A 
ATOM     61  C   UNL A   1      48.105  27.576  29.880  1.00  0.00     0.029 A 
ATOM     62  N   UNL A   1      46.531  29.115  29.961  1.00  0.00    -0.354 N 
ATOM     63  N   UNL A   1      42.377  28.307  31.078  1.00  0.00    -0.248 NA
ATOM     64  C   UNL A   1      42.309  29.719  29.223  1.00  0.00     0.031 C 
ATOM     65  C   UNL A   1      47.180  27.261  30.917  1.00  0.00     0.029 A 
ATOM     66  C   UNL A   1      46.092  28.130  30.811  1.00  0.00     0.049 A 
ATOM     67  H   UNL A   1      46.219  30.048  29.943  1.00  0.00     0.167 HD
ATOM     68  C   UNL A   1      43.674  28.726  30.820  1.00  0.00     0.074 A 
ATOM     69  C   UNL A   1      43.555  29.661  29.702  1.00  0.00     0.031 C 
ATOM     70  C   UNL A   1      44.748  28.062  31.345  1.00  0.00     0.031 A 
BRANCH  57  71
ATOM     71  C   UNL A   1      47.409  30.248  27.169  1.00  0.00    -0.014 A 
ATOM     72  C   UNL A   1      48.604  30.983  27.211  1.00  0.00     0.010 A 
ATOM     73  C   UNL A   1      46.233  30.955  26.833  1.00  0.00     0.010 A 
ATOM     74  C   UNL A   1      48.614  32.362  26.956  1.00  0.00     0.020 A 
ATOM     75  C   UNL A   1      46.236  32.314  26.532  1.00  0.00     0.020 A 
ATOM     76  C   UNL A   1      47.426  33.016  26.620  1.00  0.00     0.054 A 
BRANCH  76  77
ATOM     77  S   UNL A   1      47.437  34.802  26.343  1.00  0.00     0.124 S 
ATOM     78  O   UNL A   1      46.608  35.282  27.443  1.00  0.00    -0.237 OA
ATOM     79  O   UNL A   1      48.860  35.118  26.431  1.00  0.00    -0.237 OA
ATOM     80  O   UNL A   1      46.855  34.945  25.010  1.00  0.00    -0.744 OA
ENDBRANCH  76  77
ENDBRANCH  57  71
BRANCH  58  81
ATOM     81  C   UNL A   1      39.291  28.357  29.113  1.00  0.00    -0.014 A 
ATOM     82  C   UNL A   1      38.353  28.521  30.152  1.00  0.00     0.010 A 
ATOM     83  C   UNL A   1      39.025  29.001  27.888  1.00  0.00     0.010 A 
ATOM     84  C   UNL A   1      37.236  29.363  29.999  1.00  0.00     0.020 A 
ATOM     85  C   UNL A   1      37.911  29.837  27.727  1.00  0.00     0.020 A 
ATOM     86  C   UNL A   1      37.037  30.039  28.794  1.00  0.00     0.054 A 
BRANCH  86  87
ATOM     87  S   UNL A   1      35.719  31.287  28.672  1.00  0.00     0.124 S 
ATOM     88  O   UNL A   1      34.705  30.596  27.882  1.00  0.00    -0.237 OA
ATOM     89  O   UNL A   1      35.376  31.526  30.071  1.00  0.00    -0.237 OA
ATOM     90  O   UNL A   1      36.370  32.410  27.999  1.00  0.00    -0.744 OA
ENDBRANCH  86  87
ENDBRANCH  58  81
BRANCH  70  91
ATOM     91  C   UNL A   1      44.494  27.041  32.436  1.00  0.00    -0.014 A 
ATOM     92  C   UNL A   1      44.207  27.358  33.780  1.00  0.00     0.010 A 
ATOM     93  C   UNL A   1      44.447  25.691  32.048  1.00  0.00     0.010 A 
ATOM     94  C   UNL A   1      43.940  26.345  34.717  1.00  0.00     0.020 A 
ATOM     95  C   UNL A   1      44.161  24.681  32.968  1.00  0.00     0.020 A 
ATOM     96  C   UNL A   1      43.930  25.010  34.303  1.00  0.00     0.054 A 
BRANCH  96  97
ATOM     97  S   UNL A   1      43.608  23.695  35.513  1.00  0.00     0.124 S 
ATOM     98  O   UNL A   1      44.503  24.048  36.611  1.00  0.00    -0.237 OA
ATOM     99  O   UNL A   1      42.181  23.847  35.788  1.00  0.00    -0.237 OA
ATOM    100  O   UNL A   1      43.964  22.469  34.798  1.00  0.00    -0.744 OA
ENDBRANCH  96  97
ENDBRANCH  70  91
ENDBRANCH  44  45
ENDBRANCH  37  39
ENDBRANCH  36  37
ENDBRANCH  35  36
ENDBRANCH  34  35
ENDBRANCH  33  34
ENDBRANCH   1  33
TORSDOF 22
ENDMDL
MODEL 2
REMARK VINA RESULT:     -12.0      2.996      5.297
REMARK SMILES Cc1c(-c2nn(-c3ccccc3)cc2/C=N/O)nnn1-c1ccc(C(=O)OCCOCCOC(=O)c2ccc(-c3c4nc(c(-c5ccc(S(=O)(=O)[O-])cc5)c5ccc([nH]5)c(-c5ccc(S(=O)(=O)[O-])cc5)c5nc(c(-c6ccc(S(=O)(=O)[O-])cc6)c6ccc3[nH]6)C=C5)C=C4)cc2)cc1
REMARK SMILES IDX 29 1 28 2 27 3 25 4 26 5 24 6 21 7 22 8 97 9 23 10 96 11
REMARK SMILES IDX 20 12 1 13 2 14 3 15 18 16 19 17 4 18 5 19 14 20 6 21 13 22
REMARK SMILES IDX 15 23 16 24 17 25 7 27 8 28 12 29 9 30 11 31 10 32 30 33
REMARK SMILES IDX 31 34 32 35 33 36 34 37 35 38 36 39 37 40 95 41 38 42 94 43
REMARK SMILES IDX 39 44 40 45 41 46 88 47 42 48 93 49 87 50 89 51 43 52 92 53
REMARK SMILES IDX 86 54 85 55 44 57 74 58 55 59 73 60 56 61 59 62 72 63 90 64
REMARK SMILES IDX 57 65 58 66 71 68 91 69 60 70 45 71 46 72 54 73 47 74 53 75
REMARK SMILES IDX 48 76 49 77 50 78 51 79 52 80 75 81 76 82 84 83 77 84 83 85
REMARK SMILES IDX 78 86 79 87 80 88 81 89 82 90 61 91 62 92 70 93 63 94 69 95
REMARK SMILES IDX 64 96 65 97 66 98 67 99 68 100
REMARK H PARENT 17 26 89 56 59 67
REMARK Flexibility Score: inf
ROOT
ATOM      1  C   UNL A   1      34.742  19.887  25.331  1.00  0.00     0.202 C 
ENDROOT
BRANCH   1   2
ATOM      2  C   UNL A   1      33.729  19.028  24.570  1.00  0.00     0.261 C 
BRANCH   2   3
ATOM      3  O   UNL A   1      32.399  19.571  24.585  1.00  0.00    -0.460 OA
BRANCH   3   4
ATOM      4  C   UNL A   1      32.180  20.516  23.638  1.00  0.00     0.338 C 
ATOM      5  O   UNL A   1      32.115  20.344  22.431  1.00  0.00    -0.246 OA
BRANCH   4   6
ATOM      6  C   UNL A   1      31.876  21.824  24.251  1.00  0.00     0.060 A 
ATOM      7  C   UNL A   1      31.795  24.365  25.371  1.00  0.00     0.067 A 
ATOM      8  C   UNL A   1      31.929  24.234  23.987  1.00  0.00     0.029 A 
ATOM      9  C   UNL A   1      31.560  23.236  26.176  1.00  0.00     0.029 A 
ATOM     10  C   UNL A   1      32.006  22.959  23.436  1.00  0.00     0.018 A 
ATOM     11  C   UNL A   1      31.582  21.958  25.609  1.00  0.00     0.018 A 
BRANCH   7  12
ATOM     12  N   UNL A   1      32.006  25.637  25.950  1.00  0.00    -0.217 N 
ATOM     13  C   UNL A   1      33.711  26.630  24.319  1.00  0.00     0.069 C 
ATOM     14  C   UNL A   1      32.893  26.623  25.555  1.00  0.00     0.071 A 
ATOM     15  C   UNL A   1      32.709  27.608  26.506  1.00  0.00     0.137 A 
ATOM     16  N   UNL A   1      31.669  27.285  27.326  1.00  0.00    -0.128 NA
ATOM     17  N   UNL A   1      31.189  26.114  26.922  1.00  0.00    -0.061 NA
BRANCH  15  18
ATOM     18  C   UNL A   1      33.446  28.860  26.649  1.00  0.00     0.124 A 
ATOM     19  N   UNL A   1      34.675  28.926  27.181  1.00  0.00    -0.165 NA
ATOM     20  C   UNL A   1      32.915  30.137  26.350  1.00  0.00     0.044 A 
ATOM     21  N   UNL A   1      34.894  30.249  27.343  1.00  0.00    -0.240 N 
ATOM     22  C   UNL A   1      33.851  31.010  26.867  1.00  0.00     0.125 A 
BRANCH  20  23
ATOM     23  C   UNL A   1      31.696  30.533  25.691  1.00  0.00     0.166 C 
ATOM     24  N   UNL A   1      31.162  29.764  24.802  1.00  0.00    -0.097 NA
BRANCH  24  25
ATOM     25  O   UNL A   1      30.024  30.387  24.279  1.00  0.00    -0.411 OA
ATOM     26  H   UNL A   1      29.203  30.314  24.724  1.00  0.00     0.330 HD
ENDBRANCH  24  25
ENDBRANCH  20  23
BRANCH  21  27
ATOM     27  C   UNL A   1      36.063  30.730  27.970  1.00  0.00     0.065 A 
ATOM     28  C   UNL A   1      36.112  32.057  28.413  1.00  0.00     0.028 A 
ATOM     29  C   UNL A   1      37.162  29.881  28.149  1.00  0.00     0.028 A 
ATOM     30  C   UNL A   1      37.251  32.520  29.073  1.00  0.00     0.002 A 
ATOM     31  C   UNL A   1      38.319  30.372  28.755  1.00  0.00     0.002 A 
ATOM     32  C   UNL A   1      38.358  31.683  29.231  1.00  0.00     0.000 A 
ENDBRANCH  21  27
ENDBRANCH  15  18
ENDBRANCH   7  12
ENDBRANCH   4   6
ENDBRANCH   3   4
ENDBRANCH   2   3
ENDBRANCH   1   2
BRANCH   1  33
ATOM     33  O   UNL A   1      35.960  20.241  24.677  1.00  0.00    -0.374 OA
BRANCH  33  34
ATOM     34  C   UNL A   1      36.518  21.535  24.872  1.00  0.00     0.202 C 
BRANCH  34  35
ATOM     35  C   UNL A   1      37.451  21.765  26.051  1.00  0.00     0.261 C 
BRANCH  35  36
ATOM     36  O   UNL A   1      38.476  22.703  25.764  1.00  0.00    -0.460 OA
BRANCH  36  37
ATOM     37  C   UNL A   1      39.509  22.656  26.640  1.00  0.00     0.338 C 
ATOM     38  O   UNL A   1      39.912  21.685  27.251  1.00  0.00    -0.246 OA
BRANCH  37  39
ATOM     39  C   UNL A   1      39.977  24.024  26.873  1.00  0.00     0.060 A 
ATOM     40  C   UNL A   1      41.258  24.160  27.411  1.00  0.00     0.016 A 
ATOM     41  C   UNL A   1      39.057  25.084  26.853  1.00  0.00     0.016 A 
ATOM     42  C   UNL A   1      41.537  25.296  28.135  1.00  0.00     0.010 A 
ATOM     43  C   UNL A   1      39.331  26.206  27.592  1.00  0.00     0.010 A 
ATOM     44  C   UNL A   1      40.530  26.255  28.295  1.00  0.00    -0.014 A 
BRANCH  44  45
ATOM     45  C   UNL A   1      40.810  27.409  29.118  1.00  0.00     0.031 A 
ATOM     46  C   UNL A   1      41.831  28.283  28.501  1.00  0.00     0.074 A 
ATOM     47  C   UNL A   1      40.122  27.692  30.241  1.00  0.00     0.049 A 
ATOM     48  N   UNL A   1      43.057  28.437  28.871  1.00  0.00    -0.248 NA
ATOM     49  C   UNL A   1      41.515  28.872  27.186  1.00  0.00     0.031 C 
ATOM     50  C   UNL A   1      38.920  27.040  30.768  1.00  0.00     0.029 A 
ATOM     51  N   UNL A   1      40.306  28.720  31.107  1.00  0.00    -0.354 N 
ATOM     52  C   UNL A   1      43.592  29.350  27.971  1.00  0.00     0.074 A 
ATOM     53  C   UNL A   1      42.696  29.384  26.843  1.00  0.00     0.031 C 
ATOM     54  C   UNL A   1      38.354  27.838  31.706  1.00  0.00     0.029 A 
ATOM     55  C   UNL A   1      39.224  28.980  31.942  1.00  0.00     0.049 A 
ATOM     56  H   UNL A   1      41.142  29.241  31.142  1.00  0.00     0.167 HD
ATOM     57  C   UNL A   1      44.542  30.242  28.357  1.00  0.00     0.031 A 
ATOM     58  C   UNL A   1      39.051  30.090  32.708  1.00  0.00     0.031 A 
ATOM     59  C   UNL A   1      45.177  29.848  29.588  1.00  0.00     0.049 A 
ATOM     60  C   UNL A   1      40.384  30.733  32.848  1.00  0.00     0.074 A 
ATOM     61  C   UNL A   1      45.879  28.730  29.996  1.00  0.00     0.029 A 
ATOM     62  N   UNL A   1      44.753  30.470  30.740  1.00  0.00    -0.354 N 
ATOM     63  N   UNL A   1      41.371  30.194  33.505  1.00  0.00    -0.248 NA
ATOM     64  C   UNL A   1      40.765  31.729  31.857  1.00  0.00     0.031 C 
ATOM     65  C   UNL A   1      45.433  28.479  31.326  1.00  0.00     0.029 A 
ATOM     66  C   UNL A   1      44.556  29.501  31.692  1.00  0.00     0.049 A 
ATOM     67  H   UNL A   1      44.616  31.437  30.859  1.00  0.00     0.167 HD
ATOM     68  C   UNL A   1      42.493  30.438  32.725  1.00  0.00     0.074 A 
ATOM     69  C   UNL A   1      42.070  31.458  31.765  1.00  0.00     0.031 C 
ATOM     70  C   UNL A   1      43.564  29.590  32.744  1.00  0.00     0.031 A 
BRANCH  57  71
ATOM     71  C   UNL A   1      44.558  31.659  27.843  1.00  0.00    -0.014 A 
ATOM     72  C   UNL A   1      45.570  32.058  26.954  1.00  0.00     0.010 A 
ATOM     73  C   UNL A   1      43.758  32.681  28.402  1.00  0.00     0.010 A 
ATOM     74  C   UNL A   1      45.785  33.413  26.664  1.00  0.00     0.020 A 
ATOM     75  C   UNL A   1      43.930  34.026  28.086  1.00  0.00     0.020 A 
ATOM     76  C   UNL A   1      44.962  34.386  27.235  1.00  0.00     0.054 A 
BRANCH  76  77
ATOM     77  S   UNL A   1      45.277  36.134  26.898  1.00  0.00     0.124 S 
ATOM     78  O   UNL A   1      45.898  36.573  28.142  1.00  0.00    -0.237 OA
ATOM     79  O   UNL A   1      46.158  36.067  25.734  1.00  0.00    -0.237 OA
ATOM     80  O   UNL A   1      43.946  36.676  26.634  1.00  0.00    -0.744 OA
ENDBRANCH  76  77
ENDBRANCH  57  71
BRANCH  58  81
ATOM     81  C   UNL A   1      37.800  30.829  33.028  1.00  0.00    -0.014 A 
ATOM     82  C   UNL A   1      37.817  31.919  33.923  1.00  0.00     0.010 A 
ATOM     83  C   UNL A   1      36.660  30.675  32.214  1.00  0.00     0.010 A 
ATOM     84  C   UNL A   1      36.774  32.862  33.943  1.00  0.00     0.020 A 
ATOM     85  C   UNL A   1      35.615  31.608  32.232  1.00  0.00     0.020 A 
ATOM     86  C   UNL A   1      35.690  32.715  33.075  1.00  0.00     0.054 A 
BRANCH  86  87
ATOM     87  S   UNL A   1      34.454  34.045  32.951  1.00  0.00     0.124 S 
ATOM     88  O   UNL A   1      33.202  33.330  33.176  1.00  0.00    -0.237 OA
ATOM     89  O   UNL A   1      34.861  34.958  34.015  1.00  0.00    -0.237 OA
ATOM     90  O   UNL A   1      34.639  34.560  31.594  1.00  0.00    -0.744 OA
ENDBRANCH  86  87
ENDBRANCH  58  81
BRANCH  70  91
ATOM     91  C   UNL A   1      43.627  28.542  33.837  1.00  0.00    -0.014 A 
ATOM     92  C   UNL A   1      44.127  28.767  35.137  1.00  0.00     0.010 A 
ATOM     93  C   UNL A   1      43.054  27.290  33.554  1.00  0.00     0.010 A 
ATOM     94  C   UNL A   1      44.105  27.746  36.102  1.00  0.00     0.020 A 
ATOM     95  C   UNL A   1      43.009  26.278  34.514  1.00  0.00     0.020 A 
ATOM     96  C   UNL A   1      43.554  26.503  35.778  1.00  0.00     0.054 A 
BRANCH  96  97
ATOM     97  S   UNL A   1      43.544  25.172  37.014  1.00  0.00     0.124 S 
ATOM     98  O   UNL A   1      43.627  23.971  36.188  1.00  0.00    -0.237 OA
ATOM     99  O   UNL A   1      44.726  25.468  37.820  1.00  0.00    -0.237 OA
ATOM    100  O   UNL A   1      42.270  25.355  37.710  1.00  0.00    -0.744 OA
ENDBRANCH  96  97
ENDBRANCH  70  91
ENDBRANCH  44  45
ENDBRANCH  37  39
ENDBRANCH  36  37
ENDBRANCH  35  36
ENDBRANCH  34  35
ENDBRANCH  33  34
ENDBRANCH   1  33
TORSDOF 22
ENDMDL
MODEL 3
REMARK VINA RESULT:     -11.9      2.058      2.856
REMARK SMILES Cc1c(-c2nn(-c3ccccc3)cc2/C=N/O)nnn1-c1ccc(C(=O)OCCOCCOC(=O)c2ccc(-c3c4nc(c(-c5ccc(S(=O)(=O)[O-])cc5)c5ccc([nH]5)c(-c5ccc(S(=O)(=O)[O-])cc5)c5nc(c(-c6ccc(S(=O)(=O)[O-])cc6)c6ccc3[nH]6)C=C5)C=C4)cc2)cc1
REMARK SMILES IDX 29 1 28 2 27 3 25 4 26 5 24 6 21 7 22 8 97 9 23 10 96 11
REMARK SMILES IDX 20 12 1 13 2 14 3 15 18 16 19 17 4 18 5 19 14 20 6 21 13 22
REMARK SMILES IDX 15 23 16 24 17 25 7 27 8 28 12 29 9 30 11 31 10 32 30 33
REMARK SMILES IDX 31 34 32 35 33 36 34 37 35 38 36 39 37 40 95 41 38 42 94 43
REMARK SMILES IDX 39 44 40 45 41 46 88 47 42 48 93 49 87 50 89 51 43 52 92 53
REMARK SMILES IDX 86 54 85 55 44 57 74 58 55 59 73 60 56 61 59 62 72 63 90 64
REMARK SMILES IDX 57 65 58 66 71 68 91 69 60 70 45 71 46 72 54 73 47 74 53 75
REMARK SMILES IDX 48 76 49 77 50 78 51 79 52 80 75 81 76 82 84 83 77 84 83 85
REMARK SMILES IDX 78 86 79 87 80 88 81 89 82 90 61 91 62 92 70 93 63 94 69 95
REMARK SMILES IDX 64 96 65 97 66 98 67 99 68 100
REMARK H PARENT 17 26 89 56 59 67
REMARK Flexibility Score: inf
ROOT
ATOM      1  C   UNL A   1      40.285  20.827  26.526  1.00  0.00     0.202 C 
ENDROOT
BRANCH   1   2
ATOM      2  C   UNL A   1      39.169  20.209  25.680  1.00  0.00     0.261 C 
BRANCH   2   3
ATOM      3  O   UNL A   1      38.144  21.149  25.318  1.00  0.00    -0.460 OA
BRANCH   3   4
ATOM      4  C   UNL A   1      36.979  20.571  24.935  1.00  0.00     0.338 C 
ATOM      5  O   UNL A   1      36.747  19.376  24.846  1.00  0.00    -0.246 OA
BRANCH   4   6
ATOM      6  C   UNL A   1      35.918  21.582  24.755  1.00  0.00     0.060 A 
ATOM      7  C   UNL A   1      34.066  23.650  24.864  1.00  0.00     0.067 A 
ATOM      8  C   UNL A   1      35.396  23.941  24.551  1.00  0.00     0.029 A 
ATOM      9  C   UNL A   1      33.636  22.317  24.982  1.00  0.00     0.029 A 
ATOM     10  C   UNL A   1      36.326  22.906  24.534  1.00  0.00     0.018 A 
ATOM     11  C   UNL A   1      34.565  21.274  24.909  1.00  0.00     0.018 A 
BRANCH   7  12
ATOM     12  N   UNL A   1      33.194  24.723  25.161  1.00  0.00    -0.217 N 
ATOM     13  C   UNL A   1      33.536  26.205  23.102  1.00  0.00     0.069 C 
ATOM     14  C   UNL A   1      32.996  25.891  24.446  1.00  0.00     0.071 A 
ATOM     15  C   UNL A   1      32.090  26.584  25.226  1.00  0.00     0.137 A 
ATOM     16  N   UNL A   1      31.666  25.806  26.262  1.00  0.00    -0.128 NA
ATOM     17  N   UNL A   1      32.285  24.635  26.163  1.00  0.00    -0.061 NA
BRANCH  15  18
ATOM     18  C   UNL A   1      31.577  27.933  25.011  1.00  0.00     0.124 A 
ATOM     19  N   UNL A   1      30.478  28.190  24.288  1.00  0.00    -0.165 NA
ATOM     20  C   UNL A   1      32.233  29.113  25.440  1.00  0.00     0.044 A 
ATOM     21  N   UNL A   1      30.485  29.533  24.142  1.00  0.00    -0.240 N 
ATOM     22  C   UNL A   1      31.533  30.122  24.809  1.00  0.00     0.125 A 
BRANCH  20  23
ATOM     23  C   UNL A   1      33.369  29.313  26.303  1.00  0.00     0.166 C 
ATOM     24  N   UNL A   1      33.289  29.016  27.557  1.00  0.00    -0.097 NA
BRANCH  24  25
ATOM     25  O   UNL A   1      34.496  29.344  28.184  1.00  0.00    -0.411 OA
ATOM     26  H   UNL A   1      35.287  29.384  27.686  1.00  0.00     0.330 HD
ENDBRANCH  24  25
ENDBRANCH  20  23
BRANCH  21  27
ATOM     27  C   UNL A   1      29.520  30.192  23.350  1.00  0.00     0.065 A 
ATOM     28  C   UNL A   1      28.863  31.319  23.860  1.00  0.00     0.028 A 
ATOM     29  C   UNL A   1      29.228  29.721  22.064  1.00  0.00     0.028 A 
ATOM     30  C   UNL A   1      27.941  31.996  23.062  1.00  0.00     0.002 A 
ATOM     31  C   UNL A   1      28.259  30.369  21.298  1.00  0.00     0.002 A 
ATOM     32  C   UNL A   1      27.629  31.515  21.788  1.00  0.00     0.000 A 
ENDBRANCH  21  27
ENDBRANCH  15  18
ENDBRANCH   7  12
ENDBRANCH   4   6
ENDBRANCH   3   4
ENDBRANCH   2   3
ENDBRANCH   1   2
BRANCH   1  33
ATOM     33  O   UNL A   1      40.987  19.989  27.443  1.00  0.00    -0.374 OA
BRANCH  33  34
ATOM     34  C   UNL A   1      42.250  19.444  27.078  1.00  0.00     0.202 C 
BRANCH  34  35
ATOM     35  C   UNL A   1      42.976  20.011  25.868  1.00  0.00     0.261 C 
BRANCH  35  36
ATOM     36  O   UNL A   1      43.854  21.073  26.203  1.00  0.00    -0.460 OA
BRANCH  36  37
ATOM     37  C   UNL A   1      43.556  22.236  25.574  1.00  0.00     0.338 C 
ATOM     38  O   UNL A   1      43.840  22.551  24.434  1.00  0.00    -0.246 OA
BRANCH  37  39
ATOM     39  C   UNL A   1      42.965  23.150  26.555  1.00  0.00     0.060 A 
ATOM     40  C   UNL A   1      42.004  24.041  26.074  1.00  0.00     0.016 A 
ATOM     41  C   UNL A   1      43.579  23.315  27.806  1.00  0.00     0.016 A 
ATOM     42  C   UNL A   1      41.822  25.224  26.753  1.00  0.00     0.010 A 
ATOM     43  C   UNL A   1      43.411  24.503  28.469  1.00  0.00     0.010 A 
ATOM     44  C   UNL A   1      42.605  25.475  27.886  1.00  0.00    -0.014 A 
BRANCH  44  45
ATOM     45  C   UNL A   1      42.459  26.750  28.547  1.00  0.00     0.031 A 
ATOM     46  C   UNL A   1      43.615  27.635  28.284  1.00  0.00     0.074 A 
ATOM     47  C   UNL A   1      41.342  27.109  29.210  1.00  0.00     0.049 A 
ATOM     48  N   UNL A   1      44.553  27.963  29.107  1.00  0.00    -0.248 NA
ATOM     49  C   UNL A   1      43.880  28.006  26.882  1.00  0.00     0.031 C 
ATOM     50  C   UNL A   1      40.055  26.413  29.279  1.00  0.00     0.029 A 
ATOM     51  N   UNL A   1      41.096  28.257  29.890  1.00  0.00    -0.354 N 
ATOM     52  C   UNL A   1      45.392  28.797  28.381  1.00  0.00     0.074 A 
ATOM     53  C   UNL A   1      45.074  28.587  26.991  1.00  0.00     0.031 C 
ATOM     54  C   UNL A   1      39.110  27.267  29.744  1.00  0.00     0.029 A 
ATOM     55  C   UNL A   1      39.750  28.514  30.133  1.00  0.00     0.049 A 
ATOM     56  H   UNL A   1      41.814  28.862  30.187  1.00  0.00     0.167 HD
ATOM     57  C   UNL A   1      46.049  29.827  28.979  1.00  0.00     0.031 A 
ATOM     58  C   UNL A   1      39.223  29.693  30.559  1.00  0.00     0.031 A 
ATOM     59  C   UNL A   1      46.100  29.669  30.409  1.00  0.00     0.049 A 
ATOM     60  C   UNL A   1      40.339  30.483  31.141  1.00  0.00     0.074 A 
ATOM     61  C   UNL A   1      46.595  28.694  31.255  1.00  0.00     0.029 A 
ATOM     62  N   UNL A   1      45.197  30.392  31.154  1.00  0.00    -0.354 N 
ATOM     63  N   UNL A   1      40.962  30.142  32.232  1.00  0.00    -0.248 NA
ATOM     64  C   UNL A   1      41.077  31.371  30.254  1.00  0.00     0.031 C 
ATOM     65  C   UNL A   1      45.625  28.578  32.293  1.00  0.00     0.029 A 
ATOM     66  C   UNL A   1      44.640  29.544  32.079  1.00  0.00     0.049 A 
ATOM     67  H   UNL A   1      44.988  31.347  31.041  1.00  0.00     0.167 HD
ATOM     68  C   UNL A   1      42.301  30.394  31.971  1.00  0.00     0.074 A 
ATOM     69  C   UNL A   1      42.302  31.226  30.769  1.00  0.00     0.031 C 
ATOM     70  C   UNL A   1      43.288  29.671  32.582  1.00  0.00     0.031 A 
BRANCH  57  71
ATOM     71  C   UNL A   1      46.236  31.156  28.293  1.00  0.00    -0.014 A 
ATOM     72  C   UNL A   1      45.218  32.121  28.373  1.00  0.00     0.010 A 
ATOM     73  C   UNL A   1      47.269  31.392  27.359  1.00  0.00     0.010 A 
ATOM     74  C   UNL A   1      45.224  33.249  27.540  1.00  0.00     0.020 A 
ATOM     75  C   UNL A   1      47.312  32.530  26.559  1.00  0.00     0.020 A 
ATOM     76  C   UNL A   1      46.273  33.443  26.638  1.00  0.00     0.054 A 
BRANCH  76  77
ATOM     77  S   UNL A   1      46.248  34.872  25.531  1.00  0.00     0.124 S 
ATOM     78  O   UNL A   1      45.410  34.391  24.439  1.00  0.00    -0.237 OA
ATOM     79  O   UNL A   1      45.661  35.906  26.379  1.00  0.00    -0.237 OA
ATOM     80  O   UNL A   1      47.658  35.072  25.201  1.00  0.00    -0.744 OA
ENDBRANCH  76  77
ENDBRANCH  57  71
BRANCH  58  81
ATOM     81  C   UNL A   1      37.931  30.335  30.192  1.00  0.00    -0.014 A 
ATOM     82  C   UNL A   1      36.911  30.496  31.152  1.00  0.00     0.010 A 
ATOM     83  C   UNL A   1      37.824  31.075  28.998  1.00  0.00     0.010 A 
ATOM     84  C   UNL A   1      35.871  31.424  30.961  1.00  0.00     0.020 A 
ATOM     85  C   UNL A   1      36.787  31.997  28.798  1.00  0.00     0.020 A 
ATOM     86  C   UNL A   1      35.831  32.190  29.794  1.00  0.00     0.054 A 
BRANCH  86  87
ATOM     87  S   UNL A   1      34.614  33.535  29.645  1.00  0.00     0.124 S 
ATOM     88  O   UNL A   1      33.749  33.055  28.572  1.00  0.00    -0.237 OA
ATOM     89  O   UNL A   1      34.013  33.569  30.975  1.00  0.00    -0.237 OA
ATOM     90  O   UNL A   1      35.430  34.701  29.309  1.00  0.00    -0.744 OA
ENDBRANCH  86  87
ENDBRANCH  58  81
BRANCH  70  91
ATOM     91  C   UNL A   1      42.907  28.791  33.756  1.00  0.00    -0.014 A 
ATOM     92  C   UNL A   1      42.769  29.242  35.085  1.00  0.00     0.010 A 
ATOM     93  C   UNL A   1      42.577  27.455  33.470  1.00  0.00     0.010 A 
ATOM     94  C   UNL A   1      42.368  28.362  36.105  1.00  0.00     0.020 A 
ATOM     95  C   UNL A   1      42.157  26.580  34.474  1.00  0.00     0.020 A 
ATOM     96  C   UNL A   1      42.074  27.031  35.790  1.00  0.00     0.054 A 
BRANCH  96  97
ATOM     97  S   UNL A   1      41.578  25.884  37.108  1.00  0.00     0.124 S 
ATOM     98  O   UNL A   1      42.584  26.127  38.137  1.00  0.00    -0.237 OA
ATOM     99  O   UNL A   1      40.224  26.327  37.432  1.00  0.00    -0.237 OA
ATOM    100  O   UNL A   1      41.653  24.569  36.470  1.00  0.00    -0.744 OA
ENDBRANCH  96  97
ENDBRANCH  70  91
ENDBRANCH  44  45
ENDBRANCH  37  39
ENDBRANCH  36  37
ENDBRANCH  35  36
ENDBRANCH  34  35
ENDBRANCH  33  34
ENDBRANCH   1  33
TORSDOF 22
ENDMDL
