MODEL 1
REMARK VINA RESULT:      -9.1      0.000      0.000
REMARK SMILES C#CCN(CC(=O)OCCOCCOC(=O)c1ccc(-c2c3nc(c(-c4ccc(S(=O)(=O)[O-])cc4)c4ccc([nH]4)c(-c4ccc(S(=O)(=O)[O-])cc4)c4nc(c(-c5ccc(S(=O)(=O)[O-])cc5)c5ccc2[nH]5)C=C4)C=C3)cc1)C(=O)Cc1csc(-c2ccsc2)n1
REMARK SMILES IDX 10 1 9 2 8 3 6 4 7 5 5 6 4 7 3 8 2 9 1 10 77 11 78 12 79 13
REMARK SMILES IDX 80 14 81 15 89 16 82 17 83 18 84 19 85 20 88 21 86 22 87 23
REMARK SMILES IDX 11 24 12 25 13 26 14 27 15 28 16 29 17 30 18 31 76 32 19 33
REMARK SMILES IDX 75 34 20 35 21 36 22 37 69 38 23 39 74 40 68 41 70 42 24 43
REMARK SMILES IDX 73 44 67 45 66 46 25 48 55 49 36 50 54 51 37 52 40 53 53 54
REMARK SMILES IDX 71 55 38 56 39 57 52 59 72 60 41 61 26 62 27 63 35 64 28 65
REMARK SMILES IDX 34 66 29 67 30 68 31 69 32 70 33 71 56 72 57 73 65 74 58 75
REMARK SMILES IDX 64 76 59 77 60 78 61 79 62 80 63 81 42 82 43 83 51 84 44 85
REMARK SMILES IDX 50 86 45 87 46 88 47 89 48 90 49 91
REMARK H PARENT 70 47 40 58
REMARK Flexibility Score: inf
ROOT
ATOM      1  C   UNL A   1      36.134  23.691  26.006  1.00  0.00     0.202 C 
ENDROOT
BRANCH   1   2
ATOM      2  C   UNL A   1      35.720  22.217  26.103  1.00  0.00     0.261 C 
BRANCH   2   3
ATOM      3  O   UNL A   1      35.447  21.636  24.811  1.00  0.00    -0.462 OA
BRANCH   3   4
ATOM      4  C   UNL A   1      35.042  20.339  24.862  1.00  0.00     0.325 C 
ATOM      5  O   UNL A   1      35.799  19.372  24.828  1.00  0.00    -0.250 OA
BRANCH   4   6
ATOM      6  C   UNL A   1      33.576  20.178  25.267  1.00  0.00     0.243 C 
BRANCH   6   7
ATOM      7  N   UNL A   1      32.520  21.071  24.780  1.00  0.00    -0.320 N 
BRANCH   7   8
ATOM      8  C   UNL A   1      32.148  20.973  23.352  1.00  0.00     0.210 C 
BRANCH   8   9
ATOM      9  C   UNL A   1      32.285  19.502  22.993  1.00  0.00    -0.085 C 
ATOM     10  C   UNL A   1      32.402  18.241  22.685  1.00  0.00     0.006 C 
ENDBRANCH   8   9
ENDBRANCH   7   8
BRANCH   7  11
ATOM     11  C   UNL A   1      31.811  22.004  25.523  1.00  0.00     0.229 C 
ATOM     12  O   UNL A   1      30.610  21.801  25.764  1.00  0.00    -0.274 OA
BRANCH  11  13
ATOM     13  C   UNL A   1      32.400  23.296  26.060  1.00  0.00     0.157 C 
BRANCH  13  14
ATOM     14  C   UNL A   1      32.283  24.617  25.369  1.00  0.00     0.061 A 
ATOM     15  C   UNL A   1      31.813  24.973  24.120  1.00  0.00     0.091 A 
ATOM     16  N   UNL A   1      32.727  25.710  26.115  1.00  0.00    -0.241 NA
ATOM     17  S   UNL A   1      31.537  26.674  24.063  1.00  0.00    -0.122 S 
ATOM     18  C   UNL A   1      32.374  26.842  25.549  1.00  0.00     0.124 A 
BRANCH  18  19
ATOM     19  C   UNL A   1      32.752  28.160  26.148  1.00  0.00     0.021 A 
ATOM     20  C   UNL A   1      31.844  29.254  26.284  1.00  0.00     0.023 A 
ATOM     21  C   UNL A   1      34.004  28.463  26.638  1.00  0.00     0.076 A 
ATOM     22  C   UNL A   1      32.414  30.320  26.943  1.00  0.00     0.065 A 
ATOM     23  S   UNL A   1      34.068  30.049  27.290  1.00  0.00    -0.152 S 
ENDBRANCH  18  19
ENDBRANCH  13  14
ENDBRANCH  11  13
ENDBRANCH   7  11
ENDBRANCH   6   7
ENDBRANCH   4   6
ENDBRANCH   3   4
ENDBRANCH   2   3
ENDBRANCH   1   2
BRANCH   1  24
ATOM     24  O   UNL A   1      37.457  23.951  25.535  1.00  0.00    -0.374 OA
BRANCH  24  25
ATOM     25  C   UNL A   1      38.512  23.166  26.085  1.00  0.00     0.202 C 
BRANCH  25  26
ATOM     26  C   UNL A   1      39.643  23.913  26.805  1.00  0.00     0.261 C 
BRANCH  26  27
ATOM     27  O   UNL A   1      39.618  25.322  26.540  1.00  0.00    -0.460 OA
BRANCH  27  28
ATOM     28  C   UNL A   1      40.710  25.989  26.975  1.00  0.00     0.338 C 
ATOM     29  O   UNL A   1      41.823  26.007  26.459  1.00  0.00    -0.246 OA
BRANCH  28  30
ATOM     30  C   UNL A   1      40.344  26.892  28.075  1.00  0.00     0.060 A 
ATOM     31  C   UNL A   1      41.010  28.123  28.137  1.00  0.00     0.016 A 
ATOM     32  C   UNL A   1      39.434  26.519  29.067  1.00  0.00     0.016 A 
ATOM     33  C   UNL A   1      40.814  28.963  29.227  1.00  0.00     0.010 A 
ATOM     34  C   UNL A   1      39.247  27.360  30.167  1.00  0.00     0.010 A 
ATOM     35  C   UNL A   1      39.968  28.563  30.270  1.00  0.00    -0.014 A 
BRANCH  35  36
ATOM     36  C   UNL A   1      39.985  29.337  31.532  1.00  0.00     0.031 A 
ATOM     37  C   UNL A   1      41.103  29.096  32.509  1.00  0.00     0.074 A 
ATOM     38  C   UNL A   1      39.061  30.286  31.762  1.00  0.00     0.049 A 
ATOM     39  N   UNL A   1      41.353  29.694  33.644  1.00  0.00    -0.248 NA
ATOM     40  C   UNL A   1      42.073  28.045  32.156  1.00  0.00     0.031 C 
ATOM     41  C   UNL A   1      37.963  30.632  30.859  1.00  0.00     0.029 A 
ATOM     42  N   UNL A   1      38.910  31.143  32.821  1.00  0.00    -0.354 N 
ATOM     43  C   UNL A   1      42.508  29.099  34.137  1.00  0.00     0.074 A 
ATOM     44  C   UNL A   1      42.892  28.070  33.197  1.00  0.00     0.031 C 
ATOM     45  C   UNL A   1      37.248  31.631  31.406  1.00  0.00     0.029 A 
ATOM     46  C   UNL A   1      37.826  31.979  32.702  1.00  0.00     0.049 A 
ATOM     47  H   UNL A   1      39.519  31.156  33.595  1.00  0.00     0.167 HD
ATOM     48  C   UNL A   1      43.194  29.391  35.268  1.00  0.00     0.031 A 
ATOM     49  C   UNL A   1      37.354  32.915  33.548  1.00  0.00     0.031 A 
ATOM     50  C   UNL A   1      42.790  30.400  36.210  1.00  0.00     0.049 A 
ATOM     51  C   UNL A   1      38.092  33.172  34.835  1.00  0.00     0.074 A 
ATOM     52  C   UNL A   1      43.403  30.772  37.393  1.00  0.00     0.029 A 
ATOM     53  N   UNL A   1      41.661  31.194  36.076  1.00  0.00    -0.354 N 
ATOM     54  N   UNL A   1      39.195  32.614  35.278  1.00  0.00    -0.248 NA
ATOM     55  C   UNL A   1      37.532  34.193  35.730  1.00  0.00     0.031 C 
ATOM     56  C   UNL A   1      42.619  31.761  37.997  1.00  0.00     0.029 A 
ATOM     57  C   UNL A   1      41.546  32.041  37.165  1.00  0.00     0.049 A 
ATOM     58  H   UNL A   1      41.033  31.160  35.318  1.00  0.00     0.167 HD
ATOM     59  C   UNL A   1      39.472  33.232  36.492  1.00  0.00     0.074 A 
ATOM     60  C   UNL A   1      38.429  34.216  36.706  1.00  0.00     0.031 C 
ATOM     61  C   UNL A   1      40.495  33.009  37.353  1.00  0.00     0.031 A 
BRANCH  48  62
ATOM     62  C   UNL A   1      44.432  28.584  35.556  1.00  0.00    -0.014 A 
ATOM     63  C   UNL A   1      45.701  29.030  35.143  1.00  0.00     0.010 A 
ATOM     64  C   UNL A   1      44.328  27.372  36.261  1.00  0.00     0.010 A 
ATOM     65  C   UNL A   1      46.839  28.258  35.398  1.00  0.00     0.020 A 
ATOM     66  C   UNL A   1      45.467  26.610  36.539  1.00  0.00     0.020 A 
ATOM     67  C   UNL A   1      46.713  27.049  36.090  1.00  0.00     0.054 A 
BRANCH  67  68
ATOM     68  S   UNL A   1      48.207  26.074  36.418  1.00  0.00     0.124 S 
ATOM     69  O   UNL A   1      48.834  26.028  35.099  1.00  0.00    -0.237 OA
ATOM     70  O   UNL A   1      48.906  26.879  37.417  1.00  0.00    -0.237 OA
ATOM     71  O   UNL A   1      47.688  24.798  36.905  1.00  0.00    -0.744 OA
ENDBRANCH  67  68
ENDBRANCH  48  62
BRANCH  49  72
ATOM     72  C   UNL A   1      36.114  33.666  33.210  1.00  0.00    -0.014 A 
ATOM     73  C   UNL A   1      34.845  33.130  33.489  1.00  0.00     0.010 A 
ATOM     74  C   UNL A   1      36.201  34.934  32.606  1.00  0.00     0.010 A 
ATOM     75  C   UNL A   1      33.687  33.841  33.159  1.00  0.00     0.020 A 
ATOM     76  C   UNL A   1      35.047  35.658  32.296  1.00  0.00     0.020 A 
ATOM     77  C   UNL A   1      33.796  35.101  32.565  1.00  0.00     0.054 A 
BRANCH  77  78
ATOM     78  S   UNL A   1      32.283  36.032  32.190  1.00  0.00     0.124 S 
ATOM     79  O   UNL A   1      32.442  37.218  33.025  1.00  0.00    -0.237 OA
ATOM     80  O   UNL A   1      32.395  36.251  30.750  1.00  0.00    -0.237 OA
ATOM     81  O   UNL A   1      31.214  35.121  32.591  1.00  0.00    -0.744 OA
ENDBRANCH  77  78
ENDBRANCH  49  72
BRANCH  61  82
ATOM     82  C   UNL A   1      40.552  33.862  38.591  1.00  0.00    -0.014 A 
ATOM     83  C   UNL A   1      40.025  33.407  39.812  1.00  0.00     0.010 A 
ATOM     84  C   UNL A   1      41.193  35.114  38.540  1.00  0.00     0.010 A 
ATOM     85  C   UNL A   1      40.111  34.203  40.956  1.00  0.00     0.020 A 
ATOM     86  C   UNL A   1      41.302  35.902  39.689  1.00  0.00     0.020 A 
ATOM     87  C   UNL A   1      40.748  35.447  40.887  1.00  0.00     0.054 A 
BRANCH  87  88
ATOM     88  S   UNL A   1      40.886  36.443  42.396  1.00  0.00     0.124 S 
ATOM     89  O   UNL A   1      40.712  35.438  43.440  1.00  0.00    -0.237 OA
ATOM     90  O   UNL A   1      42.227  37.011  42.286  1.00  0.00    -0.237 OA
ATOM     91  O   UNL A   1      39.795  37.409  42.272  1.00  0.00    -0.744 OA
ENDBRANCH  87  88
ENDBRANCH  61  82
ENDBRANCH  35  36
ENDBRANCH  28  30
ENDBRANCH  27  28
ENDBRANCH  26  27
ENDBRANCH  25  26
ENDBRANCH  24  25
ENDBRANCH   1  24
TORSDOF 24
ENDMDL
MODEL 2
REMARK VINA RESULT:      -9.0      1.940      2.669
REMARK SMILES C#CCN(CC(=O)OCCOCCOC(=O)c1ccc(-c2c3nc(c(-c4ccc(S(=O)(=O)[O-])cc4)c4ccc([nH]4)c(-c4ccc(S(=O)(=O)[O-])cc4)c4nc(c(-c5ccc(S(=O)(=O)[O-])cc5)c5ccc2[nH]5)C=C4)C=C3)cc1)C(=O)Cc1csc(-c2ccsc2)n1
REMARK SMILES IDX 10 1 9 2 8 3 6 4 7 5 5 6 4 7 3 8 2 9 1 10 77 11 78 12 79 13
REMARK SMILES IDX 80 14 81 15 89 16 82 17 83 18 84 19 85 20 88 21 86 22 87 23
REMARK SMILES IDX 11 24 12 25 13 26 14 27 15 28 16 29 17 30 18 31 76 32 19 33
REMARK SMILES IDX 75 34 20 35 21 36 22 37 69 38 23 39 74 40 68 41 70 42 24 43
REMARK SMILES IDX 73 44 67 45 66 46 25 48 55 49 36 50 54 51 37 52 40 53 53 54
REMARK SMILES IDX 71 55 38 56 39 57 52 59 72 60 41 61 26 62 27 63 35 64 28 65
REMARK SMILES IDX 34 66 29 67 30 68 31 69 32 70 33 71 56 72 57 73 65 74 58 75
REMARK SMILES IDX 64 76 59 77 60 78 61 79 62 80 63 81 42 82 43 83 51 84 44 85
REMARK SMILES IDX 50 86 45 87 46 88 47 89 48 90 49 91
REMARK H PARENT 70 47 40 58
REMARK Flexibility Score: inf
ROOT
ATOM      1  C   UNL A   1      39.754  22.929  26.752  1.00  0.00     0.202 C 
ENDROOT
BRANCH   1   2
ATOM      2  C   UNL A   1      38.387  23.257  26.138  1.00  0.00     0.261 C 
BRANCH   2   3
ATOM      3  O   UNL A   1      37.684  22.077  25.696  1.00  0.00    -0.462 OA
BRANCH   3   4
ATOM      4  C   UNL A   1      36.796  22.305  24.692  1.00  0.00     0.325 C 
ATOM      5  O   UNL A   1      37.034  22.979  23.694  1.00  0.00    -0.250 OA
BRANCH   4   6
ATOM      6  C   UNL A   1      35.562  21.405  24.760  1.00  0.00     0.243 C 
BRANCH   6   7
ATOM      7  N   UNL A   1      34.262  21.882  25.243  1.00  0.00    -0.320 N 
BRANCH   7   8
ATOM      8  C   UNL A   1      33.051  21.235  24.694  1.00  0.00     0.210 C 
BRANCH   8   9
ATOM      9  C   UNL A   1      33.333  19.741  24.727  1.00  0.00    -0.085 C 
ATOM     10  C   UNL A   1      33.575  18.460  24.756  1.00  0.00     0.006 C 
ENDBRANCH   8   9
ENDBRANCH   7   8
BRANCH   7  11
ATOM     11  C   UNL A   1      34.037  22.880  26.180  1.00  0.00     0.229 C 
ATOM     12  O   UNL A   1      33.676  22.566  27.325  1.00  0.00    -0.274 OA
BRANCH  11  13
ATOM     13  C   UNL A   1      34.183  24.365  25.900  1.00  0.00     0.157 C 
BRANCH  13  14
ATOM     14  C   UNL A   1      33.771  25.018  24.620  1.00  0.00     0.061 A 
ATOM     15  C   UNL A   1      34.067  24.742  23.300  1.00  0.00     0.091 A 
ATOM     16  N   UNL A   1      32.921  26.115  24.769  1.00  0.00    -0.241 NA
ATOM     17  S   UNL A   1      32.962  25.570  22.268  1.00  0.00    -0.122 S 
ATOM     18  C   UNL A   1      32.414  26.480  23.614  1.00  0.00     0.124 A 
BRANCH  18  19
ATOM     19  C   UNL A   1      31.487  27.649  23.506  1.00  0.00     0.021 A 
ATOM     20  C   UNL A   1      31.424  28.698  24.473  1.00  0.00     0.023 A 
ATOM     21  C   UNL A   1      30.602  27.849  22.469  1.00  0.00     0.076 A 
ATOM     22  C   UNL A   1      30.553  29.696  24.098  1.00  0.00     0.065 A 
ATOM     23  S   UNL A   1      29.729  29.315  22.648  1.00  0.00    -0.152 S 
ENDBRANCH  18  19
ENDBRANCH  13  14
ENDBRANCH  11  13
ENDBRANCH   7  11
ENDBRANCH   6   7
ENDBRANCH   4   6
ENDBRANCH   3   4
ENDBRANCH   2   3
ENDBRANCH   1   2
BRANCH   1  24
ATOM     24  O   UNL A   1      40.547  21.963  26.061  1.00  0.00    -0.374 OA
BRANCH  24  25
ATOM     25  C   UNL A   1      41.959  22.158  26.059  1.00  0.00     0.202 C 
BRANCH  25  26
ATOM     26  C   UNL A   1      42.498  23.392  25.323  1.00  0.00     0.261 C 
BRANCH  26  27
ATOM     27  O   UNL A   1      42.928  24.419  26.227  1.00  0.00    -0.460 OA
BRANCH  27  28
ATOM     28  C   UNL A   1      42.258  25.586  26.102  1.00  0.00     0.338 C 
ATOM     29  O   UNL A   1      41.590  25.958  25.142  1.00  0.00    -0.246 OA
BRANCH  28  30
ATOM     30  C   UNL A   1      42.254  26.306  27.382  1.00  0.00     0.060 A 
ATOM     31  C   UNL A   1      41.350  25.868  28.358  1.00  0.00     0.016 A 
ATOM     32  C   UNL A   1      43.055  27.430  27.601  1.00  0.00     0.016 A 
ATOM     33  C   UNL A   1      41.197  26.590  29.535  1.00  0.00     0.010 A 
ATOM     34  C   UNL A   1      42.891  28.161  28.780  1.00  0.00     0.010 A 
ATOM     35  C   UNL A   1      41.932  27.766  29.731  1.00  0.00    -0.014 A 
BRANCH  35  36
ATOM     36  C   UNL A   1      41.560  28.656  30.854  1.00  0.00     0.031 A 
ATOM     37  C   UNL A   1      42.382  28.608  32.114  1.00  0.00     0.074 A 
ATOM     38  C   UNL A   1      40.554  29.538  30.720  1.00  0.00     0.049 A 
ATOM     39  N   UNL A   1      42.278  29.332  33.197  1.00  0.00    -0.248 NA
ATOM     40  C   UNL A   1      43.471  27.618  32.153  1.00  0.00     0.031 C 
ATOM     41  C   UNL A   1      39.724  29.697  29.526  1.00  0.00     0.029 A 
ATOM     42  N   UNL A   1      40.070  30.475  31.596  1.00  0.00    -0.354 N 
ATOM     43  C   UNL A   1      43.289  28.890  34.043  1.00  0.00     0.074 A 
ATOM     44  C   UNL A   1      43.974  27.814  33.363  1.00  0.00     0.031 C 
ATOM     45  C   UNL A   1      38.831  30.678  29.745  1.00  0.00     0.029 A 
ATOM     46  C   UNL A   1      39.013  31.198  31.098  1.00  0.00     0.049 A 
ATOM     47  H   UNL A   1      40.444  30.615  32.496  1.00  0.00     0.167 HD
ATOM     48  C   UNL A   1      43.623  29.348  35.273  1.00  0.00     0.031 A 
ATOM     49  C   UNL A   1      38.274  32.165  31.675  1.00  0.00     0.031 A 
ATOM     50  C   UNL A   1      42.918  30.404  35.952  1.00  0.00     0.049 A 
ATOM     51  C   UNL A   1      38.618  32.609  33.073  1.00  0.00     0.074 A 
ATOM     52  C   UNL A   1      43.164  30.940  37.203  1.00  0.00     0.029 A 
ATOM     53  N   UNL A   1      41.823  31.079  35.433  1.00  0.00    -0.354 N 
ATOM     54  N   UNL A   1      39.589  32.194  33.853  1.00  0.00    -0.248 NA
ATOM     55  C   UNL A   1      37.776  33.657  33.663  1.00  0.00     0.031 C 
ATOM     56  C   UNL A   1      42.188  31.908  37.460  1.00  0.00     0.029 A 
ATOM     57  C   UNL A   1      41.368  32.013  36.347  1.00  0.00     0.049 A 
ATOM     58  H   UNL A   1      41.429  30.917  34.546  1.00  0.00     0.167 HD
ATOM     59  C   UNL A   1      39.488  32.947  35.017  1.00  0.00     0.074 A 
ATOM     60  C   UNL A   1      38.371  33.851  34.833  1.00  0.00     0.031 C 
ATOM     61  C   UNL A   1      40.250  32.899  36.138  1.00  0.00     0.031 A 
BRANCH  48  62
ATOM     62  C   UNL A   1      44.780  28.684  35.969  1.00  0.00    -0.014 A 
ATOM     63  C   UNL A   1      46.063  29.262  35.957  1.00  0.00     0.010 A 
ATOM     64  C   UNL A   1      44.581  27.475  36.659  1.00  0.00     0.010 A 
ATOM     65  C   UNL A   1      47.133  28.622  36.589  1.00  0.00     0.020 A 
ATOM     66  C   UNL A   1      45.644  26.845  37.313  1.00  0.00     0.020 A 
ATOM     67  C   UNL A   1      46.918  27.413  37.258  1.00  0.00     0.054 A 
BRANCH  67  68
ATOM     68  S   UNL A   1      48.321  26.610  38.080  1.00  0.00     0.124 S 
ATOM     69  O   UNL A   1      47.651  25.784  39.082  1.00  0.00    -0.237 OA
ATOM     70  O   UNL A   1      48.960  25.879  36.989  1.00  0.00    -0.237 OA
ATOM     71  O   UNL A   1      49.097  27.728  38.613  1.00  0.00    -0.744 OA
ENDBRANCH  67  68
ENDBRANCH  48  62
BRANCH  49  72
ATOM     72  C   UNL A   1      37.131  32.769  30.937  1.00  0.00    -0.014 A 
ATOM     73  C   UNL A   1      35.804  32.441  31.266  1.00  0.00     0.010 A 
ATOM     74  C   UNL A   1      37.370  33.686  29.896  1.00  0.00     0.010 A 
ATOM     75  C   UNL A   1      34.739  33.008  30.559  1.00  0.00     0.020 A 
ATOM     76  C   UNL A   1      36.308  34.272  29.204  1.00  0.00     0.020 A 
ATOM     77  C   UNL A   1      34.998  33.921  29.533  1.00  0.00     0.054 A 
BRANCH  77  78
ATOM     78  S   UNL A   1      33.601  34.686  28.661  1.00  0.00     0.124 S 
ATOM     79  O   UNL A   1      33.286  33.679  27.653  1.00  0.00    -0.237 OA
ATOM     80  O   UNL A   1      32.613  34.847  29.725  1.00  0.00    -0.237 OA
ATOM     81  O   UNL A   1      34.161  35.933  28.148  1.00  0.00    -0.744 OA
ENDBRANCH  77  78
ENDBRANCH  49  72
BRANCH  61  82
ATOM     82  C   UNL A   1      39.918  33.868  37.239  1.00  0.00    -0.014 A 
ATOM     83  C   UNL A   1      39.122  33.481  38.331  1.00  0.00     0.010 A 
ATOM     84  C   UNL A   1      40.457  35.167  37.204  1.00  0.00     0.010 A 
ATOM     85  C   UNL A   1      38.846  34.388  39.357  1.00  0.00     0.020 A 
ATOM     86  C   UNL A   1      40.204  36.068  38.241  1.00  0.00     0.020 A 
ATOM     87  C   UNL A   1      39.388  35.677  39.305  1.00  0.00     0.054 A 
BRANCH  87  88
ATOM     88  S   UNL A   1      39.051  36.822  40.670  1.00  0.00     0.124 S 
ATOM     89  O   UNL A   1      38.241  37.845  40.016  1.00  0.00    -0.237 OA
ATOM     90  O   UNL A   1      38.344  35.979  41.631  1.00  0.00    -0.237 OA
ATOM     91  O   UNL A   1      40.382  37.255  41.093  1.00  0.00    -0.744 OA
ENDBRANCH  87  88
ENDBRANCH  61  82
ENDBRANCH  35  36
ENDBRANCH  28  30
ENDBRANCH  27  28
ENDBRANCH  26  27
ENDBRANCH  25  26
ENDBRANCH  24  25
ENDBRANCH   1  24
TORSDOF 24
ENDMDL
MODEL 3
REMARK VINA RESULT:      -8.9      1.836      2.602
REMARK SMILES C#CCN(CC(=O)OCCOCCOC(=O)c1ccc(-c2c3nc(c(-c4ccc(S(=O)(=O)[O-])cc4)c4ccc([nH]4)c(-c4ccc(S(=O)(=O)[O-])cc4)c4nc(c(-c5ccc(S(=O)(=O)[O-])cc5)c5ccc2[nH]5)C=C4)C=C3)cc1)C(=O)Cc1csc(-c2ccsc2)n1
REMARK SMILES IDX 10 1 9 2 8 3 6 4 7 5 5 6 4 7 3 8 2 9 1 10 77 11 78 12 79 13
REMARK SMILES IDX 80 14 81 15 89 16 82 17 83 18 84 19 85 20 88 21 86 22 87 23
REMARK SMILES IDX 11 24 12 25 13 26 14 27 15 28 16 29 17 30 18 31 76 32 19 33
REMARK SMILES IDX 75 34 20 35 21 36 22 37 69 38 23 39 74 40 68 41 70 42 24 43
REMARK SMILES IDX 73 44 67 45 66 46 25 48 55 49 36 50 54 51 37 52 40 53 53 54
REMARK SMILES IDX 71 55 38 56 39 57 52 59 72 60 41 61 26 62 27 63 35 64 28 65
REMARK SMILES IDX 34 66 29 67 30 68 31 69 32 70 33 71 56 72 57 73 65 74 58 75
REMARK SMILES IDX 64 76 59 77 60 78 61 79 62 80 63 81 42 82 43 83 51 84 44 85
REMARK SMILES IDX 50 86 45 87 46 88 47 89 48 90 49 91
REMARK H PARENT 70 47 40 58
REMARK Flexibility Score: inf
ROOT
ATOM      1  C   UNL A   1      39.046  21.974  26.432  1.00  0.00     0.202 C 
ENDROOT
BRANCH   1   2
ATOM      2  C   UNL A   1      37.936  22.212  25.400  1.00  0.00     0.261 C 
BRANCH   2   3
ATOM      3  O   UNL A   1      36.641  22.377  26.013  1.00  0.00    -0.462 OA
BRANCH   3   4
ATOM      4  C   UNL A   1      35.694  22.883  25.178  1.00  0.00     0.325 C 
ATOM      5  O   UNL A   1      35.591  24.070  24.883  1.00  0.00    -0.250 OA
BRANCH   4   6
ATOM      6  C   UNL A   1      34.941  21.807  24.395  1.00  0.00     0.243 C 
BRANCH   6   7
ATOM      7  N   UNL A   1      33.481  21.673  24.440  1.00  0.00    -0.320 N 
BRANCH   7   8
ATOM      8  C   UNL A   1      32.924  20.555  25.231  1.00  0.00     0.210 C 
BRANCH   8   9
ATOM      9  C   UNL A   1      32.708  19.420  24.242  1.00  0.00    -0.085 C 
ATOM     10  C   UNL A   1      32.524  18.447  23.394  1.00  0.00     0.006 C 
ENDBRANCH   8   9
ENDBRANCH   7   8
BRANCH   7  11
ATOM     11  C   UNL A   1      32.550  22.496  23.825  1.00  0.00     0.229 C 
ATOM     12  O   UNL A   1      32.609  22.667  22.597  1.00  0.00    -0.274 OA
BRANCH  11  13
ATOM     13  C   UNL A   1      31.449  23.241  24.558  1.00  0.00     0.157 C 
BRANCH  13  14
ATOM     14  C   UNL A   1      31.183  24.704  24.403  1.00  0.00     0.061 A 
ATOM     15  C   UNL A   1      30.257  25.405  23.655  1.00  0.00     0.091 A 
ATOM     16  N   UNL A   1      32.019  25.534  25.151  1.00  0.00    -0.241 NA
ATOM     17  S   UNL A   1      30.164  27.032  24.218  1.00  0.00    -0.122 S 
ATOM     18  C   UNL A   1      31.576  26.771  25.153  1.00  0.00     0.124 A 
BRANCH  18  19
ATOM     19  C   UNL A   1      32.313  27.858  25.871  1.00  0.00     0.021 A 
ATOM     20  C   UNL A   1      31.767  29.157  26.108  1.00  0.00     0.023 A 
ATOM     21  C   UNL A   1      33.584  27.730  26.386  1.00  0.00     0.076 A 
ATOM     22  C   UNL A   1      32.611  29.942  26.863  1.00  0.00     0.065 A 
ATOM     23  S   UNL A   1      34.099  29.160  27.181  1.00  0.00    -0.152 S 
ENDBRANCH  18  19
ENDBRANCH  13  14
ENDBRANCH  11  13
ENDBRANCH   7  11
ENDBRANCH   6   7
ENDBRANCH   4   6
ENDBRANCH   3   4
ENDBRANCH   2   3
ENDBRANCH   1   2
BRANCH   1  24
ATOM     24  O   UNL A   1      40.070  21.049  26.065  1.00  0.00    -0.374 OA
BRANCH  24  25
ATOM     25  C   UNL A   1      41.329  21.173  26.721  1.00  0.00     0.202 C 
BRANCH  25  26
ATOM     26  C   UNL A   1      42.359  22.121  26.092  1.00  0.00     0.261 C 
BRANCH  26  27
ATOM     27  O   UNL A   1      41.780  23.376  25.710  1.00  0.00    -0.460 OA
BRANCH  27  28
ATOM     28  C   UNL A   1      42.624  24.428  25.798  1.00  0.00     0.338 C 
ATOM     29  O   UNL A   1      43.604  24.654  25.093  1.00  0.00    -0.246 OA
BRANCH  28  30
ATOM     30  C   UNL A   1      42.097  25.421  26.743  1.00  0.00     0.060 A 
ATOM     31  C   UNL A   1      42.756  26.655  26.806  1.00  0.00     0.016 A 
ATOM     32  C   UNL A   1      41.037  25.131  27.605  1.00  0.00     0.016 A 
ATOM     33  C   UNL A   1      42.398  27.585  27.774  1.00  0.00     0.010 A 
ATOM     34  C   UNL A   1      40.685  26.062  28.586  1.00  0.00     0.010 A 
ATOM     35  C   UNL A   1      41.393  27.273  28.700  1.00  0.00    -0.014 A 
BRANCH  35  36
ATOM     36  C   UNL A   1      41.216  28.152  29.877  1.00  0.00     0.031 A 
ATOM     37  C   UNL A   1      42.178  28.018  31.027  1.00  0.00     0.074 A 
ATOM     38  C   UNL A   1      40.262  29.099  29.884  1.00  0.00     0.049 A 
ATOM     39  N   UNL A   1      42.251  28.716  32.130  1.00  0.00    -0.248 NA
ATOM     40  C   UNL A   1      43.196  26.960  30.914  1.00  0.00     0.031 C 
ATOM     41  C   UNL A   1      39.308  29.344  28.802  1.00  0.00     0.029 A 
ATOM     42  N   UNL A   1      39.948  30.040  30.830  1.00  0.00    -0.354 N 
ATOM     43  C   UNL A   1      43.324  28.188  32.838  1.00  0.00     0.074 A 
ATOM     44  C   UNL A   1      43.851  27.090  32.059  1.00  0.00     0.031 C 
ATOM     45  C   UNL A   1      38.514  30.372  29.148  1.00  0.00     0.029 A 
ATOM     46  C   UNL A   1      38.889  30.842  30.479  1.00  0.00     0.049 A 
ATOM     47  H   UNL A   1      40.435  30.131  31.682  1.00  0.00     0.167 HD
ATOM     48  C   UNL A   1      43.832  28.589  34.028  1.00  0.00     0.031 A 
ATOM     49  C   UNL A   1      38.290  31.837  31.161  1.00  0.00     0.031 A 
ATOM     50  C   UNL A   1      43.285  29.667  34.808  1.00  0.00     0.049 A 
ATOM     51  C   UNL A   1      38.826  32.218  32.516  1.00  0.00     0.074 A 
ATOM     52  C   UNL A   1      43.712  30.151  36.031  1.00  0.00     0.029 A 
ATOM     53  N   UNL A   1      42.183  30.424  34.439  1.00  0.00    -0.354 N 
ATOM     54  N   UNL A   1      39.855  31.721  33.164  1.00  0.00    -0.248 NA
ATOM     55  C   UNL A   1      38.132  33.301  33.224  1.00  0.00     0.031 C 
ATOM     56  C   UNL A   1      42.840  31.172  36.424  1.00  0.00     0.029 A 
ATOM     57  C   UNL A   1      41.902  31.359  35.420  1.00  0.00     0.049 A 
ATOM     58  H   UNL A   1      41.676  30.313  33.603  1.00  0.00     0.167 HD
ATOM     59  C   UNL A   1      39.943  32.447  34.347  1.00  0.00     0.074 A 
ATOM     60  C   UNL A   1      38.873  33.424  34.317  1.00  0.00     0.031 C 
ATOM     61  C   UNL A   1      40.828  32.319  35.366  1.00  0.00     0.031 A 
BRANCH  48  62
ATOM     62  C   UNL A   1      45.018  27.834  34.565  1.00  0.00    -0.014 A 
ATOM     63  C   UNL A   1      46.329  28.178  34.188  1.00  0.00     0.010 A 
ATOM     64  C   UNL A   1      44.822  26.777  35.472  1.00  0.00     0.010 A 
ATOM     65  C   UNL A   1      47.420  27.453  34.678  1.00  0.00     0.020 A 
ATOM     66  C   UNL A   1      45.912  26.066  35.983  1.00  0.00     0.020 A 
ATOM     67  C   UNL A   1      47.203  26.397  35.569  1.00  0.00     0.054 A 
BRANCH  67  68
ATOM     68  S   UNL A   1      48.637  25.480  36.199  1.00  0.00     0.124 S 
ATOM     69  O   UNL A   1      48.975  26.240  37.400  1.00  0.00    -0.237 OA
ATOM     70  O   UNL A   1      48.089  24.147  36.434  1.00  0.00    -0.237 OA
ATOM     71  O   UNL A   1      49.609  25.568  35.112  1.00  0.00    -0.744 OA
ENDBRANCH  67  68
ENDBRANCH  48  62
BRANCH  49  72
ATOM     72  C   UNL A   1      37.110  32.532  30.579  1.00  0.00    -0.014 A 
ATOM     73  C   UNL A   1      37.271  33.567  29.641  1.00  0.00     0.010 A 
ATOM     74  C   UNL A   1      35.809  32.154  30.961  1.00  0.00     0.010 A 
ATOM     75  C   UNL A   1      36.154  34.219  29.107  1.00  0.00     0.020 A 
ATOM     76  C   UNL A   1      34.691  32.787  30.412  1.00  0.00     0.020 A 
ATOM     77  C   UNL A   1      34.872  33.824  29.496  1.00  0.00     0.054 A 
BRANCH  77  78
ATOM     78  S   UNL A   1      33.434  34.648  28.754  1.00  0.00     0.124 S 
ATOM     79  O   UNL A   1      32.616  34.942  29.925  1.00  0.00    -0.237 OA
ATOM     80  O   UNL A   1      34.037  35.804  28.095  1.00  0.00    -0.237 OA
ATOM     81  O   UNL A   1      32.893  33.638  27.848  1.00  0.00    -0.744 OA
ENDBRANCH  77  78
ENDBRANCH  49  72
BRANCH  61  82
ATOM     82  C   UNL A   1      40.694  33.276  36.519  1.00  0.00    -0.014 A 
ATOM     83  C   UNL A   1      41.413  34.483  36.547  1.00  0.00     0.010 A 
ATOM     84  C   UNL A   1      39.793  32.985  37.559  1.00  0.00     0.010 A 
ATOM     85  C   UNL A   1      41.255  35.371  37.614  1.00  0.00     0.020 A 
ATOM     86  C   UNL A   1      39.613  33.883  38.615  1.00  0.00     0.020 A 
ATOM     87  C   UNL A   1      40.356  35.064  38.642  1.00  0.00     0.054 A 
BRANCH  87  88
ATOM     88  S   UNL A   1      40.136  36.253  39.994  1.00  0.00     0.124 S 
ATOM     89  O   UNL A   1      38.901  36.927  39.607  1.00  0.00    -0.237 OA
ATOM     90  O   UNL A   1      40.041  35.391  41.169  1.00  0.00    -0.237 OA
ATOM     91  O   UNL A   1      41.343  37.076  39.929  1.00  0.00    -0.744 OA
ENDBRANCH  87  88
ENDBRANCH  61  82
ENDBRANCH  35  36
ENDBRANCH  28  30
ENDBRANCH  27  28
ENDBRANCH  26  27
ENDBRANCH  25  26
ENDBRANCH  24  25
ENDBRANCH   1  24
TORSDOF 24
ENDMDL
