MODEL 1
REMARK VINA RESULT:     -10.8      0.000      0.000
REMARK SMILES Cn1cc(C(=O)OCCOCCOC(=O)c2ccc(-c3c4nc(c(-c5ccc(S(=O)(=O)[O-])cc5)c5ccc([nH]5)c(-c5ccc(S(=O)(=O)[O-])cc5)c5nc(c(-c6ccc(S(=O)(=O)[O-])cc6)c6ccc3[nH]6)C=C5)C=C4)cc2)c(C(=O)Nc2ccc(-c3nc4cc(Cl)ccc4o3)cc2)n1
REMARK SMILES IDX 10 1 9 2 8 3 7 4 5 5 6 6 4 7 1 8 2 9 3 10 96 11 76 12 77 13
REMARK SMILES IDX 78 14 79 15 80 17 81 18 95 19 82 20 94 21 83 22 84 23 85 24
REMARK SMILES IDX 93 25 86 26 92 27 87 28 91 29 88 30 90 31 89 32 11 33 12 34
REMARK SMILES IDX 13 35 14 36 15 37 16 38 17 39 75 40 18 41 74 42 19 43 20 44
REMARK SMILES IDX 21 45 68 46 22 47 73 48 67 49 69 50 23 51 72 52 66 53 65 54
REMARK SMILES IDX 24 56 54 57 35 58 53 59 36 60 39 61 52 62 70 63 37 64 38 65
REMARK SMILES IDX 51 67 71 68 40 69 25 70 26 71 34 72 27 73 33 74 28 75 29 76
REMARK SMILES IDX 30 77 31 78 32 79 55 80 56 81 64 82 57 83 63 84 58 85 59 86
REMARK SMILES IDX 60 87 61 88 62 89 41 90 42 91 50 92 43 93 49 94 44 95 45 96
REMARK SMILES IDX 46 97 47 98 48 99
REMARK H PARENT 79 16 69 55 39 66
REMARK Flexibility Score: inf
ROOT
ATOM      1  O   UNL A   1      36.379  30.392  32.446  1.00  0.00    -0.374 OA
ENDROOT
BRANCH   1   2
ATOM      2  C   UNL A   1      36.161  31.599  33.175  1.00  0.00     0.202 C 
BRANCH   2   3
ATOM      3  C   UNL A   1      36.589  32.844  32.417  1.00  0.00     0.261 C 
BRANCH   3   4
ATOM      4  O   UNL A   1      35.428  33.664  32.321  1.00  0.00    -0.460 OA
BRANCH   4   5
ATOM      5  C   UNL A   1      35.147  34.211  31.113  1.00  0.00     0.342 C 
ATOM      6  O   UNL A   1      35.844  34.168  30.111  1.00  0.00    -0.246 OA
BRANCH   5   7
ATOM      7  C   UNL A   1      33.936  34.965  31.255  1.00  0.00     0.111 A 
ATOM      8  C   UNL A   1      31.237  36.149  33.310  1.00  0.00     0.173 C 
ATOM      9  N   UNL A   1      32.196  35.776  32.298  1.00  0.00    -0.274 N 
ATOM     10  C   UNL A   1      33.345  35.103  32.501  1.00  0.00     0.125 A 
ATOM     11  N   UNL A   1      31.980  36.075  31.013  1.00  0.00    -0.167 NA
ATOM     12  C   UNL A   1      33.065  35.615  30.331  1.00  0.00     0.165 A 
BRANCH  12  13
ATOM     13  C   UNL A   1      33.133  35.921  28.873  1.00  0.00     0.277 C 
ATOM     14  O   UNL A   1      33.045  37.088  28.470  1.00  0.00    -0.267 OA
ATOM     15  N   UNL A   1      33.478  35.008  27.898  1.00  0.00    -0.321 N 
ATOM     16  H   UNL A   1      34.066  35.389  27.207  1.00  0.00     0.170 HD
BRANCH  15  17
ATOM     17  C   UNL A   1      33.179  33.663  27.674  1.00  0.00     0.041 A 
ATOM     18  C   UNL A   1      31.924  33.355  27.130  1.00  0.00     0.027 A 
ATOM     19  C   UNL A   1      34.034  32.630  28.024  1.00  0.00     0.027 A 
ATOM     20  C   UNL A   1      31.619  32.047  26.729  1.00  0.00     0.016 A 
ATOM     21  C   UNL A   1      33.693  31.315  27.690  1.00  0.00     0.016 A 
ATOM     22  C   UNL A   1      32.539  31.024  26.952  1.00  0.00     0.037 A 
BRANCH  22  23
ATOM     23  C   UNL A   1      32.457  29.719  26.303  1.00  0.00     0.227 A 
ATOM     24  N   UNL A   1      32.163  29.436  25.046  1.00  0.00    -0.209 NA
ATOM     25  O   UNL A   1      32.302  28.665  27.174  1.00  0.00    -0.436 OA
ATOM     26  C   UNL A   1      31.708  28.141  25.100  1.00  0.00     0.111 A 
ATOM     27  C   UNL A   1      31.775  27.671  26.402  1.00  0.00     0.155 A 
ATOM     28  C   UNL A   1      31.176  27.312  24.104  1.00  0.00     0.053 A 
ATOM     29  C   UNL A   1      31.324  26.423  26.819  1.00  0.00     0.051 A 
ATOM     30  C   UNL A   1      30.716  26.045  24.487  1.00  0.00     0.043 A 
ATOM     31  C   UNL A   1      30.772  25.612  25.819  1.00  0.00     0.024 A 
ATOM     32  Cl  UNL A   1      30.051  25.000  23.288  1.00  0.00    -0.084 Cl
ENDBRANCH  22  23
ENDBRANCH  15  17
ENDBRANCH  12  13
ENDBRANCH   5   7
ENDBRANCH   4   5
ENDBRANCH   3   4
ENDBRANCH   2   3
ENDBRANCH   1   2
BRANCH   1  33
ATOM     33  C   UNL A   1      37.416  30.348  31.463  1.00  0.00     0.202 C 
BRANCH  33  34
ATOM     34  C   UNL A   1      37.724  29.006  30.780  1.00  0.00     0.261 C 
BRANCH  34  35
ATOM     35  O   UNL A   1      37.357  28.951  29.405  1.00  0.00    -0.460 OA
BRANCH  35  36
ATOM     36  C   UNL A   1      37.763  30.014  28.670  1.00  0.00     0.338 C 
ATOM     37  O   UNL A   1      37.195  31.084  28.561  1.00  0.00    -0.246 OA
BRANCH  36  38
ATOM     38  C   UNL A   1      39.177  29.736  28.340  1.00  0.00     0.060 A 
ATOM     39  C   UNL A   1      40.087  29.691  29.401  1.00  0.00     0.016 A 
ATOM     40  C   UNL A   1      39.559  29.334  27.051  1.00  0.00     0.016 A 
ATOM     41  C   UNL A   1      41.386  29.253  29.171  1.00  0.00     0.010 A 
ATOM     42  C   UNL A   1      40.865  28.909  26.819  1.00  0.00     0.010 A 
ATOM     43  C   UNL A   1      41.788  28.899  27.875  1.00  0.00    -0.014 A 
BRANCH  43  44
ATOM     44  C   UNL A   1      43.235  28.891  27.580  1.00  0.00     0.031 A 
ATOM     45  C   UNL A   1      43.791  27.590  27.073  1.00  0.00     0.074 A 
ATOM     46  C   UNL A   1      44.006  29.987  27.673  1.00  0.00     0.049 A 
ATOM     47  N   UNL A   1      45.011  27.291  26.723  1.00  0.00    -0.248 NA
ATOM     48  C   UNL A   1      42.829  26.481  26.923  1.00  0.00     0.031 C 
ATOM     49  C   UNL A   1      43.557  31.325  28.057  1.00  0.00     0.029 A 
ATOM     50  N   UNL A   1      45.347  30.140  27.429  1.00  0.00    -0.354 N 
ATOM     51  C   UNL A   1      44.956  25.972  26.293  1.00  0.00     0.074 A 
ATOM     52  C   UNL A   1      43.593  25.518  26.442  1.00  0.00     0.031 C 
ATOM     53  C   UNL A   1      44.610  32.165  28.014  1.00  0.00     0.029 A 
ATOM     54  C   UNL A   1      45.808  31.417  27.635  1.00  0.00     0.049 A 
ATOM     55  H   UNL A   1      45.927  29.401  27.133  1.00  0.00     0.167 HD
ATOM     56  C   UNL A   1      45.951  25.194  25.819  1.00  0.00     0.031 A 
ATOM     57  C   UNL A   1      47.062  31.908  27.543  1.00  0.00     0.031 A 
ATOM     58  C   UNL A   1      47.316  25.613  25.734  1.00  0.00     0.049 A 
ATOM     59  C   UNL A   1      48.188  30.973  27.165  1.00  0.00     0.074 A 
ATOM     60  C   UNL A   1      48.421  24.876  25.357  1.00  0.00     0.029 A 
ATOM     61  N   UNL A   1      47.761  26.886  26.053  1.00  0.00    -0.354 N 
ATOM     62  N   UNL A   1      48.130  29.715  26.795  1.00  0.00    -0.248 NA
ATOM     63  C   UNL A   1      49.552  31.523  27.211  1.00  0.00     0.031 C 
ATOM     64  C   UNL A   1      49.547  25.694  25.495  1.00  0.00     0.029 A 
ATOM     65  C   UNL A   1      49.132  26.952  25.910  1.00  0.00     0.049 A 
ATOM     66  H   UNL A   1      47.184  27.632  26.339  1.00  0.00     0.167 HD
ATOM     67  C   UNL A   1      49.446  29.329  26.552  1.00  0.00     0.074 A 
ATOM     68  C   UNL A   1      50.275  30.491  26.798  1.00  0.00     0.031 C 
ATOM     69  C   UNL A   1      49.929  28.123  26.165  1.00  0.00     0.031 A 
BRANCH  56  70
ATOM     70  C   UNL A   1      45.580  23.793  25.440  1.00  0.00    -0.014 A 
ATOM     71  C   UNL A   1      45.681  22.743  26.369  1.00  0.00     0.010 A 
ATOM     72  C   UNL A   1      45.179  23.518  24.121  1.00  0.00     0.010 A 
ATOM     73  C   UNL A   1      45.416  21.431  25.975  1.00  0.00     0.020 A 
ATOM     74  C   UNL A   1      44.897  22.210  23.729  1.00  0.00     0.020 A 
ATOM     75  C   UNL A   1      45.033  21.172  24.655  1.00  0.00     0.054 A 
BRANCH  75  76
ATOM     76  S   UNL A   1      44.693  19.460  24.165  1.00  0.00     0.124 S 
ATOM     77  O   UNL A   1      44.506  19.593  22.722  1.00  0.00    -0.237 OA
ATOM     78  O   UNL A   1      45.905  18.760  24.580  1.00  0.00    -0.237 OA
ATOM     79  O   UNL A   1      43.490  19.118  24.920  1.00  0.00    -0.744 OA
ENDBRANCH  75  76
ENDBRANCH  56  70
BRANCH  57  80
ATOM     80  C   UNL A   1      47.348  33.334  27.863  1.00  0.00    -0.014 A 
ATOM     81  C   UNL A   1      47.368  34.308  26.848  1.00  0.00     0.010 A 
ATOM     82  C   UNL A   1      47.661  33.715  29.180  1.00  0.00     0.010 A 
ATOM     83  C   UNL A   1      47.721  35.630  27.140  1.00  0.00     0.020 A 
ATOM     84  C   UNL A   1      47.990  35.041  29.480  1.00  0.00     0.020 A 
ATOM     85  C   UNL A   1      48.035  35.987  28.455  1.00  0.00     0.054 A 
BRANCH  85  86
ATOM     86  S   UNL A   1      48.470  37.710  28.824  1.00  0.00     0.124 S 
ATOM     87  O   UNL A   1      47.320  38.152  29.605  1.00  0.00    -0.237 OA
ATOM     88  O   UNL A   1      49.723  37.569  29.563  1.00  0.00    -0.237 OA
ATOM     89  O   UNL A   1      48.602  38.316  27.501  1.00  0.00    -0.744 OA
ENDBRANCH  85  86
ENDBRANCH  57  80
BRANCH  69  90
ATOM     90  C   UNL A   1      51.414  27.991  25.975  1.00  0.00    -0.014 A 
ATOM     91  C   UNL A   1      52.235  27.516  27.013  1.00  0.00     0.010 A 
ATOM     92  C   UNL A   1      51.979  28.249  24.712  1.00  0.00     0.010 A 
ATOM     93  C   UNL A   1      53.599  27.315  26.794  1.00  0.00     0.020 A 
ATOM     94  C   UNL A   1      53.338  28.027  24.485  1.00  0.00     0.020 A 
ATOM     95  C   UNL A   1      54.142  27.570  25.531  1.00  0.00     0.054 A 
BRANCH  95  96
ATOM     96  S   UNL A   1      55.902  27.234  25.250  1.00  0.00     0.124 S 
ATOM     97  O   UNL A   1      55.855  26.237  24.184  1.00  0.00    -0.237 OA
ATOM     98  O   UNL A   1      56.422  28.543  24.862  1.00  0.00    -0.237 OA
ATOM     99  O   UNL A   1      56.372  26.744  26.544  1.00  0.00    -0.744 OA
ENDBRANCH  95  96
ENDBRANCH  69  90
ENDBRANCH  43  44
ENDBRANCH  36  38
ENDBRANCH  35  36
ENDBRANCH  34  35
ENDBRANCH  33  34
ENDBRANCH   1  33
TORSDOF 20
ENDMDL
MODEL 2
REMARK VINA RESULT:     -10.8      5.152      9.824
REMARK SMILES Cn1cc(C(=O)OCCOCCOC(=O)c2ccc(-c3c4nc(c(-c5ccc(S(=O)(=O)[O-])cc5)c5ccc([nH]5)c(-c5ccc(S(=O)(=O)[O-])cc5)c5nc(c(-c6ccc(S(=O)(=O)[O-])cc6)c6ccc3[nH]6)C=C5)C=C4)cc2)c(C(=O)Nc2ccc(-c3nc4cc(Cl)ccc4o3)cc2)n1
REMARK SMILES IDX 10 1 9 2 8 3 7 4 5 5 6 6 4 7 1 8 2 9 3 10 96 11 76 12 77 13
REMARK SMILES IDX 78 14 79 15 80 17 81 18 95 19 82 20 94 21 83 22 84 23 85 24
REMARK SMILES IDX 93 25 86 26 92 27 87 28 91 29 88 30 90 31 89 32 11 33 12 34
REMARK SMILES IDX 13 35 14 36 15 37 16 38 17 39 75 40 18 41 74 42 19 43 20 44
REMARK SMILES IDX 21 45 68 46 22 47 73 48 67 49 69 50 23 51 72 52 66 53 65 54
REMARK SMILES IDX 24 56 54 57 35 58 53 59 36 60 39 61 52 62 70 63 37 64 38 65
REMARK SMILES IDX 51 67 71 68 40 69 25 70 26 71 34 72 27 73 33 74 28 75 29 76
REMARK SMILES IDX 30 77 31 78 32 79 55 80 56 81 64 82 57 83 63 84 58 85 59 86
REMARK SMILES IDX 60 87 61 88 62 89 41 90 42 91 50 92 43 93 49 94 44 95 45 96
REMARK SMILES IDX 46 97 47 98 48 99
REMARK H PARENT 79 16 69 55 39 66
REMARK Flexibility Score: inf
ROOT
ATOM      1  O   UNL A   1      36.441  33.108  36.568  1.00  0.00    -0.374 OA
ENDROOT
BRANCH   1   2
ATOM      2  C   UNL A   1      36.592  34.047  35.504  1.00  0.00     0.202 C 
BRANCH   2   3
ATOM      3  C   UNL A   1      35.370  34.135  34.603  1.00  0.00     0.261 C 
BRANCH   3   4
ATOM      4  O   UNL A   1      35.788  33.662  33.327  1.00  0.00    -0.460 OA
BRANCH   4   5
ATOM      5  C   UNL A   1      34.823  33.359  32.425  1.00  0.00     0.342 C 
ATOM      6  O   UNL A   1      33.771  32.779  32.647  1.00  0.00    -0.246 OA
BRANCH   5   7
ATOM      7  C   UNL A   1      35.314  33.729  31.130  1.00  0.00     0.111 A 
ATOM      8  C   UNL A   1      34.686  34.598  27.701  1.00  0.00     0.173 C 
ATOM      9  N   UNL A   1      35.176  34.252  29.014  1.00  0.00    -0.274 N 
ATOM     10  C   UNL A   1      34.427  34.036  30.112  1.00  0.00     0.125 A 
ATOM     11  N   UNL A   1      36.486  34.095  29.230  1.00  0.00    -0.167 NA
ATOM     12  C   UNL A   1      36.617  33.802  30.553  1.00  0.00     0.165 A 
BRANCH  12  13
ATOM     13  C   UNL A   1      38.003  33.686  31.091  1.00  0.00     0.277 C 
ATOM     14  O   UNL A   1      38.499  34.604  31.758  1.00  0.00    -0.267 OA
ATOM     15  N   UNL A   1      38.757  32.532  31.068  1.00  0.00    -0.321 N 
ATOM     16  H   UNL A   1      39.262  32.386  31.900  1.00  0.00     0.170 HD
BRANCH  15  17
ATOM     17  C   UNL A   1      38.963  31.522  30.125  1.00  0.00     0.041 A 
ATOM     18  C   UNL A   1      40.284  31.136  29.858  1.00  0.00     0.027 A 
ATOM     19  C   UNL A   1      37.932  30.940  29.404  1.00  0.00     0.027 A 
ATOM     20  C   UNL A   1      40.556  30.025  29.049  1.00  0.00     0.016 A 
ATOM     21  C   UNL A   1      38.216  29.878  28.538  1.00  0.00     0.016 A 
ATOM     22  C   UNL A   1      39.506  29.347  28.432  1.00  0.00     0.037 A 
BRANCH  22  23
ATOM     23  C   UNL A   1      39.649  28.019  27.842  1.00  0.00     0.227 A 
ATOM     24  N   UNL A   1      39.439  26.839  28.398  1.00  0.00    -0.209 NA
ATOM     25  O   UNL A   1      40.441  27.985  26.717  1.00  0.00    -0.436 OA
ATOM     26  C   UNL A   1      40.203  25.981  27.644  1.00  0.00     0.111 A 
ATOM     27  C   UNL A   1      40.830  26.681  26.625  1.00  0.00     0.155 A 
ATOM     28  C   UNL A   1      40.456  24.611  27.786  1.00  0.00     0.053 A 
ATOM     29  C   UNL A   1      41.734  26.128  25.724  1.00  0.00     0.051 A 
ATOM     30  C   UNL A   1      41.358  24.019  26.890  1.00  0.00     0.043 A 
ATOM     31  C   UNL A   1      41.999  24.762  25.890  1.00  0.00     0.024 A 
ATOM     32  Cl  UNL A   1      41.698  22.336  27.039  1.00  0.00    -0.084 Cl
ENDBRANCH  22  23
ENDBRANCH  15  17
ENDBRANCH  12  13
ENDBRANCH   5   7
ENDBRANCH   4   5
ENDBRANCH   3   4
ENDBRANCH   2   3
ENDBRANCH   1   2
BRANCH   1  33
ATOM     33  C   UNL A   1      36.733  33.518  37.905  1.00  0.00     0.202 C 
BRANCH  33  34
ATOM     34  C   UNL A   1      37.332  32.486  38.874  1.00  0.00     0.261 C 
BRANCH  34  35
ATOM     35  O   UNL A   1      38.627  32.021  38.507  1.00  0.00    -0.460 OA
BRANCH  35  36
ATOM     36  C   UNL A   1      39.562  32.994  38.383  1.00  0.00     0.338 C 
ATOM     37  O   UNL A   1      39.883  33.808  39.228  1.00  0.00    -0.246 OA
BRANCH  36  38
ATOM     38  C   UNL A   1      40.337  32.631  37.177  1.00  0.00     0.060 A 
ATOM     39  C   UNL A   1      39.644  32.013  36.131  1.00  0.00     0.016 A 
ATOM     40  C   UNL A   1      41.660  33.066  37.004  1.00  0.00     0.016 A 
ATOM     41  C   UNL A   1      40.279  31.819  34.910  1.00  0.00     0.010 A 
ATOM     42  C   UNL A   1      42.300  32.857  35.784  1.00  0.00     0.010 A 
ATOM     43  C   UNL A   1      41.618  32.205  34.746  1.00  0.00    -0.014 A 
BRANCH  43  44
ATOM     44  C   UNL A   1      42.383  31.588  33.645  1.00  0.00     0.031 A 
ATOM     45  C   UNL A   1      42.603  32.454  32.436  1.00  0.00     0.074 A 
ATOM     46  C   UNL A   1      42.927  30.362  33.730  1.00  0.00     0.049 A 
ATOM     47  N   UNL A   1      43.243  32.188  31.331  1.00  0.00    -0.248 NA
ATOM     48  C   UNL A   1      42.038  33.816  32.496  1.00  0.00     0.031 C 
ATOM     49  C   UNL A   1      42.865  29.472  34.888  1.00  0.00     0.029 A 
ATOM     50  N   UNL A   1      43.663  29.663  32.807  1.00  0.00    -0.354 N 
ATOM     51  C   UNL A   1      43.175  33.352  30.579  1.00  0.00     0.074 A 
ATOM     52  C   UNL A   1      42.418  34.321  31.337  1.00  0.00     0.031 C 
ATOM     53  C   UNL A   1      43.545  28.343  34.605  1.00  0.00     0.029 A 
ATOM     54  C   UNL A   1      44.058  28.419  33.237  1.00  0.00     0.049 A 
ATOM     55  H   UNL A   1      43.887  30.020  31.917  1.00  0.00     0.167 HD
ATOM     56  C   UNL A   1      43.690  33.601  29.357  1.00  0.00     0.031 A 
ATOM     57  C   UNL A   1      44.738  27.455  32.583  1.00  0.00     0.031 A 
ATOM     58  C   UNL A   1      44.380  32.626  28.572  1.00  0.00     0.049 A 
ATOM     59  C   UNL A   1      45.164  27.701  31.154  1.00  0.00     0.074 A 
ATOM     60  C   UNL A   1      44.862  32.742  27.282  1.00  0.00     0.029 A 
ATOM     61  N   UNL A   1      44.669  31.341  29.002  1.00  0.00    -0.354 N 
ATOM     62  N   UNL A   1      45.061  28.795  30.436  1.00  0.00    -0.248 NA
ATOM     63  C   UNL A   1      45.781  26.572  30.441  1.00  0.00     0.031 C 
ATOM     64  C   UNL A   1      45.401  31.506  26.915  1.00  0.00     0.029 A 
ATOM     65  C   UNL A   1      45.298  30.639  27.994  1.00  0.00     0.049 A 
ATOM     66  H   UNL A   1      44.456  30.982  29.895  1.00  0.00     0.167 HD
ATOM     67  C   UNL A   1      45.613  28.490  29.196  1.00  0.00     0.074 A 
ATOM     68  C   UNL A   1      46.064  27.116  29.265  1.00  0.00     0.031 C 
ATOM     69  C   UNL A   1      45.733  29.271  28.093  1.00  0.00     0.031 A 
BRANCH  56  70
ATOM     70  C   UNL A   1      43.439  34.967  28.793  1.00  0.00    -0.014 A 
ATOM     71  C   UNL A   1      44.365  36.007  28.985  1.00  0.00     0.010 A 
ATOM     72  C   UNL A   1      42.236  35.223  28.114  1.00  0.00     0.010 A 
ATOM     73  C   UNL A   1      44.075  37.295  28.530  1.00  0.00     0.020 A 
ATOM     74  C   UNL A   1      41.952  36.505  27.644  1.00  0.00     0.020 A 
ATOM     75  C   UNL A   1      42.867  37.537  27.869  1.00  0.00     0.054 A 
BRANCH  75  76
ATOM     76  S   UNL A   1      42.512  39.216  27.287  1.00  0.00     0.124 S 
ATOM     77  O   UNL A   1      43.748  39.558  26.586  1.00  0.00    -0.237 OA
ATOM     78  O   UNL A   1      41.341  39.020  26.436  1.00  0.00    -0.237 OA
ATOM     79  O   UNL A   1      42.266  39.963  28.518  1.00  0.00    -0.744 OA
ENDBRANCH  75  76
ENDBRANCH  56  70
BRANCH  57  80
ATOM     80  C   UNL A   1      45.019  26.145  33.233  1.00  0.00    -0.014 A 
ATOM     81  C   UNL A   1      44.105  25.081  33.130  1.00  0.00     0.010 A 
ATOM     82  C   UNL A   1      46.178  25.975  34.013  1.00  0.00     0.010 A 
ATOM     83  C   UNL A   1      44.332  23.882  33.814  1.00  0.00     0.020 A 
ATOM     84  C   UNL A   1      46.421  24.769  34.677  1.00  0.00     0.020 A 
ATOM     85  C   UNL A   1      45.487  23.735  34.587  1.00  0.00     0.054 A 
BRANCH  85  86
ATOM     86  S   UNL A   1      45.781  22.166  35.451  1.00  0.00     0.124 S 
ATOM     87  O   UNL A   1      45.526  22.534  36.840  1.00  0.00    -0.237 OA
ATOM     88  O   UNL A   1      44.796  21.277  34.838  1.00  0.00    -0.237 OA
ATOM     89  O   UNL A   1      47.172  21.858  35.127  1.00  0.00    -0.744 OA
ENDBRANCH  85  86
ENDBRANCH  57  80
BRANCH  69  90
ATOM     90  C   UNL A   1      46.379  28.672  26.876  1.00  0.00    -0.014 A 
ATOM     91  C   UNL A   1      45.601  28.161  25.823  1.00  0.00     0.010 A 
ATOM     92  C   UNL A   1      47.780  28.713  26.742  1.00  0.00     0.010 A 
ATOM     93  C   UNL A   1      46.213  27.688  24.661  1.00  0.00     0.020 A 
ATOM     94  C   UNL A   1      48.393  28.262  25.572  1.00  0.00     0.020 A 
ATOM     95  C   UNL A   1      47.606  27.743  24.541  1.00  0.00     0.054 A 
BRANCH  95  96
ATOM     96  S   UNL A   1      48.375  27.189  22.995  1.00  0.00     0.124 S 
ATOM     97  O   UNL A   1      47.500  27.787  21.990  1.00  0.00    -0.237 OA
ATOM     98  O   UNL A   1      49.717  27.760  23.080  1.00  0.00    -0.237 OA
ATOM     99  O   UNL A   1      48.319  25.731  23.085  1.00  0.00    -0.744 OA
ENDBRANCH  95  96
ENDBRANCH  69  90
ENDBRANCH  43  44
ENDBRANCH  36  38
ENDBRANCH  35  36
ENDBRANCH  34  35
ENDBRANCH  33  34
ENDBRANCH   1  33
TORSDOF 20
ENDMDL
MODEL 3
REMARK VINA RESULT:     -10.7      6.367     10.275
REMARK SMILES Cn1cc(C(=O)OCCOCCOC(=O)c2ccc(-c3c4nc(c(-c5ccc(S(=O)(=O)[O-])cc5)c5ccc([nH]5)c(-c5ccc(S(=O)(=O)[O-])cc5)c5nc(c(-c6ccc(S(=O)(=O)[O-])cc6)c6ccc3[nH]6)C=C5)C=C4)cc2)c(C(=O)Nc2ccc(-c3nc4cc(Cl)ccc4o3)cc2)n1
REMARK SMILES IDX 10 1 9 2 8 3 7 4 5 5 6 6 4 7 1 8 2 9 3 10 96 11 76 12 77 13
REMARK SMILES IDX 78 14 79 15 80 17 81 18 95 19 82 20 94 21 83 22 84 23 85 24
REMARK SMILES IDX 93 25 86 26 92 27 87 28 91 29 88 30 90 31 89 32 11 33 12 34
REMARK SMILES IDX 13 35 14 36 15 37 16 38 17 39 75 40 18 41 74 42 19 43 20 44
REMARK SMILES IDX 21 45 68 46 22 47 73 48 67 49 69 50 23 51 72 52 66 53 65 54
REMARK SMILES IDX 24 56 54 57 35 58 53 59 36 60 39 61 52 62 70 63 37 64 38 65
REMARK SMILES IDX 51 67 71 68 40 69 25 70 26 71 34 72 27 73 33 74 28 75 29 76
REMARK SMILES IDX 30 77 31 78 32 79 55 80 56 81 64 82 57 83 63 84 58 85 59 86
REMARK SMILES IDX 60 87 61 88 62 89 41 90 42 91 50 92 43 93 49 94 44 95 45 96
REMARK SMILES IDX 46 97 47 98 48 99
REMARK H PARENT 79 16 69 55 39 66
REMARK Flexibility Score: inf
ROOT
ATOM      1  O   UNL A   1      33.720  28.903  26.790  1.00  0.00    -0.374 OA
ENDROOT
BRANCH   1   2
ATOM      2  C   UNL A   1      33.708  27.996  25.689  1.00  0.00     0.202 C 
BRANCH   2   3
ATOM      3  C   UNL A   1      33.347  26.574  26.087  1.00  0.00     0.261 C 
BRANCH   3   4
ATOM      4  O   UNL A   1      32.934  25.923  24.890  1.00  0.00    -0.460 OA
BRANCH   4   5
ATOM      5  C   UNL A   1      31.607  25.900  24.617  1.00  0.00     0.342 C 
ATOM      6  O   UNL A   1      30.936  26.816  24.167  1.00  0.00    -0.246 OA
BRANCH   5   7
ATOM      7  C   UNL A   1      31.097  24.640  25.073  1.00  0.00     0.111 A 
ATOM      8  C   UNL A   1      29.414  22.693  27.580  1.00  0.00     0.173 C 
ATOM      9  N   UNL A   1      30.128  23.259  26.460  1.00  0.00    -0.274 N 
ATOM     10  C   UNL A   1      30.391  24.565  26.263  1.00  0.00     0.125 A 
ATOM     11  N   UNL A   1      30.622  22.470  25.501  1.00  0.00    -0.167 NA
ATOM     12  C   UNL A   1      31.206  23.300  24.594  1.00  0.00     0.165 A 
BRANCH  12  13
ATOM     13  C   UNL A   1      31.745  22.679  23.350  1.00  0.00     0.277 C 
ATOM     14  O   UNL A   1      30.979  22.214  22.495  1.00  0.00    -0.267 OA
ATOM     15  N   UNL A   1      33.066  22.733  22.958  1.00  0.00    -0.321 N 
ATOM     16  H   UNL A   1      33.175  22.886  21.992  1.00  0.00     0.170 HD
BRANCH  15  17
ATOM     17  C   UNL A   1      34.286  22.617  23.629  1.00  0.00     0.041 A 
ATOM     18  C   UNL A   1      34.395  21.634  24.622  1.00  0.00     0.027 A 
ATOM     19  C   UNL A   1      35.357  23.467  23.401  1.00  0.00     0.027 A 
ATOM     20  C   UNL A   1      35.631  21.355  25.221  1.00  0.00     0.016 A 
ATOM     21  C   UNL A   1      36.571  23.231  24.056  1.00  0.00     0.016 A 
ATOM     22  C   UNL A   1      36.748  22.119  24.888  1.00  0.00     0.037 A 
BRANCH  22  23
ATOM     23  C   UNL A   1      38.115  21.717  25.204  1.00  0.00     0.227 A 
ATOM     24  N   UNL A   1      38.686  20.535  25.054  1.00  0.00    -0.209 NA
ATOM     25  O   UNL A   1      38.756  22.551  26.092  1.00  0.00    -0.436 OA
ATOM     26  C   UNL A   1      39.722  20.555  25.958  1.00  0.00     0.111 A 
ATOM     27  C   UNL A   1      39.757  21.779  26.606  1.00  0.00     0.155 A 
ATOM     28  C   UNL A   1      40.641  19.564  26.323  1.00  0.00     0.053 A 
ATOM     29  C   UNL A   1      40.637  22.107  27.633  1.00  0.00     0.051 A 
ATOM     30  C   UNL A   1      41.546  19.862  27.352  1.00  0.00     0.043 A 
ATOM     31  C   UNL A   1      41.537  21.100  28.007  1.00  0.00     0.024 A 
ATOM     32  Cl  UNL A   1      42.690  18.663  27.830  1.00  0.00    -0.084 Cl
ENDBRANCH  22  23
ENDBRANCH  15  17
ENDBRANCH  12  13
ENDBRANCH   5   7
ENDBRANCH   4   5
ENDBRANCH   3   4
ENDBRANCH   2   3
ENDBRANCH   1   2
BRANCH   1  33
ATOM     33  C   UNL A   1      32.670  29.865  26.912  1.00  0.00     0.202 C 
BRANCH  33  34
ATOM     34  C   UNL A   1      33.043  31.322  27.234  1.00  0.00     0.261 C 
BRANCH  34  35
ATOM     35  O   UNL A   1      34.008  31.463  28.272  1.00  0.00    -0.460 OA
BRANCH  35  36
ATOM     36  C   UNL A   1      34.947  32.413  28.043  1.00  0.00     0.338 C 
ATOM     37  O   UNL A   1      34.761  33.527  27.589  1.00  0.00    -0.246 OA
BRANCH  36  38
ATOM     38  C   UNL A   1      36.143  31.956  28.782  1.00  0.00     0.060 A 
ATOM     39  C   UNL A   1      36.091  30.687  29.367  1.00  0.00     0.016 A 
ATOM     40  C   UNL A   1      37.349  32.672  28.730  1.00  0.00     0.016 A 
ATOM     41  C   UNL A   1      37.244  30.135  29.911  1.00  0.00     0.010 A 
ATOM     42  C   UNL A   1      38.502  32.125  29.289  1.00  0.00     0.010 A 
ATOM     43  C   UNL A   1      38.441  30.867  29.909  1.00  0.00    -0.014 A 
BRANCH  43  44
ATOM     44  C   UNL A   1      39.491  30.476  30.870  1.00  0.00     0.031 A 
ATOM     45  C   UNL A   1      40.446  29.415  30.400  1.00  0.00     0.074 A 
ATOM     46  C   UNL A   1      39.650  31.076  32.062  1.00  0.00     0.049 A 
ATOM     47  N   UNL A   1      41.465  28.886  31.017  1.00  0.00    -0.248 NA
ATOM     48  C   UNL A   1      40.228  28.898  29.035  1.00  0.00     0.031 C 
ATOM     49  C   UNL A   1      38.848  32.182  32.582  1.00  0.00     0.029 A 
ATOM     50  N   UNL A   1      40.571  30.834  33.050  1.00  0.00    -0.354 N 
ATOM     51  C   UNL A   1      42.019  27.993  30.109  1.00  0.00     0.074 A 
ATOM     52  C   UNL A   1      41.217  28.033  28.909  1.00  0.00     0.031 C 
ATOM     53  C   UNL A   1      39.321  32.528  33.796  1.00  0.00     0.029 A 
ATOM     54  C   UNL A   1      40.433  31.646  34.149  1.00  0.00     0.049 A 
ATOM     55  H   UNL A   1      41.267  30.142  32.977  1.00  0.00     0.167 HD
ATOM     56  C   UNL A   1      43.099  27.198  30.256  1.00  0.00     0.031 A 
ATOM     57  C   UNL A   1      41.121  31.650  35.310  1.00  0.00     0.031 A 
ATOM     58  C   UNL A   1      43.856  27.102  31.466  1.00  0.00     0.049 A 
ATOM     59  C   UNL A   1      42.225  30.638  35.512  1.00  0.00     0.074 A 
ATOM     60  C   UNL A   1      44.912  26.260  31.756  1.00  0.00     0.029 A 
ATOM     61  N   UNL A   1      43.619  27.867  32.596  1.00  0.00    -0.354 N 
ATOM     62  N   UNL A   1      42.718  29.770  34.658  1.00  0.00    -0.248 NA
ATOM     63  C   UNL A   1      42.852  30.595  36.841  1.00  0.00     0.031 C 
ATOM     64  C   UNL A   1      45.284  26.484  33.085  1.00  0.00     0.029 A 
ATOM     65  C   UNL A   1      44.490  27.499  33.601  1.00  0.00     0.049 A 
ATOM     66  H   UNL A   1      42.931  28.568  32.671  1.00  0.00     0.167 HD
ATOM     67  C   UNL A   1      43.720  29.090  35.344  1.00  0.00     0.074 A 
ATOM     68  C   UNL A   1      43.776  29.658  36.675  1.00  0.00     0.031 C 
ATOM     69  C   UNL A   1      44.520  28.082  34.917  1.00  0.00     0.031 A 
BRANCH  56  70
ATOM     70  C   UNL A   1      43.450  26.327  29.089  1.00  0.00    -0.014 A 
ATOM     71  C   UNL A   1      43.124  24.959  29.086  1.00  0.00     0.010 A 
ATOM     72  C   UNL A   1      44.164  26.874  28.009  1.00  0.00     0.010 A 
ATOM     73  C   UNL A   1      43.536  24.143  28.031  1.00  0.00     0.020 A 
ATOM     74  C   UNL A   1      44.562  26.064  26.945  1.00  0.00     0.020 A 
ATOM     75  C   UNL A   1      44.258  24.700  26.971  1.00  0.00     0.054 A 
BRANCH  75  76
ATOM     76  S   UNL A   1      44.782  23.622  25.611  1.00  0.00     0.124 S 
ATOM     77  O   UNL A   1      45.722  22.727  26.283  1.00  0.00    -0.237 OA
ATOM     78  O   UNL A   1      43.528  23.011  25.183  1.00  0.00    -0.237 OA
ATOM     79  O   UNL A   1      45.382  24.546  24.650  1.00  0.00    -0.744 OA
ENDBRANCH  75  76
ENDBRANCH  56  70
BRANCH  57  80
ATOM     80  C   UNL A   1      40.766  32.599  36.402  1.00  0.00    -0.014 A 
ATOM     81  C   UNL A   1      39.569  32.447  37.125  1.00  0.00     0.010 A 
ATOM     82  C   UNL A   1      41.598  33.698  36.684  1.00  0.00     0.010 A 
ATOM     83  C   UNL A   1      39.199  33.389  38.091  1.00  0.00     0.020 A 
ATOM     84  C   UNL A   1      41.244  34.627  37.667  1.00  0.00     0.020 A 
ATOM     85  C   UNL A   1      40.037  34.476  38.353  1.00  0.00     0.054 A 
BRANCH  85  86
ATOM     86  S   UNL A   1      39.556  35.680  39.624  1.00  0.00     0.124 S 
ATOM     87  O   UNL A   1      40.812  35.885  40.336  1.00  0.00    -0.237 OA
ATOM     88  O   UNL A   1      39.084  36.810  38.828  1.00  0.00    -0.237 OA
ATOM     89  O   UNL A   1      38.515  34.980  40.373  1.00  0.00    -0.744 OA
ENDBRANCH  85  86
ENDBRANCH  57  80
BRANCH  69  90
ATOM     90  C   UNL A   1      45.529  27.529  35.885  1.00  0.00    -0.014 A 
ATOM     91  C   UNL A   1      46.803  28.109  36.008  1.00  0.00     0.010 A 
ATOM     92  C   UNL A   1      45.160  26.483  36.751  1.00  0.00     0.010 A 
ATOM     93  C   UNL A   1      47.698  27.641  36.972  1.00  0.00     0.020 A 
ATOM     94  C   UNL A   1      46.044  26.029  37.731  1.00  0.00     0.020 A 
ATOM     95  C   UNL A   1      47.313  26.606  37.829  1.00  0.00     0.054 A 
BRANCH  95  96
ATOM     96  S   UNL A   1      48.465  26.063  39.120  1.00  0.00     0.124 S 
ATOM     97  O   UNL A   1      49.443  27.147  39.129  1.00  0.00    -0.237 OA
ATOM     98  O   UNL A   1      47.609  25.979  40.301  1.00  0.00    -0.237 OA
ATOM     99  O   UNL A   1      48.958  24.779  38.626  1.00  0.00    -0.744 OA
ENDBRANCH  95  96
ENDBRANCH  69  90
ENDBRANCH  43  44
ENDBRANCH  36  38
ENDBRANCH  35  36
ENDBRANCH  34  35
ENDBRANCH  33  34
ENDBRANCH   1  33
TORSDOF 20
ENDMDL
