MODEL 1
REMARK VINA RESULT:     -12.0      0.000      0.000
REMARK SMILES Cc1nsc(NC(=O)[C@H]2Cc3[nH]cnc3C[NH2+]2)c1C(=O)OCCOCCOC(=O)c1ccc(-c2c3nc(c(-c4ccc(S(=O)(=O)[O-])cc4)c4ccc([nH]4)c(-c4ccc(S(=O)(=O)[O-])cc4)c4nc(c(-c5ccc(S(=O)(=O)[O-])cc5)c5ccc2[nH]5)C=C4)C=C3)cc1
REMARK SMILES IDX 25 1 24 2 23 3 22 4 21 5 19 6 20 7 18 8 1 9 2 10 3 11 4 12
REMARK SMILES IDX 5 13 6 14 7 15 8 17 9 18 10 19 17 20 11 21 16 22 12 25 15 26
REMARK SMILES IDX 13 27 14 29 26 30 27 31 28 32 29 33 30 34 31 35 89 36 32 37
REMARK SMILES IDX 88 38 33 39 34 40 35 41 82 42 36 43 87 44 81 45 83 46 37 47
REMARK SMILES IDX 86 48 80 49 79 50 38 52 68 53 49 54 67 55 50 56 53 57 66 58
REMARK SMILES IDX 84 59 51 60 52 61 65 63 85 64 54 65 39 66 40 67 48 68 41 69
REMARK SMILES IDX 47 70 42 71 43 72 44 73 45 74 46 75 69 76 70 77 78 78 71 79
REMARK SMILES IDX 77 80 72 81 73 82 74 83 75 84 76 85 55 86 56 87 64 88 57 89
REMARK SMILES IDX 63 90 58 91 59 92 60 93 61 94 62 95
REMARK H PARENT 6 16 17 23 17 24 12 28 83 51 53 62
REMARK Flexibility Score: inf
ROOT
ATOM      1  C   UNL A   1      37.435  21.784  24.810  1.00  0.00     0.202 C 
ENDROOT
BRANCH   1   2
ATOM      2  O   UNL A   1      36.565  22.172  25.865  1.00  0.00    -0.374 OA
BRANCH   2   3
ATOM      3  C   UNL A   1      35.386  21.412  26.132  1.00  0.00     0.202 C 
BRANCH   3   4
ATOM      4  C   UNL A   1      34.843  20.540  24.995  1.00  0.00     0.261 C 
BRANCH   4   5
ATOM      5  O   UNL A   1      33.648  21.113  24.434  1.00  0.00    -0.460 OA
BRANCH   5   6
ATOM      6  C   UNL A   1      33.768  22.354  23.896  1.00  0.00     0.343 C 
ATOM      7  O   UNL A   1      34.584  22.671  23.031  1.00  0.00    -0.246 OA
BRANCH   6   8
ATOM      8  C   UNL A   1      32.630  23.183  24.242  1.00  0.00     0.117 A 
ATOM      9  C   UNL A   1      32.336  22.609  26.764  1.00  0.00     0.069 C 
ATOM     10  C   UNL A   1      31.896  23.214  25.475  1.00  0.00     0.068 A 
ATOM     11  N   UNL A   1      30.724  23.855  25.432  1.00  0.00    -0.195 NA
ATOM     12  S   UNL A   1      30.466  24.371  23.871  1.00  0.00    -0.017 S 
ATOM     13  C   UNL A   1      32.064  24.081  23.355  1.00  0.00     0.131 A 
BRANCH  13  14
ATOM     14  N   UNL A   1      32.543  24.451  22.126  1.00  0.00    -0.310 N 
ATOM     15  C   UNL A   1      32.822  25.661  21.581  1.00  0.00     0.283 C 
ATOM     16  H   UNL A   1      32.717  23.693  21.521  1.00  0.00     0.171 HD
ATOM     17  O   UNL A   1      33.208  25.609  20.401  1.00  0.00    -0.268 OA
BRANCH  15  18
ATOM     18  C   UNL A   1      32.662  27.023  22.285  1.00  0.00     0.279 C 
ATOM     19  C   UNL A   1      33.721  28.163  22.160  1.00  0.00     0.131 C 
ATOM     20  N   UNL A   1      31.327  27.632  21.884  1.00  0.00    -0.331 N 
ATOM     21  C   UNL A   1      33.362  29.025  23.321  1.00  0.00     0.050 A 
ATOM     22  C   UNL A   1      30.952  28.864  22.638  1.00  0.00     0.320 C 
ATOM     23  H   UNL A   1      30.601  26.932  22.035  1.00  0.00     0.347 HD
ATOM     24  H   UNL A   1      31.419  27.908  20.907  1.00  0.00     0.347 HD
ATOM     25  N   UNL A   1      34.022  29.169  24.509  1.00  0.00    -0.348 N 
ATOM     26  C   UNL A   1      32.034  29.279  23.589  1.00  0.00     0.116 A 
ATOM     27  C   UNL A   1      33.049  29.368  25.458  1.00  0.00     0.197 A 
ATOM     28  H   UNL A   1      34.995  29.137  24.653  1.00  0.00     0.167 HD
ATOM     29  N   UNL A   1      31.854  29.511  24.925  1.00  0.00    -0.236 NA
ENDBRANCH  15  18
ENDBRANCH  13  14
ENDBRANCH   6   8
ENDBRANCH   5   6
ENDBRANCH   4   5
ENDBRANCH   3   4
ENDBRANCH   2   3
ENDBRANCH   1   2
BRANCH   1  30
ATOM     30  C   UNL A   1      38.670  20.956  25.138  1.00  0.00     0.261 C 
BRANCH  30  31
ATOM     31  O   UNL A   1      39.250  21.314  26.383  1.00  0.00    -0.460 OA
BRANCH  31  32
ATOM     32  C   UNL A   1      40.395  22.024  26.257  1.00  0.00     0.338 C 
ATOM     33  O   UNL A   1      41.340  21.768  25.530  1.00  0.00    -0.246 OA
BRANCH  32  34
ATOM     34  C   UNL A   1      40.392  23.105  27.244  1.00  0.00     0.060 A 
ATOM     35  C   UNL A   1      39.397  24.077  27.116  1.00  0.00     0.016 A 
ATOM     36  C   UNL A   1      41.500  23.281  28.086  1.00  0.00     0.016 A 
ATOM     37  C   UNL A   1      39.617  25.315  27.678  1.00  0.00     0.010 A 
ATOM     38  C   UNL A   1      41.721  24.517  28.639  1.00  0.00     0.010 A 
ATOM     39  C   UNL A   1      40.823  25.540  28.352  1.00  0.00    -0.014 A 
BRANCH  39  40
ATOM     40  C   UNL A   1      41.088  26.862  28.877  1.00  0.00     0.031 A 
ATOM     41  C   UNL A   1      42.262  27.480  28.229  1.00  0.00     0.074 A 
ATOM     42  C   UNL A   1      40.272  27.471  29.760  1.00  0.00     0.049 A 
ATOM     43  N   UNL A   1      43.443  27.615  28.730  1.00  0.00    -0.248 NA
ATOM     44  C   UNL A   1      42.185  27.758  26.783  1.00  0.00     0.031 C 
ATOM     45  C   UNL A   1      38.969  27.010  30.255  1.00  0.00     0.029 A 
ATOM     46  N   UNL A   1      40.394  28.696  30.336  1.00  0.00    -0.354 N 
ATOM     47  C   UNL A   1      44.184  28.251  27.744  1.00  0.00     0.074 A 
ATOM     48  C   UNL A   1      43.451  28.081  26.516  1.00  0.00     0.031 C 
ATOM     49  C   UNL A   1      38.329  28.038  30.860  1.00  0.00     0.029 A 
ATOM     50  C   UNL A   1      39.229  29.178  30.925  1.00  0.00     0.049 A 
ATOM     51  H   UNL A   1      41.239  29.202  30.337  1.00  0.00     0.167 HD
ATOM     52  C   UNL A   1      45.142  29.158  28.073  1.00  0.00     0.031 A 
ATOM     53  C   UNL A   1      39.017  30.433  31.399  1.00  0.00     0.031 A 
ATOM     54  C   UNL A   1      45.483  29.074  29.472  1.00  0.00     0.049 A 
ATOM     55  C   UNL A   1      40.353  31.017  31.663  1.00  0.00     0.074 A 
ATOM     56  C   UNL A   1      46.071  28.136  30.290  1.00  0.00     0.029 A 
ATOM     57  N   UNL A   1      44.795  29.942  30.286  1.00  0.00    -0.354 N 
ATOM     58  N   UNL A   1      41.161  30.547  32.573  1.00  0.00    -0.248 NA
ATOM     59  C   UNL A   1      40.984  31.822  30.630  1.00  0.00     0.031 C 
ATOM     60  C   UNL A   1      45.422  28.274  31.553  1.00  0.00     0.029 A 
ATOM     61  C   UNL A   1      44.511  29.332  31.478  1.00  0.00     0.049 A 
ATOM     62  H   UNL A   1      44.544  30.864  30.047  1.00  0.00     0.167 HD
ATOM     63  C   UNL A   1      42.419  30.611  31.995  1.00  0.00     0.074 A 
ATOM     64  C   UNL A   1      42.268  31.532  30.870  1.00  0.00     0.031 C 
ATOM     65  C   UNL A   1      43.376  29.687  32.310  1.00  0.00     0.031 A 
BRANCH  52  66
ATOM     66  C   UNL A   1      45.369  30.424  27.280  1.00  0.00    -0.014 A 
ATOM     67  C   UNL A   1      46.687  30.887  27.106  1.00  0.00     0.010 A 
ATOM     68  C   UNL A   1      44.329  31.323  26.954  1.00  0.00     0.010 A 
ATOM     69  C   UNL A   1      46.945  32.196  26.675  1.00  0.00     0.020 A 
ATOM     70  C   UNL A   1      44.574  32.612  26.485  1.00  0.00     0.020 A 
ATOM     71  C   UNL A   1      45.884  33.051  26.375  1.00  0.00     0.054 A 
BRANCH  71  72
ATOM     72  S   UNL A   1      46.224  34.761  25.893  1.00  0.00     0.124 S 
ATOM     73  O   UNL A   1      47.471  34.620  25.148  1.00  0.00    -0.237 OA
ATOM     74  O   UNL A   1      45.043  35.097  25.102  1.00  0.00    -0.237 OA
ATOM     75  O   UNL A   1      46.332  35.460  27.172  1.00  0.00    -0.744 OA
ENDBRANCH  71  72
ENDBRANCH  52  66
BRANCH  53  76
ATOM     76  C   UNL A   1      37.779  31.252  31.324  1.00  0.00    -0.014 A 
ATOM     77  C   UNL A   1      36.576  30.852  31.941  1.00  0.00     0.010 A 
ATOM     78  C   UNL A   1      37.862  32.585  30.871  1.00  0.00     0.010 A 
ATOM     79  C   UNL A   1      35.516  31.761  32.131  1.00  0.00     0.020 A 
ATOM     80  C   UNL A   1      36.814  33.496  31.058  1.00  0.00     0.020 A 
ATOM     81  C   UNL A   1      35.648  33.085  31.701  1.00  0.00     0.054 A 
BRANCH  81  82
ATOM     82  S   UNL A   1      34.337  34.294  32.068  1.00  0.00     0.124 S 
ATOM     83  O   UNL A   1      35.092  35.421  32.604  1.00  0.00    -0.237 OA
ATOM     84  O   UNL A   1      33.725  34.508  30.759  1.00  0.00    -0.237 OA
ATOM     85  O   UNL A   1      33.489  33.599  33.036  1.00  0.00    -0.744 OA
ENDBRANCH  81  82
ENDBRANCH  53  76
BRANCH  65  86
ATOM     86  C   UNL A   1      43.150  28.837  33.541  1.00  0.00    -0.014 A 
ATOM     87  C   UNL A   1      43.546  29.205  34.843  1.00  0.00     0.010 A 
ATOM     88  C   UNL A   1      42.387  27.667  33.380  1.00  0.00     0.010 A 
ATOM     89  C   UNL A   1      43.201  28.412  35.950  1.00  0.00     0.020 A 
ATOM     90  C   UNL A   1      42.026  26.884  34.478  1.00  0.00     0.020 A 
ATOM     91  C   UNL A   1      42.440  27.254  35.758  1.00  0.00     0.054 A 
BRANCH  91  92
ATOM     92  S   UNL A   1      41.951  26.252  37.191  1.00  0.00     0.124 S 
ATOM     93  O   UNL A   1      41.987  24.894  36.659  1.00  0.00    -0.237 OA
ATOM     94  O   UNL A   1      42.982  26.570  38.177  1.00  0.00    -0.237 OA
ATOM     95  O   UNL A   1      40.616  26.750  37.525  1.00  0.00    -0.744 OA
ENDBRANCH  91  92
ENDBRANCH  65  86
ENDBRANCH  39  40
ENDBRANCH  32  34
ENDBRANCH  31  32
ENDBRANCH  30  31
ENDBRANCH   1  30
TORSDOF 19
ENDMDL
MODEL 2
REMARK VINA RESULT:     -11.7      2.895      9.383
REMARK SMILES Cc1nsc(NC(=O)[C@H]2Cc3[nH]cnc3C[NH2+]2)c1C(=O)OCCOCCOC(=O)c1ccc(-c2c3nc(c(-c4ccc(S(=O)(=O)[O-])cc4)c4ccc([nH]4)c(-c4ccc(S(=O)(=O)[O-])cc4)c4nc(c(-c5ccc(S(=O)(=O)[O-])cc5)c5ccc2[nH]5)C=C4)C=C3)cc1
REMARK SMILES IDX 25 1 24 2 23 3 22 4 21 5 19 6 20 7 18 8 1 9 2 10 3 11 4 12
REMARK SMILES IDX 5 13 6 14 7 15 8 17 9 18 10 19 17 20 11 21 16 22 12 25 15 26
REMARK SMILES IDX 13 27 14 29 26 30 27 31 28 32 29 33 30 34 31 35 89 36 32 37
REMARK SMILES IDX 88 38 33 39 34 40 35 41 82 42 36 43 87 44 81 45 83 46 37 47
REMARK SMILES IDX 86 48 80 49 79 50 38 52 68 53 49 54 67 55 50 56 53 57 66 58
REMARK SMILES IDX 84 59 51 60 52 61 65 63 85 64 54 65 39 66 40 67 48 68 41 69
REMARK SMILES IDX 47 70 42 71 43 72 44 73 45 74 46 75 69 76 70 77 78 78 71 79
REMARK SMILES IDX 77 80 72 81 73 82 74 83 75 84 76 85 55 86 56 87 64 88 57 89
REMARK SMILES IDX 63 90 58 91 59 92 60 93 61 94 62 95
REMARK H PARENT 6 16 17 23 17 24 12 28 83 51 53 62
REMARK Flexibility Score: inf
ROOT
ATOM      1  C   UNL A   1      32.038  30.304  26.524  1.00  0.00     0.202 C 
ENDROOT
BRANCH   1   2
ATOM      2  O   UNL A   1      31.434  29.398  27.438  1.00  0.00    -0.374 OA
BRANCH   2   3
ATOM      3  C   UNL A   1      32.000  28.101  27.635  1.00  0.00     0.202 C 
BRANCH   3   4
ATOM      4  C   UNL A   1      32.554  27.385  26.399  1.00  0.00     0.261 C 
BRANCH   4   5
ATOM      5  O   UNL A   1      31.518  26.645  25.726  1.00  0.00    -0.460 OA
BRANCH   5   6
ATOM      6  C   UNL A   1      31.349  26.908  24.405  1.00  0.00     0.343 C 
ATOM      7  O   UNL A   1      30.704  27.852  23.951  1.00  0.00    -0.246 OA
BRANCH   6   8
ATOM      8  C   UNL A   1      32.261  26.122  23.597  1.00  0.00     0.117 A 
ATOM      9  C   UNL A   1      33.808  27.981  22.631  1.00  0.00     0.069 C 
ATOM     10  C   UNL A   1      33.278  26.589  22.697  1.00  0.00     0.068 A 
ATOM     11  N   UNL A   1      33.779  25.670  21.867  1.00  0.00    -0.195 NA
ATOM     12  S   UNL A   1      32.970  24.238  22.121  1.00  0.00    -0.017 S 
ATOM     13  C   UNL A   1      32.238  24.739  23.576  1.00  0.00     0.131 A 
BRANCH  13  14
ATOM     14  N   UNL A   1      31.511  23.907  24.385  1.00  0.00    -0.310 N 
ATOM     15  C   UNL A   1      31.864  22.859  25.171  1.00  0.00     0.283 C 
ATOM     16  H   UNL A   1      30.546  24.106  24.399  1.00  0.00     0.171 HD
ATOM     17  O   UNL A   1      30.908  22.306  25.738  1.00  0.00    -0.268 OA
BRANCH  15  18
ATOM     18  C   UNL A   1      33.296  22.321  25.362  1.00  0.00     0.279 C 
ATOM     19  C   UNL A   1      34.057  22.422  26.721  1.00  0.00     0.131 C 
ATOM     20  N   UNL A   1      33.329  20.855  24.958  1.00  0.00    -0.331 N 
ATOM     21  C   UNL A   1      35.466  22.207  26.285  1.00  0.00     0.050 A 
ATOM     22  C   UNL A   1      34.695  20.253  24.910  1.00  0.00     0.320 C 
ATOM     23  H   UNL A   1      32.911  20.771  24.032  1.00  0.00     0.347 HD
ATOM     24  H   UNL A   1      32.815  20.347  25.677  1.00  0.00     0.347 HD
ATOM     25  N   UNL A   1      36.472  23.125  26.180  1.00  0.00    -0.348 N 
ATOM     26  C   UNL A   1      35.743  21.227  25.355  1.00  0.00     0.116 A 
ATOM     27  C   UNL A   1      37.231  22.729  25.105  1.00  0.00     0.197 A 
ATOM     28  H   UNL A   1      36.622  23.909  26.756  1.00  0.00     0.167 HD
ATOM     29  N   UNL A   1      36.860  21.556  24.637  1.00  0.00    -0.236 NA
ENDBRANCH  15  18
ENDBRANCH  13  14
ENDBRANCH   6   8
ENDBRANCH   5   6
ENDBRANCH   4   5
ENDBRANCH   3   4
ENDBRANCH   2   3
ENDBRANCH   1   2
BRANCH   1  30
ATOM     30  C   UNL A   1      33.014  31.345  27.055  1.00  0.00     0.261 C 
BRANCH  30  31
ATOM     31  O   UNL A   1      34.199  30.764  27.577  1.00  0.00    -0.460 OA
BRANCH  31  32
ATOM     32  C   UNL A   1      35.153  31.673  27.884  1.00  0.00     0.338 C 
ATOM     33  O   UNL A   1      35.189  32.842  27.539  1.00  0.00    -0.246 OA
BRANCH  32  34
ATOM     34  C   UNL A   1      36.234  30.998  28.604  1.00  0.00     0.060 A 
ATOM     35  C   UNL A   1      37.207  31.810  29.193  1.00  0.00     0.016 A 
ATOM     36  C   UNL A   1      36.409  29.614  28.457  1.00  0.00     0.016 A 
ATOM     37  C   UNL A   1      38.444  31.264  29.451  1.00  0.00     0.010 A 
ATOM     38  C   UNL A   1      37.646  29.074  28.708  1.00  0.00     0.010 A 
ATOM     39  C   UNL A   1      38.669  29.924  29.115  1.00  0.00    -0.014 A 
BRANCH  39  40
ATOM     40  C   UNL A   1      39.991  29.370  29.314  1.00  0.00     0.031 A 
ATOM     41  C   UNL A   1      40.316  29.240  30.749  1.00  0.00     0.074 A 
ATOM     42  C   UNL A   1      40.755  28.927  28.297  1.00  0.00     0.049 A 
ATOM     43  N   UNL A   1      41.099  29.998  31.439  1.00  0.00    -0.248 NA
ATOM     44  C   UNL A   1      39.496  28.322  31.561  1.00  0.00     0.031 C 
ATOM     45  C   UNL A   1      40.393  28.806  26.880  1.00  0.00     0.029 A 
ATOM     46  N   UNL A   1      42.003  28.390  28.334  1.00  0.00    -0.354 N 
ATOM     47  C   UNL A   1      41.077  29.469  32.722  1.00  0.00     0.074 A 
ATOM     48  C   UNL A   1      39.909  28.629  32.791  1.00  0.00     0.031 C 
ATOM     49  C   UNL A   1      41.301  28.025  26.249  1.00  0.00     0.029 A 
ATOM     50  C   UNL A   1      42.378  27.716  27.175  1.00  0.00     0.049 A 
ATOM     51  H   UNL A   1      42.595  28.473  29.116  1.00  0.00     0.167 HD
ATOM     52  C   UNL A   1      42.195  29.480  33.496  1.00  0.00     0.031 A 
ATOM     53  C   UNL A   1      43.478  26.936  27.008  1.00  0.00     0.031 A 
ATOM     54  C   UNL A   1      43.191  30.376  32.963  1.00  0.00     0.049 A 
ATOM     55  C   UNL A   1      44.448  27.344  28.051  1.00  0.00     0.074 A 
ATOM     56  C   UNL A   1      43.294  31.736  32.771  1.00  0.00     0.029 A 
ATOM     57  N   UNL A   1      44.120  29.782  32.142  1.00  0.00    -0.354 N 
ATOM     58  N   UNL A   1      44.993  28.529  28.084  1.00  0.00    -0.248 NA
ATOM     59  C   UNL A   1      44.474  26.616  29.310  1.00  0.00     0.031 C 
ATOM     60  C   UNL A   1      44.051  31.892  31.571  1.00  0.00     0.029 A 
ATOM     61  C   UNL A   1      44.436  30.629  31.114  1.00  0.00     0.049 A 
ATOM     62  H   UNL A   1      44.500  28.883  32.274  1.00  0.00     0.167 HD
ATOM     63  C   UNL A   1      45.019  28.869  29.427  1.00  0.00     0.074 A 
ATOM     64  C   UNL A   1      44.826  27.606  30.137  1.00  0.00     0.031 C 
ATOM     65  C   UNL A   1      44.900  30.174  29.816  1.00  0.00     0.031 A 
BRANCH  52  66
ATOM     66  C   UNL A   1      42.572  28.325  34.395  1.00  0.00    -0.014 A 
ATOM     67  C   UNL A   1      42.944  28.597  35.725  1.00  0.00     0.010 A 
ATOM     68  C   UNL A   1      42.854  27.030  33.906  1.00  0.00     0.010 A 
ATOM     69  C   UNL A   1      43.606  27.637  36.504  1.00  0.00     0.020 A 
ATOM     70  C   UNL A   1      43.474  26.055  34.684  1.00  0.00     0.020 A 
ATOM     71  C   UNL A   1      43.872  26.374  35.972  1.00  0.00     0.054 A 
BRANCH  71  72
ATOM     72  S   UNL A   1      44.794  25.168  36.955  1.00  0.00     0.124 S 
ATOM     73  O   UNL A   1      46.173  25.593  36.734  1.00  0.00    -0.237 OA
ATOM     74  O   UNL A   1      44.264  25.396  38.296  1.00  0.00    -0.237 OA
ATOM     75  O   UNL A   1      44.428  23.887  36.354  1.00  0.00    -0.744 OA
ENDBRANCH  71  72
ENDBRANCH  52  66
BRANCH  53  76
ATOM     76  C   UNL A   1      43.605  25.671  26.238  1.00  0.00    -0.014 A 
ATOM     77  C   UNL A   1      44.680  25.433  25.359  1.00  0.00     0.010 A 
ATOM     78  C   UNL A   1      42.800  24.568  26.590  1.00  0.00     0.010 A 
ATOM     79  C   UNL A   1      44.960  24.137  24.882  1.00  0.00     0.020 A 
ATOM     80  C   UNL A   1      43.073  23.275  26.122  1.00  0.00     0.020 A 
ATOM     81  C   UNL A   1      44.161  23.061  25.281  1.00  0.00     0.054 A 
BRANCH  81  82
ATOM     82  S   UNL A   1      44.602  21.368  24.776  1.00  0.00     0.124 S 
ATOM     83  O   UNL A   1      45.905  21.183  25.407  1.00  0.00    -0.237 OA
ATOM     84  O   UNL A   1      43.511  20.573  25.335  1.00  0.00    -0.237 OA
ATOM     85  O   UNL A   1      44.625  21.438  23.316  1.00  0.00    -0.744 OA
ENDBRANCH  81  82
ENDBRANCH  53  76
BRANCH  65  86
ATOM     86  C   UNL A   1      45.100  31.239  28.759  1.00  0.00    -0.014 A 
ATOM     87  C   UNL A   1      44.060  31.790  27.982  1.00  0.00     0.010 A 
ATOM     88  C   UNL A   1      46.386  31.791  28.642  1.00  0.00     0.010 A 
ATOM     89  C   UNL A   1      44.310  32.854  27.100  1.00  0.00     0.020 A 
ATOM     90  C   UNL A   1      46.638  32.860  27.780  1.00  0.00     0.020 A 
ATOM     91  C   UNL A   1      45.602  33.383  27.006  1.00  0.00     0.054 A 
BRANCH  91  92
ATOM     92  S   UNL A   1      45.919  34.790  25.902  1.00  0.00     0.124 S 
ATOM     93  O   UNL A   1      45.518  34.269  24.599  1.00  0.00    -0.237 OA
ATOM     94  O   UNL A   1      45.060  35.836  26.454  1.00  0.00    -0.237 OA
ATOM     95  O   UNL A   1      47.353  35.036  26.055  1.00  0.00    -0.744 OA
ENDBRANCH  91  92
ENDBRANCH  65  86
ENDBRANCH  39  40
ENDBRANCH  32  34
ENDBRANCH  31  32
ENDBRANCH  30  31
ENDBRANCH   1  30
TORSDOF 19
ENDMDL
MODEL 3
REMARK VINA RESULT:     -11.6      3.084      8.299
REMARK SMILES Cc1nsc(NC(=O)[C@H]2Cc3[nH]cnc3C[NH2+]2)c1C(=O)OCCOCCOC(=O)c1ccc(-c2c3nc(c(-c4ccc(S(=O)(=O)[O-])cc4)c4ccc([nH]4)c(-c4ccc(S(=O)(=O)[O-])cc4)c4nc(c(-c5ccc(S(=O)(=O)[O-])cc5)c5ccc2[nH]5)C=C4)C=C3)cc1
REMARK SMILES IDX 25 1 24 2 23 3 22 4 21 5 19 6 20 7 18 8 1 9 2 10 3 11 4 12
REMARK SMILES IDX 5 13 6 14 7 15 8 17 9 18 10 19 17 20 11 21 16 22 12 25 15 26
REMARK SMILES IDX 13 27 14 29 26 30 27 31 28 32 29 33 30 34 31 35 89 36 32 37
REMARK SMILES IDX 88 38 33 39 34 40 35 41 82 42 36 43 87 44 81 45 83 46 37 47
REMARK SMILES IDX 86 48 80 49 79 50 38 52 68 53 49 54 67 55 50 56 53 57 66 58
REMARK SMILES IDX 84 59 51 60 52 61 65 63 85 64 54 65 39 66 40 67 48 68 41 69
REMARK SMILES IDX 47 70 42 71 43 72 44 73 45 74 46 75 69 76 70 77 78 78 71 79
REMARK SMILES IDX 77 80 72 81 73 82 74 83 75 84 76 85 55 86 56 87 64 88 57 89
REMARK SMILES IDX 63 90 58 91 59 92 60 93 61 94 62 95
REMARK H PARENT 6 16 17 23 17 24 12 28 83 51 53 62
REMARK Flexibility Score: inf
ROOT
ATOM      1  C   UNL A   1      32.140  31.726  27.077  1.00  0.00     0.202 C 
ENDROOT
BRANCH   1   2
ATOM      2  O   UNL A   1      32.389  30.517  26.371  1.00  0.00    -0.374 OA
BRANCH   2   3
ATOM      3  C   UNL A   1      33.634  29.838  26.538  1.00  0.00     0.202 C 
BRANCH   3   4
ATOM      4  C   UNL A   1      33.592  28.444  27.173  1.00  0.00     0.261 C 
BRANCH   4   5
ATOM      5  O   UNL A   1      32.920  27.507  26.311  1.00  0.00    -0.460 OA
BRANCH   5   6
ATOM      6  C   UNL A   1      31.613  27.265  26.583  1.00  0.00     0.343 C 
ATOM      7  O   UNL A   1      31.056  27.521  27.650  1.00  0.00    -0.246 OA
BRANCH   6   8
ATOM      8  C   UNL A   1      30.880  26.946  25.373  1.00  0.00     0.117 A 
ATOM      9  C   UNL A   1      32.027  28.531  23.657  1.00  0.00     0.069 C 
ATOM     10  C   UNL A   1      30.958  27.590  24.092  1.00  0.00     0.068 A 
ATOM     11  N   UNL A   1      29.976  27.290  23.237  1.00  0.00    -0.195 NA
ATOM     12  S   UNL A   1      28.904  26.274  24.003  1.00  0.00    -0.017 S 
ATOM     13  C   UNL A   1      29.936  25.936  25.317  1.00  0.00     0.131 A 
BRANCH  13  14
ATOM     14  N   UNL A   1      29.658  25.002  26.279  1.00  0.00    -0.310 N 
ATOM     15  C   UNL A   1      30.279  23.853  26.644  1.00  0.00     0.283 C 
ATOM     16  H   UNL A   1      28.852  25.203  26.808  1.00  0.00     0.171 HD
ATOM     17  O   UNL A   1      29.702  23.230  27.551  1.00  0.00    -0.268 OA
BRANCH  15  18
ATOM     18  C   UNL A   1      31.565  23.285  26.010  1.00  0.00     0.279 C 
ATOM     19  C   UNL A   1      32.961  23.399  26.699  1.00  0.00     0.131 C 
ATOM     20  N   UNL A   1      31.355  21.810  25.705  1.00  0.00    -0.331 N 
ATOM     21  C   UNL A   1      33.876  23.141  25.550  1.00  0.00     0.050 A 
ATOM     22  C   UNL A   1      32.450  21.175  24.914  1.00  0.00     0.320 C 
ATOM     23  H   UNL A   1      30.486  21.715  25.180  1.00  0.00     0.347 HD
ATOM     24  H   UNL A   1      31.333  21.331  26.605  1.00  0.00     0.347 HD
ATOM     25  N   UNL A   1      34.653  24.033  24.867  1.00  0.00    -0.348 N 
ATOM     26  C   UNL A   1      33.573  22.135  24.658  1.00  0.00     0.116 A 
ATOM     27  C   UNL A   1      34.669  23.596  23.564  1.00  0.00     0.197 A 
ATOM     28  H   UNL A   1      35.107  24.825  25.232  1.00  0.00     0.167 HD
ATOM     29  N   UNL A   1      34.091  22.421  23.425  1.00  0.00    -0.236 NA
ENDBRANCH  15  18
ENDBRANCH  13  14
ENDBRANCH   6   8
ENDBRANCH   5   6
ENDBRANCH   4   5
ENDBRANCH   3   4
ENDBRANCH   2   3
ENDBRANCH   1   2
BRANCH   1  30
ATOM     30  C   UNL A   1      33.270  32.358  27.877  1.00  0.00     0.261 C 
BRANCH  30  31
ATOM     31  O   UNL A   1      33.162  33.771  27.949  1.00  0.00    -0.460 OA
BRANCH  31  32
ATOM     32  C   UNL A   1      33.350  34.262  29.196  1.00  0.00     0.338 C 
ATOM     33  O   UNL A   1      32.531  34.848  29.884  1.00  0.00    -0.246 OA
BRANCH  32  34
ATOM     34  C   UNL A   1      34.758  34.098  29.561  1.00  0.00     0.060 A 
ATOM     35  C   UNL A   1      35.707  34.401  28.581  1.00  0.00     0.016 A 
ATOM     36  C   UNL A   1      35.095  33.412  30.736  1.00  0.00     0.016 A 
ATOM     37  C   UNL A   1      36.957  33.835  28.686  1.00  0.00     0.010 A 
ATOM     38  C   UNL A   1      36.340  32.842  30.835  1.00  0.00     0.010 A 
ATOM     39  C   UNL A   1      37.221  32.987  29.768  1.00  0.00    -0.014 A 
BRANCH  39  40
ATOM     40  C   UNL A   1      38.509  32.331  29.839  1.00  0.00     0.031 A 
ATOM     41  C   UNL A   1      38.414  30.903  29.474  1.00  0.00     0.074 A 
ATOM     42  C   UNL A   1      39.651  32.999  30.091  1.00  0.00     0.049 A 
ATOM     43  N   UNL A   1      38.441  29.894  30.277  1.00  0.00    -0.248 NA
ATOM     44  C   UNL A   1      37.999  30.569  28.099  1.00  0.00     0.031 C 
ATOM     45  C   UNL A   1      39.842  34.449  30.221  1.00  0.00     0.029 A 
ATOM     46  N   UNL A   1      40.920  32.520  30.190  1.00  0.00    -0.354 N 
ATOM     47  C   UNL A   1      38.322  28.779  29.460  1.00  0.00     0.074 A 
ATOM     48  C   UNL A   1      37.806  29.253  28.202  1.00  0.00     0.031 C 
ATOM     49  C   UNL A   1      41.163  34.736  30.145  1.00  0.00     0.029 A 
ATOM     50  C   UNL A   1      41.913  33.491  30.111  1.00  0.00     0.049 A 
ATOM     51  H   UNL A   1      41.119  31.563  30.308  1.00  0.00     0.167 HD
ATOM     52  C   UNL A   1      38.982  27.628  29.757  1.00  0.00     0.031 A 
ATOM     53  C   UNL A   1      43.250  33.279  29.992  1.00  0.00     0.031 A 
ATOM     54  C   UNL A   1      39.468  27.639  31.115  1.00  0.00     0.049 A 
ATOM     55  C   UNL A   1      43.505  31.905  30.484  1.00  0.00     0.074 A 
ATOM     56  C   UNL A   1      38.896  27.651  32.368  1.00  0.00     0.029 A 
ATOM     57  N   UNL A   1      40.763  28.076  31.260  1.00  0.00    -0.354 N 
ATOM     58  N   UNL A   1      43.313  31.552  31.725  1.00  0.00    -0.248 NA
ATOM     59  C   UNL A   1      43.536  30.810  29.527  1.00  0.00     0.031 C 
ATOM     60  C   UNL A   1      39.773  28.433  33.177  1.00  0.00     0.029 A 
ATOM     61  C   UNL A   1      40.877  28.814  32.408  1.00  0.00     0.049 A 
ATOM     62  H   UNL A   1      41.499  27.886  30.633  1.00  0.00     0.167 HD
ATOM     63  C   UNL A   1      42.759  30.283  31.650  1.00  0.00     0.074 A 
ATOM     64  C   UNL A   1      43.056  29.826  30.294  1.00  0.00     0.031 C 
ATOM     65  C   UNL A   1      41.868  29.858  32.594  1.00  0.00     0.031 A 
BRANCH  52  66
ATOM     66  C   UNL A   1      39.623  26.761  28.698  1.00  0.00    -0.014 A 
ATOM     67  C   UNL A   1      39.140  25.452  28.511  1.00  0.00     0.010 A 
ATOM     68  C   UNL A   1      40.857  27.079  28.088  1.00  0.00     0.010 A 
ATOM     69  C   UNL A   1      39.880  24.501  27.793  1.00  0.00     0.020 A 
ATOM     70  C   UNL A   1      41.581  26.154  27.338  1.00  0.00     0.020 A 
ATOM     71  C   UNL A   1      41.099  24.860  27.218  1.00  0.00     0.054 A 
BRANCH  71  72
ATOM     72  S   UNL A   1      42.083  23.609  26.359  1.00  0.00     0.124 S 
ATOM     73  O   UNL A   1      42.585  24.358  25.212  1.00  0.00    -0.237 OA
ATOM     74  O   UNL A   1      43.074  23.252  27.371  1.00  0.00    -0.237 OA
ATOM     75  O   UNL A   1      41.110  22.563  26.050  1.00  0.00    -0.744 OA
ENDBRANCH  71  72
ENDBRANCH  52  66
BRANCH  53  76
ATOM     76  C   UNL A   1      44.240  34.047  29.192  1.00  0.00    -0.014 A 
ATOM     77  C   UNL A   1      45.524  34.355  29.684  1.00  0.00     0.010 A 
ATOM     78  C   UNL A   1      44.011  34.237  27.814  1.00  0.00     0.010 A 
ATOM     79  C   UNL A   1      46.548  34.799  28.823  1.00  0.00     0.020 A 
ATOM     80  C   UNL A   1      45.025  34.675  26.950  1.00  0.00     0.020 A 
ATOM     81  C   UNL A   1      46.295  34.941  27.455  1.00  0.00     0.054 A 
BRANCH  81  82
ATOM     82  S   UNL A   1      47.651  35.381  26.322  1.00  0.00     0.124 S 
ATOM     83  O   UNL A   1      47.255  36.708  25.861  1.00  0.00    -0.237 OA
ATOM     84  O   UNL A   1      48.823  35.338  27.193  1.00  0.00    -0.237 OA
ATOM     85  O   UNL A   1      47.603  34.332  25.304  1.00  0.00    -0.744 OA
ENDBRANCH  81  82
ENDBRANCH  53  76
BRANCH  65  86
ATOM     86  C   UNL A   1      41.782  30.647  33.882  1.00  0.00    -0.014 A 
ATOM     87  C   UNL A   1      40.955  31.774  34.068  1.00  0.00     0.010 A 
ATOM     88  C   UNL A   1      42.482  30.143  34.991  1.00  0.00     0.010 A 
ATOM     89  C   UNL A   1      40.848  32.386  35.328  1.00  0.00     0.020 A 
ATOM     90  C   UNL A   1      42.367  30.736  36.249  1.00  0.00     0.020 A 
ATOM     91  C   UNL A   1      41.557  31.860  36.412  1.00  0.00     0.054 A 
BRANCH  91  92
ATOM     92  S   UNL A   1      41.384  32.620  38.053  1.00  0.00     0.124 S 
ATOM     93  O   UNL A   1      41.929  33.958  37.844  1.00  0.00    -0.237 OA
ATOM     94  O   UNL A   1      39.944  32.555  38.291  1.00  0.00    -0.237 OA
ATOM     95  O   UNL A   1      42.183  31.756  38.922  1.00  0.00    -0.744 OA
ENDBRANCH  91  92
ENDBRANCH  65  86
ENDBRANCH  39  40
ENDBRANCH  32  34
ENDBRANCH  31  32
ENDBRANCH  30  31
ENDBRANCH   1  30
TORSDOF 19
ENDMDL
