MODEL 1
REMARK VINA RESULT:     -10.6      0.000      0.000
REMARK SMILES C[C@H]1CCC[C@H](C)N1C(=O)[C@H]1[C@@H](C(=O)OCCOCCOC(=O)c2ccc(-c3c4nc(c(-c5ccc(S(=O)(=O)[O-])cc5)c5ccc([nH]5)c(-c5ccc(S(=O)(=O)[O-])cc5)c5nc(c(-c6ccc(S(=O)(=O)[O-])cc6)c6ccc3[nH]6)C=C5)C=C4)cc2)[C@H]2CC[C@@H]1O2
REMARK SMILES IDX 19 1 18 2 17 3 16 4 15 5 13 6 14 7 12 8 11 9 87 10 84 11
REMARK SMILES IDX 86 12 88 13 85 14 9 15 1 16 2 17 3 18 8 19 4 20 6 21 5 22
REMARK SMILES IDX 7 23 10 24 20 25 21 26 22 27 23 28 24 29 25 30 83 31 26 32
REMARK SMILES IDX 82 33 27 34 28 35 29 36 76 37 30 38 81 39 75 40 77 41 31 42
REMARK SMILES IDX 80 43 74 44 73 45 32 47 62 48 43 49 61 50 44 51 47 52 60 53
REMARK SMILES IDX 78 54 45 55 46 56 59 58 79 59 48 60 33 61 34 62 42 63 35 64
REMARK SMILES IDX 41 65 36 66 37 67 38 68 39 69 40 70 63 71 64 72 72 73 65 74
REMARK SMILES IDX 71 75 66 76 67 77 68 78 69 79 70 80 49 81 50 82 58 83 51 84
REMARK SMILES IDX 57 85 52 86 53 87 54 88 55 89 56 90
REMARK H PARENT 77 46 47 57
REMARK Flexibility Score: inf
ROOT
ATOM      1  C   UNL A   1      31.942  30.733  26.543  1.00  0.00     0.202 C 
ENDROOT
BRANCH   1   2
ATOM      2  O   UNL A   1      31.887  29.502  25.840  1.00  0.00    -0.374 OA
BRANCH   2   3
ATOM      3  C   UNL A   1      33.056  28.775  25.507  1.00  0.00     0.202 C 
BRANCH   3   4
ATOM      4  C   UNL A   1      33.387  27.405  26.142  1.00  0.00     0.261 C 
BRANCH   4   5
ATOM      5  O   UNL A   1      34.160  26.488  25.359  1.00  0.00    -0.463 OA
BRANCH   5   6
ATOM      6  C   UNL A   1      33.825  25.202  25.591  1.00  0.00     0.312 C 
ATOM      7  O   UNL A   1      33.112  24.876  26.531  1.00  0.00    -0.252 OA
BRANCH   6   8
ATOM      8  C   UNL A   1      34.217  24.195  24.529  1.00  0.00     0.143 C 
ATOM      9  C   UNL A   1      33.142  23.878  23.481  1.00  0.00     0.124 C 
ATOM     10  C   UNL A   1      33.508  22.427  23.161  1.00  0.00     0.132 C 
ATOM     11  C   UNL A   1      34.873  22.808  24.934  1.00  0.00     0.133 C 
ATOM     12  C   UNL A   1      33.152  21.283  24.083  1.00  0.00     0.035 C 
ATOM     13  O   UNL A   1      34.925  22.506  23.500  1.00  0.00    -0.373 OA
ATOM     14  C   UNL A   1      34.291  21.348  25.085  1.00  0.00     0.036 C 
BRANCH   9  15
ATOM     15  C   UNL A   1      31.706  24.221  23.858  1.00  0.00     0.229 C 
ATOM     16  C   UNL A   1      32.826  26.498  21.875  1.00  0.00     0.031 C 
ATOM     17  C   UNL A   1      31.731  26.703  22.920  1.00  0.00     0.082 C 
ATOM     18  C   UNL A   1      30.647  27.579  22.264  1.00  0.00     0.025 C 
ATOM     19  N   UNL A   1      31.141  25.494  23.610  1.00  0.00    -0.337 N 
ATOM     20  C   UNL A   1      29.621  28.014  23.293  1.00  0.00     0.004 C 
ATOM     21  C   UNL A   1      29.930  25.771  24.445  1.00  0.00     0.082 C 
ATOM     22  C   UNL A   1      28.942  26.773  23.836  1.00  0.00     0.025 C 
ATOM     23  C   UNL A   1      30.334  26.213  25.860  1.00  0.00     0.031 C 
ATOM     24  O   UNL A   1      31.050  23.356  24.447  1.00  0.00    -0.274 OA
ENDBRANCH   9  15
ENDBRANCH   6   8
ENDBRANCH   5   6
ENDBRANCH   4   5
ENDBRANCH   3   4
ENDBRANCH   2   3
ENDBRANCH   1   2
BRANCH   1  25
ATOM     25  C   UNL A   1      33.255  31.317  27.083  1.00  0.00     0.261 C 
BRANCH  25  26
ATOM     26  O   UNL A   1      33.759  30.691  28.269  1.00  0.00    -0.460 OA
BRANCH  26  27
ATOM     27  C   UNL A   1      34.809  31.332  28.832  1.00  0.00     0.338 C 
ATOM     28  O   UNL A   1      34.781  32.403  29.433  1.00  0.00    -0.246 OA
BRANCH  27  29
ATOM     29  C   UNL A   1      36.004  30.478  28.815  1.00  0.00     0.060 A 
ATOM     30  C   UNL A   1      36.455  29.959  30.038  1.00  0.00     0.016 A 
ATOM     31  C   UNL A   1      36.732  30.282  27.643  1.00  0.00     0.016 A 
ATOM     32  C   UNL A   1      37.667  29.283  30.103  1.00  0.00     0.010 A 
ATOM     33  C   UNL A   1      37.969  29.635  27.715  1.00  0.00     0.010 A 
ATOM     34  C   UNL A   1      38.458  29.180  28.954  1.00  0.00    -0.014 A 
BRANCH  34  35
ATOM     35  C   UNL A   1      39.888  28.838  29.107  1.00  0.00     0.031 A 
ATOM     36  C   UNL A   1      40.810  29.895  29.652  1.00  0.00     0.074 A 
ATOM     37  C   UNL A   1      40.346  27.610  28.813  1.00  0.00     0.049 A 
ATOM     38  N   UNL A   1      42.100  29.849  29.847  1.00  0.00    -0.248 NA
ATOM     39  C   UNL A   1      40.188  31.177  30.031  1.00  0.00     0.031 C 
ATOM     40  C   UNL A   1      39.530  26.490  28.345  1.00  0.00     0.029 A 
ATOM     41  N   UNL A   1      41.619  27.103  28.865  1.00  0.00    -0.354 N 
ATOM     42  C   UNL A   1      42.447  31.095  30.358  1.00  0.00     0.074 A 
ATOM     43  C   UNL A   1      41.238  31.883  30.423  1.00  0.00     0.031 C 
ATOM     44  C   UNL A   1      40.329  25.429  28.137  1.00  0.00     0.029 A 
ATOM     45  C   UNL A   1      41.713  25.806  28.424  1.00  0.00     0.049 A 
ATOM     46  H   UNL A   1      42.392  27.620  29.187  1.00  0.00     0.167 HD
ATOM     47  C   UNL A   1      43.667  31.542  30.739  1.00  0.00     0.031 A 
ATOM     48  C   UNL A   1      42.797  25.025  28.251  1.00  0.00     0.031 A 
ATOM     49  C   UNL A   1      44.868  30.757  30.649  1.00  0.00     0.049 A 
ATOM     50  C   UNL A   1      44.156  25.572  28.604  1.00  0.00     0.074 A 
ATOM     51  C   UNL A   1      46.157  31.112  31.004  1.00  0.00     0.029 A 
ATOM     52  N   UNL A   1      44.928  29.460  30.161  1.00  0.00    -0.354 N 
ATOM     53  N   UNL A   1      44.471  26.749  29.094  1.00  0.00    -0.248 NA
ATOM     54  C   UNL A   1      45.306  24.683  28.390  1.00  0.00     0.031 C 
ATOM     55  C   UNL A   1      47.006  30.050  30.677  1.00  0.00     0.029 A 
ATOM     56  C   UNL A   1      46.236  29.008  30.183  1.00  0.00     0.049 A 
ATOM     57  H   UNL A   1      44.155  28.939  29.845  1.00  0.00     0.167 HD
ATOM     58  C   UNL A   1      45.850  26.727  29.279  1.00  0.00     0.074 A 
ATOM     59  C   UNL A   1      46.306  25.418  28.857  1.00  0.00     0.031 C 
ATOM     60  C   UNL A   1      46.666  27.698  29.760  1.00  0.00     0.031 A 
BRANCH  47  61
ATOM     61  C   UNL A   1      43.763  32.959  31.240  1.00  0.00    -0.014 A 
ATOM     62  C   UNL A   1      43.799  34.050  30.353  1.00  0.00     0.010 A 
ATOM     63  C   UNL A   1      43.795  33.202  32.625  1.00  0.00     0.010 A 
ATOM     64  C   UNL A   1      43.903  35.355  30.841  1.00  0.00     0.020 A 
ATOM     65  C   UNL A   1      43.869  34.507  33.119  1.00  0.00     0.020 A 
ATOM     66  C   UNL A   1      43.939  35.576  32.222  1.00  0.00     0.054 A 
BRANCH  66  67
ATOM     67  S   UNL A   1      44.051  37.281  32.829  1.00  0.00     0.124 S 
ATOM     68  O   UNL A   1      45.315  37.258  33.562  1.00  0.00    -0.237 OA
ATOM     69  O   UNL A   1      44.056  38.061  31.594  1.00  0.00    -0.237 OA
ATOM     70  O   UNL A   1      42.857  37.435  33.656  1.00  0.00    -0.744 OA
ENDBRANCH  66  67
ENDBRANCH  47  61
BRANCH  48  71
ATOM     71  C   UNL A   1      42.644  23.650  27.700  1.00  0.00    -0.014 A 
ATOM     72  C   UNL A   1      42.428  22.553  28.550  1.00  0.00     0.010 A 
ATOM     73  C   UNL A   1      42.714  23.433  26.310  1.00  0.00     0.010 A 
ATOM     74  C   UNL A   1      42.303  21.263  28.026  1.00  0.00     0.020 A 
ATOM     75  C   UNL A   1      42.560  22.150  25.779  1.00  0.00     0.020 A 
ATOM     76  C   UNL A   1      42.367  21.070  26.642  1.00  0.00     0.054 A 
BRANCH  76  77
ATOM     77  S   UNL A   1      42.152  19.394  25.982  1.00  0.00     0.124 S 
ATOM     78  O   UNL A   1      42.550  18.567  27.116  1.00  0.00    -0.237 OA
ATOM     79  O   UNL A   1      40.730  19.368  25.646  1.00  0.00    -0.237 OA
ATOM     80  O   UNL A   1      43.055  19.360  24.834  1.00  0.00    -0.744 OA
ENDBRANCH  76  77
ENDBRANCH  48  71
BRANCH  60  81
ATOM     81  C   UNL A   1      48.129  27.369  29.909  1.00  0.00    -0.014 A 
ATOM     82  C   UNL A   1      49.066  27.731  28.926  1.00  0.00     0.010 A 
ATOM     83  C   UNL A   1      48.577  26.740  31.085  1.00  0.00     0.010 A 
ATOM     84  C   UNL A   1      50.422  27.439  29.104  1.00  0.00     0.020 A 
ATOM     85  C   UNL A   1      49.933  26.474  31.280  1.00  0.00     0.020 A 
ATOM     86  C   UNL A   1      50.846  26.812  30.280  1.00  0.00     0.054 A 
BRANCH  86  87
ATOM     87  S   UNL A   1      52.615  26.481  30.505  1.00  0.00     0.124 S 
ATOM     88  O   UNL A   1      53.023  26.084  29.161  1.00  0.00    -0.237 OA
ATOM     89  O   UNL A   1      53.127  27.771  30.961  1.00  0.00    -0.237 OA
ATOM     90  O   UNL A   1      52.645  25.417  31.506  1.00  0.00    -0.744 OA
ENDBRANCH  86  87
ENDBRANCH  60  81
ENDBRANCH  34  35
ENDBRANCH  27  29
ENDBRANCH  26  27
ENDBRANCH  25  26
ENDBRANCH   1  25
TORSDOF 18
ENDMDL
MODEL 2
REMARK VINA RESULT:     -10.6      2.477      3.936
REMARK SMILES C[C@H]1CCC[C@H](C)N1C(=O)[C@H]1[C@@H](C(=O)OCCOCCOC(=O)c2ccc(-c3c4nc(c(-c5ccc(S(=O)(=O)[O-])cc5)c5ccc([nH]5)c(-c5ccc(S(=O)(=O)[O-])cc5)c5nc(c(-c6ccc(S(=O)(=O)[O-])cc6)c6ccc3[nH]6)C=C5)C=C4)cc2)[C@H]2CC[C@@H]1O2
REMARK SMILES IDX 19 1 18 2 17 3 16 4 15 5 13 6 14 7 12 8 11 9 87 10 84 11
REMARK SMILES IDX 86 12 88 13 85 14 9 15 1 16 2 17 3 18 8 19 4 20 6 21 5 22
REMARK SMILES IDX 7 23 10 24 20 25 21 26 22 27 23 28 24 29 25 30 83 31 26 32
REMARK SMILES IDX 82 33 27 34 28 35 29 36 76 37 30 38 81 39 75 40 77 41 31 42
REMARK SMILES IDX 80 43 74 44 73 45 32 47 62 48 43 49 61 50 44 51 47 52 60 53
REMARK SMILES IDX 78 54 45 55 46 56 59 58 79 59 48 60 33 61 34 62 42 63 35 64
REMARK SMILES IDX 41 65 36 66 37 67 38 68 39 69 40 70 63 71 64 72 72 73 65 74
REMARK SMILES IDX 71 75 66 76 67 77 68 78 69 79 70 80 49 81 50 82 58 83 51 84
REMARK SMILES IDX 57 85 52 86 53 87 54 88 55 89 56 90
REMARK H PARENT 77 46 47 57
REMARK Flexibility Score: inf
ROOT
ATOM      1  C   UNL A   1      34.205  31.450  27.592  1.00  0.00     0.202 C 
ENDROOT
BRANCH   1   2
ATOM      2  O   UNL A   1      33.626  30.314  26.968  1.00  0.00    -0.374 OA
BRANCH   2   3
ATOM      3  C   UNL A   1      32.288  29.922  27.219  1.00  0.00     0.202 C 
BRANCH   3   4
ATOM      4  C   UNL A   1      31.871  28.439  27.344  1.00  0.00     0.261 C 
BRANCH   4   5
ATOM      5  O   UNL A   1      32.721  27.464  26.729  1.00  0.00    -0.463 OA
BRANCH   5   6
ATOM      6  C   UNL A   1      32.024  26.473  26.135  1.00  0.00     0.312 C 
ATOM      7  O   UNL A   1      31.468  25.594  26.781  1.00  0.00    -0.252 OA
BRANCH   6   8
ATOM      8  C   UNL A   1      31.801  26.597  24.642  1.00  0.00     0.143 C 
ATOM      9  C   UNL A   1      32.461  25.516  23.776  1.00  0.00     0.124 C 
ATOM     10  C   UNL A   1      32.721  26.323  22.503  1.00  0.00     0.132 C 
ATOM     11  C   UNL A   1      32.047  27.978  23.901  1.00  0.00     0.133 C 
ATOM     12  C   UNL A   1      33.860  27.311  22.392  1.00  0.00     0.035 C 
ATOM     13  O   UNL A   1      31.646  27.295  22.667  1.00  0.00    -0.373 OA
ATOM     14  C   UNL A   1      33.248  28.539  23.043  1.00  0.00     0.036 C 
BRANCH   9  15
ATOM     15  C   UNL A   1      33.606  24.740  24.417  1.00  0.00     0.229 C 
ATOM     16  C   UNL A   1      31.537  22.642  23.119  1.00  0.00     0.031 C 
ATOM     17  C   UNL A   1      32.456  22.352  24.304  1.00  0.00     0.082 C 
ATOM     18  C   UNL A   1      33.019  20.934  24.094  1.00  0.00     0.025 C 
ATOM     19  N   UNL A   1      33.540  23.347  24.651  1.00  0.00    -0.337 N 
ATOM     20  C   UNL A   1      33.774  20.475  25.326  1.00  0.00     0.004 C 
ATOM     21  C   UNL A   1      34.525  22.876  25.675  1.00  0.00     0.082 C 
ATOM     22  C   UNL A   1      34.948  21.409  25.536  1.00  0.00     0.025 C 
ATOM     23  C   UNL A   1      34.008  23.150  27.095  1.00  0.00     0.031 C 
ATOM     24  O   UNL A   1      34.594  25.385  24.784  1.00  0.00    -0.274 OA
ENDBRANCH   9  15
ENDBRANCH   6   8
ENDBRANCH   5   6
ENDBRANCH   4   5
ENDBRANCH   3   4
ENDBRANCH   2   3
ENDBRANCH   1   2
BRANCH   1  25
ATOM     25  C   UNL A   1      35.146  31.339  28.798  1.00  0.00     0.261 C 
BRANCH  25  26
ATOM     26  O   UNL A   1      35.762  30.058  28.977  1.00  0.00    -0.460 OA
BRANCH  26  27
ATOM     27  C   UNL A   1      36.526  29.958  30.088  1.00  0.00     0.338 C 
ATOM     28  O   UNL A   1      36.141  29.694  31.225  1.00  0.00    -0.246 OA
BRANCH  27  29
ATOM     29  C   UNL A   1      37.952  30.012  29.740  1.00  0.00     0.060 A 
ATOM     30  C   UNL A   1      38.304  29.847  28.393  1.00  0.00     0.016 A 
ATOM     31  C   UNL A   1      38.931  30.108  30.728  1.00  0.00     0.016 A 
ATOM     32  C   UNL A   1      39.640  29.726  28.030  1.00  0.00     0.010 A 
ATOM     33  C   UNL A   1      40.272  29.950  30.369  1.00  0.00     0.010 A 
ATOM     34  C   UNL A   1      40.621  29.710  29.027  1.00  0.00    -0.014 A 
BRANCH  34  35
ATOM     35  C   UNL A   1      41.961  29.181  28.692  1.00  0.00     0.031 A 
ATOM     36  C   UNL A   1      43.124  30.137  28.730  1.00  0.00     0.074 A 
ATOM     37  C   UNL A   1      42.146  27.882  28.406  1.00  0.00     0.049 A 
ATOM     38  N   UNL A   1      44.381  29.924  28.447  1.00  0.00    -0.248 NA
ATOM     39  C   UNL A   1      42.825  31.519  29.147  1.00  0.00     0.031 C 
ATOM     40  C   UNL A   1      41.104  26.856  28.409  1.00  0.00     0.029 A 
ATOM     41  N   UNL A   1      43.286  27.206  28.055  1.00  0.00    -0.354 N 
ATOM     42  C   UNL A   1      45.020  31.143  28.639  1.00  0.00     0.074 A 
ATOM     43  C   UNL A   1      44.012  32.097  29.040  1.00  0.00     0.031 C 
ATOM     44  C   UNL A   1      41.653  25.680  28.058  1.00  0.00     0.029 A 
ATOM     45  C   UNL A   1      43.074  25.878  27.775  1.00  0.00     0.049 A 
ATOM     46  H   UNL A   1      44.173  27.632  28.008  1.00  0.00     0.167 HD
ATOM     47  C   UNL A   1      46.333  31.442  28.493  1.00  0.00     0.031 A 
ATOM     48  C   UNL A   1      43.927  24.941  27.318  1.00  0.00     0.031 A 
ATOM     49  C   UNL A   1      47.324  30.490  28.072  1.00  0.00     0.049 A 
ATOM     50  C   UNL A   1      45.368  25.316  27.083  1.00  0.00     0.074 A 
ATOM     51  C   UNL A   1      48.682  30.685  27.888  1.00  0.00     0.029 A 
ATOM     52  N   UNL A   1      47.063  29.165  27.760  1.00  0.00    -0.354 N 
ATOM     53  N   UNL A   1      45.963  26.471  27.275  1.00  0.00    -0.248 NA
ATOM     54  C   UNL A   1      46.255  24.260  26.578  1.00  0.00     0.031 C 
ATOM     55  C   UNL A   1      49.231  29.493  27.409  1.00  0.00     0.029 A 
ATOM     56  C   UNL A   1      48.229  28.535  27.361  1.00  0.00     0.049 A 
ATOM     57  H   UNL A   1      46.179  28.735  27.813  1.00  0.00     0.167 HD
ATOM     58  C   UNL A   1      47.300  26.269  26.949  1.00  0.00     0.074 A 
ATOM     59  C   UNL A   1      47.427  24.880  26.556  1.00  0.00     0.031 C 
ATOM     60  C   UNL A   1      48.333  27.149  26.977  1.00  0.00     0.031 A 
BRANCH  47  61
ATOM     61  C   UNL A   1      46.754  32.865  28.746  1.00  0.00    -0.014 A 
ATOM     62  C   UNL A   1      46.744  33.827  27.719  1.00  0.00     0.010 A 
ATOM     63  C   UNL A   1      47.148  33.250  30.040  1.00  0.00     0.010 A 
ATOM     64  C   UNL A   1      47.154  35.138  27.975  1.00  0.00     0.020 A 
ATOM     65  C   UNL A   1      47.531  34.568  30.307  1.00  0.00     0.020 A 
ATOM     66  C   UNL A   1      47.547  35.500  29.267  1.00  0.00     0.054 A 
BRANCH  66  67
ATOM     67  S   UNL A   1      48.052  37.214  29.576  1.00  0.00     0.124 S 
ATOM     68  O   UNL A   1      49.506  37.127  29.453  1.00  0.00    -0.237 OA
ATOM     69  O   UNL A   1      47.375  37.945  28.508  1.00  0.00    -0.237 OA
ATOM     70  O   UNL A   1      47.559  37.485  30.924  1.00  0.00    -0.744 OA
ENDBRANCH  66  67
ENDBRANCH  47  61
BRANCH  48  71
ATOM     71  C   UNL A   1      43.438  23.564  27.035  1.00  0.00    -0.014 A 
ATOM     72  C   UNL A   1      43.204  23.139  25.716  1.00  0.00     0.010 A 
ATOM     73  C   UNL A   1      43.202  22.665  28.093  1.00  0.00     0.010 A 
ATOM     74  C   UNL A   1      42.728  21.849  25.461  1.00  0.00     0.020 A 
ATOM     75  C   UNL A   1      42.755  21.366  27.841  1.00  0.00     0.020 A 
ATOM     76  C   UNL A   1      42.509  20.970  26.525  1.00  0.00     0.054 A 
BRANCH  76  77
ATOM     77  S   UNL A   1      41.939  19.285  26.165  1.00  0.00     0.124 S 
ATOM     78  O   UNL A   1      42.717  18.949  24.977  1.00  0.00    -0.237 OA
ATOM     79  O   UNL A   1      42.299  18.564  27.384  1.00  0.00    -0.237 OA
ATOM     80  O   UNL A   1      40.503  19.449  25.949  1.00  0.00    -0.744 OA
ENDBRANCH  76  77
ENDBRANCH  48  71
BRANCH  60  81
ATOM     81  C   UNL A   1      49.701  26.629  26.624  1.00  0.00    -0.014 A 
ATOM     82  C   UNL A   1      50.570  26.120  27.605  1.00  0.00     0.010 A 
ATOM     83  C   UNL A   1      50.097  26.595  25.274  1.00  0.00     0.010 A 
ATOM     84  C   UNL A   1      51.823  25.616  27.244  1.00  0.00     0.020 A 
ATOM     85  C   UNL A   1      51.335  26.065  24.906  1.00  0.00     0.020 A 
ATOM     86  C   UNL A   1      52.198  25.593  25.897  1.00  0.00     0.054 A 
BRANCH  86  87
ATOM     87  S   UNL A   1      53.812  24.896  25.451  1.00  0.00     0.124 S 
ATOM     88  O   UNL A   1      54.558  25.037  26.697  1.00  0.00    -0.237 OA
ATOM     89  O   UNL A   1      53.476  23.527  25.071  1.00  0.00    -0.237 OA
ATOM     90  O   UNL A   1      54.266  25.747  24.353  1.00  0.00    -0.744 OA
ENDBRANCH  86  87
ENDBRANCH  60  81
ENDBRANCH  34  35
ENDBRANCH  27  29
ENDBRANCH  26  27
ENDBRANCH  25  26
ENDBRANCH   1  25
TORSDOF 18
ENDMDL
MODEL 3
REMARK VINA RESULT:     -10.5      2.972      8.928
REMARK SMILES C[C@H]1CCC[C@H](C)N1C(=O)[C@H]1[C@@H](C(=O)OCCOCCOC(=O)c2ccc(-c3c4nc(c(-c5ccc(S(=O)(=O)[O-])cc5)c5ccc([nH]5)c(-c5ccc(S(=O)(=O)[O-])cc5)c5nc(c(-c6ccc(S(=O)(=O)[O-])cc6)c6ccc3[nH]6)C=C5)C=C4)cc2)[C@H]2CC[C@@H]1O2
REMARK SMILES IDX 19 1 18 2 17 3 16 4 15 5 13 6 14 7 12 8 11 9 87 10 84 11
REMARK SMILES IDX 86 12 88 13 85 14 9 15 1 16 2 17 3 18 8 19 4 20 6 21 5 22
REMARK SMILES IDX 7 23 10 24 20 25 21 26 22 27 23 28 24 29 25 30 83 31 26 32
REMARK SMILES IDX 82 33 27 34 28 35 29 36 76 37 30 38 81 39 75 40 77 41 31 42
REMARK SMILES IDX 80 43 74 44 73 45 32 47 62 48 43 49 61 50 44 51 47 52 60 53
REMARK SMILES IDX 78 54 45 55 46 56 59 58 79 59 48 60 33 61 34 62 42 63 35 64
REMARK SMILES IDX 41 65 36 66 37 67 38 68 39 69 40 70 63 71 64 72 72 73 65 74
REMARK SMILES IDX 71 75 66 76 67 77 68 78 69 79 70 80 49 81 50 82 58 83 51 84
REMARK SMILES IDX 57 85 52 86 53 87 54 88 55 89 56 90
REMARK H PARENT 77 46 47 57
REMARK Flexibility Score: inf
ROOT
ATOM      1  C   UNL A   1      39.199  22.103  26.259  1.00  0.00     0.202 C 
ENDROOT
BRANCH   1   2
ATOM      2  O   UNL A   1      38.035  22.749  25.769  1.00  0.00    -0.374 OA
BRANCH   2   3
ATOM      3  C   UNL A   1      37.372  22.311  24.596  1.00  0.00     0.202 C 
BRANCH   3   4
ATOM      4  C   UNL A   1      36.593  23.279  23.676  1.00  0.00     0.261 C 
BRANCH   4   5
ATOM      5  O   UNL A   1      35.495  23.994  24.255  1.00  0.00    -0.463 OA
BRANCH   5   6
ATOM      6  C   UNL A   1      34.324  23.725  23.641  1.00  0.00     0.312 C 
ATOM      7  O   UNL A   1      34.120  24.026  22.472  1.00  0.00    -0.252 OA
BRANCH   6   8
ATOM      8  C   UNL A   1      33.336  22.868  24.405  1.00  0.00     0.143 C 
ATOM      9  C   UNL A   1      32.237  23.627  25.160  1.00  0.00     0.124 C 
ATOM     10  C   UNL A   1      32.007  22.664  26.326  1.00  0.00     0.132 C 
ATOM     11  C   UNL A   1      33.843  21.725  25.381  1.00  0.00     0.133 C 
ATOM     12  C   UNL A   1      32.955  22.578  27.500  1.00  0.00     0.035 C 
ATOM     13  O   UNL A   1      32.431  21.441  25.653  1.00  0.00    -0.373 OA
ATOM     14  C   UNL A   1      34.024  21.651  26.948  1.00  0.00     0.036 C 
BRANCH   9  15
ATOM     15  C   UNL A   1      32.506  25.100  25.447  1.00  0.00     0.229 C 
ATOM     16  C   UNL A   1      29.951  24.878  23.499  1.00  0.00     0.031 C 
ATOM     17  C   UNL A   1      30.899  26.074  23.575  1.00  0.00     0.082 C 
ATOM     18  C   UNL A   1      30.025  27.340  23.508  1.00  0.00     0.025 C 
ATOM     19  N   UNL A   1      31.908  26.140  24.698  1.00  0.00    -0.337 N 
ATOM     20  C   UNL A   1      30.891  28.576  23.360  1.00  0.00     0.004 C 
ATOM     21  C   UNL A   1      32.634  27.443  24.820  1.00  0.00     0.082 C 
ATOM     22  C   UNL A   1      31.768  28.688  24.590  1.00  0.00     0.025 C 
ATOM     23  C   UNL A   1      33.862  27.470  23.898  1.00  0.00     0.031 C 
ATOM     24  O   UNL A   1      33.320  25.365  26.337  1.00  0.00    -0.274 OA
ENDBRANCH   9  15
ENDBRANCH   6   8
ENDBRANCH   5   6
ENDBRANCH   4   5
ENDBRANCH   3   4
ENDBRANCH   2   3
ENDBRANCH   1   2
BRANCH   1  25
ATOM     25  C   UNL A   1      39.463  20.606  26.050  1.00  0.00     0.261 C 
BRANCH  25  26
ATOM     26  O   UNL A   1      40.399  20.017  26.961  1.00  0.00    -0.460 OA
BRANCH  26  27
ATOM     27  C   UNL A   1      41.617  19.774  26.426  1.00  0.00     0.338 C 
ATOM     28  O   UNL A   1      41.943  18.802  25.749  1.00  0.00    -0.246 OA
BRANCH  27  29
ATOM     29  C   UNL A   1      42.493  20.943  26.586  1.00  0.00     0.060 A 
ATOM     30  C   UNL A   1      42.663  21.461  27.878  1.00  0.00     0.016 A 
ATOM     31  C   UNL A   1      43.044  21.585  25.479  1.00  0.00     0.016 A 
ATOM     32  C   UNL A   1      43.346  22.657  28.065  1.00  0.00     0.010 A 
ATOM     33  C   UNL A   1      43.699  22.806  25.662  1.00  0.00     0.010 A 
ATOM     34  C   UNL A   1      43.806  23.365  26.949  1.00  0.00    -0.014 A 
BRANCH  34  35
ATOM     35  C   UNL A   1      44.154  24.793  27.112  1.00  0.00     0.031 A 
ATOM     36  C   UNL A   1      45.586  25.198  26.889  1.00  0.00     0.074 A 
ATOM     37  C   UNL A   1      43.216  25.710  27.404  1.00  0.00     0.049 A 
ATOM     38  N   UNL A   1      46.142  26.374  27.003  1.00  0.00    -0.248 NA
ATOM     39  C   UNL A   1      46.515  24.129  26.480  1.00  0.00     0.031 C 
ATOM     40  C   UNL A   1      41.789  25.439  27.573  1.00  0.00     0.029 A 
ATOM     41  N   UNL A   1      43.332  27.059  27.615  1.00  0.00    -0.354 N 
ATOM     42  C   UNL A   1      47.484  26.187  26.692  1.00  0.00     0.074 A 
ATOM     43  C   UNL A   1      47.665  24.782  26.407  1.00  0.00     0.031 C 
ATOM     44  C   UNL A   1      41.163  26.589  27.877  1.00  0.00     0.029 A 
ATOM     45  C   UNL A   1      42.149  27.666  27.957  1.00  0.00     0.049 A 
ATOM     46  H   UNL A   1      44.183  27.547  27.528  1.00  0.00     0.167 HD
ATOM     47  C   UNL A   1      48.478  27.105  26.649  1.00  0.00     0.031 A 
ATOM     48  C   UNL A   1      41.900  28.940  28.318  1.00  0.00     0.031 A 
ATOM     49  C   UNL A   1      48.292  28.497  26.956  1.00  0.00     0.049 A 
ATOM     50  C   UNL A   1      43.038  29.928  28.343  1.00  0.00     0.074 A 
ATOM     51  C   UNL A   1      49.229  29.514  26.947  1.00  0.00     0.029 A 
ATOM     52  N   UNL A   1      47.085  29.065  27.337  1.00  0.00    -0.354 N 
ATOM     53  N   UNL A   1      44.302  29.741  28.040  1.00  0.00    -0.248 NA
ATOM     54  C   UNL A   1      42.715  31.303  28.751  1.00  0.00     0.031 C 
ATOM     55  C   UNL A   1      48.603  30.686  27.378  1.00  0.00     0.029 A 
ATOM     56  C   UNL A   1      47.259  30.415  27.589  1.00  0.00     0.049 A 
ATOM     57  H   UNL A   1      46.232  28.581  27.417  1.00  0.00     0.167 HD
ATOM     58  C   UNL A   1      44.916  30.981  28.186  1.00  0.00     0.074 A 
ATOM     59  C   UNL A   1      43.883  31.911  28.595  1.00  0.00     0.031 C 
ATOM     60  C   UNL A   1      46.215  31.324  27.993  1.00  0.00     0.031 A 
BRANCH  47  61
ATOM     61  C   UNL A   1      49.860  26.618  26.302  1.00  0.00    -0.014 A 
ATOM     62  C   UNL A   1      50.695  26.031  27.270  1.00  0.00     0.010 A 
ATOM     63  C   UNL A   1      50.321  26.730  24.978  1.00  0.00     0.010 A 
ATOM     64  C   UNL A   1      51.980  25.600  26.928  1.00  0.00     0.020 A 
ATOM     65  C   UNL A   1      51.594  26.274  24.625  1.00  0.00     0.020 A 
ATOM     66  C   UNL A   1      52.423  25.726  25.607  1.00  0.00     0.054 A 
BRANCH  66  67
ATOM     67  S   UNL A   1      54.085  25.137  25.185  1.00  0.00     0.124 S 
ATOM     68  O   UNL A   1      54.372  25.892  23.967  1.00  0.00    -0.237 OA
ATOM     69  O   UNL A   1      54.867  25.518  26.359  1.00  0.00    -0.237 OA
ATOM     70  O   UNL A   1      53.907  23.699  24.997  1.00  0.00    -0.744 OA
ENDBRANCH  66  67
ENDBRANCH  47  61
BRANCH  48  71
ATOM     71  C   UNL A   1      40.522  29.349  28.703  1.00  0.00    -0.014 A 
ATOM     72  C   UNL A   1      40.230  29.753  30.016  1.00  0.00     0.010 A 
ATOM     73  C   UNL A   1      39.487  29.336  27.747  1.00  0.00     0.010 A 
ATOM     74  C   UNL A   1      38.928  30.119  30.373  1.00  0.00     0.020 A 
ATOM     75  C   UNL A   1      38.191  29.728  28.092  1.00  0.00     0.020 A 
ATOM     76  C   UNL A   1      37.917  30.107  29.407  1.00  0.00     0.054 A 
BRANCH  76  77
ATOM     77  S   UNL A   1      36.247  30.634  29.882  1.00  0.00     0.124 S 
ATOM     78  O   UNL A   1      35.905  29.663  30.916  1.00  0.00    -0.237 OA
ATOM     79  O   UNL A   1      36.468  32.002  30.344  1.00  0.00    -0.237 OA
ATOM     80  O   UNL A   1      35.486  30.520  28.639  1.00  0.00    -0.744 OA
ENDBRANCH  76  77
ENDBRANCH  48  71
BRANCH  60  81
ATOM     81  C   UNL A   1      46.587  32.772  28.169  1.00  0.00    -0.014 A 
ATOM     82  C   UNL A   1      46.500  33.688  27.106  1.00  0.00     0.010 A 
ATOM     83  C   UNL A   1      46.973  33.234  29.441  1.00  0.00     0.010 A 
ATOM     84  C   UNL A   1      46.824  35.033  27.307  1.00  0.00     0.020 A 
ATOM     85  C   UNL A   1      47.268  34.582  29.652  1.00  0.00     0.020 A 
ATOM     86  C   UNL A   1      47.206  35.471  28.579  1.00  0.00     0.054 A 
BRANCH  86  87
ATOM     87  S   UNL A   1      47.582  37.228  28.822  1.00  0.00     0.124 S 
ATOM     88  O   UNL A   1      48.458  37.193  29.990  1.00  0.00    -0.237 OA
ATOM     89  O   UNL A   1      48.227  37.596  27.564  1.00  0.00    -0.237 OA
ATOM     90  O   UNL A   1      46.271  37.837  29.045  1.00  0.00    -0.744 OA
ENDBRANCH  86  87
ENDBRANCH  60  81
ENDBRANCH  34  35
ENDBRANCH  27  29
ENDBRANCH  26  27
ENDBRANCH  25  26
ENDBRANCH   1  25
TORSDOF 18
ENDMDL
