MODEL 1
REMARK VINA RESULT:     -11.4      0.000      0.000
REMARK SMILES O=C1O[C@@H](c2ccc(O)c(O)c2)[C@H](C(=O)OCCOCCOC(=O)c2ccc(-c3c4nc(c(-c5ccc(S(=O)(=O)[O-])cc5)c5ccc([nH]5)c(-c5ccc(S(=O)(=O)[O-])cc5)c5nc(c(-c6ccc(S(=O)(=O)[O-])cc6)c6ccc3[nH]6)C=C5)C=C4)cc2)/C1=C\c1ccc(O)c(O)c1
REMARK SMILES IDX 20 1 19 2 18 3 17 4 16 5 14 6 15 7 13 8 1 9 2 10 3 11 85 12
REMARK SMILES IDX 4 13 86 14 5 15 6 16 12 17 7 18 10 19 8 20 11 21 9 23 87 25
REMARK SMILES IDX 88 26 94 27 89 28 92 29 90 30 93 31 91 33 21 35 22 36 23 37
REMARK SMILES IDX 24 38 25 39 26 40 84 41 27 42 83 43 28 44 29 45 30 46 77 47
REMARK SMILES IDX 31 48 82 49 76 50 78 51 32 52 81 53 75 54 74 55 33 57 63 58
REMARK SMILES IDX 44 59 62 60 45 61 48 62 61 63 79 64 46 65 47 66 60 68 80 69
REMARK SMILES IDX 49 70 34 71 35 72 43 73 36 74 42 75 37 76 38 77 39 78 40 79
REMARK SMILES IDX 41 80 64 81 65 82 73 83 66 84 72 85 67 86 68 87 69 88 70 89
REMARK SMILES IDX 71 90 50 91 51 92 59 93 52 94 58 95 53 96 54 97 55 98 56 99
REMARK SMILES IDX 57 100
REMARK H PARENT 11 22 9 24 93 32 91 34 78 56 48 67
REMARK Flexibility Score: inf
ROOT
ATOM      1  C   UNL A   1      31.929  29.061  26.618  1.00  0.00     0.202 C 
ENDROOT
BRANCH   1   2
ATOM      2  O   UNL A   1      32.237  27.764  27.110  1.00  0.00    -0.374 OA
BRANCH   2   3
ATOM      3  C   UNL A   1      31.603  26.634  26.519  1.00  0.00     0.202 C 
BRANCH   3   4
ATOM      4  C   UNL A   1      32.327  25.288  26.568  1.00  0.00     0.261 C 
BRANCH   4   5
ATOM      5  O   UNL A   1      31.411  24.221  26.869  1.00  0.00    -0.463 OA
BRANCH   5   6
ATOM      6  C   UNL A   1      31.463  23.158  26.016  1.00  0.00     0.317 C 
ATOM      7  O   UNL A   1      30.551  22.367  25.825  1.00  0.00    -0.251 OA
BRANCH   6   8
ATOM      8  C   UNL A   1      32.802  23.146  25.294  1.00  0.00     0.182 C 
ATOM      9  O   UNL A   1      32.135  20.855  22.670  1.00  0.00    -0.247 OA
ATOM     10  C   UNL A   1      32.522  21.450  23.660  1.00  0.00     0.335 C 
ATOM     11  O   UNL A   1      33.014  20.873  24.792  1.00  0.00    -0.453 OA
ATOM     12  C   UNL A   1      32.559  22.918  23.843  1.00  0.00     0.056 C 
ATOM     13  C   UNL A   1      33.535  21.877  25.686  1.00  0.00     0.226 C 
ATOM     14  C   UNL A   1      32.388  23.752  22.806  1.00  0.00     0.020 C 
BRANCH  13  15
ATOM     15  C   UNL A   1      35.055  21.967  25.594  1.00  0.00    -0.002 A 
ATOM     16  C   UNL A   1      35.727  23.158  25.940  1.00  0.00     0.012 A 
ATOM     17  C   UNL A   1      35.827  20.851  25.230  1.00  0.00     0.057 A 
ATOM     18  C   UNL A   1      37.126  23.240  25.902  1.00  0.00     0.050 A 
ATOM     19  C   UNL A   1      37.213  20.939  25.196  1.00  0.00     0.157 A 
ATOM     20  C   UNL A   1      37.861  22.123  25.528  1.00  0.00     0.157 A 
BRANCH  19  21
ATOM     21  O   UNL A   1      37.939  19.838  24.847  1.00  0.00    -0.504 OA
ATOM     22  H   UNL A   1      38.729  19.633  25.307  1.00  0.00     0.293 HD
ENDBRANCH  19  21
BRANCH  20  23
ATOM     23  O   UNL A   1      39.228  22.132  25.488  1.00  0.00    -0.504 OA
ATOM     24  H   UNL A   1      39.712  22.637  26.111  1.00  0.00     0.293 HD
ENDBRANCH  20  23
ENDBRANCH  13  15
BRANCH  14  25
ATOM     25  C   UNL A   1      32.442  25.217  22.850  1.00  0.00    -0.021 A 
ATOM     26  C   UNL A   1      33.578  25.881  23.342  1.00  0.00     0.012 A 
ATOM     27  C   UNL A   1      31.382  25.969  22.329  1.00  0.00     0.058 A 
ATOM     28  C   UNL A   1      33.647  27.281  23.340  1.00  0.00     0.051 A 
ATOM     29  C   UNL A   1      31.455  27.359  22.339  1.00  0.00     0.157 A 
ATOM     30  C   UNL A   1      32.574  28.013  22.848  1.00  0.00     0.157 A 
BRANCH  29  31
ATOM     31  O   UNL A   1      30.398  28.086  21.873  1.00  0.00    -0.504 OA
ATOM     32  H   UNL A   1      30.463  29.019  21.809  1.00  0.00     0.293 HD
ENDBRANCH  29  31
BRANCH  30  33
ATOM     33  O   UNL A   1      32.558  29.379  22.863  1.00  0.00    -0.504 OA
ATOM     34  H   UNL A   1      31.851  29.844  22.460  1.00  0.00     0.293 HD
ENDBRANCH  30  33
ENDBRANCH  14  25
ENDBRANCH   6   8
ENDBRANCH   5   6
ENDBRANCH   4   5
ENDBRANCH   3   4
ENDBRANCH   2   3
ENDBRANCH   1   2
BRANCH   1  35
ATOM     35  C   UNL A   1      32.632  30.285  27.218  1.00  0.00     0.261 C 
BRANCH  35  36
ATOM     36  O   UNL A   1      34.053  30.275  27.069  1.00  0.00    -0.460 OA
BRANCH  36  37
ATOM     37  C   UNL A   1      34.708  30.895  28.084  1.00  0.00     0.338 C 
ATOM     38  O   UNL A   1      34.276  31.750  28.835  1.00  0.00    -0.246 OA
BRANCH  37  39
ATOM     39  C   UNL A   1      36.011  30.242  28.270  1.00  0.00     0.060 A 
ATOM     40  C   UNL A   1      36.312  29.733  29.541  1.00  0.00     0.016 A 
ATOM     41  C   UNL A   1      36.933  30.167  27.227  1.00  0.00     0.016 A 
ATOM     42  C   UNL A   1      37.559  29.170  29.783  1.00  0.00     0.010 A 
ATOM     43  C   UNL A   1      38.188  29.617  27.476  1.00  0.00     0.010 A 
ATOM     44  C   UNL A   1      38.515  29.146  28.760  1.00  0.00    -0.014 A 
BRANCH  44  45
ATOM     45  C   UNL A   1      39.913  28.775  29.068  1.00  0.00     0.031 A 
ATOM     46  C   UNL A   1      40.813  29.816  29.668  1.00  0.00     0.074 A 
ATOM     47  C   UNL A   1      40.365  27.537  28.806  1.00  0.00     0.049 A 
ATOM     48  N   UNL A   1      42.093  29.754  29.919  1.00  0.00    -0.248 NA
ATOM     49  C   UNL A   1      40.188  31.102  30.024  1.00  0.00     0.031 C 
ATOM     50  C   UNL A   1      39.560  26.436  28.275  1.00  0.00     0.029 A 
ATOM     51  N   UNL A   1      41.621  27.005  28.938  1.00  0.00    -0.354 N 
ATOM     52  C   UNL A   1      42.433  30.995  30.443  1.00  0.00     0.074 A 
ATOM     53  C   UNL A   1      41.230  31.799  30.451  1.00  0.00     0.031 C 
ATOM     54  C   UNL A   1      40.350  25.361  28.112  1.00  0.00     0.029 A 
ATOM     55  C   UNL A   1      41.719  25.712  28.482  1.00  0.00     0.049 A 
ATOM     56  H   UNL A   1      42.380  27.501  29.324  1.00  0.00     0.167 HD
ATOM     57  C   UNL A   1      43.640  31.424  30.879  1.00  0.00     0.031 A 
ATOM     58  C   UNL A   1      42.799  24.918  28.348  1.00  0.00     0.031 A 
ATOM     59  C   UNL A   1      44.829  30.614  30.855  1.00  0.00     0.049 A 
ATOM     60  C   UNL A   1      44.149  25.444  28.763  1.00  0.00     0.074 A 
ATOM     61  C   UNL A   1      46.100  30.943  31.289  1.00  0.00     0.029 A 
ATOM     62  N   UNL A   1      44.894  29.319  30.363  1.00  0.00    -0.354 N 
ATOM     63  N   UNL A   1      44.455  26.613  29.275  1.00  0.00    -0.248 NA
ATOM     64  C   UNL A   1      45.297  24.544  28.587  1.00  0.00     0.031 C 
ATOM     65  C   UNL A   1      46.949  29.871  30.995  1.00  0.00     0.029 A 
ATOM     66  C   UNL A   1      46.191  28.846  30.452  1.00  0.00     0.049 A 
ATOM     67  H   UNL A   1      44.131  28.811  30.004  1.00  0.00     0.167 HD
ATOM     68  C   UNL A   1      45.825  26.575  29.515  1.00  0.00     0.074 A 
ATOM     69  C   UNL A   1      46.285  25.267  29.098  1.00  0.00     0.031 C 
ATOM     70  C   UNL A   1      46.627  27.535  30.040  1.00  0.00     0.031 A 
BRANCH  57  71
ATOM     71  C   UNL A   1      43.743  32.841  31.376  1.00  0.00    -0.014 A 
ATOM     72  C   UNL A   1      43.566  33.158  32.735  1.00  0.00     0.010 A 
ATOM     73  C   UNL A   1      44.066  33.869  30.471  1.00  0.00     0.010 A 
ATOM     74  C   UNL A   1      43.670  34.482  33.172  1.00  0.00     0.020 A 
ATOM     75  C   UNL A   1      44.202  35.188  30.910  1.00  0.00     0.020 A 
ATOM     76  C   UNL A   1      43.987  35.489  32.256  1.00  0.00     0.054 A 
BRANCH  76  77
ATOM     77  S   UNL A   1      44.141  37.193  32.856  1.00  0.00     0.124 S 
ATOM     78  O   UNL A   1      43.148  37.225  33.926  1.00  0.00    -0.237 OA
ATOM     79  O   UNL A   1      45.534  37.254  33.289  1.00  0.00    -0.237 OA
ATOM     80  O   UNL A   1      43.817  38.004  31.684  1.00  0.00    -0.744 OA
ENDBRANCH  76  77
ENDBRANCH  57  71
BRANCH  58  81
ATOM     81  C   UNL A   1      42.650  23.554  27.773  1.00  0.00    -0.014 A 
ATOM     82  C   UNL A   1      42.276  22.470  28.584  1.00  0.00     0.010 A 
ATOM     83  C   UNL A   1      42.874  23.335  26.400  1.00  0.00     0.010 A 
ATOM     84  C   UNL A   1      42.143  21.189  28.038  1.00  0.00     0.020 A 
ATOM     85  C   UNL A   1      42.712  22.064  25.844  1.00  0.00     0.020 A 
ATOM     86  C   UNL A   1      42.358  20.996  26.670  1.00  0.00     0.054 A 
BRANCH  86  87
ATOM     87  S   UNL A   1      42.132  19.336  25.977  1.00  0.00     0.124 S 
ATOM     88  O   UNL A   1      40.691  19.296  25.747  1.00  0.00    -0.237 OA
ATOM     89  O   UNL A   1      42.965  19.382  24.777  1.00  0.00    -0.237 OA
ATOM     90  O   UNL A   1      42.623  18.454  27.033  1.00  0.00    -0.744 OA
ENDBRANCH  86  87
ENDBRANCH  58  81
BRANCH  70  91
ATOM     91  C   UNL A   1      48.082  27.199  30.244  1.00  0.00    -0.014 A 
ATOM     92  C   UNL A   1      49.055  27.542  29.291  1.00  0.00     0.010 A 
ATOM     93  C   UNL A   1      48.487  26.617  31.461  1.00  0.00     0.010 A 
ATOM     94  C   UNL A   1      50.407  27.297  29.545  1.00  0.00     0.020 A 
ATOM     95  C   UNL A   1      49.839  26.399  31.732  1.00  0.00     0.020 A 
ATOM     96  C   UNL A   1      50.792  26.734  30.768  1.00  0.00     0.054 A 
BRANCH  96  97
ATOM     97  S   UNL A   1      52.558  26.503  31.104  1.00  0.00     0.124 S 
ATOM     98  O   UNL A   1      53.098  26.292  29.764  1.00  0.00    -0.237 OA
ATOM     99  O   UNL A   1      52.929  27.764  31.740  1.00  0.00    -0.237 OA
ATOM    100  O   UNL A   1      52.595  25.335  31.982  1.00  0.00    -0.744 OA
ENDBRANCH  96  97
ENDBRANCH  70  91
ENDBRANCH  44  45
ENDBRANCH  37  39
ENDBRANCH  36  37
ENDBRANCH  35  36
ENDBRANCH   1  35
TORSDOF 23
ENDMDL
MODEL 2
REMARK VINA RESULT:     -11.3      2.846      4.576
REMARK SMILES O=C1O[C@@H](c2ccc(O)c(O)c2)[C@H](C(=O)OCCOCCOC(=O)c2ccc(-c3c4nc(c(-c5ccc(S(=O)(=O)[O-])cc5)c5ccc([nH]5)c(-c5ccc(S(=O)(=O)[O-])cc5)c5nc(c(-c6ccc(S(=O)(=O)[O-])cc6)c6ccc3[nH]6)C=C5)C=C4)cc2)/C1=C\c1ccc(O)c(O)c1
REMARK SMILES IDX 20 1 19 2 18 3 17 4 16 5 14 6 15 7 13 8 1 9 2 10 3 11 85 12
REMARK SMILES IDX 4 13 86 14 5 15 6 16 12 17 7 18 10 19 8 20 11 21 9 23 87 25
REMARK SMILES IDX 88 26 94 27 89 28 92 29 90 30 93 31 91 33 21 35 22 36 23 37
REMARK SMILES IDX 24 38 25 39 26 40 84 41 27 42 83 43 28 44 29 45 30 46 77 47
REMARK SMILES IDX 31 48 82 49 76 50 78 51 32 52 81 53 75 54 74 55 33 57 63 58
REMARK SMILES IDX 44 59 62 60 45 61 48 62 61 63 79 64 46 65 47 66 60 68 80 69
REMARK SMILES IDX 49 70 34 71 35 72 43 73 36 74 42 75 37 76 38 77 39 78 40 79
REMARK SMILES IDX 41 80 64 81 65 82 73 83 66 84 72 85 67 86 68 87 69 88 70 89
REMARK SMILES IDX 71 90 50 91 51 92 59 93 52 94 58 95 53 96 54 97 55 98 56 99
REMARK SMILES IDX 57 100
REMARK H PARENT 11 22 9 24 93 32 91 34 78 56 48 67
REMARK Flexibility Score: inf
ROOT
ATOM      1  C   UNL A   1      33.912  28.637  26.999  1.00  0.00     0.202 C 
ENDROOT
BRANCH   1   2
ATOM      2  O   UNL A   1      34.064  28.474  25.596  1.00  0.00    -0.374 OA
BRANCH   2   3
ATOM      3  C   UNL A   1      33.672  27.242  24.998  1.00  0.00     0.202 C 
BRANCH   3   4
ATOM      4  C   UNL A   1      33.448  26.033  25.907  1.00  0.00     0.261 C 
BRANCH   4   5
ATOM      5  O   UNL A   1      33.810  24.812  25.239  1.00  0.00    -0.463 OA
BRANCH   5   6
ATOM      6  C   UNL A   1      33.189  23.693  25.709  1.00  0.00     0.317 C 
ATOM      7  O   UNL A   1      32.312  23.682  26.561  1.00  0.00    -0.251 OA
BRANCH   6   8
ATOM      8  C   UNL A   1      33.706  22.470  24.968  1.00  0.00     0.182 C 
ATOM      9  O   UNL A   1      33.663  23.638  21.618  1.00  0.00    -0.247 OA
ATOM     10  C   UNL A   1      33.481  23.081  22.687  1.00  0.00     0.335 C 
ATOM     11  O   UNL A   1      32.325  22.477  23.082  1.00  0.00    -0.453 OA
ATOM     12  C   UNL A   1      34.473  22.924  23.775  1.00  0.00     0.056 C 
ATOM     13  C   UNL A   1      32.521  21.774  24.325  1.00  0.00     0.226 C 
ATOM     14  C   UNL A   1      35.773  23.181  23.571  1.00  0.00     0.020 C 
BRANCH  13  15
ATOM     15  C   UNL A   1      32.712  20.278  24.093  1.00  0.00    -0.002 A 
ATOM     16  C   UNL A   1      33.364  19.479  25.055  1.00  0.00     0.012 A 
ATOM     17  C   UNL A   1      32.184  19.648  22.953  1.00  0.00     0.057 A 
ATOM     18  C   UNL A   1      33.507  18.096  24.874  1.00  0.00     0.050 A 
ATOM     19  C   UNL A   1      32.328  18.277  22.782  1.00  0.00     0.157 A 
ATOM     20  C   UNL A   1      32.984  17.504  23.732  1.00  0.00     0.157 A 
BRANCH  19  21
ATOM     21  O   UNL A   1      31.800  17.690  21.669  1.00  0.00    -0.504 OA
ATOM     22  H   UNL A   1      31.337  16.878  21.743  1.00  0.00     0.293 HD
ENDBRANCH  19  21
BRANCH  20  23
ATOM     23  O   UNL A   1      33.075  16.159  23.504  1.00  0.00    -0.504 OA
ATOM     24  H   UNL A   1      32.316  15.676  23.242  1.00  0.00     0.293 HD
ENDBRANCH  20  23
ENDBRANCH  13  15
BRANCH  14  25
ATOM     25  C   UNL A   1      36.854  23.026  24.550  1.00  0.00    -0.021 A 
ATOM     26  C   UNL A   1      37.194  24.076  25.420  1.00  0.00     0.012 A 
ATOM     27  C   UNL A   1      37.511  21.795  24.674  1.00  0.00     0.058 A 
ATOM     28  C   UNL A   1      38.196  23.910  26.387  1.00  0.00     0.051 A 
ATOM     29  C   UNL A   1      38.510  21.643  25.631  1.00  0.00     0.157 A 
ATOM     30  C   UNL A   1      38.858  22.694  26.476  1.00  0.00     0.157 A 
BRANCH  29  31
ATOM     31  O   UNL A   1      39.179  20.455  25.714  1.00  0.00    -0.504 OA
ATOM     32  H   UNL A   1      39.633  20.120  24.966  1.00  0.00     0.293 HD
ENDBRANCH  29  31
BRANCH  30  33
ATOM     33  O   UNL A   1      39.876  22.484  27.363  1.00  0.00    -0.504 OA
ATOM     34  H   UNL A   1      40.754  22.377  27.052  1.00  0.00     0.293 HD
ENDBRANCH  30  33
ENDBRANCH  14  25
ENDBRANCH   6   8
ENDBRANCH   5   6
ENDBRANCH   4   5
ENDBRANCH   3   4
ENDBRANCH   2   3
ENDBRANCH   1   2
BRANCH   1  35
ATOM     35  C   UNL A   1      34.675  29.756  27.719  1.00  0.00     0.261 C 
BRANCH  35  36
ATOM     36  O   UNL A   1      36.092  29.703  27.547  1.00  0.00    -0.460 OA
BRANCH  36  37
ATOM     37  C   UNL A   1      36.775  29.576  28.714  1.00  0.00     0.338 C 
ATOM     38  O   UNL A   1      36.333  29.652  29.845  1.00  0.00    -0.246 OA
BRANCH  37  39
ATOM     39  C   UNL A   1      38.146  29.143  28.411  1.00  0.00     0.060 A 
ATOM     40  C   UNL A   1      38.893  28.564  29.446  1.00  0.00     0.016 A 
ATOM     41  C   UNL A   1      38.698  29.340  27.146  1.00  0.00     0.016 A 
ATOM     42  C   UNL A   1      40.217  28.204  29.225  1.00  0.00     0.010 A 
ATOM     43  C   UNL A   1      40.031  28.993  26.931  1.00  0.00     0.010 A 
ATOM     44  C   UNL A   1      40.801  28.454  27.978  1.00  0.00    -0.014 A 
BRANCH  44  45
ATOM     45  C   UNL A   1      42.262  28.302  27.805  1.00  0.00     0.031 A 
ATOM     46  C   UNL A   1      43.144  29.478  28.109  1.00  0.00     0.074 A 
ATOM     47  C   UNL A   1      42.782  27.140  27.376  1.00  0.00     0.049 A 
ATOM     48  N   UNL A   1      44.431  29.613  27.931  1.00  0.00    -0.248 NA
ATOM     49  C   UNL A   1      42.486  30.664  28.686  1.00  0.00     0.031 C 
ATOM     50  C   UNL A   1      42.020  25.921  27.103  1.00  0.00     0.029 A 
ATOM     51  N   UNL A   1      44.077  26.804  27.078  1.00  0.00    -0.354 N 
ATOM     52  C   UNL A   1      44.735  30.902  28.351  1.00  0.00     0.074 A 
ATOM     53  C   UNL A   1      43.495  31.517  28.771  1.00  0.00     0.031 C 
ATOM     54  C   UNL A   1      42.864  24.972  26.663  1.00  0.00     0.029 A 
ATOM     55  C   UNL A   1      44.211  25.531  26.579  1.00  0.00     0.049 A 
ATOM     56  H   UNL A   1      44.838  27.415  27.211  1.00  0.00     0.167 HD
ATOM     57  C   UNL A   1      45.941  31.514  28.385  1.00  0.00     0.031 A 
ATOM     58  C   UNL A   1      45.294  24.904  26.080  1.00  0.00     0.031 A 
ATOM     59  C   UNL A   1      47.163  30.890  27.954  1.00  0.00     0.049 A 
ATOM     60  C   UNL A   1      46.612  25.633  26.049  1.00  0.00     0.074 A 
ATOM     61  C   UNL A   1      48.443  31.413  27.961  1.00  0.00     0.029 A 
ATOM     62  N   UNL A   1      47.255  29.609  27.430  1.00  0.00    -0.354 N 
ATOM     63  N   UNL A   1      46.891  26.845  26.467  1.00  0.00    -0.248 NA
ATOM     64  C   UNL A   1      47.760  24.911  25.485  1.00  0.00     0.031 C 
ATOM     65  C   UNL A   1      49.299  30.474  27.378  1.00  0.00     0.029 A 
ATOM     66  C   UNL A   1      48.566  29.336  27.080  1.00  0.00     0.049 A 
ATOM     67  H   UNL A   1      46.501  28.986  27.324  1.00  0.00     0.167 HD
ATOM     68  C   UNL A   1      48.255  27.017  26.249  1.00  0.00     0.074 A 
ATOM     69  C   UNL A   1      48.743  25.783  25.668  1.00  0.00     0.031 C 
ATOM     70  C   UNL A   1      49.033  28.096  26.512  1.00  0.00     0.031 A 
BRANCH  57  71
ATOM     71  C   UNL A   1      45.990  32.942  28.861  1.00  0.00    -0.014 A 
ATOM     72  C   UNL A   1      46.326  33.262  30.189  1.00  0.00     0.010 A 
ATOM     73  C   UNL A   1      45.734  33.983  27.951  1.00  0.00     0.010 A 
ATOM     74  C   UNL A   1      46.368  34.595  30.606  1.00  0.00     0.020 A 
ATOM     75  C   UNL A   1      45.805  35.318  28.356  1.00  0.00     0.020 A 
ATOM     76  C   UNL A   1      46.106  35.615  29.686  1.00  0.00     0.054 A 
BRANCH  76  77
ATOM     77  S   UNL A   1      46.192  37.337  30.250  1.00  0.00     0.124 S 
ATOM     78  O   UNL A   1      47.057  37.226  31.421  1.00  0.00    -0.237 OA
ATOM     79  O   UNL A   1      46.776  38.020  29.099  1.00  0.00    -0.237 OA
ATOM     80  O   UNL A   1      44.800  37.678  30.536  1.00  0.00    -0.744 OA
ENDBRANCH  76  77
ENDBRANCH  57  71
BRANCH  58  81
ATOM     81  C   UNL A   1      45.169  23.520  25.545  1.00  0.00    -0.014 A 
ATOM     82  C   UNL A   1      45.392  22.408  26.373  1.00  0.00     0.010 A 
ATOM     83  C   UNL A   1      44.815  23.309  24.199  1.00  0.00     0.010 A 
ATOM     84  C   UNL A   1      45.279  21.110  25.863  1.00  0.00     0.020 A 
ATOM     85  C   UNL A   1      44.670  22.015  23.693  1.00  0.00     0.020 A 
ATOM     86  C   UNL A   1      44.914  20.924  24.527  1.00  0.00     0.054 A 
BRANCH  86  87
ATOM     87  S   UNL A   1      44.726  19.232  23.901  1.00  0.00     0.124 S 
ATOM     88  O   UNL A   1      45.970  18.606  24.338  1.00  0.00    -0.237 OA
ATOM     89  O   UNL A   1      43.515  18.779  24.583  1.00  0.00    -0.237 OA
ATOM     90  O   UNL A   1      44.589  19.414  22.458  1.00  0.00    -0.744 OA
ENDBRANCH  86  87
ENDBRANCH  58  81
BRANCH  70  91
ATOM     91  C   UNL A   1      50.508  27.985  26.225  1.00  0.00    -0.014 A 
ATOM     92  C   UNL A   1      51.428  27.636  27.227  1.00  0.00     0.010 A 
ATOM     93  C   UNL A   1      50.962  28.139  24.900  1.00  0.00     0.010 A 
ATOM     94  C   UNL A   1      52.777  27.455  26.915  1.00  0.00     0.020 A 
ATOM     95  C   UNL A   1      52.304  27.928  24.578  1.00  0.00     0.020 A 
ATOM     96  C   UNL A   1      53.206  27.594  25.590  1.00  0.00     0.054 A 
BRANCH  96  97
ATOM     97  S   UNL A   1      54.947  27.274  25.198  1.00  0.00     0.124 S 
ATOM     98  O   UNL A   1      55.489  28.627  25.094  1.00  0.00    -0.237 OA
ATOM     99  O   UNL A   1      55.397  26.504  26.354  1.00  0.00    -0.237 OA
ATOM    100  O   UNL A   1      54.890  26.527  23.943  1.00  0.00    -0.744 OA
ENDBRANCH  96  97
ENDBRANCH  70  91
ENDBRANCH  44  45
ENDBRANCH  37  39
ENDBRANCH  36  37
ENDBRANCH  35  36
ENDBRANCH   1  35
TORSDOF 23
ENDMDL
MODEL 3
REMARK VINA RESULT:     -11.0      0.999      7.897
REMARK SMILES O=C1O[C@@H](c2ccc(O)c(O)c2)[C@H](C(=O)OCCOCCOC(=O)c2ccc(-c3c4nc(c(-c5ccc(S(=O)(=O)[O-])cc5)c5ccc([nH]5)c(-c5ccc(S(=O)(=O)[O-])cc5)c5nc(c(-c6ccc(S(=O)(=O)[O-])cc6)c6ccc3[nH]6)C=C5)C=C4)cc2)/C1=C\c1ccc(O)c(O)c1
REMARK SMILES IDX 20 1 19 2 18 3 17 4 16 5 14 6 15 7 13 8 1 9 2 10 3 11 85 12
REMARK SMILES IDX 4 13 86 14 5 15 6 16 12 17 7 18 10 19 8 20 11 21 9 23 87 25
REMARK SMILES IDX 88 26 94 27 89 28 92 29 90 30 93 31 91 33 21 35 22 36 23 37
REMARK SMILES IDX 24 38 25 39 26 40 84 41 27 42 83 43 28 44 29 45 30 46 77 47
REMARK SMILES IDX 31 48 82 49 76 50 78 51 32 52 81 53 75 54 74 55 33 57 63 58
REMARK SMILES IDX 44 59 62 60 45 61 48 62 61 63 79 64 46 65 47 66 60 68 80 69
REMARK SMILES IDX 49 70 34 71 35 72 43 73 36 74 42 75 37 76 38 77 39 78 40 79
REMARK SMILES IDX 41 80 64 81 65 82 73 83 66 84 72 85 67 86 68 87 69 88 70 89
REMARK SMILES IDX 71 90 50 91 51 92 59 93 52 94 58 95 53 96 54 97 55 98 56 99
REMARK SMILES IDX 57 100
REMARK H PARENT 11 22 9 24 93 32 91 34 78 56 48 67
REMARK Flexibility Score: inf
ROOT
ATOM      1  C   UNL A   1      32.086  28.229  26.527  1.00  0.00     0.202 C 
ENDROOT
BRANCH   1   2
ATOM      2  O   UNL A   1      31.419  27.017  26.852  1.00  0.00    -0.374 OA
BRANCH   2   3
ATOM      3  C   UNL A   1      30.563  26.420  25.883  1.00  0.00     0.202 C 
BRANCH   3   4
ATOM      4  C   UNL A   1      29.947  25.057  26.201  1.00  0.00     0.261 C 
BRANCH   4   5
ATOM      5  O   UNL A   1      30.657  24.002  25.531  1.00  0.00    -0.463 OA
BRANCH   5   6
ATOM      6  C   UNL A   1      31.609  23.380  26.283  1.00  0.00     0.317 C 
ATOM      7  O   UNL A   1      31.423  22.897  27.391  1.00  0.00    -0.251 OA
BRANCH   6   8
ATOM      8  C   UNL A   1      32.917  23.322  25.510  1.00  0.00     0.182 C 
ATOM      9  O   UNL A   1      32.147  20.881  23.055  1.00  0.00    -0.247 OA
ATOM     10  C   UNL A   1      32.573  21.534  23.992  1.00  0.00     0.335 C 
ATOM     11  O   UNL A   1      33.111  21.023  25.135  1.00  0.00    -0.453 OA
ATOM     12  C   UNL A   1      32.616  23.010  24.086  1.00  0.00     0.056 C 
ATOM     13  C   UNL A   1      33.667  22.077  25.946  1.00  0.00     0.226 C 
ATOM     14  C   UNL A   1      32.403  23.781  23.009  1.00  0.00     0.020 C 
BRANCH  13  15
ATOM     15  C   UNL A   1      35.182  22.160  25.787  1.00  0.00    -0.002 A 
ATOM     16  C   UNL A   1      35.873  23.350  26.098  1.00  0.00     0.012 A 
ATOM     17  C   UNL A   1      35.932  21.038  25.397  1.00  0.00     0.057 A 
ATOM     18  C   UNL A   1      37.271  23.424  25.998  1.00  0.00     0.050 A 
ATOM     19  C   UNL A   1      37.315  21.119  25.302  1.00  0.00     0.157 A 
ATOM     20  C   UNL A   1      37.983  22.301  25.599  1.00  0.00     0.157 A 
BRANCH  19  21
ATOM     21  O   UNL A   1      38.020  20.012  24.928  1.00  0.00    -0.504 OA
ATOM     22  H   UNL A   1      37.758  19.165  25.232  1.00  0.00     0.293 HD
ENDBRANCH  19  21
BRANCH  20  23
ATOM     23  O   UNL A   1      39.347  22.304  25.499  1.00  0.00    -0.504 OA
ATOM     24  H   UNL A   1      39.797  23.088  25.254  1.00  0.00     0.293 HD
ENDBRANCH  20  23
ENDBRANCH  13  15
BRANCH  14  25
ATOM     25  C   UNL A   1      32.458  25.246  22.964  1.00  0.00    -0.021 A 
ATOM     26  C   UNL A   1      33.583  25.940  23.439  1.00  0.00     0.012 A 
ATOM     27  C   UNL A   1      31.410  25.964  22.374  1.00  0.00     0.058 A 
ATOM     28  C   UNL A   1      33.653  27.337  23.353  1.00  0.00     0.051 A 
ATOM     29  C   UNL A   1      31.484  27.352  22.300  1.00  0.00     0.157 A 
ATOM     30  C   UNL A   1      32.592  28.036  22.793  1.00  0.00     0.157 A 
BRANCH  29  31
ATOM     31  O   UNL A   1      30.438  28.049  21.767  1.00  0.00    -0.504 OA
ATOM     32  H   UNL A   1      30.499  28.392  20.897  1.00  0.00     0.293 HD
ENDBRANCH  29  31
BRANCH  30  33
ATOM     33  O   UNL A   1      32.578  29.401  22.724  1.00  0.00    -0.504 OA
ATOM     34  H   UNL A   1      33.372  29.885  22.845  1.00  0.00     0.293 HD
ENDBRANCH  30  33
ENDBRANCH  14  25
ENDBRANCH   6   8
ENDBRANCH   5   6
ENDBRANCH   4   5
ENDBRANCH   3   4
ENDBRANCH   2   3
ENDBRANCH   1   2
BRANCH   1  35
ATOM     35  C   UNL A   1      33.355  28.624  27.293  1.00  0.00     0.261 C 
BRANCH  35  36
ATOM     36  O   UNL A   1      33.988  29.808  26.804  1.00  0.00    -0.460 OA
BRANCH  36  37
ATOM     37  C   UNL A   1      34.540  30.571  27.783  1.00  0.00     0.338 C 
ATOM     38  O   UNL A   1      33.996  31.435  28.446  1.00  0.00    -0.246 OA
BRANCH  37  39
ATOM     39  C   UNL A   1      35.893  30.070  28.062  1.00  0.00     0.060 A 
ATOM     40  C   UNL A   1      36.173  29.636  29.365  1.00  0.00     0.016 A 
ATOM     41  C   UNL A   1      36.875  30.067  27.073  1.00  0.00     0.016 A 
ATOM     42  C   UNL A   1      37.458  29.220  29.693  1.00  0.00     0.010 A 
ATOM     43  C   UNL A   1      38.167  29.664  27.409  1.00  0.00     0.010 A 
ATOM     44  C   UNL A   1      38.468  29.270  28.726  1.00  0.00    -0.014 A 
BRANCH  44  45
ATOM     45  C   UNL A   1      39.877  29.064  29.121  1.00  0.00     0.031 A 
ATOM     46  C   UNL A   1      40.528  27.752  28.789  1.00  0.00     0.074 A 
ATOM     47  C   UNL A   1      40.553  30.027  29.770  1.00  0.00     0.049 A 
ATOM     48  N   UNL A   1      41.709  27.308  29.127  1.00  0.00    -0.248 NA
ATOM     49  C   UNL A   1      39.739  26.813  27.973  1.00  0.00     0.031 C 
ATOM     50  C   UNL A   1      40.033  31.356  30.093  1.00  0.00     0.029 A 
ATOM     51  N   UNL A   1      41.822  30.025  30.288  1.00  0.00    -0.354 N 
ATOM     52  C   UNL A   1      41.799  26.032  28.586  1.00  0.00     0.074 A 
ATOM     53  C   UNL A   1      40.545  25.763  27.917  1.00  0.00     0.031 C 
ATOM     54  C   UNL A   1      40.974  32.037  30.770  1.00  0.00     0.029 A 
ATOM     55  C   UNL A   1      42.138  31.178  30.967  1.00  0.00     0.049 A 
ATOM     56  H   UNL A   1      42.447  29.272  30.184  1.00  0.00     0.167 HD
ATOM     57  C   UNL A   1      42.836  25.165  28.641  1.00  0.00     0.031 A 
ATOM     58  C   UNL A   1      43.230  31.486  31.693  1.00  0.00     0.031 A 
ATOM     59  C   UNL A   1      44.073  25.445  29.319  1.00  0.00     0.049 A 
ATOM     60  C   UNL A   1      44.340  30.474  31.810  1.00  0.00     0.074 A 
ATOM     61  C   UNL A   1      45.196  24.644  29.422  1.00  0.00     0.029 A 
ATOM     62  N   UNL A   1      44.346  26.613  30.016  1.00  0.00    -0.354 N 
ATOM     63  N   UNL A   1      44.421  29.277  31.278  1.00  0.00    -0.248 NA
ATOM     64  C   UNL A   1      45.505  30.853  32.621  1.00  0.00     0.031 C 
ATOM     65  C   UNL A   1      46.122  25.299  30.239  1.00  0.00     0.029 A 
ATOM     66  C   UNL A   1      45.608  26.540  30.580  1.00  0.00     0.049 A 
ATOM     67  H   UNL A   1      43.734  27.379  30.098  1.00  0.00     0.167 HD
ATOM     68  C   UNL A   1      45.662  28.776  31.661  1.00  0.00     0.074 A 
ATOM     69  C   UNL A   1      46.296  29.801  32.463  1.00  0.00     0.031 C 
ATOM     70  C   UNL A   1      46.226  27.578  31.368  1.00  0.00     0.031 A 
BRANCH  57  71
ATOM     71  C   UNL A   1      42.660  23.818  27.990  1.00  0.00    -0.014 A 
ATOM     72  C   UNL A   1      43.024  23.597  26.649  1.00  0.00     0.010 A 
ATOM     73  C   UNL A   1      42.158  22.745  28.748  1.00  0.00     0.010 A 
ATOM     74  C   UNL A   1      42.854  22.337  26.069  1.00  0.00     0.020 A 
ATOM     75  C   UNL A   1      42.015  21.476  28.180  1.00  0.00     0.020 A 
ATOM     76  C   UNL A   1      42.350  21.284  26.839  1.00  0.00     0.054 A 
BRANCH  76  77
ATOM     77  S   UNL A   1      42.163  19.655  26.066  1.00  0.00     0.124 S 
ATOM     78  O   UNL A   1      43.089  19.748  24.941  1.00  0.00    -0.237 OA
ATOM     79  O   UNL A   1      42.564  18.746  27.137  1.00  0.00    -0.237 OA
ATOM     80  O   UNL A   1      40.748  19.602  25.704  1.00  0.00    -0.744 OA
ENDBRANCH  76  77
ENDBRANCH  57  71
BRANCH  58  81
ATOM     81  C   UNL A   1      43.314  32.802  32.384  1.00  0.00    -0.014 A 
ATOM     82  C   UNL A   1      42.812  32.962  33.686  1.00  0.00     0.010 A 
ATOM     83  C   UNL A   1      43.908  33.904  31.741  1.00  0.00     0.010 A 
ATOM     84  C   UNL A   1      42.887  34.203  34.327  1.00  0.00     0.020 A 
ATOM     85  C   UNL A   1      44.014  35.137  32.389  1.00  0.00     0.020 A 
ATOM     86  C   UNL A   1      43.493  35.281  33.675  1.00  0.00     0.054 A 
BRANCH  86  87
ATOM     87  S   UNL A   1      43.623  36.866  34.546  1.00  0.00     0.124 S 
ATOM     88  O   UNL A   1      44.150  37.743  33.505  1.00  0.00    -0.237 OA
ATOM     89  O   UNL A   1      42.240  37.117  34.947  1.00  0.00    -0.237 OA
ATOM     90  O   UNL A   1      44.540  36.577  35.646  1.00  0.00    -0.744 OA
ENDBRANCH  86  87
ENDBRANCH  58  81
BRANCH  70  91
ATOM     91  C   UNL A   1      47.622  27.317  31.872  1.00  0.00    -0.014 A 
ATOM     92  C   UNL A   1      48.753  27.751  31.161  1.00  0.00     0.010 A 
ATOM     93  C   UNL A   1      47.794  26.712  33.132  1.00  0.00     0.010 A 
ATOM     94  C   UNL A   1      50.032  27.574  31.694  1.00  0.00     0.020 A 
ATOM     95  C   UNL A   1      49.068  26.560  33.682  1.00  0.00     0.020 A 
ATOM     96  C   UNL A   1      50.181  26.986  32.956  1.00  0.00     0.054 A 
BRANCH  96  97
ATOM     97  S   UNL A   1      51.846  26.842  33.659  1.00  0.00     0.124 S 
ATOM     98  O   UNL A   1      52.552  27.936  32.996  1.00  0.00    -0.237 OA
ATOM     99  O   UNL A   1      51.604  27.025  35.088  1.00  0.00    -0.237 OA
ATOM    100  O   UNL A   1      52.272  25.499  33.272  1.00  0.00    -0.744 OA
ENDBRANCH  96  97
ENDBRANCH  70  91
ENDBRANCH  44  45
ENDBRANCH  37  39
ENDBRANCH  36  37
ENDBRANCH  35  36
ENDBRANCH   1  35
TORSDOF 23
ENDMDL
