MODEL 1
REMARK VINA RESULT:      -8.5      0.000      0.000
REMARK SMILES C#CCNC(=O)C[N@@H+](CC(=O)OCCOCCOC(=O)c1ccc(-c2c3nc(c(-c4ccc(S(=O)(=O)[O-])cc4)c4ccc([nH]4)c(-c4ccc(S(=O)(=O)[O-])cc4)c4nc(c(-c5ccc(S(=O)(=O)[O-])cc5)c5ccc2[nH]5)C=C4)C=C3)cc1)C(C)(C)C
REMARK SMILES IDX 14 1 13 2 12 3 10 4 11 5 9 6 8 7 7 9 5 10 4 11 6 13 3 14
REMARK SMILES IDX 2 15 1 16 81 17 82 18 83 19 84 20 15 21 16 22 17 23 18 24
REMARK SMILES IDX 19 25 20 26 21 27 22 28 80 29 23 30 79 31 24 32 25 33 26 34
REMARK SMILES IDX 73 35 27 36 78 37 72 38 74 39 28 40 77 41 71 42 70 43 29 45
REMARK SMILES IDX 59 46 40 47 58 48 41 49 44 50 57 51 75 52 42 53 43 54 56 56
REMARK SMILES IDX 76 57 45 58 30 59 31 60 39 61 32 62 38 63 33 64 34 65 35 66
REMARK SMILES IDX 36 67 37 68 60 69 61 70 69 71 62 72 68 73 63 74 64 75 65 76
REMARK SMILES IDX 66 77 67 78 46 79 47 80 55 81 48 82 54 83 49 84 50 85 51 86
REMARK SMILES IDX 52 87 53 88
REMARK H PARENT 8 8 4 12 74 44 44 55
REMARK Flexibility Score: inf
ROOT
ATOM      1  C   UNL A   1      32.144  29.102  27.022  1.00  0.00     0.202 C 
ENDROOT
BRANCH   1   2
ATOM      2  C   UNL A   1      31.717  27.953  26.105  1.00  0.00     0.261 C 
BRANCH   2   3
ATOM      3  O   UNL A   1      31.033  26.908  26.830  1.00  0.00    -0.459 OA
BRANCH   3   4
ATOM      4  C   UNL A   1      30.710  25.785  26.137  1.00  0.00     0.361 C 
ATOM      5  O   UNL A   1      30.700  24.654  26.614  1.00  0.00    -0.245 OA
BRANCH   4   6
ATOM      6  C   UNL A   1      30.482  26.044  24.649  1.00  0.00     0.387 C 
BRANCH   6   7
ATOM      7  N   UNL A   1      31.530  25.617  23.683  1.00  0.00    -0.314 N 
ATOM      8  H   UNL A   1      31.061  24.976  23.043  1.00  0.00     0.349 HD
BRANCH   7   9
ATOM      9  C   UNL A   1      32.586  24.830  24.371  1.00  0.00     0.364 C 
BRANCH   9  10
ATOM     10  C   UNL A   1      32.627  23.375  23.908  1.00  0.00     0.275 C 
ATOM     11  N   UNL A   1      33.499  22.518  24.519  1.00  0.00    -0.340 N 
ATOM     12  H   UNL A   1      33.429  21.566  24.281  1.00  0.00     0.164 HD
ATOM     13  O   UNL A   1      31.910  22.964  22.995  1.00  0.00    -0.268 OA
BRANCH  11  14
ATOM     14  C   UNL A   1      34.505  22.878  25.473  1.00  0.00     0.206 C 
BRANCH  14  15
ATOM     15  C   UNL A   1      35.882  23.105  24.869  1.00  0.00    -0.085 C 
ATOM     16  C   UNL A   1      37.063  23.300  24.351  1.00  0.00     0.006 C 
ENDBRANCH  14  15
ENDBRANCH  11  14
ENDBRANCH   9  10
ENDBRANCH   7   9
BRANCH   7  17
ATOM     17  C   UNL A   1      31.949  26.565  22.615  1.00  0.00     0.090 C 
ATOM     18  C   UNL A   1      30.990  27.743  22.533  1.00  0.00     0.078 C 
ATOM     19  C   UNL A   1      33.335  27.224  22.826  1.00  0.00     0.078 C 
ATOM     20  C   UNL A   1      32.071  25.863  21.241  1.00  0.00     0.078 C 
ENDBRANCH   7  17
ENDBRANCH   6   7
ENDBRANCH   4   6
ENDBRANCH   3   4
ENDBRANCH   2   3
ENDBRANCH   1   2
BRANCH   1  21
ATOM     21  O   UNL A   1      33.506  29.511  26.867  1.00  0.00    -0.374 OA
BRANCH  21  22
ATOM     22  C   UNL A   1      33.925  30.641  27.631  1.00  0.00     0.202 C 
BRANCH  22  23
ATOM     23  C   UNL A   1      35.450  30.852  27.649  1.00  0.00     0.261 C 
BRANCH  23  24
ATOM     24  O   UNL A   1      36.142  29.591  27.762  1.00  0.00    -0.460 OA
BRANCH  24  25
ATOM     25  C   UNL A   1      36.932  29.443  28.843  1.00  0.00     0.338 C 
ATOM     26  O   UNL A   1      36.578  29.490  30.014  1.00  0.00    -0.246 OA
BRANCH  25  27
ATOM     27  C   UNL A   1      38.276  28.990  28.427  1.00  0.00     0.060 A 
ATOM     28  C   UNL A   1      39.045  28.354  29.405  1.00  0.00     0.016 A 
ATOM     29  C   UNL A   1      38.819  29.249  27.163  1.00  0.00     0.016 A 
ATOM     30  C   UNL A   1      40.387  28.065  29.163  1.00  0.00     0.010 A 
ATOM     31  C   UNL A   1      40.172  28.950  26.920  1.00  0.00     0.010 A 
ATOM     32  C   UNL A   1      40.980  28.414  27.940  1.00  0.00    -0.014 A 
BRANCH  32  33
ATOM     33  C   UNL A   1      42.468  28.371  27.850  1.00  0.00     0.031 A 
ATOM     34  C   UNL A   1      43.137  27.135  27.299  1.00  0.00     0.074 A 
ATOM     35  C   UNL A   1      43.218  29.460  28.111  1.00  0.00     0.049 A 
ATOM     36  N   UNL A   1      44.387  26.956  26.949  1.00  0.00    -0.248 NA
ATOM     37  C   UNL A   1      42.283  25.955  27.101  1.00  0.00     0.031 C 
ATOM     38  C   UNL A   1      42.709  30.737  28.605  1.00  0.00     0.029 A 
ATOM     39  N   UNL A   1      44.568  29.670  27.959  1.00  0.00    -0.354 N 
ATOM     40  C   UNL A   1      44.465  25.649  26.478  1.00  0.00     0.074 A 
ATOM     41  C   UNL A   1      43.148  25.069  26.629  1.00  0.00     0.031 C 
ATOM     42  C   UNL A   1      43.729  31.608  28.688  1.00  0.00     0.029 A 
ATOM     43  C   UNL A   1      44.967  30.948  28.272  1.00  0.00     0.049 A 
ATOM     44  H   UNL A   1      45.191  28.971  27.656  1.00  0.00     0.167 HD
ATOM     45  C   UNL A   1      45.527  24.990  25.951  1.00  0.00     0.031 A 
ATOM     46  C   UNL A   1      46.182  31.530  28.220  1.00  0.00     0.031 A 
ATOM     47  C   UNL A   1      46.848  25.542  25.817  1.00  0.00     0.049 A 
ATOM     48  C   UNL A   1      47.370  30.751  27.716  1.00  0.00     0.074 A 
ATOM     49  C   UNL A   1      47.978  24.948  25.281  1.00  0.00     0.029 A 
ATOM     50  N   UNL A   1      47.224  26.808  26.237  1.00  0.00    -0.354 N 
ATOM     51  N   UNL A   1      47.414  29.533  27.234  1.00  0.00    -0.248 NA
ATOM     52  C   UNL A   1      48.671  31.437  27.737  1.00  0.00     0.031 C 
ATOM     53  C   UNL A   1      49.052  25.833  25.433  1.00  0.00     0.029 A 
ATOM     54  C   UNL A   1      48.578  27.001  26.006  1.00  0.00     0.049 A 
ATOM     55  H   UNL A   1      46.620  27.473  26.639  1.00  0.00     0.167 HD
ATOM     56  C   UNL A   1      48.741  29.314  26.872  1.00  0.00     0.074 A 
ATOM     57  C   UNL A   1      49.465  30.529  27.181  1.00  0.00     0.031 C 
ATOM     58  C   UNL A   1      49.302  28.206  26.327  1.00  0.00     0.031 A 
BRANCH  45  59
ATOM     59  C   UNL A   1      45.298  23.566  25.514  1.00  0.00    -0.014 A 
ATOM     60  C   UNL A   1      45.620  22.484  26.354  1.00  0.00     0.010 A 
ATOM     61  C   UNL A   1      44.748  23.307  24.246  1.00  0.00     0.010 A 
ATOM     62  C   UNL A   1      45.452  21.170  25.909  1.00  0.00     0.020 A 
ATOM     63  C   UNL A   1      44.554  21.995  23.808  1.00  0.00     0.020 A 
ATOM     64  C   UNL A   1      44.930  20.934  24.634  1.00  0.00     0.054 A 
BRANCH  64  65
ATOM     65  S   UNL A   1      44.741  19.220  24.070  1.00  0.00     0.124 S 
ATOM     66  O   UNL A   1      44.533  19.397  22.635  1.00  0.00    -0.237 OA
ATOM     67  O   UNL A   1      46.015  18.613  24.449  1.00  0.00    -0.237 OA
ATOM     68  O   UNL A   1      43.580  18.737  24.812  1.00  0.00    -0.744 OA
ENDBRANCH  64  65
ENDBRANCH  45  59
BRANCH  46  69
ATOM     69  C   UNL A   1      46.338  32.944  28.657  1.00  0.00    -0.014 A 
ATOM     70  C   UNL A   1      46.171  34.002  27.744  1.00  0.00     0.010 A 
ATOM     71  C   UNL A   1      46.634  33.239  30.000  1.00  0.00     0.010 A 
ATOM     72  C   UNL A   1      46.294  35.328  28.171  1.00  0.00     0.020 A 
ATOM     73  C   UNL A   1      46.736  34.563  30.433  1.00  0.00     0.020 A 
ATOM     74  C   UNL A   1      46.568  35.601  29.514  1.00  0.00     0.054 A 
BRANCH  74  75
ATOM     75  S   UNL A   1      46.637  37.329  30.062  1.00  0.00     0.124 S 
ATOM     76  O   UNL A   1      45.490  37.913  29.376  1.00  0.00    -0.237 OA
ATOM     77  O   UNL A   1      46.515  37.205  31.512  1.00  0.00    -0.237 OA
ATOM     78  O   UNL A   1      47.946  37.783  29.594  1.00  0.00    -0.744 OA
ENDBRANCH  74  75
ENDBRANCH  46  69
BRANCH  58  79
ATOM     79  C   UNL A   1      50.775  28.251  26.005  1.00  0.00    -0.014 A 
ATOM     80  C   UNL A   1      51.737  27.780  26.917  1.00  0.00     0.010 A 
ATOM     81  C   UNL A   1      51.199  28.720  24.748  1.00  0.00     0.010 A 
ATOM     82  C   UNL A   1      53.096  27.803  26.588  1.00  0.00     0.020 A 
ATOM     83  C   UNL A   1      52.555  28.721  24.405  1.00  0.00     0.020 A 
ATOM     84  C   UNL A   1      53.497  28.274  25.333  1.00  0.00     0.054 A 
BRANCH  84  85
ATOM     85  S   UNL A   1      55.263  28.254  24.914  1.00  0.00     0.124 S 
ATOM     86  O   UNL A   1      55.368  27.049  24.097  1.00  0.00    -0.237 OA
ATOM     87  O   UNL A   1      55.438  29.516  24.198  1.00  0.00    -0.237 OA
ATOM     88  O   UNL A   1      55.927  28.187  26.213  1.00  0.00    -0.744 OA
ENDBRANCH  84  85
ENDBRANCH  58  79
ENDBRANCH  32  33
ENDBRANCH  25  27
ENDBRANCH  24  25
ENDBRANCH  23  24
ENDBRANCH  22  23
ENDBRANCH  21  22
ENDBRANCH   1  21
TORSDOF 23
ENDMDL
MODEL 2
REMARK VINA RESULT:      -8.5      2.547      7.409
REMARK SMILES C#CCNC(=O)C[N@@H+](CC(=O)OCCOCCOC(=O)c1ccc(-c2c3nc(c(-c4ccc(S(=O)(=O)[O-])cc4)c4ccc([nH]4)c(-c4ccc(S(=O)(=O)[O-])cc4)c4nc(c(-c5ccc(S(=O)(=O)[O-])cc5)c5ccc2[nH]5)C=C4)C=C3)cc1)C(C)(C)C
REMARK SMILES IDX 14 1 13 2 12 3 10 4 11 5 9 6 8 7 7 9 5 10 4 11 6 13 3 14
REMARK SMILES IDX 2 15 1 16 81 17 82 18 83 19 84 20 15 21 16 22 17 23 18 24
REMARK SMILES IDX 19 25 20 26 21 27 22 28 80 29 23 30 79 31 24 32 25 33 26 34
REMARK SMILES IDX 73 35 27 36 78 37 72 38 74 39 28 40 77 41 71 42 70 43 29 45
REMARK SMILES IDX 59 46 40 47 58 48 41 49 44 50 57 51 75 52 42 53 43 54 56 56
REMARK SMILES IDX 76 57 45 58 30 59 31 60 39 61 32 62 38 63 33 64 34 65 35 66
REMARK SMILES IDX 36 67 37 68 60 69 61 70 69 71 62 72 68 73 63 74 64 75 65 76
REMARK SMILES IDX 66 77 67 78 46 79 47 80 55 81 48 82 54 83 49 84 50 85 51 86
REMARK SMILES IDX 52 87 53 88
REMARK H PARENT 8 8 4 12 74 44 44 55
REMARK Flexibility Score: inf
ROOT
ATOM      1  C   UNL A   1      36.333  23.612  25.542  1.00  0.00     0.202 C 
ENDROOT
BRANCH   1   2
ATOM      2  C   UNL A   1      35.472  24.148  24.396  1.00  0.00     0.261 C 
BRANCH   2   3
ATOM      3  O   UNL A   1      34.308  23.325  24.162  1.00  0.00    -0.459 OA
BRANCH   3   4
ATOM      4  C   UNL A   1      33.517  23.659  23.109  1.00  0.00     0.361 C 
ATOM      5  O   UNL A   1      33.658  23.224  21.970  1.00  0.00    -0.245 OA
BRANCH   4   6
ATOM      6  C   UNL A   1      32.499  24.746  23.446  1.00  0.00     0.387 C 
BRANCH   6   7
ATOM      7  N   UNL A   1      31.827  24.706  24.774  1.00  0.00    -0.314 N 
ATOM      8  H   UNL A   1      32.584  24.702  25.458  1.00  0.00     0.349 HD
BRANCH   7   9
ATOM      9  C   UNL A   1      31.092  23.426  24.950  1.00  0.00     0.364 C 
BRANCH   9  10
ATOM     10  C   UNL A   1      31.580  22.633  26.161  1.00  0.00     0.275 C 
ATOM     11  N   UNL A   1      32.121  21.394  25.957  1.00  0.00    -0.340 N 
ATOM     12  H   UNL A   1      32.527  20.951  26.736  1.00  0.00     0.164 HD
ATOM     13  O   UNL A   1      31.484  23.074  27.307  1.00  0.00    -0.268 OA
BRANCH  11  14
ATOM     14  C   UNL A   1      32.150  20.682  24.715  1.00  0.00     0.206 C 
BRANCH  14  15
ATOM     15  C   UNL A   1      32.650  19.251  24.830  1.00  0.00    -0.085 C 
ATOM     16  C   UNL A   1      33.079  18.024  24.929  1.00  0.00     0.006 C 
ENDBRANCH  14  15
ENDBRANCH  11  14
ENDBRANCH   9  10
ENDBRANCH   7   9
BRANCH   7  17
ATOM     17  C   UNL A   1      31.200  25.950  25.298  1.00  0.00     0.090 C 
ATOM     18  C   UNL A   1      31.117  27.011  24.211  1.00  0.00     0.078 C 
ATOM     19  C   UNL A   1      29.737  25.795  25.784  1.00  0.00     0.078 C 
ATOM     20  C   UNL A   1      31.953  26.494  26.536  1.00  0.00     0.078 C 
ENDBRANCH   7  17
ENDBRANCH   6   7
ENDBRANCH   4   6
ENDBRANCH   3   4
ENDBRANCH   2   3
ENDBRANCH   1   2
BRANCH   1  21
ATOM     21  O   UNL A   1      36.863  22.300  25.324  1.00  0.00    -0.374 OA
BRANCH  21  22
ATOM     22  C   UNL A   1      38.222  22.090  25.702  1.00  0.00     0.202 C 
BRANCH  22  23
ATOM     23  C   UNL A   1      38.633  20.607  25.750  1.00  0.00     0.261 C 
BRANCH  23  24
ATOM     24  O   UNL A   1      40.057  20.461  25.568  1.00  0.00    -0.460 OA
BRANCH  24  25
ATOM     25  C   UNL A   1      40.789  20.338  26.692  1.00  0.00     0.338 C 
ATOM     26  O   UNL A   1      40.823  19.365  27.435  1.00  0.00    -0.246 OA
BRANCH  25  27
ATOM     27  C   UNL A   1      41.736  21.467  26.802  1.00  0.00     0.060 A 
ATOM     28  C   UNL A   1      42.248  21.724  28.077  1.00  0.00     0.016 A 
ATOM     29  C   UNL A   1      42.053  22.313  25.734  1.00  0.00     0.016 A 
ATOM     30  C   UNL A   1      42.992  22.878  28.313  1.00  0.00     0.010 A 
ATOM     31  C   UNL A   1      42.811  23.474  25.974  1.00  0.00     0.010 A 
ATOM     32  C   UNL A   1      43.231  23.795  27.279  1.00  0.00    -0.014 A 
BRANCH  32  33
ATOM     33  C   UNL A   1      43.754  25.142  27.649  1.00  0.00     0.031 A 
ATOM     34  C   UNL A   1      45.197  25.477  27.359  1.00  0.00     0.074 A 
ATOM     35  C   UNL A   1      42.933  26.112  28.098  1.00  0.00     0.049 A 
ATOM     36  N   UNL A   1      45.804  26.637  27.412  1.00  0.00    -0.248 NA
ATOM     37  C   UNL A   1      46.062  24.365  26.940  1.00  0.00     0.031 C 
ATOM     38  C   UNL A   1      41.509  25.951  28.380  1.00  0.00     0.029 A 
ATOM     39  N   UNL A   1      43.182  27.439  28.360  1.00  0.00    -0.354 N 
ATOM     40  C   UNL A   1      47.118  26.395  27.021  1.00  0.00     0.074 A 
ATOM     41  C   UNL A   1      47.228  24.973  26.778  1.00  0.00     0.031 C 
ATOM     42  C   UNL A   1      41.002  27.140  28.748  1.00  0.00     0.029 A 
ATOM     43  C   UNL A   1      42.066  28.144  28.746  1.00  0.00     0.049 A 
ATOM     44  H   UNL A   1      44.074  27.846  28.279  1.00  0.00     0.167 HD
ATOM     45  C   UNL A   1      48.140  27.272  26.861  1.00  0.00     0.031 A 
ATOM     46  C   UNL A   1      41.910  29.448  29.054  1.00  0.00     0.031 A 
ATOM     47  C   UNL A   1      48.055  28.684  27.122  1.00  0.00     0.049 A 
ATOM     48  C   UNL A   1      43.081  30.391  28.955  1.00  0.00     0.074 A 
ATOM     49  C   UNL A   1      49.038  29.647  26.972  1.00  0.00     0.029 A 
ATOM     50  N   UNL A   1      46.930  29.335  27.604  1.00  0.00    -0.354 N 
ATOM     51  N   UNL A   1      44.301  30.151  28.542  1.00  0.00    -0.248 NA
ATOM     52  C   UNL A   1      42.845  31.787  29.355  1.00  0.00     0.031 C 
ATOM     53  C   UNL A   1      48.526  30.870  27.421  1.00  0.00     0.029 A 
ATOM     54  C   UNL A   1      47.205  30.680  27.792  1.00  0.00     0.049 A 
ATOM     55  H   UNL A   1      46.063  28.905  27.785  1.00  0.00     0.167 HD
ATOM     56  C   UNL A   1      44.973  31.370  28.608  1.00  0.00     0.074 A 
ATOM     57  C   UNL A   1      44.019  32.347  29.092  1.00  0.00     0.031 C 
ATOM     58  C   UNL A   1      46.260  31.650  28.288  1.00  0.00     0.031 A 
BRANCH  45  59
ATOM     59  C   UNL A   1      49.462  26.705  26.411  1.00  0.00    -0.014 A 
ATOM     60  C   UNL A   1      50.335  26.080  27.320  1.00  0.00     0.010 A 
ATOM     61  C   UNL A   1      49.833  26.795  25.058  1.00  0.00     0.010 A 
ATOM     62  C   UNL A   1      51.580  25.610  26.895  1.00  0.00     0.020 A 
ATOM     63  C   UNL A   1      51.066  26.302  24.624  1.00  0.00     0.020 A 
ATOM     64  C   UNL A   1      51.943  25.734  25.550  1.00  0.00     0.054 A 
BRANCH  64  65
ATOM     65  S   UNL A   1      53.573  25.136  25.025  1.00  0.00     0.124 S 
ATOM     66  O   UNL A   1      53.613  25.563  23.629  1.00  0.00    -0.237 OA
ATOM     67  O   UNL A   1      54.481  25.845  25.924  1.00  0.00    -0.237 OA
ATOM     68  O   UNL A   1      53.496  23.693  25.234  1.00  0.00    -0.744 OA
ENDBRANCH  64  65
ENDBRANCH  45  59
BRANCH  46  69
ATOM     69  C   UNL A   1      40.574  29.946  29.480  1.00  0.00    -0.014 A 
ATOM     70  C   UNL A   1      39.515  30.047  28.559  1.00  0.00     0.010 A 
ATOM     71  C   UNL A   1      40.350  30.302  30.822  1.00  0.00     0.010 A 
ATOM     72  C   UNL A   1      38.257  30.492  28.976  1.00  0.00     0.020 A 
ATOM     73  C   UNL A   1      39.088  30.725  31.247  1.00  0.00     0.020 A 
ATOM     74  C   UNL A   1      38.049  30.821  30.319  1.00  0.00     0.054 A 
BRANCH  74  75
ATOM     75  S   UNL A   1      36.386  31.313  30.855  1.00  0.00     0.124 S 
ATOM     76  O   UNL A   1      35.900  30.095  31.495  1.00  0.00    -0.237 OA
ATOM     77  O   UNL A   1      36.663  32.434  31.749  1.00  0.00    -0.237 OA
ATOM     78  O   UNL A   1      35.719  31.674  29.605  1.00  0.00    -0.744 OA
ENDBRANCH  74  75
ENDBRANCH  46  69
BRANCH  58  79
ATOM     79  C   UNL A   1      46.724  33.079  28.430  1.00  0.00    -0.014 A 
ATOM     80  C   UNL A   1      46.466  34.033  27.428  1.00  0.00     0.010 A 
ATOM     81  C   UNL A   1      47.376  33.486  29.608  1.00  0.00     0.010 A 
ATOM     82  C   UNL A   1      46.878  35.359  27.591  1.00  0.00     0.020 A 
ATOM     83  C   UNL A   1      47.768  34.817  29.785  1.00  0.00     0.020 A 
ATOM     84  C   UNL A   1      47.528  35.743  28.769  1.00  0.00     0.054 A 
BRANCH  84  85
ATOM     85  S   UNL A   1      48.014  37.480  28.975  1.00  0.00     0.124 S 
ATOM     86  O   UNL A   1      48.114  37.598  30.426  1.00  0.00    -0.237 OA
ATOM     87  O   UNL A   1      49.280  37.548  28.249  1.00  0.00    -0.237 OA
ATOM     88  O   UNL A   1      46.914  38.223  28.364  1.00  0.00    -0.744 OA
ENDBRANCH  84  85
ENDBRANCH  58  79
ENDBRANCH  32  33
ENDBRANCH  25  27
ENDBRANCH  24  25
ENDBRANCH  23  24
ENDBRANCH  22  23
ENDBRANCH  21  22
ENDBRANCH   1  21
TORSDOF 23
ENDMDL
MODEL 3
REMARK VINA RESULT:      -8.3      5.678     10.336
REMARK SMILES C#CCNC(=O)C[N@@H+](CC(=O)OCCOCCOC(=O)c1ccc(-c2c3nc(c(-c4ccc(S(=O)(=O)[O-])cc4)c4ccc([nH]4)c(-c4ccc(S(=O)(=O)[O-])cc4)c4nc(c(-c5ccc(S(=O)(=O)[O-])cc5)c5ccc2[nH]5)C=C4)C=C3)cc1)C(C)(C)C
REMARK SMILES IDX 14 1 13 2 12 3 10 4 11 5 9 6 8 7 7 9 5 10 4 11 6 13 3 14
REMARK SMILES IDX 2 15 1 16 81 17 82 18 83 19 84 20 15 21 16 22 17 23 18 24
REMARK SMILES IDX 19 25 20 26 21 27 22 28 80 29 23 30 79 31 24 32 25 33 26 34
REMARK SMILES IDX 73 35 27 36 78 37 72 38 74 39 28 40 77 41 71 42 70 43 29 45
REMARK SMILES IDX 59 46 40 47 58 48 41 49 44 50 57 51 75 52 42 53 43 54 56 56
REMARK SMILES IDX 76 57 45 58 30 59 31 60 39 61 32 62 38 63 33 64 34 65 35 66
REMARK SMILES IDX 36 67 37 68 60 69 61 70 69 71 62 72 68 73 63 74 64 75 65 76
REMARK SMILES IDX 66 77 67 78 46 79 47 80 55 81 48 82 54 83 49 84 50 85 51 86
REMARK SMILES IDX 52 87 53 88
REMARK H PARENT 8 8 4 12 74 44 44 55
REMARK Flexibility Score: inf
ROOT
ATOM      1  C   UNL A   1      31.608  29.124  24.725  1.00  0.00     0.202 C 
ENDROOT
BRANCH   1   2
ATOM      2  C   UNL A   1      32.798  28.910  23.787  1.00  0.00     0.261 C 
BRANCH   2   3
ATOM      3  O   UNL A   1      33.489  27.673  24.063  1.00  0.00    -0.459 OA
BRANCH   3   4
ATOM      4  C   UNL A   1      33.329  26.663  23.168  1.00  0.00     0.361 C 
ATOM      5  O   UNL A   1      33.100  26.824  21.973  1.00  0.00    -0.245 OA
BRANCH   4   6
ATOM      6  C   UNL A   1      33.330  25.281  23.819  1.00  0.00     0.387 C 
BRANCH   6   7
ATOM      7  N   UNL A   1      32.502  25.067  25.037  1.00  0.00    -0.314 N 
ATOM      8  H   UNL A   1      32.236  26.002  25.348  1.00  0.00     0.349 HD
BRANCH   7   9
ATOM      9  C   UNL A   1      33.320  24.475  26.128  1.00  0.00     0.364 C 
BRANCH   9  10
ATOM     10  C   UNL A   1      34.590  23.804  25.609  1.00  0.00     0.275 C 
ATOM     11  N   UNL A   1      34.572  22.456  25.383  1.00  0.00    -0.340 N 
ATOM     12  H   UNL A   1      35.364  22.067  24.946  1.00  0.00     0.164 HD
ATOM     13  O   UNL A   1      35.624  24.441  25.407  1.00  0.00    -0.268 OA
BRANCH  11  14
ATOM     14  C   UNL A   1      33.509  21.559  25.723  1.00  0.00     0.206 C 
BRANCH  14  15
ATOM     15  C   UNL A   1      32.979  20.750  24.551  1.00  0.00    -0.085 C 
ATOM     16  C   UNL A   1      32.524  20.056  23.545  1.00  0.00     0.006 C 
ENDBRANCH  14  15
ENDBRANCH  11  14
ENDBRANCH   9  10
ENDBRANCH   7   9
BRANCH   7  17
ATOM     17  C   UNL A   1      31.100  24.592  24.877  1.00  0.00     0.090 C 
ATOM     18  C   UNL A   1      30.147  25.767  24.727  1.00  0.00     0.078 C 
ATOM     19  C   UNL A   1      30.837  23.732  23.616  1.00  0.00     0.078 C 
ATOM     20  C   UNL A   1      30.667  23.682  26.052  1.00  0.00     0.078 C 
ENDBRANCH   7  17
ENDBRANCH   6   7
ENDBRANCH   4   6
ENDBRANCH   3   4
ENDBRANCH   2   3
ENDBRANCH   1   2
BRANCH   1  21
ATOM     21  O   UNL A   1      31.591  30.393  25.386  1.00  0.00    -0.374 OA
BRANCH  21  22
ATOM     22  C   UNL A   1      31.905  30.393  26.778  1.00  0.00     0.202 C 
BRANCH  22  23
ATOM     23  C   UNL A   1      33.415  30.415  27.077  1.00  0.00     0.261 C 
BRANCH  23  24
ATOM     24  O   UNL A   1      33.880  31.766  27.276  1.00  0.00    -0.460 OA
BRANCH  24  25
ATOM     25  C   UNL A   1      34.390  32.045  28.491  1.00  0.00     0.338 C 
ATOM     26  O   UNL A   1      33.794  32.558  29.430  1.00  0.00    -0.246 OA
BRANCH  25  27
ATOM     27  C   UNL A   1      35.732  31.441  28.624  1.00  0.00     0.060 A 
ATOM     28  C   UNL A   1      35.794  30.205  29.275  1.00  0.00     0.016 A 
ATOM     29  C   UNL A   1      36.909  32.083  28.221  1.00  0.00     0.016 A 
ATOM     30  C   UNL A   1      37.028  29.654  29.615  1.00  0.00     0.010 A 
ATOM     31  C   UNL A   1      38.153  31.520  28.561  1.00  0.00     0.010 A 
ATOM     32  C   UNL A   1      38.217  30.333  29.316  1.00  0.00    -0.014 A 
BRANCH  32  33
ATOM     33  C   UNL A   1      39.473  29.862  29.969  1.00  0.00     0.031 A 
ATOM     34  C   UNL A   1      39.872  30.444  31.303  1.00  0.00     0.074 A 
ATOM     35  C   UNL A   1      40.177  28.828  29.468  1.00  0.00     0.049 A 
ATOM     36  N   UNL A   1      40.803  30.046  32.135  1.00  0.00    -0.248 NA
ATOM     37  C   UNL A   1      39.114  31.615  31.766  1.00  0.00     0.031 C 
ATOM     38  C   UNL A   1      39.886  28.135  28.216  1.00  0.00     0.029 A 
ATOM     39  N   UNL A   1      41.265  28.160  29.979  1.00  0.00    -0.354 N 
ATOM     40  C   UNL A   1      40.732  30.909  33.224  1.00  0.00     0.074 A 
ATOM     41  C   UNL A   1      39.699  31.877  32.926  1.00  0.00     0.031 C 
ATOM     42  C   UNL A   1      40.754  27.120  28.068  1.00  0.00     0.029 A 
ATOM     43  C   UNL A   1      41.676  27.100  29.205  1.00  0.00     0.049 A 
ATOM     44  H   UNL A   1      41.708  28.416  30.819  1.00  0.00     0.167 HD
ATOM     45  C   UNL A   1      41.446  30.895  34.377  1.00  0.00     0.031 A 
ATOM     46  C   UNL A   1      42.670  26.208  29.389  1.00  0.00     0.031 A 
ATOM     47  C   UNL A   1      42.494  29.956  34.679  1.00  0.00     0.049 A 
ATOM     48  C   UNL A   1      43.512  26.263  30.637  1.00  0.00     0.074 A 
ATOM     49  C   UNL A   1      43.259  29.862  35.829  1.00  0.00     0.029 A 
ATOM     50  N   UNL A   1      42.938  28.962  33.822  1.00  0.00    -0.354 N 
ATOM     51  N   UNL A   1      43.400  27.058  31.673  1.00  0.00    -0.248 NA
ATOM     52  C   UNL A   1      44.608  25.288  30.743  1.00  0.00     0.031 C 
ATOM     53  C   UNL A   1      44.206  28.849  35.643  1.00  0.00     0.029 A 
ATOM     54  C   UNL A   1      43.991  28.272  34.403  1.00  0.00     0.049 A 
ATOM     55  H   UNL A   1      42.561  28.773  32.932  1.00  0.00     0.167 HD
ATOM     56  C   UNL A   1      44.395  26.665  32.565  1.00  0.00     0.074 A 
ATOM     57  C   UNL A   1      45.092  25.554  31.950  1.00  0.00     0.031 C 
ATOM     58  C   UNL A   1      44.695  27.176  33.785  1.00  0.00     0.031 A 
BRANCH  45  59
ATOM     59  C   UNL A   1      41.133  31.968  35.388  1.00  0.00    -0.014 A 
ATOM     60  C   UNL A   1      40.115  31.795  36.343  1.00  0.00     0.010 A 
ATOM     61  C   UNL A   1      41.870  33.165  35.383  1.00  0.00     0.010 A 
ATOM     62  C   UNL A   1      39.801  32.823  37.236  1.00  0.00     0.020 A 
ATOM     63  C   UNL A   1      41.578  34.185  36.292  1.00  0.00     0.020 A 
ATOM     64  C   UNL A   1      40.528  34.016  37.198  1.00  0.00     0.054 A 
BRANCH  64  65
ATOM     65  S   UNL A   1      40.090  35.345  38.352  1.00  0.00     0.124 S 
ATOM     66  O   UNL A   1      39.003  34.735  39.113  1.00  0.00    -0.237 OA
ATOM     67  O   UNL A   1      41.333  35.553  39.092  1.00  0.00    -0.237 OA
ATOM     68  O   UNL A   1      39.697  36.448  37.479  1.00  0.00    -0.744 OA
ENDBRANCH  64  65
ENDBRANCH  45  59
BRANCH  46  69
ATOM     69  C   UNL A   1      42.919  25.165  28.356  1.00  0.00    -0.014 A 
ATOM     70  C   UNL A   1      43.765  25.423  27.262  1.00  0.00     0.010 A 
ATOM     71  C   UNL A   1      42.323  23.896  28.477  1.00  0.00     0.010 A 
ATOM     72  C   UNL A   1      44.013  24.428  26.311  1.00  0.00     0.020 A 
ATOM     73  C   UNL A   1      42.587  22.893  27.541  1.00  0.00     0.020 A 
ATOM     74  C   UNL A   1      43.429  23.167  26.461  1.00  0.00     0.054 A 
BRANCH  74  75
ATOM     75  S   UNL A   1      43.833  21.865  25.263  1.00  0.00     0.124 S 
ATOM     76  O   UNL A   1      43.789  22.590  23.998  1.00  0.00    -0.237 OA
ATOM     77  O   UNL A   1      45.157  21.432  25.703  1.00  0.00    -0.237 OA
ATOM     78  O   UNL A   1      42.770  20.880  25.458  1.00  0.00    -0.744 OA
ENDBRANCH  74  75
ENDBRANCH  46  69
BRANCH  58  79
ATOM     79  C   UNL A   1      45.818  26.531  34.559  1.00  0.00    -0.014 A 
ATOM     80  C   UNL A   1      45.586  25.428  35.401  1.00  0.00     0.010 A 
ATOM     81  C   UNL A   1      47.134  27.001  34.397  1.00  0.00     0.010 A 
ATOM     82  C   UNL A   1      46.644  24.826  36.087  1.00  0.00     0.020 A 
ATOM     83  C   UNL A   1      48.200  26.386  35.063  1.00  0.00     0.020 A 
ATOM     84  C   UNL A   1      47.946  25.309  35.915  1.00  0.00     0.054 A 
BRANCH  84  85
ATOM     85  S   UNL A   1      49.309  24.484  36.784  1.00  0.00     0.124 S 
ATOM     86  O   UNL A   1      49.417  23.224  36.054  1.00  0.00    -0.237 OA
ATOM     87  O   UNL A   1      50.420  25.414  36.598  1.00  0.00    -0.237 OA
ATOM     88  O   UNL A   1      48.825  24.369  38.157  1.00  0.00    -0.744 OA
ENDBRANCH  84  85
ENDBRANCH  58  79
ENDBRANCH  32  33
ENDBRANCH  25  27
ENDBRANCH  24  25
ENDBRANCH  23  24
ENDBRANCH  22  23
ENDBRANCH  21  22
ENDBRANCH   1  21
TORSDOF 23
ENDMDL
