MODEL 1
REMARK VINA RESULT:      -9.5      0.000      0.000
REMARK SMILES CCC[C@H]1CC[C@H](C(=O)OCCOCCOC(=O)c2ccc(-c3c4nc(c(-c5ccc(S(=O)(=O)[O-])cc5)c5ccc([nH]5)c(-c5ccc(S(=O)(=O)[O-])cc5)c5nc(c(-c6ccc(S(=O)(=O)[O-])cc6)c6ccc3[nH]6)C=C5)C=C4)cc2)[C@H](Sc2ccncc2)C1
REMARK SMILES IDX 14 1 13 2 12 3 11 4 10 5 8 6 9 7 7 8 4 9 5 10 87 11 6 12
REMARK SMILES IDX 79 13 3 14 2 15 1 16 80 17 81 18 82 19 86 20 83 21 85 22
REMARK SMILES IDX 84 23 15 24 16 25 17 26 18 27 19 28 20 29 78 30 21 31 77 32
REMARK SMILES IDX 22 33 23 34 24 35 71 36 25 37 76 38 70 39 72 40 26 41 75 42
REMARK SMILES IDX 69 43 68 44 27 46 57 47 38 48 56 49 39 50 42 51 55 52 73 53
REMARK SMILES IDX 40 54 41 55 54 57 74 58 43 59 28 60 29 61 37 62 30 63 36 64
REMARK SMILES IDX 31 65 32 66 33 67 34 68 35 69 58 70 59 71 67 72 60 73 66 74
REMARK SMILES IDX 61 75 62 76 63 77 64 78 65 79 44 80 45 81 53 82 46 83 52 84
REMARK SMILES IDX 47 85 48 86 49 87 50 88 51 89
REMARK H PARENT 72 45 42 56
REMARK Flexibility Score: inf
ROOT
ATOM      1  C   UNL A   1      32.838  28.361  24.707  1.00  0.00     0.202 C 
ENDROOT
BRANCH   1   2
ATOM      2  O   UNL A   1      32.013  27.487  23.942  1.00  0.00    -0.374 OA
BRANCH   2   3
ATOM      3  C   UNL A   1      30.637  27.396  24.276  1.00  0.00     0.202 C 
BRANCH   3   4
ATOM      4  C   UNL A   1      30.034  26.045  24.690  1.00  0.00     0.261 C 
BRANCH   4   5
ATOM      5  O   UNL A   1      30.708  24.854  24.276  1.00  0.00    -0.463 OA
BRANCH   5   6
ATOM      6  C   UNL A   1      31.616  24.345  25.147  1.00  0.00     0.310 C 
ATOM      7  O   UNL A   1      31.482  24.308  26.365  1.00  0.00    -0.252 OA
BRANCH   6   8
ATOM      8  C   UNL A   1      32.810  23.732  24.449  1.00  0.00     0.112 C 
ATOM      9  C   UNL A   1      35.352  23.463  26.078  1.00  0.00    -0.010 C 
ATOM     10  C   UNL A   1      34.831  24.821  25.617  1.00  0.00     0.004 C 
ATOM     11  C   UNL A   1      34.188  22.444  26.210  1.00  0.00     0.019 C 
ATOM     12  C   UNL A   1      33.960  24.750  24.362  1.00  0.00     0.017 C 
ATOM     13  C   UNL A   1      33.283  22.368  24.978  1.00  0.00     0.066 C 
BRANCH   9  14
ATOM     14  C   UNL A   1      36.610  22.937  25.329  1.00  0.00     0.003 C 
BRANCH  14  15
ATOM     15  C   UNL A   1      38.004  23.533  25.578  1.00  0.00    -0.003 C 
ATOM     16  C   UNL A   1      38.928  22.693  26.457  1.00  0.00     0.004 C 
ENDBRANCH  14  15
ENDBRANCH   9  14
BRANCH  13  17
ATOM     17  S   UNL A   1      32.027  20.989  25.065  1.00  0.00    -0.122 SA
BRANCH  17  18
ATOM     18  C   UNL A   1      32.776  19.567  24.289  1.00  0.00     0.011 A 
ATOM     19  C   UNL A   1      33.905  18.984  24.868  1.00  0.00     0.035 A 
ATOM     20  C   UNL A   1      32.199  18.937  23.190  1.00  0.00     0.035 A 
ATOM     21  C   UNL A   1      34.475  17.874  24.264  1.00  0.00     0.112 A 
ATOM     22  C   UNL A   1      32.817  17.803  22.677  1.00  0.00     0.112 A 
ATOM     23  N   UNL A   1      33.958  17.273  23.174  1.00  0.00    -0.265 NA
ENDBRANCH  17  18
ENDBRANCH  13  17
ENDBRANCH   6   8
ENDBRANCH   5   6
ENDBRANCH   4   5
ENDBRANCH   3   4
ENDBRANCH   2   3
ENDBRANCH   1   2
BRANCH   1  24
ATOM     24  C   UNL A   1      32.990  28.080  26.201  1.00  0.00     0.261 C 
BRANCH  24  25
ATOM     25  O   UNL A   1      34.325  28.380  26.652  1.00  0.00    -0.460 OA
BRANCH  25  26
ATOM     26  C   UNL A   1      34.448  29.537  27.336  1.00  0.00     0.338 C 
ATOM     27  O   UNL A   1      33.552  30.337  27.601  1.00  0.00    -0.246 OA
BRANCH  26  28
ATOM     28  C   UNL A   1      35.793  29.640  27.916  1.00  0.00     0.060 A 
ATOM     29  C   UNL A   1      36.866  29.877  27.046  1.00  0.00     0.016 A 
ATOM     30  C   UNL A   1      36.011  29.397  29.273  1.00  0.00     0.016 A 
ATOM     31  C   UNL A   1      38.173  29.789  27.514  1.00  0.00     0.010 A 
ATOM     32  C   UNL A   1      37.321  29.297  29.739  1.00  0.00     0.010 A 
ATOM     33  C   UNL A   1      38.403  29.439  28.849  1.00  0.00    -0.014 A 
BRANCH  33  34
ATOM     34  C   UNL A   1      39.751  29.002  29.273  1.00  0.00     0.031 A 
ATOM     35  C   UNL A   1      40.618  29.987  30.009  1.00  0.00     0.074 A 
ATOM     36  C   UNL A   1      40.196  27.766  28.999  1.00  0.00     0.049 A 
ATOM     37  N   UNL A   1      41.869  29.883  30.367  1.00  0.00    -0.248 NA
ATOM     38  C   UNL A   1      39.986  31.264  30.383  1.00  0.00     0.031 C 
ATOM     39  C   UNL A   1      39.421  26.713  28.347  1.00  0.00     0.029 A 
ATOM     40  N   UNL A   1      41.425  27.198  29.222  1.00  0.00    -0.354 N 
ATOM     41  C   UNL A   1      42.185  31.089  30.984  1.00  0.00     0.074 A 
ATOM     42  C   UNL A   1      40.998  31.915  30.936  1.00  0.00     0.031 C 
ATOM     43  C   UNL A   1      40.203  25.630  28.198  1.00  0.00     0.029 A 
ATOM     44  C   UNL A   1      41.541  25.932  28.704  1.00  0.00     0.049 A 
ATOM     45  H   UNL A   1      42.151  27.654  29.705  1.00  0.00     0.167 HD
ATOM     46  C   UNL A   1      43.361  31.475  31.533  1.00  0.00     0.031 A 
ATOM     47  C   UNL A   1      42.616  25.125  28.615  1.00  0.00     0.031 A 
ATOM     48  C   UNL A   1      44.536  30.648  31.560  1.00  0.00     0.049 A 
ATOM     49  C   UNL A   1      43.934  25.595  29.171  1.00  0.00     0.074 A 
ATOM     50  C   UNL A   1      45.777  30.932  32.101  1.00  0.00     0.029 A 
ATOM     51  N   UNL A   1      44.618  29.374  31.014  1.00  0.00    -0.354 N 
ATOM     52  N   UNL A   1      44.221  26.736  29.753  1.00  0.00    -0.248 NA
ATOM     53  C   UNL A   1      45.070  24.670  29.063  1.00  0.00     0.031 C 
ATOM     54  C   UNL A   1      46.625  29.853  31.831  1.00  0.00     0.029 A 
ATOM     55  C   UNL A   1      45.895  28.869  31.183  1.00  0.00     0.049 A 
ATOM     56  H   UNL A   1      43.876  28.901  30.572  1.00  0.00     0.167 HD
ATOM     57  C   UNL A   1      45.563  26.651  30.113  1.00  0.00     0.074 A 
ATOM     58  C   UNL A   1      46.028  25.349  29.681  1.00  0.00     0.031 C 
ATOM     59  C   UNL A   1      46.336  27.566  30.749  1.00  0.00     0.031 A 
BRANCH  46  60
ATOM     60  C   UNL A   1      43.440  32.870  32.092  1.00  0.00    -0.014 A 
ATOM     61  C   UNL A   1      43.098  33.150  33.428  1.00  0.00     0.010 A 
ATOM     62  C   UNL A   1      43.872  33.923  31.264  1.00  0.00     0.010 A 
ATOM     63  C   UNL A   1      43.136  34.462  33.908  1.00  0.00     0.020 A 
ATOM     64  C   UNL A   1      43.941  35.232  31.749  1.00  0.00     0.020 A 
ATOM     65  C   UNL A   1      43.552  35.496  33.063  1.00  0.00     0.054 A 
BRANCH  65  66
ATOM     66  S   UNL A   1      43.590  37.190  33.710  1.00  0.00     0.124 S 
ATOM     67  O   UNL A   1      43.588  37.980  32.482  1.00  0.00    -0.237 OA
ATOM     68  O   UNL A   1      42.365  37.259  34.502  1.00  0.00    -0.237 OA
ATOM     69  O   UNL A   1      44.830  37.240  34.480  1.00  0.00    -0.744 OA
ENDBRANCH  65  66
ENDBRANCH  46  60
BRANCH  47  70
ATOM     70  C   UNL A   1      42.485  23.801  27.950  1.00  0.00    -0.014 A 
ATOM     71  C   UNL A   1      42.687  23.670  26.566  1.00  0.00     0.010 A 
ATOM     72  C   UNL A   1      42.201  22.653  28.713  1.00  0.00     0.010 A 
ATOM     73  C   UNL A   1      42.611  22.413  25.957  1.00  0.00     0.020 A 
ATOM     74  C   UNL A   1      42.150  21.393  28.112  1.00  0.00     0.020 A 
ATOM     75  C   UNL A   1      42.351  21.281  26.735  1.00  0.00     0.054 A 
BRANCH  75  76
ATOM     76  S   UNL A   1      42.344  19.653  25.936  1.00  0.00     0.124 S 
ATOM     77  O   UNL A   1      40.965  19.548  25.469  1.00  0.00    -0.237 OA
ATOM     78  O   UNL A   1      43.356  19.810  24.895  1.00  0.00    -0.237 OA
ATOM     79  O   UNL A   1      42.710  18.741  27.017  1.00  0.00    -0.744 OA
ENDBRANCH  75  76
ENDBRANCH  47  70
BRANCH  59  80
ATOM     80  C   UNL A   1      47.755  27.180  31.072  1.00  0.00    -0.014 A 
ATOM     81  C   UNL A   1      48.085  26.537  32.277  1.00  0.00     0.010 A 
ATOM     82  C   UNL A   1      48.759  27.390  30.107  1.00  0.00     0.010 A 
ATOM     83  C   UNL A   1      49.400  26.126  32.518  1.00  0.00     0.020 A 
ATOM     84  C   UNL A   1      50.066  26.955  30.332  1.00  0.00     0.020 A 
ATOM     85  C   UNL A   1      50.381  26.334  31.542  1.00  0.00     0.054 A 
BRANCH  85  86
ATOM     86  S   UNL A   1      52.063  25.731  31.851  1.00  0.00     0.124 S 
ATOM     87  O   UNL A   1      52.769  26.170  30.651  1.00  0.00    -0.237 OA
ATOM     88  O   UNL A   1      52.430  26.423  33.085  1.00  0.00    -0.237 OA
ATOM     89  O   UNL A   1      51.895  24.285  31.983  1.00  0.00    -0.744 OA
ENDBRANCH  85  86
ENDBRANCH  59  80
ENDBRANCH  33  34
ENDBRANCH  26  28
ENDBRANCH  25  26
ENDBRANCH  24  25
ENDBRANCH   1  24
TORSDOF 21
ENDMDL
MODEL 2
REMARK VINA RESULT:      -9.2      4.587     10.692
REMARK SMILES CCC[C@H]1CC[C@H](C(=O)OCCOCCOC(=O)c2ccc(-c3c4nc(c(-c5ccc(S(=O)(=O)[O-])cc5)c5ccc([nH]5)c(-c5ccc(S(=O)(=O)[O-])cc5)c5nc(c(-c6ccc(S(=O)(=O)[O-])cc6)c6ccc3[nH]6)C=C5)C=C4)cc2)[C@H](Sc2ccncc2)C1
REMARK SMILES IDX 14 1 13 2 12 3 11 4 10 5 8 6 9 7 7 8 4 9 5 10 87 11 6 12
REMARK SMILES IDX 79 13 3 14 2 15 1 16 80 17 81 18 82 19 86 20 83 21 85 22
REMARK SMILES IDX 84 23 15 24 16 25 17 26 18 27 19 28 20 29 78 30 21 31 77 32
REMARK SMILES IDX 22 33 23 34 24 35 71 36 25 37 76 38 70 39 72 40 26 41 75 42
REMARK SMILES IDX 69 43 68 44 27 46 57 47 38 48 56 49 39 50 42 51 55 52 73 53
REMARK SMILES IDX 40 54 41 55 54 57 74 58 43 59 28 60 29 61 37 62 30 63 36 64
REMARK SMILES IDX 31 65 32 66 33 67 34 68 35 69 58 70 59 71 67 72 60 73 66 74
REMARK SMILES IDX 61 75 62 76 63 77 64 78 65 79 44 80 45 81 53 82 46 83 52 84
REMARK SMILES IDX 47 85 48 86 49 87 50 88 51 89
REMARK H PARENT 72 45 42 56
REMARK Flexibility Score: inf
ROOT
ATOM      1  C   UNL A   1      37.972  23.978  26.350  1.00  0.00     0.202 C 
ENDROOT
BRANCH   1   2
ATOM      2  O   UNL A   1      37.182  23.809  25.176  1.00  0.00    -0.374 OA
BRANCH   2   3
ATOM      3  C   UNL A   1      35.881  23.257  25.313  1.00  0.00     0.202 C 
BRANCH   3   4
ATOM      4  C   UNL A   1      34.651  24.176  25.300  1.00  0.00     0.261 C 
BRANCH   4   5
ATOM      5  O   UNL A   1      33.924  24.308  24.076  1.00  0.00    -0.463 OA
BRANCH   5   6
ATOM      6  C   UNL A   1      32.729  24.948  24.154  1.00  0.00     0.310 C 
ATOM      7  O   UNL A   1      31.680  24.439  24.534  1.00  0.00    -0.252 OA
BRANCH   6   8
ATOM      8  C   UNL A   1      32.831  26.415  23.799  1.00  0.00     0.112 C 
ATOM      9  C   UNL A   1      30.299  27.761  22.820  1.00  0.00    -0.010 C 
ATOM     10  C   UNL A   1      31.043  26.732  21.973  1.00  0.00     0.004 C 
ATOM     11  C   UNL A   1      30.563  27.523  24.331  1.00  0.00     0.019 C 
ATOM     12  C   UNL A   1      32.532  26.627  22.305  1.00  0.00     0.017 C 
ATOM     13  C   UNL A   1      32.045  27.388  24.691  1.00  0.00     0.066 C 
BRANCH   9  14
ATOM     14  C   UNL A   1      30.429  29.238  22.348  1.00  0.00     0.003 C 
BRANCH  14  15
ATOM     15  C   UNL A   1      29.194  30.102  22.052  1.00  0.00    -0.003 C 
ATOM     16  C   UNL A   1      27.903  29.655  22.735  1.00  0.00     0.004 C 
ENDBRANCH  14  15
ENDBRANCH   9  14
BRANCH  13  17
ATOM     17  S   UNL A   1      32.356  27.325  26.531  1.00  0.00    -0.122 SA
BRANCH  17  18
ATOM     18  C   UNL A   1      33.048  28.906  26.987  1.00  0.00     0.011 A 
ATOM     19  C   UNL A   1      34.410  29.002  27.274  1.00  0.00     0.035 A 
ATOM     20  C   UNL A   1      32.298  30.078  26.947  1.00  0.00     0.035 A 
ATOM     21  C   UNL A   1      34.941  30.236  27.620  1.00  0.00     0.112 A 
ATOM     22  C   UNL A   1      32.924  31.276  27.268  1.00  0.00     0.112 A 
ATOM     23  N   UNL A   1      34.224  31.377  27.629  1.00  0.00    -0.265 NA
ENDBRANCH  17  18
ENDBRANCH  13  17
ENDBRANCH   6   8
ENDBRANCH   5   6
ENDBRANCH   4   5
ENDBRANCH   3   4
ENDBRANCH   2   3
ENDBRANCH   1   2
BRANCH   1  24
ATOM     24  C   UNL A   1      39.251  23.153  26.479  1.00  0.00     0.261 C 
BRANCH  24  25
ATOM     25  O   UNL A   1      40.417  23.999  26.481  1.00  0.00    -0.460 OA
BRANCH  25  26
ATOM     26  C   UNL A   1      41.019  24.135  27.680  1.00  0.00     0.338 C 
ATOM     27  O   UNL A   1      41.854  23.381  28.178  1.00  0.00    -0.246 OA
BRANCH  26  28
ATOM     28  C   UNL A   1      40.692  25.443  28.265  1.00  0.00     0.060 A 
ATOM     29  C   UNL A   1      41.668  26.447  28.211  1.00  0.00     0.016 A 
ATOM     30  C   UNL A   1      39.495  25.643  28.953  1.00  0.00     0.016 A 
ATOM     31  C   UNL A   1      41.487  27.632  28.918  1.00  0.00     0.010 A 
ATOM     32  C   UNL A   1      39.319  26.825  29.671  1.00  0.00     0.010 A 
ATOM     33  C   UNL A   1      40.338  27.797  29.698  1.00  0.00    -0.014 A 
BRANCH  33  34
ATOM     34  C   UNL A   1      40.287  28.871  30.714  1.00  0.00     0.031 A 
ATOM     35  C   UNL A   1      41.207  28.772  31.900  1.00  0.00     0.074 A 
ATOM     36  C   UNL A   1      39.434  29.900  30.590  1.00  0.00     0.049 A 
ATOM     37  N   UNL A   1      41.257  29.513  32.973  1.00  0.00    -0.248 NA
ATOM     38  C   UNL A   1      42.199  27.683  31.870  1.00  0.00     0.031 C 
ATOM     39  C   UNL A   1      38.543  30.129  29.455  1.00  0.00     0.029 A 
ATOM     40  N   UNL A   1      39.169  30.938  31.447  1.00  0.00    -0.354 N 
ATOM     41  C   UNL A   1      42.264  28.966  33.761  1.00  0.00     0.074 A 
ATOM     42  C   UNL A   1      42.787  27.821  33.048  1.00  0.00     0.031 C 
ATOM     43  C   UNL A   1      37.807  31.227  29.697  1.00  0.00     0.029 A 
ATOM     44  C   UNL A   1      38.147  31.749  31.020  1.00  0.00     0.049 A 
ATOM     45  H   UNL A   1      39.664  31.087  32.285  1.00  0.00     0.167 HD
ATOM     46  C   UNL A   1      42.707  29.377  34.972  1.00  0.00     0.031 A 
ATOM     47  C   UNL A   1      37.530  32.771  31.645  1.00  0.00     0.031 A 
ATOM     48  C   UNL A   1      42.167  30.509  35.675  1.00  0.00     0.049 A 
ATOM     49  C   UNL A   1      37.990  33.174  33.020  1.00  0.00     0.074 A 
ATOM     50  C   UNL A   1      42.548  31.024  36.902  1.00  0.00     0.029 A 
ATOM     51  N   UNL A   1      41.122  31.300  35.215  1.00  0.00    -0.354 N 
ATOM     52  N   UNL A   1      38.944  32.653  33.755  1.00  0.00    -0.248 NA
ATOM     53  C   UNL A   1      37.296  34.306  33.649  1.00  0.00     0.031 C 
ATOM     54  C   UNL A   1      41.694  32.089  37.209  1.00  0.00     0.029 A 
ATOM     55  C   UNL A   1      40.828  32.282  36.144  1.00  0.00     0.049 A 
ATOM     56  H   UNL A   1      40.660  31.179  34.354  1.00  0.00     0.167 HD
ATOM     57  C   UNL A   1      38.988  33.415  34.918  1.00  0.00     0.074 A 
ATOM     58  C   UNL A   1      37.964  34.432  34.788  1.00  0.00     0.031 C 
ATOM     59  C   UNL A   1      39.807  33.289  35.992  1.00  0.00     0.031 A 
BRANCH  46  60
ATOM     60  C   UNL A   1      43.787  28.561  35.630  1.00  0.00    -0.014 A 
ATOM     61  C   UNL A   1      43.482  27.479  36.476  1.00  0.00     0.010 A 
ATOM     62  C   UNL A   1      45.136  28.881  35.391  1.00  0.00     0.010 A 
ATOM     63  C   UNL A   1      44.504  26.767  37.110  1.00  0.00     0.020 A 
ATOM     64  C   UNL A   1      46.162  28.152  36.000  1.00  0.00     0.020 A 
ATOM     65  C   UNL A   1      45.838  27.112  36.873  1.00  0.00     0.054 A 
BRANCH  65  66
ATOM     66  S   UNL A   1      47.145  26.174  37.711  1.00  0.00     0.124 S 
ATOM     67  O   UNL A   1      47.003  24.854  37.103  1.00  0.00    -0.237 OA
ATOM     68  O   UNL A   1      48.353  26.909  37.343  1.00  0.00    -0.237 OA
ATOM     69  O   UNL A   1      46.778  26.252  39.123  1.00  0.00    -0.744 OA
ENDBRANCH  65  66
ENDBRANCH  46  60
BRANCH  47  70
ATOM     70  C   UNL A   1      36.397  33.462  30.973  1.00  0.00    -0.014 A 
ATOM     71  C   UNL A   1      35.202  33.721  31.666  1.00  0.00     0.010 A 
ATOM     72  C   UNL A   1      36.528  33.907  29.645  1.00  0.00     0.010 A 
ATOM     73  C   UNL A   1      34.160  34.415  31.044  1.00  0.00     0.020 A 
ATOM     74  C   UNL A   1      35.499  34.624  29.028  1.00  0.00     0.020 A 
ATOM     75  C   UNL A   1      34.319  34.870  29.731  1.00  0.00     0.054 A 
BRANCH  75  76
ATOM     76  S   UNL A   1      32.987  35.843  28.976  1.00  0.00     0.124 S 
ATOM     77  O   UNL A   1      32.224  36.273  30.143  1.00  0.00    -0.237 OA
ATOM     78  O   UNL A   1      33.723  36.893  28.278  1.00  0.00    -0.237 OA
ATOM     79  O   UNL A   1      32.315  34.882  28.105  1.00  0.00    -0.744 OA
ENDBRANCH  75  76
ENDBRANCH  47  70
BRANCH  59  80
ATOM     80  C   UNL A   1      39.674  34.303  37.096  1.00  0.00    -0.014 A 
ATOM     81  C   UNL A   1      38.985  34.009  38.285  1.00  0.00     0.010 A 
ATOM     82  C   UNL A   1      40.328  35.544  36.970  1.00  0.00     0.010 A 
ATOM     83  C   UNL A   1      38.939  34.945  39.323  1.00  0.00     0.020 A 
ATOM     84  C   UNL A   1      40.308  36.470  38.015  1.00  0.00     0.020 A 
ATOM     85  C   UNL A   1      39.604  36.168  39.182  1.00  0.00     0.054 A 
BRANCH  85  86
ATOM     86  S   UNL A   1      39.586  37.337  40.568  1.00  0.00     0.124 S 
ATOM     87  O   UNL A   1      41.009  37.499  40.849  1.00  0.00    -0.237 OA
ATOM     88  O   UNL A   1      38.921  38.504  39.994  1.00  0.00    -0.237 OA
ATOM     89  O   UNL A   1      38.822  36.639  41.601  1.00  0.00    -0.744 OA
ENDBRANCH  85  86
ENDBRANCH  59  80
ENDBRANCH  33  34
ENDBRANCH  26  28
ENDBRANCH  25  26
ENDBRANCH  24  25
ENDBRANCH   1  24
TORSDOF 21
ENDMDL
MODEL 3
REMARK VINA RESULT:      -9.2      2.171      2.742
REMARK SMILES CCC[C@H]1CC[C@H](C(=O)OCCOCCOC(=O)c2ccc(-c3c4nc(c(-c5ccc(S(=O)(=O)[O-])cc5)c5ccc([nH]5)c(-c5ccc(S(=O)(=O)[O-])cc5)c5nc(c(-c6ccc(S(=O)(=O)[O-])cc6)c6ccc3[nH]6)C=C5)C=C4)cc2)[C@H](Sc2ccncc2)C1
REMARK SMILES IDX 14 1 13 2 12 3 11 4 10 5 8 6 9 7 7 8 4 9 5 10 87 11 6 12
REMARK SMILES IDX 79 13 3 14 2 15 1 16 80 17 81 18 82 19 86 20 83 21 85 22
REMARK SMILES IDX 84 23 15 24 16 25 17 26 18 27 19 28 20 29 78 30 21 31 77 32
REMARK SMILES IDX 22 33 23 34 24 35 71 36 25 37 76 38 70 39 72 40 26 41 75 42
REMARK SMILES IDX 69 43 68 44 27 46 57 47 38 48 56 49 39 50 42 51 55 52 73 53
REMARK SMILES IDX 40 54 41 55 54 57 74 58 43 59 28 60 29 61 37 62 30 63 36 64
REMARK SMILES IDX 31 65 32 66 33 67 34 68 35 69 58 70 59 71 67 72 60 73 66 74
REMARK SMILES IDX 61 75 62 76 63 77 64 78 65 79 44 80 45 81 53 82 46 83 52 84
REMARK SMILES IDX 47 85 48 86 49 87 50 88 51 89
REMARK H PARENT 72 45 42 56
REMARK Flexibility Score: inf
ROOT
ATOM      1  C   UNL A   1      31.685  28.551  27.451  1.00  0.00     0.202 C 
ENDROOT
BRANCH   1   2
ATOM      2  O   UNL A   1      31.475  27.563  26.447  1.00  0.00    -0.374 OA
BRANCH   2   3
ATOM      3  C   UNL A   1      32.350  26.445  26.410  1.00  0.00     0.202 C 
BRANCH   3   4
ATOM      4  C   UNL A   1      31.778  25.020  26.456  1.00  0.00     0.261 C 
BRANCH   4   5
ATOM      5  O   UNL A   1      32.600  23.950  25.983  1.00  0.00    -0.463 OA
BRANCH   5   6
ATOM      6  C   UNL A   1      32.507  23.661  24.660  1.00  0.00     0.310 C 
ATOM      7  O   UNL A   1      31.597  24.022  23.922  1.00  0.00    -0.252 OA
BRANCH   6   8
ATOM      8  C   UNL A   1      33.709  22.901  24.145  1.00  0.00     0.112 C 
ATOM      9  C   UNL A   1      36.252  23.097  25.782  1.00  0.00    -0.010 C 
ATOM     10  C   UNL A   1      35.716  24.281  24.982  1.00  0.00     0.004 C 
ATOM     11  C   UNL A   1      35.099  22.135  26.179  1.00  0.00     0.019 C 
ATOM     12  C   UNL A   1      34.847  23.873  23.792  1.00  0.00     0.017 C 
ATOM     13  C   UNL A   1      34.197  21.729  25.012  1.00  0.00     0.066 C 
BRANCH   9  14
ATOM     14  C   UNL A   1      37.517  22.408  25.194  1.00  0.00     0.003 C 
BRANCH  14  15
ATOM     15  C   UNL A   1      38.712  22.026  26.080  1.00  0.00    -0.003 C 
ATOM     16  C   UNL A   1      39.428  23.195  26.754  1.00  0.00     0.004 C 
ENDBRANCH  14  15
ENDBRANCH   9  14
BRANCH  13  17
ATOM     17  S   UNL A   1      32.957  20.407  25.461  1.00  0.00    -0.122 SA
BRANCH  17  18
ATOM     18  C   UNL A   1      33.208  19.061  24.315  1.00  0.00     0.011 A 
ATOM     19  C   UNL A   1      34.162  18.084  24.602  1.00  0.00     0.035 A 
ATOM     20  C   UNL A   1      32.394  18.881  23.200  1.00  0.00     0.035 A 
ATOM     21  C   UNL A   1      34.345  17.038  23.710  1.00  0.00     0.112 A 
ATOM     22  C   UNL A   1      32.622  17.779  22.385  1.00  0.00     0.112 A 
ATOM     23  N   UNL A   1      33.597  16.867  22.602  1.00  0.00    -0.265 NA
ENDBRANCH  17  18
ENDBRANCH  13  17
ENDBRANCH   6   8
ENDBRANCH   5   6
ENDBRANCH   4   5
ENDBRANCH   3   4
ENDBRANCH   2   3
ENDBRANCH   1   2
BRANCH   1  24
ATOM     24  C   UNL A   1      32.015  29.974  27.001  1.00  0.00     0.261 C 
BRANCH  24  25
ATOM     25  O   UNL A   1      33.314  30.379  27.471  1.00  0.00    -0.460 OA
BRANCH  25  26
ATOM     26  C   UNL A   1      34.351  29.711  26.924  1.00  0.00     0.338 C 
ATOM     27  O   UNL A   1      34.399  29.216  25.798  1.00  0.00    -0.246 OA
BRANCH  26  28
ATOM     28  C   UNL A   1      35.532  29.813  27.790  1.00  0.00     0.060 A 
ATOM     29  C   UNL A   1      36.757  30.140  27.193  1.00  0.00     0.016 A 
ATOM     30  C   UNL A   1      35.461  29.482  29.144  1.00  0.00     0.016 A 
ATOM     31  C   UNL A   1      37.934  30.057  27.930  1.00  0.00     0.010 A 
ATOM     32  C   UNL A   1      36.642  29.388  29.879  1.00  0.00     0.010 A 
ATOM     33  C   UNL A   1      37.884  29.622  29.258  1.00  0.00    -0.014 A 
BRANCH  33  34
ATOM     34  C   UNL A   1      39.126  29.196  29.940  1.00  0.00     0.031 A 
ATOM     35  C   UNL A   1      39.565  29.960  31.159  1.00  0.00     0.074 A 
ATOM     36  C   UNL A   1      39.850  28.164  29.478  1.00  0.00     0.049 A 
ATOM     37  N   UNL A   1      40.671  29.859  31.845  1.00  0.00    -0.248 NA
ATOM     38  C   UNL A   1      38.631  30.980  31.665  1.00  0.00     0.031 C 
ATOM     39  C   UNL A   1      39.487  27.317  28.345  1.00  0.00     0.029 A 
ATOM     40  N   UNL A   1      41.057  27.669  29.902  1.00  0.00    -0.354 N 
ATOM     41  C   UNL A   1      40.580  30.821  32.847  1.00  0.00     0.074 A 
ATOM     42  C   UNL A   1      39.318  31.504  32.668  1.00  0.00     0.031 C 
ATOM     43  C   UNL A   1      40.467  26.419  28.145  1.00  0.00     0.029 A 
ATOM     44  C   UNL A   1      41.540  26.660  29.109  1.00  0.00     0.049 A 
ATOM     45  H   UNL A   1      41.529  28.006  30.698  1.00  0.00     0.167 HD
ATOM     46  C   UNL A   1      41.473  31.111  33.822  1.00  0.00     0.031 A 
ATOM     47  C   UNL A   1      42.731  26.029  29.134  1.00  0.00     0.031 A 
ATOM     48  C   UNL A   1      42.731  30.432  33.979  1.00  0.00     0.049 A 
ATOM     49  C   UNL A   1      43.739  26.409  30.184  1.00  0.00     0.074 A 
ATOM     50  C   UNL A   1      43.706  30.635  34.939  1.00  0.00     0.029 A 
ATOM     51  N   UNL A   1      43.191  29.421  33.146  1.00  0.00    -0.354 N 
ATOM     52  N   UNL A   1      43.643  27.317  31.127  1.00  0.00    -0.248 NA
ATOM     53  C   UNL A   1      45.014  25.679  30.178  1.00  0.00     0.031 C 
ATOM     54  C   UNL A   1      44.781  29.787  34.651  1.00  0.00     0.029 A 
ATOM     55  C   UNL A   1      44.446  29.008  33.555  1.00  0.00     0.049 A 
ATOM     56  H   UNL A   1      42.696  29.052  32.379  1.00  0.00     0.167 HD
ATOM     57  C   UNL A   1      44.831  27.243  31.849  1.00  0.00     0.074 A 
ATOM     58  C   UNL A   1      45.628  26.201  31.232  1.00  0.00     0.031 C 
ATOM     59  C   UNL A   1      45.221  27.965  32.929  1.00  0.00     0.031 A 
BRANCH  46  60
ATOM     60  C   UNL A   1      41.139  32.247  34.752  1.00  0.00    -0.014 A 
ATOM     61  C   UNL A   1      41.534  33.568  34.474  1.00  0.00     0.010 A 
ATOM     62  C   UNL A   1      40.409  31.985  35.926  1.00  0.00     0.010 A 
ATOM     63  C   UNL A   1      41.251  34.596  35.378  1.00  0.00     0.020 A 
ATOM     64  C   UNL A   1      40.098  33.016  36.819  1.00  0.00     0.020 A 
ATOM     65  C   UNL A   1      40.540  34.312  36.548  1.00  0.00     0.054 A 
BRANCH  65  66
ATOM     66  S   UNL A   1      40.188  35.663  37.706  1.00  0.00     0.124 S 
ATOM     67  O   UNL A   1      39.045  35.135  38.445  1.00  0.00    -0.237 OA
ATOM     68  O   UNL A   1      41.432  35.768  38.464  1.00  0.00    -0.237 OA
ATOM     69  O   UNL A   1      39.894  36.799  36.835  1.00  0.00    -0.744 OA
ENDBRANCH  65  66
ENDBRANCH  46  60
BRANCH  47  70
ATOM     70  C   UNL A   1      43.030  24.990  28.113  1.00  0.00    -0.014 A 
ATOM     71  C   UNL A   1      43.596  25.341  26.876  1.00  0.00     0.010 A 
ATOM     72  C   UNL A   1      42.792  23.632  28.396  1.00  0.00     0.010 A 
ATOM     73  C   UNL A   1      43.921  24.353  25.941  1.00  0.00     0.020 A 
ATOM     74  C   UNL A   1      43.139  22.640  27.475  1.00  0.00     0.020 A 
ATOM     75  C   UNL A   1      43.698  23.008  26.251  1.00  0.00     0.054 A 
BRANCH  75  76
ATOM     76  S   UNL A   1      44.209  21.740  25.057  1.00  0.00     0.124 S 
ATOM     77  O   UNL A   1      43.195  20.709  25.255  1.00  0.00    -0.237 OA
ATOM     78  O   UNL A   1      44.143  22.459  23.788  1.00  0.00    -0.237 OA
ATOM     79  O   UNL A   1      45.557  21.385  25.494  1.00  0.00    -0.744 OA
ENDBRANCH  75  76
ENDBRANCH  47  70
BRANCH  59  80
ATOM     80  C   UNL A   1      46.548  27.626  33.555  1.00  0.00    -0.014 A 
ATOM     81  C   UNL A   1      46.657  26.654  34.564  1.00  0.00     0.010 A 
ATOM     82  C   UNL A   1      47.716  28.234  33.057  1.00  0.00     0.010 A 
ATOM     83  C   UNL A   1      47.911  26.308  35.076  1.00  0.00     0.020 A 
ATOM     84  C   UNL A   1      48.973  27.872  33.547  1.00  0.00     0.020 A 
ATOM     85  C   UNL A   1      49.062  26.918  34.561  1.00  0.00     0.054 A 
BRANCH  85  86
ATOM     86  S   UNL A   1      50.681  26.404  35.196  1.00  0.00     0.124 S 
ATOM     87  O   UNL A   1      50.362  26.018  36.567  1.00  0.00    -0.237 OA
ATOM     88  O   UNL A   1      51.041  25.306  34.302  1.00  0.00    -0.237 OA
ATOM     89  O   UNL A   1      51.504  27.604  35.061  1.00  0.00    -0.744 OA
ENDBRANCH  85  86
ENDBRANCH  59  80
ENDBRANCH  33  34
ENDBRANCH  26  28
ENDBRANCH  25  26
ENDBRANCH  24  25
ENDBRANCH   1  24
TORSDOF 21
ENDMDL
