MODEL 1
REMARK VINA RESULT:      -9.6      0.000      0.000
REMARK SMILES C[C@@H](C(=O)OCCOCCOC(=O)c1ccc(-c2c3nc(c(-c4ccc(S(=O)(=O)[O-])cc4)c4ccc([nH]4)c(-c4ccc(S(=O)(=O)[O-])cc4)c4nc(c(-c5ccc(S(=O)(=O)[O-])cc5)c5ccc2[nH]5)C=C4)C=C3)cc1)N1C(=O)c2nccnc2C1=O
REMARK SMILES IDX 9 1 8 2 7 3 6 4 5 5 3 6 4 7 2 8 1 9 74 10 75 11 83 12 76 13
REMARK SMILES IDX 77 14 82 15 84 16 78 17 81 18 79 19 80 20 10 21 11 22 12 23
REMARK SMILES IDX 13 24 14 25 15 26 73 27 16 28 72 29 17 30 18 31 19 32 66 33
REMARK SMILES IDX 20 34 71 35 65 36 67 37 21 38 70 39 64 40 63 41 22 43 52 44
REMARK SMILES IDX 33 45 51 46 34 47 37 48 50 49 68 50 35 51 36 52 49 54 69 55
REMARK SMILES IDX 38 56 23 57 24 58 32 59 25 60 31 61 26 62 27 63 28 64 29 65
REMARK SMILES IDX 30 66 53 67 54 68 62 69 55 70 61 71 56 72 57 73 58 74 59 75
REMARK SMILES IDX 60 76 39 77 40 78 48 79 41 80 47 81 42 82 43 83 44 84 45 85
REMARK SMILES IDX 46 86
REMARK H PARENT 67 42 37 53
REMARK Flexibility Score: inf
ROOT
ATOM      1  C   UNL A   1      33.692  34.419  28.695  1.00  0.00     0.202 C 
ENDROOT
BRANCH   1   2
ATOM      2  O   UNL A   1      32.731  34.860  29.651  1.00  0.00    -0.374 OA
BRANCH   2   3
ATOM      3  C   UNL A   1      33.125  35.859  30.588  1.00  0.00     0.202 C 
BRANCH   3   4
ATOM      4  C   UNL A   1      32.598  35.757  32.024  1.00  0.00     0.261 C 
BRANCH   4   5
ATOM      5  O   UNL A   1      33.171  34.659  32.753  1.00  0.00    -0.462 OA
BRANCH   5   6
ATOM      6  C   UNL A   1      34.274  34.972  33.485  1.00  0.00     0.329 C 
ATOM      7  O   UNL A   1      34.541  36.101  33.889  1.00  0.00    -0.250 OA
BRANCH   6   8
ATOM      8  C   UNL A   1      35.172  33.752  33.747  1.00  0.00     0.201 C 
ATOM      9  C   UNL A   1      35.763  33.660  35.152  1.00  0.00     0.044 C 
BRANCH   8  10
ATOM     10  N   UNL A   1      36.185  33.779  32.684  1.00  0.00    -0.257 N 
ATOM     11  C   UNL A   1      37.340  34.523  32.677  1.00  0.00     0.282 C 
ATOM     12  C   UNL A   1      35.929  33.251  31.441  1.00  0.00     0.282 C 
ATOM     13  O   UNL A   1      37.825  35.186  33.574  1.00  0.00    -0.267 OA
ATOM     14  C   UNL A   1      37.899  34.405  31.330  1.00  0.00     0.160 A 
ATOM     15  C   UNL A   1      37.033  33.659  30.577  1.00  0.00     0.160 A 
ATOM     16  O   UNL A   1      34.973  32.577  31.099  1.00  0.00    -0.267 OA
ATOM     17  N   UNL A   1      39.058  34.919  30.868  1.00  0.00    -0.247 NA
ATOM     18  N   UNL A   1      37.223  33.355  29.278  1.00  0.00    -0.247 NA
ATOM     19  C   UNL A   1      39.272  34.626  29.557  1.00  0.00     0.132 A 
ATOM     20  C   UNL A   1      38.377  33.874  28.783  1.00  0.00     0.132 A 
ENDBRANCH   8  10
ENDBRANCH   6   8
ENDBRANCH   5   6
ENDBRANCH   4   5
ENDBRANCH   3   4
ENDBRANCH   2   3
ENDBRANCH   1   2
BRANCH   1  21
ATOM     21  C   UNL A   1      33.462  33.080  27.980  1.00  0.00     0.261 C 
BRANCH  21  22
ATOM     22  O   UNL A   1      34.659  32.292  27.852  1.00  0.00    -0.460 OA
BRANCH  22  23
ATOM     23  C   UNL A   1      34.448  30.954  27.906  1.00  0.00     0.338 C 
ATOM     24  O   UNL A   1      33.411  30.362  27.657  1.00  0.00    -0.246 OA
BRANCH  23  25
ATOM     25  C   UNL A   1      35.722  30.242  28.126  1.00  0.00     0.060 A 
ATOM     26  C   UNL A   1      35.948  29.710  29.401  1.00  0.00     0.016 A 
ATOM     27  C   UNL A   1      36.712  30.176  27.143  1.00  0.00     0.016 A 
ATOM     28  C   UNL A   1      37.187  29.165  29.723  1.00  0.00     0.010 A 
ATOM     29  C   UNL A   1      37.960  29.631  27.471  1.00  0.00     0.010 A 
ATOM     30  C   UNL A   1      38.216  29.161  28.772  1.00  0.00    -0.014 A 
BRANCH  30  31
ATOM     31  C   UNL A   1      39.594  28.798  29.189  1.00  0.00     0.031 A 
ATOM     32  C   UNL A   1      40.400  29.784  29.994  1.00  0.00     0.074 A 
ATOM     33  C   UNL A   1      40.108  27.592  28.886  1.00  0.00     0.049 A 
ATOM     34  N   UNL A   1      41.628  29.683  30.436  1.00  0.00    -0.248 NA
ATOM     35  C   UNL A   1      39.737  31.050  30.347  1.00  0.00     0.031 C 
ATOM     36  C   UNL A   1      39.407  26.534  28.157  1.00  0.00     0.029 A 
ATOM     37  N   UNL A   1      41.341  27.055  29.155  1.00  0.00    -0.354 N 
ATOM     38  C   UNL A   1      41.888  30.875  31.103  1.00  0.00     0.074 A 
ATOM     39  C   UNL A   1      40.703  31.694  30.985  1.00  0.00     0.031 C 
ATOM     40  C   UNL A   1      40.225  25.474  28.036  1.00  0.00     0.029 A 
ATOM     41  C   UNL A   1      41.517  25.793  28.639  1.00  0.00     0.049 A 
ATOM     42  H   UNL A   1      42.035  27.529  29.667  1.00  0.00     0.167 HD
ATOM     43  C   UNL A   1      43.013  31.251  31.758  1.00  0.00     0.031 A 
ATOM     44  C   UNL A   1      42.603  24.995  28.634  1.00  0.00     0.031 A 
ATOM     45  C   UNL A   1      44.192  30.432  31.869  1.00  0.00     0.049 A 
ATOM     46  C   UNL A   1      43.868  25.467  29.303  1.00  0.00     0.074 A 
ATOM     47  C   UNL A   1      45.375  30.715  32.532  1.00  0.00     0.029 A 
ATOM     48  N   UNL A   1      44.346  29.178  31.296  1.00  0.00    -0.354 N 
ATOM     49  N   UNL A   1      44.091  26.586  29.950  1.00  0.00    -0.248 NA
ATOM     50  C   UNL A   1      45.026  24.565  29.244  1.00  0.00     0.031 C 
ATOM     51  C   UNL A   1      46.266  29.663  32.300  1.00  0.00     0.029 A 
ATOM     52  C   UNL A   1      45.614  28.689  31.561  1.00  0.00     0.049 A 
ATOM     53  H   UNL A   1      43.655  28.706  30.778  1.00  0.00     0.167 HD
ATOM     54  C   UNL A   1      45.404  26.506  30.407  1.00  0.00     0.074 A 
ATOM     55  C   UNL A   1      45.918  25.224  29.973  1.00  0.00     0.031 C 
ATOM     56  C   UNL A   1      46.116  27.410  31.124  1.00  0.00     0.031 A 
BRANCH  43  57
ATOM     57  C   UNL A   1      43.041  32.626  32.376  1.00  0.00    -0.014 A 
ATOM     58  C   UNL A   1      42.544  32.861  33.671  1.00  0.00     0.010 A 
ATOM     59  C   UNL A   1      43.627  33.691  31.667  1.00  0.00     0.010 A 
ATOM     60  C   UNL A   1      42.603  34.141  34.230  1.00  0.00     0.020 A 
ATOM     61  C   UNL A   1      43.716  34.966  32.234  1.00  0.00     0.020 A 
ATOM     62  C   UNL A   1      43.190  35.185  33.508  1.00  0.00     0.054 A 
BRANCH  62  63
ATOM     63  S   UNL A   1      43.282  36.828  34.272  1.00  0.00     0.124 S 
ATOM     64  O   UNL A   1      43.311  37.704  33.103  1.00  0.00    -0.237 OA
ATOM     65  O   UNL A   1      42.057  36.880  35.066  1.00  0.00    -0.237 OA
ATOM     66  O   UNL A   1      44.521  36.783  35.045  1.00  0.00    -0.744 OA
ENDBRANCH  62  63
ENDBRANCH  43  57
BRANCH  44  67
ATOM     67  C   UNL A   1      42.551  23.670  27.954  1.00  0.00    -0.014 A 
ATOM     68  C   UNL A   1      42.879  23.547  26.592  1.00  0.00     0.010 A 
ATOM     69  C   UNL A   1      42.161  22.522  28.668  1.00  0.00     0.010 A 
ATOM     70  C   UNL A   1      42.798  22.305  25.954  1.00  0.00     0.020 A 
ATOM     71  C   UNL A   1      42.111  21.274  28.041  1.00  0.00     0.020 A 
ATOM     72  C   UNL A   1      42.417  21.177  26.684  1.00  0.00     0.054 A 
BRANCH  72  73
ATOM     73  S   UNL A   1      42.361  19.569  25.843  1.00  0.00     0.124 S 
ATOM     74  O   UNL A   1      40.970  19.502  25.408  1.00  0.00    -0.237 OA
ATOM     75  O   UNL A   1      43.351  19.737  24.781  1.00  0.00    -0.237 OA
ATOM     76  O   UNL A   1      42.737  18.622  26.891  1.00  0.00    -0.744 OA
ENDBRANCH  72  73
ENDBRANCH  44  67
BRANCH  56  77
ATOM     77  C   UNL A   1      47.520  27.033  31.527  1.00  0.00    -0.014 A 
ATOM     78  C   UNL A   1      47.791  26.411  32.757  1.00  0.00     0.010 A 
ATOM     79  C   UNL A   1      48.580  27.259  30.627  1.00  0.00     0.010 A 
ATOM     80  C   UNL A   1      49.099  26.052  33.096  1.00  0.00     0.020 A 
ATOM     81  C   UNL A   1      49.883  26.871  30.947  1.00  0.00     0.020 A 
ATOM     82  C   UNL A   1      50.136  26.284  32.187  1.00  0.00     0.054 A 
BRANCH  82  83
ATOM     83  S   UNL A   1      51.817  25.769  32.633  1.00  0.00     0.124 S 
ATOM     84  O   UNL A   1      51.812  24.356  32.259  1.00  0.00    -0.237 OA
ATOM     85  O   UNL A   1      52.648  26.636  31.801  1.00  0.00    -0.237 OA
ATOM     86  O   UNL A   1      51.894  26.031  34.068  1.00  0.00    -0.744 OA
ENDBRANCH  82  83
ENDBRANCH  56  77
ENDBRANCH  30  31
ENDBRANCH  23  25
ENDBRANCH  22  23
ENDBRANCH  21  22
ENDBRANCH   1  21
TORSDOF 18
ENDMDL
MODEL 2
REMARK VINA RESULT:      -9.3      1.146      2.293
REMARK SMILES C[C@@H](C(=O)OCCOCCOC(=O)c1ccc(-c2c3nc(c(-c4ccc(S(=O)(=O)[O-])cc4)c4ccc([nH]4)c(-c4ccc(S(=O)(=O)[O-])cc4)c4nc(c(-c5ccc(S(=O)(=O)[O-])cc5)c5ccc2[nH]5)C=C4)C=C3)cc1)N1C(=O)c2nccnc2C1=O
REMARK SMILES IDX 9 1 8 2 7 3 6 4 5 5 3 6 4 7 2 8 1 9 74 10 75 11 83 12 76 13
REMARK SMILES IDX 77 14 82 15 84 16 78 17 81 18 79 19 80 20 10 21 11 22 12 23
REMARK SMILES IDX 13 24 14 25 15 26 73 27 16 28 72 29 17 30 18 31 19 32 66 33
REMARK SMILES IDX 20 34 71 35 65 36 67 37 21 38 70 39 64 40 63 41 22 43 52 44
REMARK SMILES IDX 33 45 51 46 34 47 37 48 50 49 68 50 35 51 36 52 49 54 69 55
REMARK SMILES IDX 38 56 23 57 24 58 32 59 25 60 31 61 26 62 27 63 28 64 29 65
REMARK SMILES IDX 30 66 53 67 54 68 62 69 55 70 61 71 56 72 57 73 58 74 59 75
REMARK SMILES IDX 60 76 39 77 40 78 48 79 41 80 47 81 42 82 43 83 44 84 45 85
REMARK SMILES IDX 46 86
REMARK H PARENT 67 42 37 53
REMARK Flexibility Score: inf
ROOT
ATOM      1  C   UNL A   1      33.768  34.529  28.443  1.00  0.00     0.202 C 
ENDROOT
BRANCH   1   2
ATOM      2  O   UNL A   1      32.808  35.174  29.277  1.00  0.00    -0.374 OA
BRANCH   2   3
ATOM      3  C   UNL A   1      33.283  35.945  30.377  1.00  0.00     0.202 C 
BRANCH   3   4
ATOM      4  C   UNL A   1      33.198  35.337  31.782  1.00  0.00     0.261 C 
BRANCH   4   5
ATOM      5  O   UNL A   1      34.485  34.986  32.317  1.00  0.00    -0.462 OA
BRANCH   5   6
ATOM      6  C   UNL A   1      34.936  33.753  31.961  1.00  0.00     0.329 C 
ATOM      7  O   UNL A   1      34.232  32.748  31.901  1.00  0.00    -0.250 OA
BRANCH   6   8
ATOM      8  C   UNL A   1      36.441  33.744  31.650  1.00  0.00     0.201 C 
ATOM      9  C   UNL A   1      36.836  33.096  30.325  1.00  0.00     0.044 C 
BRANCH   8  10
ATOM     10  N   UNL A   1      37.076  33.122  32.820  1.00  0.00    -0.257 N 
ATOM     11  C   UNL A   1      37.171  31.777  33.077  1.00  0.00     0.282 C 
ATOM     12  C   UNL A   1      37.405  33.863  33.931  1.00  0.00     0.282 C 
ATOM     13  O   UNL A   1      36.888  30.841  32.353  1.00  0.00    -0.267 OA
ATOM     14  C   UNL A   1      37.664  31.652  34.450  1.00  0.00     0.160 A 
ATOM     15  C   UNL A   1      37.780  32.911  34.973  1.00  0.00     0.160 A 
ATOM     16  O   UNL A   1      37.389  35.076  34.051  1.00  0.00    -0.267 OA
ATOM     17  N   UNL A   1      37.968  30.520  35.119  1.00  0.00    -0.247 NA
ATOM     18  N   UNL A   1      38.198  33.178  36.226  1.00  0.00    -0.247 NA
ATOM     19  C   UNL A   1      38.393  30.764  36.388  1.00  0.00     0.132 A 
ATOM     20  C   UNL A   1      38.496  32.053  36.928  1.00  0.00     0.132 A 
ENDBRANCH   8  10
ENDBRANCH   6   8
ENDBRANCH   5   6
ENDBRANCH   4   5
ENDBRANCH   3   4
ENDBRANCH   2   3
ENDBRANCH   1   2
BRANCH   1  21
ATOM     21  C   UNL A   1      33.527  33.072  28.027  1.00  0.00     0.261 C 
BRANCH  21  22
ATOM     22  O   UNL A   1      34.738  32.301  27.932  1.00  0.00    -0.460 OA
BRANCH  22  23
ATOM     23  C   UNL A   1      34.537  30.961  27.881  1.00  0.00     0.338 C 
ATOM     24  O   UNL A   1      33.507  30.382  27.578  1.00  0.00    -0.246 OA
BRANCH  23  25
ATOM     25  C   UNL A   1      35.814  30.244  28.057  1.00  0.00     0.060 A 
ATOM     26  C   UNL A   1      36.024  29.598  29.283  1.00  0.00     0.016 A 
ATOM     27  C   UNL A   1      36.821  30.277  27.091  1.00  0.00     0.016 A 
ATOM     28  C   UNL A   1      37.264  29.037  29.575  1.00  0.00     0.010 A 
ATOM     29  C   UNL A   1      38.069  29.716  27.389  1.00  0.00     0.010 A 
ATOM     30  C   UNL A   1      38.309  29.131  28.646  1.00  0.00    -0.014 A 
BRANCH  30  31
ATOM     31  C   UNL A   1      39.684  28.744  29.052  1.00  0.00     0.031 A 
ATOM     32  C   UNL A   1      40.527  29.729  29.818  1.00  0.00     0.074 A 
ATOM     33  C   UNL A   1      40.162  27.518  28.773  1.00  0.00     0.049 A 
ATOM     34  N   UNL A   1      41.758  29.609  30.245  1.00  0.00    -0.248 NA
ATOM     35  C   UNL A   1      39.901  31.021  30.148  1.00  0.00     0.031 C 
ATOM     36  C   UNL A   1      39.424  26.459  28.084  1.00  0.00     0.029 A 
ATOM     37  N   UNL A   1      41.385  26.956  29.038  1.00  0.00    -0.354 N 
ATOM     38  C   UNL A   1      42.059  30.811  30.876  1.00  0.00     0.074 A 
ATOM     39  C   UNL A   1      40.892  31.657  30.753  1.00  0.00     0.031 C 
ATOM     40  C   UNL A   1      40.213  25.376  27.979  1.00  0.00     0.029 A 
ATOM     41  C   UNL A   1      41.522  25.677  28.554  1.00  0.00     0.049 A 
ATOM     42  H   UNL A   1      42.099  27.426  29.528  1.00  0.00     0.167 HD
ATOM     43  C   UNL A   1      43.202  31.175  31.505  1.00  0.00     0.031 A 
ATOM     44  C   UNL A   1      42.587  24.852  28.554  1.00  0.00     0.031 A 
ATOM     45  C   UNL A   1      44.362  30.329  31.619  1.00  0.00     0.049 A 
ATOM     46  C   UNL A   1      43.874  25.309  29.191  1.00  0.00     0.074 A 
ATOM     47  C   UNL A   1      45.561  30.599  32.257  1.00  0.00     0.029 A 
ATOM     48  N   UNL A   1      44.475  29.058  31.078  1.00  0.00    -0.354 N 
ATOM     49  N   UNL A   1      44.134  26.439  29.805  1.00  0.00    -0.248 NA
ATOM     50  C   UNL A   1      45.008  24.376  29.139  1.00  0.00     0.031 C 
ATOM     51  C   UNL A   1      46.422  29.519  32.041  1.00  0.00     0.029 A 
ATOM     52  C   UNL A   1      45.734  28.543  31.337  1.00  0.00     0.049 A 
ATOM     53  H   UNL A   1      43.765  28.589  30.583  1.00  0.00     0.167 HD
ATOM     54  C   UNL A   1      45.452  26.337  30.245  1.00  0.00     0.074 A 
ATOM     55  C   UNL A   1      45.927  25.031  29.837  1.00  0.00     0.031 C 
ATOM     56  C   UNL A   1      46.197  27.241  30.927  1.00  0.00     0.031 A 
BRANCH  43  57
ATOM     57  C   UNL A   1      43.274  32.565  32.085  1.00  0.00    -0.014 A 
ATOM     58  C   UNL A   1      43.749  33.653  31.330  1.00  0.00     0.010 A 
ATOM     59  C   UNL A   1      42.805  32.794  33.391  1.00  0.00     0.010 A 
ATOM     60  C   UNL A   1      43.784  34.936  31.884  1.00  0.00     0.020 A 
ATOM     61  C   UNL A   1      42.809  34.080  33.938  1.00  0.00     0.020 A 
ATOM     62  C   UNL A   1      43.313  35.142  33.185  1.00  0.00     0.054 A 
BRANCH  62  63
ATOM     63  S   UNL A   1      43.339  36.823  33.865  1.00  0.00     0.124 S 
ATOM     64  O   UNL A   1      42.084  36.868  34.610  1.00  0.00    -0.237 OA
ATOM     65  O   UNL A   1      44.552  36.819  34.678  1.00  0.00    -0.237 OA
ATOM     66  O   UNL A   1      43.389  37.677  32.681  1.00  0.00    -0.744 OA
ENDBRANCH  62  63
ENDBRANCH  43  57
BRANCH  44  67
ATOM     67  C   UNL A   1      42.491  23.511  27.910  1.00  0.00    -0.014 A 
ATOM     68  C   UNL A   1      42.198  22.366  28.670  1.00  0.00     0.010 A 
ATOM     69  C   UNL A   1      42.705  23.374  26.525  1.00  0.00     0.010 A 
ATOM     70  C   UNL A   1      42.140  21.108  28.063  1.00  0.00     0.020 A 
ATOM     71  C   UNL A   1      42.616  22.123  25.909  1.00  0.00     0.020 A 
ATOM     72  C   UNL A   1      42.347  20.996  26.686  1.00  0.00     0.054 A 
BRANCH  72  73
ATOM     73  S   UNL A   1      42.225  19.358  25.914  1.00  0.00     0.124 S 
ATOM     74  O   UNL A   1      40.796  19.259  25.634  1.00  0.00    -0.237 OA
ATOM     75  O   UNL A   1      43.091  19.498  24.745  1.00  0.00    -0.237 OA
ATOM     76  O   UNL A   1      42.726  18.455  26.947  1.00  0.00    -0.744 OA
ENDBRANCH  72  73
ENDBRANCH  44  67
BRANCH  56  77
ATOM     77  C   UNL A   1      47.597  26.839  31.319  1.00  0.00    -0.014 A 
ATOM     78  C   UNL A   1      47.954  26.626  32.662  1.00  0.00     0.010 A 
ATOM     79  C   UNL A   1      48.558  26.617  30.313  1.00  0.00     0.010 A 
ATOM     80  C   UNL A   1      49.253  26.232  32.995  1.00  0.00     0.020 A 
ATOM     81  C   UNL A   1      49.848  26.190  30.640  1.00  0.00     0.020 A 
ATOM     82  C   UNL A   1      50.191  26.016  31.981  1.00  0.00     0.054 A 
BRANCH  82  83
ATOM     83  S   UNL A   1      51.857  25.463  32.438  1.00  0.00     0.124 S 
ATOM     84  O   UNL A   1      51.795  24.033  32.143  1.00  0.00    -0.237 OA
ATOM     85  O   UNL A   1      52.710  26.251  31.551  1.00  0.00    -0.237 OA
ATOM     86  O   UNL A   1      51.961  25.801  33.855  1.00  0.00    -0.744 OA
ENDBRANCH  82  83
ENDBRANCH  56  77
ENDBRANCH  30  31
ENDBRANCH  23  25
ENDBRANCH  22  23
ENDBRANCH  21  22
ENDBRANCH   1  21
TORSDOF 18
ENDMDL
MODEL 3
REMARK VINA RESULT:      -9.2      1.205      8.556
REMARK SMILES C[C@@H](C(=O)OCCOCCOC(=O)c1ccc(-c2c3nc(c(-c4ccc(S(=O)(=O)[O-])cc4)c4ccc([nH]4)c(-c4ccc(S(=O)(=O)[O-])cc4)c4nc(c(-c5ccc(S(=O)(=O)[O-])cc5)c5ccc2[nH]5)C=C4)C=C3)cc1)N1C(=O)c2nccnc2C1=O
REMARK SMILES IDX 9 1 8 2 7 3 6 4 5 5 3 6 4 7 2 8 1 9 74 10 75 11 83 12 76 13
REMARK SMILES IDX 77 14 82 15 84 16 78 17 81 18 79 19 80 20 10 21 11 22 12 23
REMARK SMILES IDX 13 24 14 25 15 26 73 27 16 28 72 29 17 30 18 31 19 32 66 33
REMARK SMILES IDX 20 34 71 35 65 36 67 37 21 38 70 39 64 40 63 41 22 43 52 44
REMARK SMILES IDX 33 45 51 46 34 47 37 48 50 49 68 50 35 51 36 52 49 54 69 55
REMARK SMILES IDX 38 56 23 57 24 58 32 59 25 60 31 61 26 62 27 63 28 64 29 65
REMARK SMILES IDX 30 66 53 67 54 68 62 69 55 70 61 71 56 72 57 73 58 74 59 75
REMARK SMILES IDX 60 76 39 77 40 78 48 79 41 80 47 81 42 82 43 83 44 84 45 85
REMARK SMILES IDX 46 86
REMARK H PARENT 67 42 37 53
REMARK Flexibility Score: inf
ROOT
ATOM      1  C   UNL A   1      33.646  34.280  28.451  1.00  0.00     0.202 C 
ENDROOT
BRANCH   1   2
ATOM      2  O   UNL A   1      32.749  34.625  29.505  1.00  0.00    -0.374 OA
BRANCH   2   3
ATOM      3  C   UNL A   1      33.147  35.642  30.421  1.00  0.00     0.202 C 
BRANCH   3   4
ATOM      4  C   UNL A   1      33.218  35.290  31.911  1.00  0.00     0.261 C 
BRANCH   4   5
ATOM      5  O   UNL A   1      34.547  34.963  32.346  1.00  0.00    -0.462 OA
BRANCH   5   6
ATOM      6  C   UNL A   1      34.982  33.727  31.977  1.00  0.00     0.329 C 
ATOM      7  O   UNL A   1      34.260  32.739  31.883  1.00  0.00    -0.250 OA
BRANCH   6   8
ATOM      8  C   UNL A   1      36.494  33.694  31.701  1.00  0.00     0.201 C 
ATOM      9  C   UNL A   1      36.912  32.993  30.410  1.00  0.00     0.044 C 
BRANCH   8  10
ATOM     10  N   UNL A   1      37.097  33.111  32.907  1.00  0.00    -0.257 N 
ATOM     11  C   UNL A   1      37.089  31.784  33.263  1.00  0.00     0.282 C 
ATOM     12  C   UNL A   1      37.502  33.902  33.956  1.00  0.00     0.282 C 
ATOM     13  O   UNL A   1      36.721  30.824  32.615  1.00  0.00    -0.267 OA
ATOM     14  C   UNL A   1      37.594  31.722  34.636  1.00  0.00     0.160 A 
ATOM     15  C   UNL A   1      37.817  33.003  35.062  1.00  0.00     0.160 A 
ATOM     16  O   UNL A   1      37.584  35.118  33.985  1.00  0.00    -0.267 OA
ATOM     17  N   UNL A   1      37.818  30.622  35.385  1.00  0.00    -0.247 NA
ATOM     18  N   UNL A   1      38.277  33.327  36.287  1.00  0.00    -0.247 NA
ATOM     19  C   UNL A   1      38.282  30.924  36.627  1.00  0.00     0.132 A 
ATOM     20  C   UNL A   1      38.496  32.237  37.068  1.00  0.00     0.132 A 
ENDBRANCH   8  10
ENDBRANCH   6   8
ENDBRANCH   5   6
ENDBRANCH   4   5
ENDBRANCH   3   4
ENDBRANCH   2   3
ENDBRANCH   1   2
BRANCH   1  21
ATOM     21  C   UNL A   1      33.588  32.863  27.866  1.00  0.00     0.261 C 
BRANCH  21  22
ATOM     22  O   UNL A   1      34.341  31.903  28.629  1.00  0.00    -0.460 OA
BRANCH  22  23
ATOM     23  C   UNL A   1      34.383  30.666  28.074  1.00  0.00     0.338 C 
ATOM     24  O   UNL A   1      33.522  30.135  27.393  1.00  0.00    -0.246 OA
BRANCH  23  25
ATOM     25  C   UNL A   1      35.727  30.078  28.234  1.00  0.00     0.060 A 
ATOM     26  C   UNL A   1      36.047  29.541  29.487  1.00  0.00     0.016 A 
ATOM     27  C   UNL A   1      36.684  30.131  27.219  1.00  0.00     0.016 A 
ATOM     28  C   UNL A   1      37.344  29.113  29.755  1.00  0.00     0.010 A 
ATOM     29  C   UNL A   1      37.989  29.703  27.491  1.00  0.00     0.010 A 
ATOM     30  C   UNL A   1      38.335  29.231  28.771  1.00  0.00    -0.014 A 
BRANCH  30  31
ATOM     31  C   UNL A   1      39.755  28.995  29.133  1.00  0.00     0.031 A 
ATOM     32  C   UNL A   1      40.395  27.680  28.775  1.00  0.00     0.074 A 
ATOM     33  C   UNL A   1      40.477  29.954  29.741  1.00  0.00     0.049 A 
ATOM     34  N   UNL A   1      41.608  27.255  29.019  1.00  0.00    -0.248 NA
ATOM     35  C   UNL A   1      39.557  26.714  28.044  1.00  0.00     0.031 C 
ATOM     36  C   UNL A   1      39.986  31.287  30.092  1.00  0.00     0.029 A 
ATOM     37  N   UNL A   1      41.780  29.953  30.170  1.00  0.00    -0.354 N 
ATOM     38  C   UNL A   1      41.674  25.971  28.489  1.00  0.00     0.074 A 
ATOM     39  C   UNL A   1      40.372  25.675  27.934  1.00  0.00     0.031 C 
ATOM     40  C   UNL A   1      40.977  31.974  30.686  1.00  0.00     0.029 A 
ATOM     41  C   UNL A   1      42.157  31.118  30.795  1.00  0.00     0.049 A 
ATOM     42  H   UNL A   1      42.388  29.189  30.044  1.00  0.00     0.167 HD
ATOM     43  C   UNL A   1      42.726  25.118  28.464  1.00  0.00     0.031 A 
ATOM     44  C   UNL A   1      43.312  31.449  31.404  1.00  0.00     0.031 A 
ATOM     45  C   UNL A   1      44.019  25.417  29.023  1.00  0.00     0.049 A 
ATOM     46  C   UNL A   1      44.443  30.453  31.432  1.00  0.00     0.074 A 
ATOM     47  C   UNL A   1      45.156  24.627  29.027  1.00  0.00     0.029 A 
ATOM     48  N   UNL A   1      44.346  26.591  29.685  1.00  0.00    -0.354 N 
ATOM     49  N   UNL A   1      44.498  29.253  30.905  1.00  0.00    -0.248 NA
ATOM     50  C   UNL A   1      45.669  30.860  32.131  1.00  0.00     0.031 C 
ATOM     51  C   UNL A   1      46.148  25.294  29.753  1.00  0.00     0.029 A 
ATOM     52  C   UNL A   1      45.656  26.533  30.132  1.00  0.00     0.049 A 
ATOM     53  H   UNL A   1      43.738  27.353  29.817  1.00  0.00     0.167 HD
ATOM     54  C   UNL A   1      45.777  28.776  31.178  1.00  0.00     0.074 A 
ATOM     55  C   UNL A   1      46.465  29.823  31.905  1.00  0.00     0.031 C 
ATOM     56  C   UNL A   1      46.331  27.582  30.854  1.00  0.00     0.031 A 
BRANCH  43  57
ATOM     57  C   UNL A   1      42.515  23.759  27.846  1.00  0.00    -0.014 A 
ATOM     58  C   UNL A   1      42.883  23.491  26.515  1.00  0.00     0.010 A 
ATOM     59  C   UNL A   1      41.990  22.716  28.631  1.00  0.00     0.010 A 
ATOM     60  C   UNL A   1      42.698  22.216  25.973  1.00  0.00     0.020 A 
ATOM     61  C   UNL A   1      41.832  21.432  28.103  1.00  0.00     0.020 A 
ATOM     62  C   UNL A   1      42.174  21.194  26.771  1.00  0.00     0.054 A 
BRANCH  62  63
ATOM     63  S   UNL A   1      41.977  19.541  26.050  1.00  0.00     0.124 S 
ATOM     64  O   UNL A   1      40.537  19.487  25.808  1.00  0.00    -0.237 OA
ATOM     65  O   UNL A   1      42.812  19.613  24.854  1.00  0.00    -0.237 OA
ATOM     66  O   UNL A   1      42.465  18.645  27.095  1.00  0.00    -0.744 OA
ENDBRANCH  62  63
ENDBRANCH  43  57
BRANCH  44  67
ATOM     67  C   UNL A   1      43.454  32.779  32.061  1.00  0.00    -0.014 A 
ATOM     68  C   UNL A   1      43.805  33.917  31.314  1.00  0.00     0.010 A 
ATOM     69  C   UNL A   1      43.247  32.910  33.447  1.00  0.00     0.010 A 
ATOM     70  C   UNL A   1      43.966  35.156  31.942  1.00  0.00     0.020 A 
ATOM     71  C   UNL A   1      43.375  34.153  34.073  1.00  0.00     0.020 A 
ATOM     72  C   UNL A   1      43.747  35.265  33.318  1.00  0.00     0.054 A 
BRANCH  72  73
ATOM     73  S   UNL A   1      43.921  36.892  34.104  1.00  0.00     0.124 S 
ATOM     74  O   UNL A   1      44.560  37.672  33.050  1.00  0.00    -0.237 OA
ATOM     75  O   UNL A   1      42.534  37.245  34.402  1.00  0.00    -0.237 OA
ATOM     76  O   UNL A   1      44.752  36.618  35.275  1.00  0.00    -0.744 OA
ENDBRANCH  72  73
ENDBRANCH  44  67
BRANCH  56  77
ATOM     77  C   UNL A   1      47.771  27.352  31.242  1.00  0.00    -0.014 A 
ATOM     78  C   UNL A   1      48.122  26.857  32.510  1.00  0.00     0.010 A 
ATOM     79  C   UNL A   1      48.786  27.585  30.294  1.00  0.00     0.010 A 
ATOM     80  C   UNL A   1      49.463  26.631  32.835  1.00  0.00     0.020 A 
ATOM     81  C   UNL A   1      50.124  27.329  30.604  1.00  0.00     0.020 A 
ATOM     82  C   UNL A   1      50.455  26.868  31.879  1.00  0.00     0.054 A 
BRANCH  82  83
ATOM     83  S   UNL A   1      52.183  26.526  32.312  1.00  0.00     0.124 S 
ATOM     84  O   UNL A   1      52.045  25.847  33.599  1.00  0.00    -0.237 OA
ATOM     85  O   UNL A   1      52.630  25.687  31.203  1.00  0.00    -0.237 OA
ATOM     86  O   UNL A   1      52.796  27.851  32.371  1.00  0.00    -0.744 OA
ENDBRANCH  82  83
ENDBRANCH  56  77
ENDBRANCH  30  31
ENDBRANCH  23  25
ENDBRANCH  22  23
ENDBRANCH  21  22
ENDBRANCH   1  21
TORSDOF 18
ENDMDL
