MODEL 1
REMARK VINA RESULT:     -10.4      0.000      0.000
REMARK SMILES O=C(OCCOCCOC(=O)[C@H]1C[C@](O)(c2ccccc2Cl)[C@@H](c2ccccc2Cl)O1)c1ccc(-c2c3nc(c(-c4ccc(S(=O)(=O)[O-])cc4)c4ccc([nH]4)c(-c4ccc(S(=O)(=O)[O-])cc4)c4nc(c(-c5ccc(S(=O)(=O)[O-])cc5)c5ccc2[nH]5)C=C4)C=C3)cc1
REMARK SMILES IDX 5 1 4 2 3 3 2 4 1 5 32 6 33 7 91 8 34 9 90 10 35 11 36 12
REMARK SMILES IDX 37 13 84 14 38 15 89 16 83 17 85 18 39 19 88 20 82 21 81 22
REMARK SMILES IDX 40 24 70 25 51 26 69 27 52 28 55 29 68 30 86 31 53 32 54 33
REMARK SMILES IDX 67 35 87 36 56 37 41 38 42 39 50 40 43 41 49 42 44 43 45 44
REMARK SMILES IDX 46 45 47 46 48 47 71 48 72 49 80 50 73 51 79 52 74 53 75 54
REMARK SMILES IDX 76 55 77 56 78 57 57 58 58 59 66 60 59 61 65 62 60 63 61 64
REMARK SMILES IDX 62 65 63 66 64 67 6 68 7 69 8 70 9 71 10 72 11 73 12 74
REMARK SMILES IDX 13 75 31 76 14 77 23 78 16 79 17 80 21 81 18 82 20 83 22 84
REMARK SMILES IDX 19 85 15 86 24 88 25 89 29 90 26 91 28 92 30 93 27 94
REMARK H PARENT 85 23 55 34 15 87
REMARK Flexibility Score: inf
ROOT
ATOM      1  C   UNL A   1      35.845  21.051  25.242  1.00  0.00     0.202 C 
ENDROOT
BRANCH   1   2
ATOM      2  C   UNL A   1      36.954  21.944  24.654  1.00  0.00     0.261 C 
BRANCH   2   3
ATOM      3  O   UNL A   1      37.383  22.983  25.551  1.00  0.00    -0.460 OA
BRANCH   3   4
ATOM      4  C   UNL A   1      38.559  23.038  26.230  1.00  0.00     0.338 C 
ATOM      5  O   UNL A   1      39.205  22.001  26.374  1.00  0.00    -0.246 OA
BRANCH   4   6
ATOM      6  C   UNL A   1      39.040  24.277  26.927  1.00  0.00     0.060 A 
ATOM      7  C   UNL A   1      38.824  24.543  28.275  1.00  0.00     0.016 A 
ATOM      8  C   UNL A   1      39.840  25.186  26.211  1.00  0.00     0.016 A 
ATOM      9  C   UNL A   1      39.405  25.606  28.922  1.00  0.00     0.010 A 
ATOM     10  C   UNL A   1      40.418  26.295  26.847  1.00  0.00     0.010 A 
ATOM     11  C   UNL A   1      40.203  26.487  28.214  1.00  0.00    -0.014 A 
BRANCH  11  12
ATOM     12  C   UNL A   1      40.593  27.671  28.987  1.00  0.00     0.031 A 
ATOM     13  C   UNL A   1      42.036  27.782  29.369  1.00  0.00     0.074 A 
ATOM     14  C   UNL A   1      39.756  28.725  29.003  1.00  0.00     0.049 A 
ATOM     15  N   UNL A   1      42.671  28.787  29.900  1.00  0.00    -0.248 NA
ATOM     16  C   UNL A   1      42.891  26.619  29.058  1.00  0.00     0.031 C 
ATOM     17  C   UNL A   1      38.405  28.737  28.424  1.00  0.00     0.029 A 
ATOM     18  N   UNL A   1      39.938  30.004  29.445  1.00  0.00    -0.354 N 
ATOM     19  C   UNL A   1      43.995  28.380  29.990  1.00  0.00     0.074 A 
ATOM     20  C   UNL A   1      44.077  27.036  29.468  1.00  0.00     0.031 C 
ATOM     21  C   UNL A   1      37.890  29.972  28.540  1.00  0.00     0.029 A 
ATOM     22  C   UNL A   1      38.844  30.814  29.250  1.00  0.00     0.049 A 
ATOM     23  H   UNL A   1      40.773  30.318  29.862  1.00  0.00     0.167 HD
ATOM     24  C   UNL A   1      45.044  29.077  30.476  1.00  0.00     0.031 A 
ATOM     25  C   UNL A   1      38.636  32.084  29.645  1.00  0.00     0.031 A 
ATOM     26  C   UNL A   1      44.906  30.397  31.023  1.00  0.00     0.049 A 
ATOM     27  C   UNL A   1      39.772  32.772  30.355  1.00  0.00     0.074 A 
ATOM     28  C   UNL A   1      45.844  31.165  31.683  1.00  0.00     0.029 A 
ATOM     29  N   UNL A   1      43.735  31.143  30.966  1.00  0.00    -0.354 N 
ATOM     30  N   UNL A   1      40.997  32.338  30.558  1.00  0.00    -0.248 NA
ATOM     31  C   UNL A   1      39.507  34.109  30.894  1.00  0.00     0.031 C 
ATOM     32  C   UNL A   1      45.220  32.354  32.077  1.00  0.00     0.029 A 
ATOM     33  C   UNL A   1      43.917  32.357  31.597  1.00  0.00     0.049 A 
ATOM     34  H   UNL A   1      42.898  30.849  30.538  1.00  0.00     0.167 HD
ATOM     35  C   UNL A   1      41.654  33.356  31.237  1.00  0.00     0.074 A 
ATOM     36  C   UNL A   1      40.697  34.438  31.379  1.00  0.00     0.031 C 
ATOM     37  C   UNL A   1      42.925  33.398  31.712  1.00  0.00     0.031 A 
BRANCH  24  38
ATOM     38  C   UNL A   1      46.370  28.372  30.525  1.00  0.00    -0.014 A 
ATOM     39  C   UNL A   1      46.741  27.576  31.624  1.00  0.00     0.010 A 
ATOM     40  C   UNL A   1      47.278  28.544  29.466  1.00  0.00     0.010 A 
ATOM     41  C   UNL A   1      48.011  26.990  31.675  1.00  0.00     0.020 A 
ATOM     42  C   UNL A   1      48.537  27.941  29.501  1.00  0.00     0.020 A 
ATOM     43  C   UNL A   1      48.900  27.177  30.613  1.00  0.00     0.054 A 
BRANCH  43  44
ATOM     44  S   UNL A   1      50.532  26.391  30.696  1.00  0.00     0.124 S 
ATOM     45  O   UNL A   1      51.241  27.047  29.599  1.00  0.00    -0.237 OA
ATOM     46  O   UNL A   1      50.989  26.745  32.037  1.00  0.00    -0.237 OA
ATOM     47  O   UNL A   1      50.246  24.973  30.491  1.00  0.00    -0.744 OA
ENDBRANCH  43  44
ENDBRANCH  24  38
BRANCH  25  48
ATOM     48  C   UNL A   1      37.297  32.724  29.491  1.00  0.00    -0.014 A 
ATOM     49  C   UNL A   1      36.820  33.166  28.246  1.00  0.00     0.010 A 
ATOM     50  C   UNL A   1      36.499  32.943  30.634  1.00  0.00     0.010 A 
ATOM     51  C   UNL A   1      35.597  33.845  28.153  1.00  0.00     0.020 A 
ATOM     52  C   UNL A   1      35.264  33.587  30.541  1.00  0.00     0.020 A 
ATOM     53  C   UNL A   1      34.830  34.056  29.304  1.00  0.00     0.054 A 
BRANCH  53  54
ATOM     54  S   UNL A   1      33.255  34.948  29.167  1.00  0.00     0.124 S 
ATOM     55  O   UNL A   1      32.533  34.139  28.190  1.00  0.00    -0.237 OA
ATOM     56  O   UNL A   1      32.743  34.899  30.533  1.00  0.00    -0.237 OA
ATOM     57  O   UNL A   1      33.653  36.276  28.705  1.00  0.00    -0.744 OA
ENDBRANCH  53  54
ENDBRANCH  25  48
BRANCH  37  58
ATOM     58  C   UNL A   1      43.347  34.669  32.392  1.00  0.00    -0.014 A 
ATOM     59  C   UNL A   1      43.779  35.782  31.651  1.00  0.00     0.010 A 
ATOM     60  C   UNL A   1      43.259  34.760  33.793  1.00  0.00     0.010 A 
ATOM     61  C   UNL A   1      44.160  36.953  32.307  1.00  0.00     0.020 A 
ATOM     62  C   UNL A   1      43.602  35.940  34.448  1.00  0.00     0.020 A 
ATOM     63  C   UNL A   1      44.069  37.024  33.700  1.00  0.00     0.054 A 
BRANCH  63  64
ATOM     64  S   UNL A   1      44.537  38.567  34.524  1.00  0.00     0.124 S 
ATOM     65  O   UNL A   1      44.912  38.098  35.855  1.00  0.00    -0.237 OA
ATOM     66  O   UNL A   1      45.637  39.053  33.694  1.00  0.00    -0.237 OA
ATOM     67  O   UNL A   1      43.319  39.374  34.467  1.00  0.00    -0.744 OA
ENDBRANCH  63  64
ENDBRANCH  37  58
ENDBRANCH  11  12
ENDBRANCH   4   6
ENDBRANCH   3   4
ENDBRANCH   2   3
ENDBRANCH   1   2
BRANCH   1  68
ATOM     68  O   UNL A   1      35.158  21.513  26.405  1.00  0.00    -0.374 OA
BRANCH  68  69
ATOM     69  C   UNL A   1      34.159  22.519  26.242  1.00  0.00     0.202 C 
BRANCH  69  70
ATOM     70  C   UNL A   1      32.810  22.002  26.743  1.00  0.00     0.261 C 
BRANCH  70  71
ATOM     71  O   UNL A   1      32.085  23.099  27.316  1.00  0.00    -0.461 OA
BRANCH  71  72
ATOM     72  C   UNL A   1      30.836  23.346  26.838  1.00  0.00     0.335 C 
ATOM     73  O   UNL A   1      29.902  22.564  26.837  1.00  0.00    -0.249 OA
BRANCH  72  74
ATOM     74  C   UNL A   1      30.724  24.824  26.439  1.00  0.00     0.232 C 
ATOM     75  C   UNL A   1      32.044  25.549  26.678  1.00  0.00     0.087 C 
ATOM     76  O   UNL A   1      30.371  24.998  25.066  1.00  0.00    -0.355 OA
ATOM     77  C   UNL A   1      32.298  26.363  25.425  1.00  0.00     0.124 C 
ATOM     78  C   UNL A   1      31.470  25.605  24.351  1.00  0.00     0.187 C 
BRANCH  77  79
ATOM     79  C   UNL A   1      31.980  27.855  25.669  1.00  0.00     0.005 A 
ATOM     80  C   UNL A   1      32.385  28.401  26.917  1.00  0.00     0.008 A 
ATOM     81  C   UNL A   1      31.350  28.746  24.779  1.00  0.00     0.047 A 
ATOM     82  C   UNL A   1      32.295  29.765  27.204  1.00  0.00     0.001 A 
ATOM     83  C   UNL A   1      31.285  30.120  25.063  1.00  0.00     0.021 A 
ATOM     84  Cl  UNL A   1      30.547  28.298  23.319  1.00  0.00    -0.084 Cl
ATOM     85  C   UNL A   1      31.776  30.634  26.258  1.00  0.00     0.002 A 
ENDBRANCH  77  79
BRANCH  77  86
ATOM     86  O   UNL A   1      33.704  26.303  25.122  1.00  0.00    -0.382 OA
ATOM     87  H   UNL A   1      34.149  27.080  25.495  1.00  0.00     0.212 HD
ENDBRANCH  77  86
BRANCH  78  88
ATOM     88  C   UNL A   1      32.019  24.493  23.465  1.00  0.00     0.003 A 
ATOM     89  C   UNL A   1      31.703  23.132  23.638  1.00  0.00     0.008 A 
ATOM     90  C   UNL A   1      32.779  24.836  22.323  1.00  0.00     0.046 A 
ATOM     91  C   UNL A   1      32.078  22.171  22.693  1.00  0.00     0.000 A 
ATOM     92  C   UNL A   1      33.154  23.872  21.381  1.00  0.00     0.021 A 
ATOM     93  Cl  UNL A   1      33.286  26.463  22.000  1.00  0.00    -0.084 Cl
ATOM     94  C   UNL A   1      32.790  22.542  21.557  1.00  0.00     0.002 A 
ENDBRANCH  78  88
ENDBRANCH  72  74
ENDBRANCH  71  72
ENDBRANCH  70  71
ENDBRANCH  69  70
ENDBRANCH  68  69
ENDBRANCH   1  68
TORSDOF 20
ENDMDL
MODEL 2
REMARK VINA RESULT:     -10.4      3.549      9.664
REMARK SMILES O=C(OCCOCCOC(=O)[C@H]1C[C@](O)(c2ccccc2Cl)[C@@H](c2ccccc2Cl)O1)c1ccc(-c2c3nc(c(-c4ccc(S(=O)(=O)[O-])cc4)c4ccc([nH]4)c(-c4ccc(S(=O)(=O)[O-])cc4)c4nc(c(-c5ccc(S(=O)(=O)[O-])cc5)c5ccc2[nH]5)C=C4)C=C3)cc1
REMARK SMILES IDX 5 1 4 2 3 3 2 4 1 5 32 6 33 7 91 8 34 9 90 10 35 11 36 12
REMARK SMILES IDX 37 13 84 14 38 15 89 16 83 17 85 18 39 19 88 20 82 21 81 22
REMARK SMILES IDX 40 24 70 25 51 26 69 27 52 28 55 29 68 30 86 31 53 32 54 33
REMARK SMILES IDX 67 35 87 36 56 37 41 38 42 39 50 40 43 41 49 42 44 43 45 44
REMARK SMILES IDX 46 45 47 46 48 47 71 48 72 49 80 50 73 51 79 52 74 53 75 54
REMARK SMILES IDX 76 55 77 56 78 57 57 58 58 59 66 60 59 61 65 62 60 63 61 64
REMARK SMILES IDX 62 65 63 66 64 67 6 68 7 69 8 70 9 71 10 72 11 73 12 74
REMARK SMILES IDX 13 75 31 76 14 77 23 78 16 79 17 80 21 81 18 82 20 83 22 84
REMARK SMILES IDX 19 85 15 86 24 88 25 89 29 90 26 91 28 92 30 93 27 94
REMARK H PARENT 85 23 55 34 15 87
REMARK Flexibility Score: inf
ROOT
ATOM      1  C   UNL A   1      35.835  33.033  28.546  1.00  0.00     0.202 C 
ENDROOT
BRANCH   1   2
ATOM      2  C   UNL A   1      35.716  32.988  30.081  1.00  0.00     0.261 C 
BRANCH   2   3
ATOM      3  O   UNL A   1      35.788  31.655  30.618  1.00  0.00    -0.460 OA
BRANCH   3   4
ATOM      4  C   UNL A   1      36.834  31.103  31.287  1.00  0.00     0.338 C 
ATOM      5  O   UNL A   1      36.790  31.058  32.516  1.00  0.00    -0.246 OA
BRANCH   4   6
ATOM      6  C   UNL A   1      38.098  30.668  30.606  1.00  0.00     0.060 A 
ATOM      7  C   UNL A   1      39.267  30.329  31.279  1.00  0.00     0.016 A 
ATOM      8  C   UNL A   1      38.086  30.494  29.209  1.00  0.00     0.016 A 
ATOM      9  C   UNL A   1      40.357  29.788  30.643  1.00  0.00     0.010 A 
ATOM     10  C   UNL A   1      39.201  29.970  28.537  1.00  0.00     0.010 A 
ATOM     11  C   UNL A   1      40.332  29.606  29.272  1.00  0.00    -0.014 A 
BRANCH  11  12
ATOM     12  C   UNL A   1      41.626  29.204  28.712  1.00  0.00     0.031 A 
ATOM     13  C   UNL A   1      42.755  30.176  28.858  1.00  0.00     0.074 A 
ATOM     14  C   UNL A   1      41.822  27.902  28.432  1.00  0.00     0.049 A 
ATOM     15  N   UNL A   1      44.021  30.009  28.606  1.00  0.00    -0.248 NA
ATOM     16  C   UNL A   1      42.416  31.499  29.418  1.00  0.00     0.031 C 
ATOM     17  C   UNL A   1      40.790  26.859  28.506  1.00  0.00     0.029 A 
ATOM     18  N   UNL A   1      42.961  27.219  28.112  1.00  0.00    -0.354 N 
ATOM     19  C   UNL A   1      44.630  31.202  28.972  1.00  0.00     0.074 A 
ATOM     20  C   UNL A   1      43.599  32.089  29.457  1.00  0.00     0.031 C 
ATOM     21  C   UNL A   1      41.352  25.667  28.248  1.00  0.00     0.029 A 
ATOM     22  C   UNL A   1      42.760  25.870  27.934  1.00  0.00     0.049 A 
ATOM     23  H   UNL A   1      43.842  27.650  28.019  1.00  0.00     0.167 HD
ATOM     24  C   UNL A   1      45.940  31.520  28.898  1.00  0.00     0.031 A 
ATOM     25  C   UNL A   1      43.623  24.922  27.523  1.00  0.00     0.031 A 
ATOM     26  C   UNL A   1      46.924  30.617  28.370  1.00  0.00     0.049 A 
ATOM     27  C   UNL A   1      45.043  25.355  27.270  1.00  0.00     0.074 A 
ATOM     28  C   UNL A   1      48.257  30.850  28.096  1.00  0.00     0.029 A 
ATOM     29  N   UNL A   1      46.663  29.294  28.035  1.00  0.00    -0.354 N 
ATOM     30  N   UNL A   1      45.597  26.526  27.495  1.00  0.00    -0.248 NA
ATOM     31  C   UNL A   1      45.952  24.354  26.706  1.00  0.00     0.031 C 
ATOM     32  C   UNL A   1      48.787  29.682  27.539  1.00  0.00     0.029 A 
ATOM     33  C   UNL A   1      47.805  28.700  27.536  1.00  0.00     0.049 A 
ATOM     34  H   UNL A   1      45.793  28.846  28.138  1.00  0.00     0.167 HD
ATOM     35  C   UNL A   1      46.926  26.399  27.112  1.00  0.00     0.074 A 
ATOM     36  C   UNL A   1      47.096  25.026  26.673  1.00  0.00     0.031 C 
ATOM     37  C   UNL A   1      47.917  27.326  27.110  1.00  0.00     0.031 A 
BRANCH  24  38
ATOM     38  C   UNL A   1      46.328  32.915  29.295  1.00  0.00    -0.014 A 
ATOM     39  C   UNL A   1      46.658  33.238  30.625  1.00  0.00     0.010 A 
ATOM     40  C   UNL A   1      46.322  33.932  28.324  1.00  0.00     0.010 A 
ATOM     41  C   UNL A   1      46.944  34.562  30.979  1.00  0.00     0.020 A 
ATOM     42  C   UNL A   1      46.631  35.250  28.670  1.00  0.00     0.020 A 
ATOM     43  C   UNL A   1      46.928  35.558  29.999  1.00  0.00     0.054 A 
BRANCH  43  44
ATOM     44  S   UNL A   1      47.322  37.261  30.483  1.00  0.00     0.124 S 
ATOM     45  O   UNL A   1      46.048  37.723  31.031  1.00  0.00    -0.237 OA
ATOM     46  O   UNL A   1      48.393  37.076  31.458  1.00  0.00    -0.237 OA
ATOM     47  O   UNL A   1      47.725  37.895  29.230  1.00  0.00    -0.744 OA
ENDBRANCH  43  44
ENDBRANCH  24  38
BRANCH  25  48
ATOM     48  C   UNL A   1      43.152  23.539  27.218  1.00  0.00    -0.014 A 
ATOM     49  C   UNL A   1      43.016  22.559  28.217  1.00  0.00     0.010 A 
ATOM     50  C   UNL A   1      42.882  23.180  25.881  1.00  0.00     0.010 A 
ATOM     51  C   UNL A   1      42.659  21.246  27.880  1.00  0.00     0.020 A 
ATOM     52  C   UNL A   1      42.491  21.882  25.546  1.00  0.00     0.020 A 
ATOM     53  C   UNL A   1      42.405  20.915  26.545  1.00  0.00     0.054 A 
BRANCH  53  54
ATOM     54  S   UNL A   1      41.956  19.208  26.126  1.00  0.00     0.124 S 
ATOM     55  O   UNL A   1      40.518  19.318  25.901  1.00  0.00    -0.237 OA
ATOM     56  O   UNL A   1      42.766  18.949  24.939  1.00  0.00    -0.237 OA
ATOM     57  O   UNL A   1      42.345  18.450  27.314  1.00  0.00    -0.744 OA
ENDBRANCH  53  54
ENDBRANCH  25  48
BRANCH  37  58
ATOM     58  C   UNL A   1      49.270  26.863  26.650  1.00  0.00    -0.014 A 
ATOM     59  C   UNL A   1      50.224  26.384  27.564  1.00  0.00     0.010 A 
ATOM     60  C   UNL A   1      49.565  26.864  25.275  1.00  0.00     0.010 A 
ATOM     61  C   UNL A   1      51.471  25.954  27.110  1.00  0.00     0.020 A 
ATOM     62  C   UNL A   1      50.796  26.400  24.816  1.00  0.00     0.020 A 
ATOM     63  C   UNL A   1      51.748  25.965  25.740  1.00  0.00     0.054 A 
BRANCH  63  64
ATOM     64  S   UNL A   1      53.362  25.370  25.175  1.00  0.00     0.124 S 
ATOM     65  O   UNL A   1      54.277  26.085  26.060  1.00  0.00    -0.237 OA
ATOM     66  O   UNL A   1      53.268  23.929  25.398  1.00  0.00    -0.237 OA
ATOM     67  O   UNL A   1      53.409  25.774  23.771  1.00  0.00    -0.744 OA
ENDBRANCH  63  64
ENDBRANCH  37  58
ENDBRANCH  11  12
ENDBRANCH   4   6
ENDBRANCH   3   4
ENDBRANCH   2   3
ENDBRANCH   1   2
BRANCH   1  68
ATOM     68  O   UNL A   1      34.631  33.011  27.779  1.00  0.00    -0.374 OA
BRANCH  68  69
ATOM     69  C   UNL A   1      33.775  31.876  27.902  1.00  0.00     0.202 C 
BRANCH  69  70
ATOM     70  C   UNL A   1      34.567  30.594  27.643  1.00  0.00     0.261 C 
BRANCH  70  71
ATOM     71  O   UNL A   1      34.188  30.074  26.361  1.00  0.00    -0.461 OA
BRANCH  71  72
ATOM     72  C   UNL A   1      33.697  28.807  26.316  1.00  0.00     0.335 C 
ATOM     73  O   UNL A   1      34.267  27.804  26.708  1.00  0.00    -0.249 OA
BRANCH  72  74
ATOM     74  C   UNL A   1      32.239  28.839  25.838  1.00  0.00     0.232 C 
ATOM     75  C   UNL A   1      32.165  29.162  24.350  1.00  0.00     0.087 C 
ATOM     76  O   UNL A   1      31.562  27.600  26.053  1.00  0.00    -0.355 OA
ATOM     77  C   UNL A   1      31.187  28.165  23.762  1.00  0.00     0.124 C 
ATOM     78  C   UNL A   1      31.237  26.994  24.782  1.00  0.00     0.187 C 
BRANCH  77  79
ATOM     79  C   UNL A   1      29.821  28.834  23.491  1.00  0.00     0.005 A 
ATOM     80  C   UNL A   1      29.823  30.245  23.317  1.00  0.00     0.008 A 
ATOM     81  C   UNL A   1      28.571  28.197  23.374  1.00  0.00     0.047 A 
ATOM     82  C   UNL A   1      28.687  30.952  22.917  1.00  0.00     0.001 A 
ATOM     83  C   UNL A   1      27.438  28.911  22.948  1.00  0.00     0.021 A 
ATOM     84  Cl  UNL A   1      28.247  26.552  23.779  1.00  0.00    -0.084 Cl
ATOM     85  C   UNL A   1      27.498  30.277  22.697  1.00  0.00     0.002 A 
ENDBRANCH  77  79
BRANCH  77  86
ATOM     86  O   UNL A   1      31.683  27.745  22.478  1.00  0.00    -0.382 OA
ATOM     87  H   UNL A   1      31.179  26.975  22.172  1.00  0.00     0.212 HD
ENDBRANCH  77  86
BRANCH  78  88
ATOM     88  C   UNL A   1      32.172  25.795  24.674  1.00  0.00     0.003 A 
ATOM     89  C   UNL A   1      33.409  25.831  24.003  1.00  0.00     0.008 A 
ATOM     90  C   UNL A   1      31.862  24.616  25.390  1.00  0.00     0.046 A 
ATOM     91  C   UNL A   1      34.315  24.767  24.088  1.00  0.00     0.000 A 
ATOM     92  C   UNL A   1      32.769  23.553  25.471  1.00  0.00     0.021 A 
ATOM     93  Cl  UNL A   1      30.357  24.405  26.225  1.00  0.00    -0.084 Cl
ATOM     94  C   UNL A   1      34.002  23.635  24.834  1.00  0.00     0.002 A 
ENDBRANCH  78  88
ENDBRANCH  72  74
ENDBRANCH  71  72
ENDBRANCH  70  71
ENDBRANCH  69  70
ENDBRANCH  68  69
ENDBRANCH   1  68
TORSDOF 20
ENDMDL
MODEL 3
REMARK VINA RESULT:     -10.3      4.108      9.673
REMARK SMILES O=C(OCCOCCOC(=O)[C@H]1C[C@](O)(c2ccccc2Cl)[C@@H](c2ccccc2Cl)O1)c1ccc(-c2c3nc(c(-c4ccc(S(=O)(=O)[O-])cc4)c4ccc([nH]4)c(-c4ccc(S(=O)(=O)[O-])cc4)c4nc(c(-c5ccc(S(=O)(=O)[O-])cc5)c5ccc2[nH]5)C=C4)C=C3)cc1
REMARK SMILES IDX 5 1 4 2 3 3 2 4 1 5 32 6 33 7 91 8 34 9 90 10 35 11 36 12
REMARK SMILES IDX 37 13 84 14 38 15 89 16 83 17 85 18 39 19 88 20 82 21 81 22
REMARK SMILES IDX 40 24 70 25 51 26 69 27 52 28 55 29 68 30 86 31 53 32 54 33
REMARK SMILES IDX 67 35 87 36 56 37 41 38 42 39 50 40 43 41 49 42 44 43 45 44
REMARK SMILES IDX 46 45 47 46 48 47 71 48 72 49 80 50 73 51 79 52 74 53 75 54
REMARK SMILES IDX 76 55 77 56 78 57 57 58 58 59 66 60 59 61 65 62 60 63 61 64
REMARK SMILES IDX 62 65 63 66 64 67 6 68 7 69 8 70 9 71 10 72 11 73 12 74
REMARK SMILES IDX 13 75 31 76 14 77 23 78 16 79 17 80 21 81 18 82 20 83 22 84
REMARK SMILES IDX 19 85 15 86 24 88 25 89 29 90 26 91 28 92 30 93 27 94
REMARK H PARENT 85 23 55 34 15 87
REMARK Flexibility Score: inf
ROOT
ATOM      1  C   UNL A   1      42.440  22.284  25.726  1.00  0.00     0.202 C 
ENDROOT
BRANCH   1   2
ATOM      2  C   UNL A   1      42.857  23.727  25.384  1.00  0.00     0.261 C 
BRANCH   2   3
ATOM      3  O   UNL A   1      43.273  24.486  26.533  1.00  0.00    -0.460 OA
BRANCH   3   4
ATOM      4  C   UNL A   1      43.560  25.815  26.572  1.00  0.00     0.338 C 
ATOM      5  O   UNL A   1      44.228  26.299  25.659  1.00  0.00    -0.246 OA
BRANCH   4   6
ATOM      6  C   UNL A   1      43.214  26.688  27.741  1.00  0.00     0.060 A 
ATOM      7  C   UNL A   1      43.760  27.948  27.958  1.00  0.00     0.016 A 
ATOM      8  C   UNL A   1      42.208  26.261  28.627  1.00  0.00     0.016 A 
ATOM      9  C   UNL A   1      43.314  28.789  28.948  1.00  0.00     0.010 A 
ATOM     10  C   UNL A   1      41.758  27.094  29.664  1.00  0.00     0.010 A 
ATOM     11  C   UNL A   1      42.313  28.368  29.806  1.00  0.00    -0.014 A 
BRANCH  11  12
ATOM     12  C   UNL A   1      42.077  29.288  30.923  1.00  0.00     0.031 A 
ATOM     13  C   UNL A   1      40.848  30.139  30.849  1.00  0.00     0.074 A 
ATOM     14  C   UNL A   1      42.745  29.077  32.073  1.00  0.00     0.049 A 
ATOM     15  N   UNL A   1      40.322  30.904  31.761  1.00  0.00    -0.248 NA
ATOM     16  C   UNL A   1      40.076  30.072  29.592  1.00  0.00     0.031 C 
ATOM     17  C   UNL A   1      43.807  28.079  32.260  1.00  0.00     0.029 A 
ATOM     18  N   UNL A   1      42.579  29.622  33.315  1.00  0.00    -0.354 N 
ATOM     19  C   UNL A   1      39.162  31.413  31.191  1.00  0.00     0.074 A 
ATOM     20  C   UNL A   1      39.061  30.878  29.853  1.00  0.00     0.031 C 
ATOM     21  C   UNL A   1      44.187  28.080  33.548  1.00  0.00     0.029 A 
ATOM     22  C   UNL A   1      43.443  29.114  34.257  1.00  0.00     0.049 A 
ATOM     23  H   UNL A   1      41.906  30.312  33.517  1.00  0.00     0.167 HD
ATOM     24  C   UNL A   1      38.269  32.260  31.746  1.00  0.00     0.031 A 
ATOM     25  C   UNL A   1      43.626  29.482  35.539  1.00  0.00     0.031 A 
ATOM     26  C   UNL A   1      38.434  32.796  33.067  1.00  0.00     0.049 A 
ATOM     27  C   UNL A   1      42.729  30.568  36.072  1.00  0.00     0.074 A 
ATOM     28  C   UNL A   1      37.696  33.773  33.705  1.00  0.00     0.029 A 
ATOM     29  N   UNL A   1      39.423  32.388  33.954  1.00  0.00    -0.354 N 
ATOM     30  N   UNL A   1      41.704  31.147  35.486  1.00  0.00    -0.248 NA
ATOM     31  C   UNL A   1      43.008  31.055  37.425  1.00  0.00     0.031 C 
ATOM     32  C   UNL A   1      38.277  33.997  34.957  1.00  0.00     0.029 A 
ATOM     33  C   UNL A   1      39.330  33.107  35.129  1.00  0.00     0.049 A 
ATOM     34  H   UNL A   1      40.092  31.689  33.771  1.00  0.00     0.167 HD
ATOM     35  C   UNL A   1      41.206  32.061  36.406  1.00  0.00     0.074 A 
ATOM     36  C   UNL A   1      42.024  31.929  37.597  1.00  0.00     0.031 C 
ATOM     37  C   UNL A   1      40.176  32.936  36.284  1.00  0.00     0.031 A 
BRANCH  24  38
ATOM     38  C   UNL A   1      37.129  32.714  30.880  1.00  0.00    -0.014 A 
ATOM     39  C   UNL A   1      37.308  33.678  29.872  1.00  0.00     0.010 A 
ATOM     40  C   UNL A   1      35.843  32.193  31.110  1.00  0.00     0.010 A 
ATOM     41  C   UNL A   1      36.213  34.136  29.130  1.00  0.00     0.020 A 
ATOM     42  C   UNL A   1      34.752  32.629  30.355  1.00  0.00     0.020 A 
ATOM     43  C   UNL A   1      34.942  33.608  29.377  1.00  0.00     0.054 A 
BRANCH  43  44
ATOM     44  S   UNL A   1      33.545  34.204  28.387  1.00  0.00     0.124 S 
ATOM     45  O   UNL A   1      33.110  32.985  27.710  1.00  0.00    -0.237 OA
ATOM     46  O   UNL A   1      32.630  34.716  29.404  1.00  0.00    -0.237 OA
ATOM     47  O   UNL A   1      34.140  35.219  27.520  1.00  0.00    -0.744 OA
ENDBRANCH  43  44
ENDBRANCH  24  38
BRANCH  25  48
ATOM     48  C   UNL A   1      44.751  28.921  36.343  1.00  0.00    -0.014 A 
ATOM     49  C   UNL A   1      46.063  29.411  36.235  1.00  0.00     0.010 A 
ATOM     50  C   UNL A   1      44.509  27.829  37.203  1.00  0.00     0.010 A 
ATOM     51  C   UNL A   1      47.111  28.799  36.938  1.00  0.00     0.020 A 
ATOM     52  C   UNL A   1      45.543  27.239  37.932  1.00  0.00     0.020 A 
ATOM     53  C   UNL A   1      46.843  27.713  37.777  1.00  0.00     0.054 A 
BRANCH  53  54
ATOM     54  S   UNL A   1      48.214  26.926  38.669  1.00  0.00     0.124 S 
ATOM     55  O   UNL A   1      49.352  27.233  37.810  1.00  0.00    -0.237 OA
ATOM     56  O   UNL A   1      48.189  27.612  39.958  1.00  0.00    -0.237 OA
ATOM     57  O   UNL A   1      47.828  25.516  38.714  1.00  0.00    -0.744 OA
ENDBRANCH  53  54
ENDBRANCH  25  48
BRANCH  37  58
ATOM     58  C   UNL A   1      39.869  33.785  37.485  1.00  0.00    -0.014 A 
ATOM     59  C   UNL A   1      39.040  33.313  38.517  1.00  0.00     0.010 A 
ATOM     60  C   UNL A   1      40.464  35.054  37.599  1.00  0.00     0.010 A 
ATOM     61  C   UNL A   1      38.775  34.118  39.624  1.00  0.00     0.020 A 
ATOM     62  C   UNL A   1      40.232  35.846  38.721  1.00  0.00     0.020 A 
ATOM     63  C   UNL A   1      39.373  35.379  39.719  1.00  0.00     0.054 A 
BRANCH  63  64
ATOM     64  S   UNL A   1      39.040  36.391  41.183  1.00  0.00     0.124 S 
ATOM     65  O   UNL A   1      38.779  37.700  40.594  1.00  0.00    -0.237 OA
ATOM     66  O   UNL A   1      37.882  35.725  41.776  1.00  0.00    -0.237 OA
ATOM     67  O   UNL A   1      40.273  36.292  41.961  1.00  0.00    -0.744 OA
ENDBRANCH  63  64
ENDBRANCH  37  58
ENDBRANCH  11  12
ENDBRANCH   4   6
ENDBRANCH   3   4
ENDBRANCH   2   3
ENDBRANCH   1   2
BRANCH   1  68
ATOM     68  O   UNL A   1      41.681  22.069  26.916  1.00  0.00    -0.374 OA
BRANCH  68  69
ATOM     69  C   UNL A   1      40.378  22.646  26.997  1.00  0.00     0.202 C 
BRANCH  69  70
ATOM     70  C   UNL A   1      39.365  21.748  26.285  1.00  0.00     0.261 C 
BRANCH  70  71
ATOM     71  O   UNL A   1      38.611  22.551  25.366  1.00  0.00    -0.461 OA
BRANCH  71  72
ATOM     72  C   UNL A   1      37.299  22.766  25.648  1.00  0.00     0.335 C 
ATOM     73  O   UNL A   1      36.854  23.656  26.352  1.00  0.00    -0.249 OA
BRANCH  72  74
ATOM     74  C   UNL A   1      36.432  21.813  24.813  1.00  0.00     0.232 C 
ATOM     75  C   UNL A   1      35.367  21.152  25.680  1.00  0.00     0.087 C 
ATOM     76  O   UNL A   1      35.771  22.474  23.733  1.00  0.00    -0.355 OA
ATOM     77  C   UNL A   1      34.075  21.257  24.895  1.00  0.00     0.124 C 
ATOM     78  C   UNL A   1      34.344  22.465  23.955  1.00  0.00     0.187 C 
BRANCH  77  79
ATOM     79  C   UNL A   1      33.716  19.901  24.250  1.00  0.00     0.005 A 
ATOM     80  C   UNL A   1      34.451  18.767  24.692  1.00  0.00     0.008 A 
ATOM     81  C   UNL A   1      32.721  19.655  23.284  1.00  0.00     0.047 A 
ATOM     82  C   UNL A   1      34.125  17.465  24.305  1.00  0.00     0.001 A 
ATOM     83  C   UNL A   1      32.383  18.342  22.918  1.00  0.00     0.021 A 
ATOM     84  Cl  UNL A   1      31.863  20.866  22.405  1.00  0.00    -0.084 Cl
ATOM     85  C   UNL A   1      33.064  17.249  23.442  1.00  0.00     0.002 A 
ENDBRANCH  77  79
BRANCH  77  86
ATOM     86  O   UNL A   1      33.007  21.553  25.814  1.00  0.00    -0.382 OA
ATOM     87  H   UNL A   1      32.168  21.235  25.448  1.00  0.00     0.212 HD
ENDBRANCH  77  86
BRANCH  78  88
ATOM     88  C   UNL A   1      33.993  23.911  24.286  1.00  0.00     0.003 A 
ATOM     89  C   UNL A   1      34.209  24.495  25.549  1.00  0.00     0.008 A 
ATOM     90  C   UNL A   1      33.551  24.765  23.250  1.00  0.00     0.046 A 
ATOM     91  C   UNL A   1      34.047  25.870  25.753  1.00  0.00     0.000 A 
ATOM     92  C   UNL A   1      33.387  26.139  23.458  1.00  0.00     0.021 A 
ATOM     93  Cl  UNL A   1      33.195  24.183  21.655  1.00  0.00    -0.084 Cl
ATOM     94  C   UNL A   1      33.651  26.694  24.705  1.00  0.00     0.002 A 
ENDBRANCH  78  88
ENDBRANCH  72  74
ENDBRANCH  71  72
ENDBRANCH  70  71
ENDBRANCH  69  70
ENDBRANCH  68  69
ENDBRANCH   1  68
TORSDOF 20
ENDMDL
