MODEL 1
REMARK VINA RESULT:     -12.0      0.000      0.000
REMARK SMILES Cc1c(CC(=O)OCCOCCOC(=O)c2ccc(-c3c4nc(c(-c5ccc(S(=O)(=O)[O-])cc5)c5ccc([nH]5)c(-c5ccc(S(=O)(=O)[O-])cc5)c5nc(c(-c6ccc(S(=O)(=O)[O-])cc6)c6ccc3[nH]6)C=C5)C=C4)cc2)cc(-c2ccccc2)cc1-c1ccccc1
REMARK SMILES IDX 11 1 10 2 9 3 8 4 7 5 5 6 6 7 4 8 3 9 1 10 2 11 85 12 76 13
REMARK SMILES IDX 84 14 77 15 86 16 87 17 91 18 88 19 90 20 89 21 78 22 79 23
REMARK SMILES IDX 83 24 80 25 82 26 81 27 12 28 13 29 14 30 15 31 16 32 17 33
REMARK SMILES IDX 75 34 18 35 74 36 19 37 20 38 21 39 68 40 22 41 73 42 67 43
REMARK SMILES IDX 69 44 23 45 72 46 66 47 65 48 24 50 54 51 35 52 53 53 36 54
REMARK SMILES IDX 39 55 52 56 70 57 37 58 38 59 51 61 71 62 40 63 25 64 26 65
REMARK SMILES IDX 34 66 27 67 33 68 28 69 29 70 30 71 31 72 32 73 55 74 56 75
REMARK SMILES IDX 64 76 57 77 63 78 58 79 59 80 60 81 61 82 62 83 41 84 42 85
REMARK SMILES IDX 50 86 43 87 49 88 44 89 45 90 46 91 47 92 48 93
REMARK H PARENT 69 49 39 60
REMARK Flexibility Score: inf
ROOT
ATOM      1  C   UNL A   1      36.973  22.975  25.319  1.00  0.00     0.202 C 
ENDROOT
BRANCH   1   2
ATOM      2  O   UNL A   1      35.681  22.706  25.843  1.00  0.00    -0.374 OA
BRANCH   2   3
ATOM      3  C   UNL A   1      34.682  23.717  25.748  1.00  0.00     0.202 C 
BRANCH   3   4
ATOM      4  C   UNL A   1      33.246  23.372  25.353  1.00  0.00     0.261 C 
BRANCH   4   5
ATOM      5  O   UNL A   1      32.369  24.500  25.305  1.00  0.00    -0.463 OA
BRANCH   5   6
ATOM      6  C   UNL A   1      31.399  24.589  26.239  1.00  0.00     0.310 C 
ATOM      7  O   UNL A   1      31.402  23.990  27.310  1.00  0.00    -0.252 OA
BRANCH   6   8
ATOM      8  C   UNL A   1      30.347  25.620  25.894  1.00  0.00     0.158 C 
BRANCH   8   9
ATOM      9  C   UNL A   1      30.797  27.017  25.482  1.00  0.00    -0.033 A 
ATOM     10  C   UNL A   1      29.232  27.044  23.484  1.00  0.00     0.045 C 
ATOM     11  C   UNL A   1      30.203  27.735  24.414  1.00  0.00    -0.039 A 
ATOM     12  C   UNL A   1      30.518  29.109  24.231  1.00  0.00    -0.015 A 
ATOM     13  C   UNL A   1      31.788  27.655  26.255  1.00  0.00     0.013 A 
ATOM     14  C   UNL A   1      31.563  29.677  24.985  1.00  0.00     0.017 A 
ATOM     15  C   UNL A   1      32.223  28.957  25.980  1.00  0.00    -0.017 A 
BRANCH  12  16
ATOM     16  C   UNL A   1      29.715  30.012  23.382  1.00  0.00    -0.018 A 
ATOM     17  C   UNL A   1      29.687  29.898  21.984  1.00  0.00     0.009 A 
ATOM     18  C   UNL A   1      29.026  31.088  23.973  1.00  0.00     0.009 A 
ATOM     19  C   UNL A   1      28.988  30.827  21.207  1.00  0.00     0.001 A 
ATOM     20  C   UNL A   1      28.325  32.012  23.199  1.00  0.00     0.001 A 
ATOM     21  C   UNL A   1      28.309  31.883  21.814  1.00  0.00     0.000 A 
ENDBRANCH  12  16
BRANCH  15  22
ATOM     22  C   UNL A   1      33.339  29.550  26.722  1.00  0.00    -0.018 A 
ATOM     23  C   UNL A   1      33.242  30.859  27.214  1.00  0.00     0.009 A 
ATOM     24  C   UNL A   1      34.533  28.846  26.933  1.00  0.00     0.009 A 
ATOM     25  C   UNL A   1      34.333  31.483  27.822  1.00  0.00     0.001 A 
ATOM     26  C   UNL A   1      35.616  29.456  27.574  1.00  0.00     0.001 A 
ATOM     27  C   UNL A   1      35.523  30.781  27.997  1.00  0.00     0.000 A 
ENDBRANCH  15  22
ENDBRANCH   8   9
ENDBRANCH   6   8
ENDBRANCH   5   6
ENDBRANCH   4   5
ENDBRANCH   3   4
ENDBRANCH   2   3
ENDBRANCH   1   2
BRANCH   1  28
ATOM     28  C   UNL A   1      38.178  22.275  25.962  1.00  0.00     0.261 C 
BRANCH  28  29
ATOM     29  O   UNL A   1      39.391  23.001  25.840  1.00  0.00    -0.460 OA
BRANCH  29  30
ATOM     30  C   UNL A   1      39.993  23.431  26.988  1.00  0.00     0.338 C 
ATOM     31  O   UNL A   1      40.786  22.853  27.708  1.00  0.00    -0.246 OA
BRANCH  30  32
ATOM     32  C   UNL A   1      39.677  24.868  27.013  1.00  0.00     0.060 A 
ATOM     33  C   UNL A   1      40.575  25.749  26.415  1.00  0.00     0.016 A 
ATOM     34  C   UNL A   1      38.913  25.256  28.111  1.00  0.00     0.016 A 
ATOM     35  C   UNL A   1      40.952  26.884  27.121  1.00  0.00     0.010 A 
ATOM     36  C   UNL A   1      39.333  26.356  28.835  1.00  0.00     0.010 A 
ATOM     37  C   UNL A   1      40.493  27.030  28.434  1.00  0.00    -0.014 A 
BRANCH  37  38
ATOM     38  C   UNL A   1      41.345  27.633  29.477  1.00  0.00     0.031 A 
ATOM     39  C   UNL A   1      40.718  28.484  30.489  1.00  0.00     0.074 A 
ATOM     40  C   UNL A   1      42.670  27.389  29.600  1.00  0.00     0.049 A 
ATOM     41  N   UNL A   1      40.611  29.767  30.401  1.00  0.00    -0.248 NA
ATOM     42  C   UNL A   1      40.110  27.888  31.679  1.00  0.00     0.031 C 
ATOM     43  C   UNL A   1      43.589  27.982  30.570  1.00  0.00     0.029 A 
ATOM     44  N   UNL A   1      43.506  26.638  28.781  1.00  0.00    -0.354 N 
ATOM     45  C   UNL A   1      40.158  30.162  31.641  1.00  0.00     0.074 A 
ATOM     46  C   UNL A   1      39.636  28.972  32.295  1.00  0.00     0.031 C 
ATOM     47  C   UNL A   1      44.843  27.854  30.095  1.00  0.00     0.029 A 
ATOM     48  C   UNL A   1      44.779  27.201  28.793  1.00  0.00     0.049 A 
ATOM     49  H   UNL A   1      43.241  25.836  28.275  1.00  0.00     0.167 HD
ATOM     50  C   UNL A   1      40.669  31.240  32.300  1.00  0.00     0.031 A 
ATOM     51  C   UNL A   1      45.353  27.641  27.636  1.00  0.00     0.031 A 
ATOM     52  C   UNL A   1      42.005  31.565  31.802  1.00  0.00     0.049 A 
ATOM     53  C   UNL A   1      45.246  29.153  27.553  1.00  0.00     0.074 A 
ATOM     54  C   UNL A   1      43.256  31.291  32.333  1.00  0.00     0.029 A 
ATOM     55  N   UNL A   1      42.216  31.918  30.474  1.00  0.00    -0.354 N 
ATOM     56  N   UNL A   1      44.583  29.875  28.418  1.00  0.00    -0.248 NA
ATOM     57  C   UNL A   1      45.859  29.977  26.514  1.00  0.00     0.031 C 
ATOM     58  C   UNL A   1      44.215  31.417  31.299  1.00  0.00     0.029 A 
ATOM     59  C   UNL A   1      43.556  31.797  30.143  1.00  0.00     0.049 A 
ATOM     60  H   UNL A   1      41.510  32.214  29.853  1.00  0.00     0.167 HD
ATOM     61  C   UNL A   1      44.653  31.198  28.083  1.00  0.00     0.074 A 
ATOM     62  C   UNL A   1      45.475  31.213  26.885  1.00  0.00     0.031 C 
ATOM     63  C   UNL A   1      44.036  32.171  28.817  1.00  0.00     0.031 A 
BRANCH  50  64
ATOM     64  C   UNL A   1      40.127  31.626  33.658  1.00  0.00    -0.014 A 
ATOM     65  C   UNL A   1      40.625  31.053  34.840  1.00  0.00     0.010 A 
ATOM     66  C   UNL A   1      39.121  32.611  33.803  1.00  0.00     0.010 A 
ATOM     67  C   UNL A   1      40.083  31.374  36.095  1.00  0.00     0.020 A 
ATOM     68  C   UNL A   1      38.546  32.912  35.045  1.00  0.00     0.020 A 
ATOM     69  C   UNL A   1      39.033  32.288  36.188  1.00  0.00     0.054 A 
BRANCH  69  70
ATOM     70  S   UNL A   1      38.322  32.656  37.815  1.00  0.00     0.124 S 
ATOM     71  O   UNL A   1      38.002  34.077  37.709  1.00  0.00    -0.237 OA
ATOM     72  O   UNL A   1      37.177  31.753  37.864  1.00  0.00    -0.237 OA
ATOM     73  O   UNL A   1      39.405  32.339  38.746  1.00  0.00    -0.744 OA
ENDBRANCH  69  70
ENDBRANCH  50  64
BRANCH  51  74
ATOM     74  C   UNL A   1      45.274  26.637  26.526  1.00  0.00    -0.014 A 
ATOM     75  C   UNL A   1      46.132  25.517  26.647  1.00  0.00     0.010 A 
ATOM     76  C   UNL A   1      44.190  26.538  25.638  1.00  0.00     0.010 A 
ATOM     77  C   UNL A   1      45.824  24.288  26.053  1.00  0.00     0.020 A 
ATOM     78  C   UNL A   1      43.886  25.305  25.024  1.00  0.00     0.020 A 
ATOM     79  C   UNL A   1      44.673  24.176  25.281  1.00  0.00     0.054 A 
BRANCH  79  80
ATOM     80  S   UNL A   1      44.126  22.512  24.780  1.00  0.00     0.124 S 
ATOM     81  O   UNL A   1      44.834  21.656  25.725  1.00  0.00    -0.237 OA
ATOM     82  O   UNL A   1      42.678  22.579  24.962  1.00  0.00    -0.237 OA
ATOM     83  O   UNL A   1      44.568  22.426  23.390  1.00  0.00    -0.744 OA
ENDBRANCH  79  80
ENDBRANCH  51  74
BRANCH  63  84
ATOM     84  C   UNL A   1      43.909  33.616  28.412  1.00  0.00    -0.014 A 
ATOM     85  C   UNL A   1      43.843  34.048  27.079  1.00  0.00     0.010 A 
ATOM     86  C   UNL A   1      43.703  34.590  29.420  1.00  0.00     0.010 A 
ATOM     87  C   UNL A   1      43.636  35.398  26.768  1.00  0.00     0.020 A 
ATOM     88  C   UNL A   1      43.447  35.928  29.121  1.00  0.00     0.020 A 
ATOM     89  C   UNL A   1      43.442  36.329  27.791  1.00  0.00     0.054 A 
BRANCH  89  90
ATOM     90  S   UNL A   1      43.116  38.059  27.374  1.00  0.00     0.124 S 
ATOM     91  O   UNL A   1      43.011  38.671  28.697  1.00  0.00    -0.237 OA
ATOM     92  O   UNL A   1      44.299  38.437  26.602  1.00  0.00    -0.237 OA
ATOM     93  O   UNL A   1      41.874  38.001  26.609  1.00  0.00    -0.744 OA
ENDBRANCH  89  90
ENDBRANCH  63  84
ENDBRANCH  37  38
ENDBRANCH  30  32
ENDBRANCH  29  30
ENDBRANCH  28  29
ENDBRANCH   1  28
TORSDOF 20
ENDMDL
MODEL 2
REMARK VINA RESULT:     -11.8      4.077      9.462
REMARK SMILES Cc1c(CC(=O)OCCOCCOC(=O)c2ccc(-c3c4nc(c(-c5ccc(S(=O)(=O)[O-])cc5)c5ccc([nH]5)c(-c5ccc(S(=O)(=O)[O-])cc5)c5nc(c(-c6ccc(S(=O)(=O)[O-])cc6)c6ccc3[nH]6)C=C5)C=C4)cc2)cc(-c2ccccc2)cc1-c1ccccc1
REMARK SMILES IDX 11 1 10 2 9 3 8 4 7 5 5 6 6 7 4 8 3 9 1 10 2 11 85 12 76 13
REMARK SMILES IDX 84 14 77 15 86 16 87 17 91 18 88 19 90 20 89 21 78 22 79 23
REMARK SMILES IDX 83 24 80 25 82 26 81 27 12 28 13 29 14 30 15 31 16 32 17 33
REMARK SMILES IDX 75 34 18 35 74 36 19 37 20 38 21 39 68 40 22 41 73 42 67 43
REMARK SMILES IDX 69 44 23 45 72 46 66 47 65 48 24 50 54 51 35 52 53 53 36 54
REMARK SMILES IDX 39 55 52 56 70 57 37 58 38 59 51 61 71 62 40 63 25 64 26 65
REMARK SMILES IDX 34 66 27 67 33 68 28 69 29 70 30 71 31 72 32 73 55 74 56 75
REMARK SMILES IDX 64 76 57 77 63 78 58 79 59 80 60 81 61 82 62 83 41 84 42 85
REMARK SMILES IDX 50 86 43 87 49 88 44 89 45 90 46 91 47 92 48 93
REMARK H PARENT 69 49 39 60
REMARK Flexibility Score: inf
ROOT
ATOM      1  C   UNL A   1      36.839  23.741  25.413  1.00  0.00     0.202 C 
ENDROOT
BRANCH   1   2
ATOM      2  O   UNL A   1      35.663  23.115  25.901  1.00  0.00    -0.374 OA
BRANCH   2   3
ATOM      3  C   UNL A   1      34.473  23.891  26.015  1.00  0.00     0.202 C 
BRANCH   3   4
ATOM      4  C   UNL A   1      33.162  23.421  25.384  1.00  0.00     0.261 C 
BRANCH   4   5
ATOM      5  O   UNL A   1      32.196  24.460  25.209  1.00  0.00    -0.463 OA
BRANCH   5   6
ATOM      6  C   UNL A   1      31.292  24.659  26.192  1.00  0.00     0.310 C 
ATOM      7  O   UNL A   1      31.345  24.142  27.304  1.00  0.00    -0.252 OA
BRANCH   6   8
ATOM      8  C   UNL A   1      30.257  25.702  25.833  1.00  0.00     0.158 C 
BRANCH   8   9
ATOM      9  C   UNL A   1      30.729  27.093  25.425  1.00  0.00    -0.033 A 
ATOM     10  C   UNL A   1      29.137  27.164  23.450  1.00  0.00     0.045 C 
ATOM     11  C   UNL A   1      30.134  27.829  24.370  1.00  0.00    -0.039 A 
ATOM     12  C   UNL A   1      30.473  29.198  24.192  1.00  0.00    -0.015 A 
ATOM     13  C   UNL A   1      31.743  27.705  26.188  1.00  0.00     0.013 A 
ATOM     14  C   UNL A   1      31.539  29.740  24.936  1.00  0.00     0.017 A 
ATOM     15  C   UNL A   1      32.200  29.001  25.916  1.00  0.00    -0.017 A 
BRANCH  12  16
ATOM     16  C   UNL A   1      29.677  30.123  23.361  1.00  0.00    -0.018 A 
ATOM     17  C   UNL A   1      28.882  31.135  23.917  1.00  0.00     0.009 A 
ATOM     18  C   UNL A   1      29.628  29.933  21.966  1.00  0.00     0.009 A 
ATOM     19  C   UNL A   1      28.070  31.933  23.104  1.00  0.00     0.001 A 
ATOM     20  C   UNL A   1      28.823  30.732  21.154  1.00  0.00     0.001 A 
ATOM     21  C   UNL A   1      28.041  31.731  21.724  1.00  0.00     0.000 A 
ENDBRANCH  12  16
BRANCH  15  22
ATOM     22  C   UNL A   1      33.337  29.566  26.646  1.00  0.00    -0.018 A 
ATOM     23  C   UNL A   1      33.288  30.888  27.114  1.00  0.00     0.009 A 
ATOM     24  C   UNL A   1      34.505  28.824  26.869  1.00  0.00     0.009 A 
ATOM     25  C   UNL A   1      34.402  31.482  27.709  1.00  0.00     0.001 A 
ATOM     26  C   UNL A   1      35.610  29.405  27.498  1.00  0.00     0.001 A 
ATOM     27  C   UNL A   1      35.566  30.741  27.897  1.00  0.00     0.000 A 
ENDBRANCH  15  22
ENDBRANCH   8   9
ENDBRANCH   6   8
ENDBRANCH   5   6
ENDBRANCH   4   5
ENDBRANCH   3   4
ENDBRANCH   2   3
ENDBRANCH   1   2
BRANCH   1  28
ATOM     28  C   UNL A   1      38.176  23.404  26.088  1.00  0.00     0.261 C 
BRANCH  28  29
ATOM     29  O   UNL A   1      39.045  24.518  26.218  1.00  0.00    -0.460 OA
BRANCH  29  30
ATOM     30  C   UNL A   1      39.807  24.600  27.348  1.00  0.00     0.338 C 
ATOM     31  O   UNL A   1      40.529  23.762  27.857  1.00  0.00    -0.246 OA
BRANCH  30  32
ATOM     32  C   UNL A   1      39.778  26.037  27.666  1.00  0.00     0.060 A 
ATOM     33  C   UNL A   1      40.511  26.904  26.860  1.00  0.00     0.016 A 
ATOM     34  C   UNL A   1      39.580  26.308  29.017  1.00  0.00     0.016 A 
ATOM     35  C   UNL A   1      41.322  27.849  27.475  1.00  0.00     0.010 A 
ATOM     36  C   UNL A   1      40.431  27.211  29.628  1.00  0.00     0.010 A 
ATOM     37  C   UNL A   1      41.441  27.812  28.868  1.00  0.00    -0.014 A 
BRANCH  37  38
ATOM     38  C   UNL A   1      42.720  28.124  29.533  1.00  0.00     0.031 A 
ATOM     39  C   UNL A   1      43.958  27.597  28.956  1.00  0.00     0.074 A 
ATOM     40  C   UNL A   1      42.829  28.932  30.613  1.00  0.00     0.049 A 
ATOM     41  N   UNL A   1      44.511  26.483  29.303  1.00  0.00    -0.248 NA
ATOM     42  C   UNL A   1      44.631  28.316  27.874  1.00  0.00     0.031 C 
ATOM     43  C   UNL A   1      44.047  29.251  31.356  1.00  0.00     0.029 A 
ATOM     44  N   UNL A   1      41.827  29.548  31.355  1.00  0.00    -0.354 N 
ATOM     45  C   UNL A   1      45.734  26.493  28.669  1.00  0.00     0.074 A 
ATOM     46  C   UNL A   1      45.656  27.501  27.624  1.00  0.00     0.031 C 
ATOM     47  C   UNL A   1      43.691  29.686  32.580  1.00  0.00     0.029 A 
ATOM     48  C   UNL A   1      42.237  29.640  32.683  1.00  0.00     0.049 A 
ATOM     49  H   UNL A   1      40.967  29.868  31.000  1.00  0.00     0.167 HD
ATOM     50  C   UNL A   1      46.886  26.118  29.293  1.00  0.00     0.031 A 
ATOM     51  C   UNL A   1      41.512  29.046  33.674  1.00  0.00     0.031 A 
ATOM     52  C   UNL A   1      46.744  26.214  30.745  1.00  0.00     0.049 A 
ATOM     53  C   UNL A   1      42.183  27.750  34.094  1.00  0.00     0.074 A 
ATOM     54  C   UNL A   1      47.183  27.186  31.631  1.00  0.00     0.029 A 
ATOM     55  N   UNL A   1      45.794  25.465  31.430  1.00  0.00    -0.354 N 
ATOM     56  N   UNL A   1      43.227  27.251  33.485  1.00  0.00    -0.248 NA
ATOM     57  C   UNL A   1      41.755  26.914  35.212  1.00  0.00     0.031 C 
ATOM     58  C   UNL A   1      46.443  27.060  32.832  1.00  0.00     0.029 A 
ATOM     59  C   UNL A   1      45.574  25.992  32.693  1.00  0.00     0.049 A 
ATOM     60  H   UNL A   1      45.340  24.669  31.068  1.00  0.00     0.167 HD
ATOM     61  C   UNL A   1      43.602  26.077  34.075  1.00  0.00     0.074 A 
ATOM     62  C   UNL A   1      42.654  25.913  35.163  1.00  0.00     0.031 C 
ATOM     63  C   UNL A   1      44.662  25.340  33.626  1.00  0.00     0.031 A 
BRANCH  50  64
ATOM     64  C   UNL A   1      48.198  26.146  28.542  1.00  0.00    -0.014 A 
ATOM     65  C   UNL A   1      48.662  25.028  27.828  1.00  0.00     0.010 A 
ATOM     66  C   UNL A   1      49.000  27.311  28.488  1.00  0.00     0.010 A 
ATOM     67  C   UNL A   1      49.905  25.039  27.175  1.00  0.00     0.020 A 
ATOM     68  C   UNL A   1      50.259  27.323  27.873  1.00  0.00     0.020 A 
ATOM     69  C   UNL A   1      50.705  26.181  27.218  1.00  0.00     0.054 A 
BRANCH  69  70
ATOM     70  S   UNL A   1      52.325  26.157  26.403  1.00  0.00     0.124 S 
ATOM     71  O   UNL A   1      53.233  25.858  27.507  1.00  0.00    -0.237 OA
ATOM     72  O   UNL A   1      52.159  25.095  25.416  1.00  0.00    -0.237 OA
ATOM     73  O   UNL A   1      52.454  27.505  25.850  1.00  0.00    -0.744 OA
ENDBRANCH  69  70
ENDBRANCH  50  64
BRANCH  51  74
ATOM     74  C   UNL A   1      40.048  29.355  33.593  1.00  0.00    -0.014 A 
ATOM     75  C   UNL A   1      39.684  30.691  33.892  1.00  0.00     0.010 A 
ATOM     76  C   UNL A   1      39.120  28.565  32.896  1.00  0.00     0.010 A 
ATOM     77  C   UNL A   1      38.527  31.272  33.363  1.00  0.00     0.020 A 
ATOM     78  C   UNL A   1      37.944  29.144  32.375  1.00  0.00     0.020 A 
ATOM     79  C   UNL A   1      37.685  30.507  32.565  1.00  0.00     0.054 A 
BRANCH  79  80
ATOM     80  S   UNL A   1      36.365  31.353  31.638  1.00  0.00     0.124 S 
ATOM     81  O   UNL A   1      37.123  32.213  30.736  1.00  0.00    -0.237 OA
ATOM     82  O   UNL A   1      35.659  30.245  30.997  1.00  0.00    -0.237 OA
ATOM     83  O   UNL A   1      35.613  32.036  32.687  1.00  0.00    -0.744 OA
ENDBRANCH  79  80
ENDBRANCH  51  74
BRANCH  63  84
ATOM     84  C   UNL A   1      45.020  23.956  34.099  1.00  0.00    -0.014 A 
ATOM     85  C   UNL A   1      44.111  22.888  34.140  1.00  0.00     0.010 A 
ATOM     86  C   UNL A   1      46.376  23.665  34.388  1.00  0.00     0.010 A 
ATOM     87  C   UNL A   1      44.527  21.602  34.506  1.00  0.00     0.020 A 
ATOM     88  C   UNL A   1      46.809  22.378  34.706  1.00  0.00     0.020 A 
ATOM     89  C   UNL A   1      45.873  21.355  34.789  1.00  0.00     0.054 A 
BRANCH  89  90
ATOM     90  S   UNL A   1      46.407  19.677  35.202  1.00  0.00     0.124 S 
ATOM     91  O   UNL A   1      46.875  19.842  36.576  1.00  0.00    -0.237 OA
ATOM     92  O   UNL A   1      45.179  18.897  35.048  1.00  0.00    -0.237 OA
ATOM     93  O   UNL A   1      47.444  19.393  34.215  1.00  0.00    -0.744 OA
ENDBRANCH  89  90
ENDBRANCH  63  84
ENDBRANCH  37  38
ENDBRANCH  30  32
ENDBRANCH  29  30
ENDBRANCH  28  29
ENDBRANCH   1  28
TORSDOF 20
ENDMDL
MODEL 3
REMARK VINA RESULT:     -11.6      3.869     10.442
REMARK SMILES Cc1c(CC(=O)OCCOCCOC(=O)c2ccc(-c3c4nc(c(-c5ccc(S(=O)(=O)[O-])cc5)c5ccc([nH]5)c(-c5ccc(S(=O)(=O)[O-])cc5)c5nc(c(-c6ccc(S(=O)(=O)[O-])cc6)c6ccc3[nH]6)C=C5)C=C4)cc2)cc(-c2ccccc2)cc1-c1ccccc1
REMARK SMILES IDX 11 1 10 2 9 3 8 4 7 5 5 6 6 7 4 8 3 9 1 10 2 11 85 12 76 13
REMARK SMILES IDX 84 14 77 15 86 16 87 17 91 18 88 19 90 20 89 21 78 22 79 23
REMARK SMILES IDX 83 24 80 25 82 26 81 27 12 28 13 29 14 30 15 31 16 32 17 33
REMARK SMILES IDX 75 34 18 35 74 36 19 37 20 38 21 39 68 40 22 41 73 42 67 43
REMARK SMILES IDX 69 44 23 45 72 46 66 47 65 48 24 50 54 51 35 52 53 53 36 54
REMARK SMILES IDX 39 55 52 56 70 57 37 58 38 59 51 61 71 62 40 63 25 64 26 65
REMARK SMILES IDX 34 66 27 67 33 68 28 69 29 70 30 71 31 72 32 73 55 74 56 75
REMARK SMILES IDX 64 76 57 77 63 78 58 79 59 80 60 81 61 82 62 83 41 84 42 85
REMARK SMILES IDX 50 86 43 87 49 88 44 89 45 90 46 91 47 92 48 93
REMARK H PARENT 69 49 39 60
REMARK Flexibility Score: inf
ROOT
ATOM      1  C   UNL A   1      35.543  33.964  29.451  1.00  0.00     0.202 C 
ENDROOT
BRANCH   1   2
ATOM      2  O   UNL A   1      34.278  33.334  29.320  1.00  0.00    -0.374 OA
BRANCH   2   3
ATOM      3  C   UNL A   1      33.624  33.371  28.053  1.00  0.00     0.202 C 
BRANCH   3   4
ATOM      4  C   UNL A   1      33.246  32.082  27.324  1.00  0.00     0.261 C 
BRANCH   4   5
ATOM      5  O   UNL A   1      33.640  30.890  28.009  1.00  0.00    -0.463 OA
BRANCH   5   6
ATOM      6  C   UNL A   1      34.001  29.822  27.267  1.00  0.00     0.310 C 
ATOM      7  O   UNL A   1      35.103  29.673  26.746  1.00  0.00    -0.252 OA
BRANCH   6   8
ATOM      8  C   UNL A   1      32.944  28.741  27.244  1.00  0.00     0.158 C 
BRANCH   8   9
ATOM      9  C   UNL A   1      32.364  28.311  25.900  1.00  0.00    -0.033 A 
ATOM     10  C   UNL A   1      33.902  26.296  25.767  1.00  0.00     0.045 C 
ATOM     11  C   UNL A   1      32.735  27.107  25.251  1.00  0.00    -0.039 A 
ATOM     12  C   UNL A   1      31.996  26.662  24.121  1.00  0.00    -0.015 A 
ATOM     13  C   UNL A   1      31.352  29.104  25.324  1.00  0.00     0.013 A 
ATOM     14  C   UNL A   1      31.042  27.525  23.547  1.00  0.00     0.017 A 
ATOM     15  C   UNL A   1      30.729  28.757  24.120  1.00  0.00    -0.017 A 
BRANCH  12  16
ATOM     16  C   UNL A   1      32.082  25.286  23.594  1.00  0.00    -0.018 A 
ATOM     17  C   UNL A   1      31.385  24.217  24.175  1.00  0.00     0.009 A 
ATOM     18  C   UNL A   1      32.964  25.004  22.534  1.00  0.00     0.009 A 
ATOM     19  C   UNL A   1      31.561  22.911  23.705  1.00  0.00     0.001 A 
ATOM     20  C   UNL A   1      33.137  23.703  22.062  1.00  0.00     0.001 A 
ATOM     21  C   UNL A   1      32.438  22.655  22.650  1.00  0.00     0.000 A 
ENDBRANCH  12  16
BRANCH  15  22
ATOM     22  C   UNL A   1      29.768  29.660  23.482  1.00  0.00    -0.018 A 
ATOM     23  C   UNL A   1      29.080  29.257  22.327  1.00  0.00     0.009 A 
ATOM     24  C   UNL A   1      29.531  30.948  23.981  1.00  0.00     0.009 A 
ATOM     25  C   UNL A   1      28.249  30.142  21.639  1.00  0.00     0.001 A 
ATOM     26  C   UNL A   1      28.670  31.825  23.314  1.00  0.00     0.001 A 
ATOM     27  C   UNL A   1      28.047  31.429  22.132  1.00  0.00     0.000 A 
ENDBRANCH  15  22
ENDBRANCH   8   9
ENDBRANCH   6   8
ENDBRANCH   5   6
ENDBRANCH   4   5
ENDBRANCH   3   4
ENDBRANCH   2   3
ENDBRANCH   1   2
BRANCH   1  28
ATOM     28  C   UNL A   1      36.779  33.077  29.652  1.00  0.00     0.261 C 
BRANCH  28  29
ATOM     29  O   UNL A   1      36.532  31.697  29.430  1.00  0.00    -0.460 OA
BRANCH  29  30
ATOM     30  C   UNL A   1      36.387  30.894  30.525  1.00  0.00     0.338 C 
ATOM     31  O   UNL A   1      35.666  31.032  31.496  1.00  0.00    -0.246 OA
BRANCH  30  32
ATOM     32  C   UNL A   1      37.101  29.668  30.135  1.00  0.00     0.060 A 
ATOM     33  C   UNL A   1      37.648  28.877  31.144  1.00  0.00     0.016 A 
ATOM     34  C   UNL A   1      37.694  29.739  28.878  1.00  0.00     0.016 A 
ATOM     35  C   UNL A   1      38.958  28.438  30.999  1.00  0.00     0.010 A 
ATOM     36  C   UNL A   1      39.016  29.350  28.763  1.00  0.00     0.010 A 
ATOM     37  C   UNL A   1      39.693  28.899  29.902  1.00  0.00    -0.014 A 
BRANCH  37  38
ATOM     38  C   UNL A   1      41.133  29.194  30.019  1.00  0.00     0.031 A 
ATOM     39  C   UNL A   1      42.052  28.605  29.042  1.00  0.00     0.074 A 
ATOM     40  C   UNL A   1      41.657  30.038  30.938  1.00  0.00     0.049 A 
ATOM     41  N   UNL A   1      42.676  27.488  29.207  1.00  0.00    -0.248 NA
ATOM     42  C   UNL A   1      42.275  29.260  27.754  1.00  0.00     0.031 C 
ATOM     43  C   UNL A   1      43.070  30.344  31.150  1.00  0.00     0.029 A 
ATOM     44  N   UNL A   1      41.022  30.715  31.974  1.00  0.00    -0.354 N 
ATOM     45  C   UNL A   1      43.567  27.433  28.158  1.00  0.00     0.074 A 
ATOM     46  C   UNL A   1      43.116  28.403  27.173  1.00  0.00     0.031 C 
ATOM     47  C   UNL A   1      43.213  30.837  32.395  1.00  0.00     0.029 A 
ATOM     48  C   UNL A   1      41.906  30.843  33.042  1.00  0.00     0.049 A 
ATOM     49  H   UNL A   1      40.096  31.049  31.955  1.00  0.00     0.167 HD
ATOM     50  C   UNL A   1      44.864  27.045  28.317  1.00  0.00     0.031 A 
ATOM     51  C   UNL A   1      41.601  30.310  34.261  1.00  0.00     0.031 A 
ATOM     52  C   UNL A   1      45.285  27.200  29.708  1.00  0.00     0.049 A 
ATOM     53  C   UNL A   1      42.360  29.010  34.457  1.00  0.00     0.074 A 
ATOM     54  C   UNL A   1      46.043  28.190  30.315  1.00  0.00     0.029 A 
ATOM     55  N   UNL A   1      44.654  26.508  30.737  1.00  0.00    -0.354 N 
ATOM     56  N   UNL A   1      43.087  28.454  33.523  1.00  0.00    -0.248 NA
ATOM     57  C   UNL A   1      42.374  28.231  35.692  1.00  0.00     0.031 C 
ATOM     58  C   UNL A   1      45.812  28.133  31.712  1.00  0.00     0.029 A 
ATOM     59  C   UNL A   1      44.937  27.089  31.962  1.00  0.00     0.049 A 
ATOM     60  H   UNL A   1      44.083  25.715  30.611  1.00  0.00     0.167 HD
ATOM     61  C   UNL A   1      43.638  27.292  33.982  1.00  0.00     0.074 A 
ATOM     62  C   UNL A   1      43.171  27.199  35.354  1.00  0.00     0.031 C 
ATOM     63  C   UNL A   1      44.437  26.504  33.201  1.00  0.00     0.031 A 
BRANCH  50  64
ATOM     64  C   UNL A   1      45.794  27.000  27.125  1.00  0.00    -0.014 A 
ATOM     65  C   UNL A   1      45.687  26.000  26.144  1.00  0.00     0.010 A 
ATOM     66  C   UNL A   1      46.787  27.988  26.920  1.00  0.00     0.010 A 
ATOM     67  C   UNL A   1      46.584  25.931  25.067  1.00  0.00     0.020 A 
ATOM     68  C   UNL A   1      47.713  27.908  25.871  1.00  0.00     0.020 A 
ATOM     69  C   UNL A   1      47.604  26.875  24.947  1.00  0.00     0.054 A 
BRANCH  69  70
ATOM     70  S   UNL A   1      48.777  26.741  23.570  1.00  0.00     0.124 S 
ATOM     71  O   UNL A   1      48.298  25.559  22.858  1.00  0.00    -0.237 OA
ATOM     72  O   UNL A   1      48.590  28.013  22.880  1.00  0.00    -0.237 OA
ATOM     73  O   UNL A   1      50.070  26.576  24.232  1.00  0.00    -0.744 OA
ENDBRANCH  69  70
ENDBRANCH  50  64
BRANCH  51  74
ATOM     74  C   UNL A   1      40.221  30.664  34.725  1.00  0.00    -0.014 A 
ATOM     75  C   UNL A   1      40.145  31.671  35.718  1.00  0.00     0.010 A 
ATOM     76  C   UNL A   1      39.054  30.371  34.001  1.00  0.00     0.010 A 
ATOM     77  C   UNL A   1      39.011  32.479  35.861  1.00  0.00     0.020 A 
ATOM     78  C   UNL A   1      37.903  31.173  34.154  1.00  0.00     0.020 A 
ATOM     79  C   UNL A   1      37.911  32.255  35.042  1.00  0.00     0.054 A 
BRANCH  79  80
ATOM     80  S   UNL A   1      36.579  33.498  35.024  1.00  0.00     0.124 S 
ATOM     81  O   UNL A   1      37.256  34.668  34.475  1.00  0.00    -0.237 OA
ATOM     82  O   UNL A   1      35.580  32.888  34.148  1.00  0.00    -0.237 OA
ATOM     83  O   UNL A   1      36.193  33.587  36.430  1.00  0.00    -0.744 OA
ENDBRANCH  79  80
ENDBRANCH  51  74
BRANCH  63  84
ATOM     84  C   UNL A   1      44.925  25.127  33.569  1.00  0.00    -0.014 A 
ATOM     85  C   UNL A   1      46.164  24.877  34.176  1.00  0.00     0.010 A 
ATOM     86  C   UNL A   1      44.038  24.031  33.428  1.00  0.00     0.010 A 
ATOM     87  C   UNL A   1      46.523  23.583  34.574  1.00  0.00     0.020 A 
ATOM     88  C   UNL A   1      44.366  22.749  33.867  1.00  0.00     0.020 A 
ATOM     89  C   UNL A   1      45.623  22.527  34.415  1.00  0.00     0.054 A 
BRANCH  89  90
ATOM     90  S   UNL A   1      46.076  20.872  34.988  1.00  0.00     0.124 S 
ATOM     91  O   UNL A   1      44.796  20.172  34.924  1.00  0.00    -0.237 OA
ATOM     92  O   UNL A   1      47.073  20.448  34.005  1.00  0.00    -0.237 OA
ATOM     93  O   UNL A   1      46.598  21.105  36.332  1.00  0.00    -0.744 OA
ENDBRANCH  89  90
ENDBRANCH  63  84
ENDBRANCH  37  38
ENDBRANCH  30  32
ENDBRANCH  29  30
ENDBRANCH  28  29
ENDBRANCH   1  28
TORSDOF 20
ENDMDL
