MODEL 1
REMARK VINA RESULT:     -10.3      0.000      0.000
REMARK SMILES CCCCN(c1ccccc1C(=O)OCCOCCOC(=O)c1ccc(-c2c3nc(c(-c4ccc(S(=O)(=O)[O-])cc4)c4ccc([nH]4)c(-c4ccc(S(=O)(=O)[O-])cc4)c4nc(c(-c5ccc(S(=O)(=O)[O-])cc5)c5ccc2[nH]5)C=C4)C=C3)cc1)S(=O)(=O)c1ccc2c(c1)oc(=O)n2C
REMARK SMILES IDX 16 1 15 2 14 3 12 4 13 5 11 6 6 7 7 8 8 9 10 10 9 11 5 12
REMARK SMILES IDX 4 13 3 14 2 15 1 16 83 17 84 18 85 19 86 20 87 21 91 22
REMARK SMILES IDX 88 23 90 24 89 25 92 26 95 27 93 28 96 29 94 30 17 31 18 32
REMARK SMILES IDX 19 33 20 34 21 35 22 36 23 37 24 38 82 39 25 40 81 41 26 42
REMARK SMILES IDX 27 43 28 44 75 45 29 46 80 47 74 48 76 49 30 50 79 51 73 52
REMARK SMILES IDX 72 53 31 55 61 56 42 57 60 58 43 59 46 60 59 61 77 62 44 63
REMARK SMILES IDX 45 64 58 66 78 67 47 68 32 69 33 70 41 71 34 72 40 73 35 74
REMARK SMILES IDX 36 75 37 76 38 77 39 78 62 79 63 80 71 81 64 82 70 83 65 84
REMARK SMILES IDX 66 85 67 86 68 87 69 88 48 89 49 90 57 91 50 92 56 93 51 94
REMARK SMILES IDX 52 95 53 96 54 97 55 98
REMARK H PARENT 76 54 46 65
REMARK Flexibility Score: inf
ROOT
ATOM      1  C   UNL A   1      31.493  28.111  27.228  1.00  0.00     0.202 C 
ENDROOT
BRANCH   1   2
ATOM      2  C   UNL A   1      31.209  26.705  26.696  1.00  0.00     0.261 C 
BRANCH   2   3
ATOM      3  O   UNL A   1      32.412  25.946  26.486  1.00  0.00    -0.460 OA
BRANCH   3   4
ATOM      4  C   UNL A   1      32.275  24.620  26.689  1.00  0.00     0.340 C 
ATOM      5  O   UNL A   1      31.353  24.067  27.276  1.00  0.00    -0.246 OA
BRANCH   4   6
ATOM      6  C   UNL A   1      33.301  23.813  25.997  1.00  0.00     0.084 A 
ATOM      7  C   UNL A   1      33.706  24.015  24.665  1.00  0.00     0.066 A 
ATOM      8  C   UNL A   1      35.051  23.721  24.390  1.00  0.00     0.028 A 
ATOM      9  C   UNL A   1      35.889  23.053  25.288  1.00  0.00     0.002 A 
ATOM     10  C   UNL A   1      34.151  23.145  26.914  1.00  0.00     0.018 A 
ATOM     11  C   UNL A   1      35.420  22.717  26.544  1.00  0.00     0.001 A 
BRANCH   7  12
ATOM     12  N   UNL A   1      32.862  24.307  23.479  1.00  0.00    -0.265 N 
BRANCH  12  13
ATOM     13  C   UNL A   1      32.819  23.241  22.416  1.00  0.00     0.136 C 
BRANCH  13  14
ATOM     14  C   UNL A   1      32.010  22.000  22.787  1.00  0.00     0.022 C 
BRANCH  14  15
ATOM     15  C   UNL A   1      32.735  20.824  23.439  1.00  0.00    -0.002 C 
ATOM     16  C   UNL A   1      32.276  20.520  24.852  1.00  0.00     0.004 C 
ENDBRANCH  14  15
ENDBRANCH  13  14
ENDBRANCH  12  13
BRANCH  12  17
ATOM     17  S   UNL A   1      33.183  25.912  22.790  1.00  0.00     0.264 S 
ATOM     18  O   UNL A   1      34.228  26.528  23.578  1.00  0.00    -0.201 OA
ATOM     19  O   UNL A   1      33.284  25.830  21.350  1.00  0.00    -0.201 OA
BRANCH  17  20
ATOM     20  C   UNL A   1      31.711  26.883  23.028  1.00  0.00     0.091 A 
ATOM     21  C   UNL A   1      30.560  26.269  23.574  1.00  0.00     0.025 A 
ATOM     22  C   UNL A   1      31.702  28.216  22.617  1.00  0.00     0.071 A 
ATOM     23  C   UNL A   1      29.342  26.952  23.593  1.00  0.00     0.032 A 
ATOM     24  C   UNL A   1      30.468  28.817  22.543  1.00  0.00     0.157 A 
ATOM     25  C   UNL A   1      29.322  28.202  23.009  1.00  0.00     0.090 A 
ATOM     26  O   UNL A   1      30.213  30.016  21.897  1.00  0.00    -0.408 OA
ATOM     27  N   UNL A   1      28.291  29.050  22.688  1.00  0.00    -0.277 N 
ATOM     28  C   UNL A   1      28.817  30.099  21.959  1.00  0.00     0.419 A 
ATOM     29  C   UNL A   1      26.899  28.853  22.952  1.00  0.00     0.157 C 
ATOM     30  O   UNL A   1      28.174  30.981  21.406  1.00  0.00    -0.223 OA
ENDBRANCH  17  20
ENDBRANCH  12  17
ENDBRANCH   7  12
ENDBRANCH   4   6
ENDBRANCH   3   4
ENDBRANCH   2   3
ENDBRANCH   1   2
BRANCH   1  31
ATOM     31  O   UNL A   1      31.432  29.201  26.312  1.00  0.00    -0.374 OA
BRANCH  31  32
ATOM     32  C   UNL A   1      31.555  30.524  26.824  1.00  0.00     0.202 C 
BRANCH  32  33
ATOM     33  C   UNL A   1      32.936  31.198  26.869  1.00  0.00     0.261 C 
BRANCH  33  34
ATOM     34  O   UNL A   1      33.874  30.620  27.789  1.00  0.00    -0.460 OA
BRANCH  34  35
ATOM     35  C   UNL A   1      34.759  29.756  27.236  1.00  0.00     0.338 C 
ATOM     36  O   UNL A   1      34.621  29.112  26.210  1.00  0.00    -0.246 OA
BRANCH  35  37
ATOM     37  C   UNL A   1      36.020  29.767  27.995  1.00  0.00     0.060 A 
ATOM     38  C   UNL A   1      37.216  30.039  27.320  1.00  0.00     0.016 A 
ATOM     39  C   UNL A   1      36.036  29.353  29.326  1.00  0.00     0.016 A 
ATOM     40  C   UNL A   1      38.441  29.871  27.969  1.00  0.00     0.010 A 
ATOM     41  C   UNL A   1      37.266  29.185  29.972  1.00  0.00     0.010 A 
ATOM     42  C   UNL A   1      38.478  29.415  29.292  1.00  0.00    -0.014 A 
BRANCH  42  43
ATOM     43  C   UNL A   1      39.772  29.064  29.939  1.00  0.00     0.031 A 
ATOM     44  C   UNL A   1      40.287  29.931  31.057  1.00  0.00     0.074 A 
ATOM     45  C   UNL A   1      40.493  28.002  29.531  1.00  0.00     0.049 A 
ATOM     46  N   UNL A   1      41.427  29.862  31.696  1.00  0.00    -0.248 NA
ATOM     47  C   UNL A   1      39.397  31.005  31.528  1.00  0.00     0.031 C 
ATOM     48  C   UNL A   1      40.074  27.026  28.529  1.00  0.00     0.029 A 
ATOM     49  N   UNL A   1      41.751  27.583  29.888  1.00  0.00    -0.354 N 
ATOM     50  C   UNL A   1      41.393  30.883  32.639  1.00  0.00     0.074 A 
ATOM     51  C   UNL A   1      40.139  31.582  32.462  1.00  0.00     0.031 C 
ATOM     52  C   UNL A   1      41.085  26.180  28.280  1.00  0.00     0.029 A 
ATOM     53  C   UNL A   1      42.219  26.539  29.123  1.00  0.00     0.049 A 
ATOM     54  H   UNL A   1      42.269  27.991  30.620  1.00  0.00     0.167 HD
ATOM     55  C   UNL A   1      42.315  31.198  33.579  1.00  0.00     0.031 A 
ATOM     56  C   UNL A   1      43.427  25.943  29.093  1.00  0.00     0.031 A 
ATOM     57  C   UNL A   1      43.564  30.501  33.746  1.00  0.00     0.049 A 
ATOM     58  C   UNL A   1      44.478  26.370  30.079  1.00  0.00     0.074 A 
ATOM     59  C   UNL A   1      44.549  30.720  34.693  1.00  0.00     0.029 A 
ATOM     60  N   UNL A   1      44.008  29.463  32.940  1.00  0.00    -0.354 N 
ATOM     61  N   UNL A   1      44.410  27.305  30.997  1.00  0.00    -0.248 NA
ATOM     62  C   UNL A   1      45.752  25.639  30.053  1.00  0.00     0.031 C 
ATOM     63  C   UNL A   1      45.619  29.863  34.416  1.00  0.00     0.029 A 
ATOM     64  C   UNL A   1      45.269  29.056  33.345  1.00  0.00     0.049 A 
ATOM     65  H   UNL A   1      43.501  29.071  32.193  1.00  0.00     0.167 HD
ATOM     66  C   UNL A   1      45.615  27.245  31.688  1.00  0.00     0.074 A 
ATOM     67  C   UNL A   1      46.389  26.179  31.083  1.00  0.00     0.031 C 
ATOM     68  C   UNL A   1      46.034  27.997  32.735  1.00  0.00     0.031 A 
BRANCH  55  69
ATOM     69  C   UNL A   1      42.023  32.365  34.486  1.00  0.00    -0.014 A 
ATOM     70  C   UNL A   1      41.400  32.186  35.735  1.00  0.00     0.010 A 
ATOM     71  C   UNL A   1      42.429  33.657  34.105  1.00  0.00     0.010 A 
ATOM     72  C   UNL A   1      41.157  33.282  36.568  1.00  0.00     0.020 A 
ATOM     73  C   UNL A   1      42.216  34.751  34.949  1.00  0.00     0.020 A 
ATOM     74  C   UNL A   1      41.568  34.558  36.169  1.00  0.00     0.054 A 
BRANCH  74  75
ATOM     75  S   UNL A   1      41.272  35.955  37.287  1.00  0.00     0.124 S 
ATOM     76  O   UNL A   1      40.112  36.595  36.669  1.00  0.00    -0.237 OA
ATOM     77  O   UNL A   1      41.017  35.294  38.564  1.00  0.00    -0.237 OA
ATOM     78  O   UNL A   1      42.513  36.722  37.222  1.00  0.00    -0.744 OA
ENDBRANCH  74  75
ENDBRANCH  55  69
BRANCH  56  79
ATOM     79  C   UNL A   1      43.697  24.867  28.099  1.00  0.00    -0.014 A 
ATOM     80  C   UNL A   1      44.407  25.139  26.918  1.00  0.00     0.010 A 
ATOM     81  C   UNL A   1      43.255  23.552  28.343  1.00  0.00     0.010 A 
ATOM     82  C   UNL A   1      44.656  24.122  25.990  1.00  0.00     0.020 A 
ATOM     83  C   UNL A   1      43.524  22.528  27.431  1.00  0.00     0.020 A 
ATOM     84  C   UNL A   1      44.217  22.821  26.255  1.00  0.00     0.054 A 
BRANCH  84  85
ATOM     85  S   UNL A   1      44.600  21.512  25.059  1.00  0.00     0.124 S 
ATOM     86  O   UNL A   1      43.584  20.511  25.366  1.00  0.00    -0.237 OA
ATOM     87  O   UNL A   1      44.445  22.201  23.780  1.00  0.00    -0.237 OA
ATOM     88  O   UNL A   1      45.973  21.135  25.392  1.00  0.00    -0.744 OA
ENDBRANCH  84  85
ENDBRANCH  56  79
BRANCH  68  89
ATOM     89  C   UNL A   1      47.380  27.675  33.329  1.00  0.00    -0.014 A 
ATOM     90  C   UNL A   1      48.549  28.327  32.896  1.00  0.00     0.010 A 
ATOM     91  C   UNL A   1      47.465  26.747  34.385  1.00  0.00     0.010 A 
ATOM     92  C   UNL A   1      49.780  28.036  33.489  1.00  0.00     0.020 A 
ATOM     93  C   UNL A   1      48.689  26.479  35.003  1.00  0.00     0.020 A 
ATOM     94  C   UNL A   1      49.841  27.116  34.542  1.00  0.00     0.054 A 
BRANCH  94  95
ATOM     95  S   UNL A   1      51.444  26.799  35.329  1.00  0.00     0.124 S 
ATOM     96  O   UNL A   1      51.105  25.765  36.303  1.00  0.00    -0.237 OA
ATOM     97  O   UNL A   1      52.269  26.358  34.207  1.00  0.00    -0.237 OA
ATOM     98  O   UNL A   1      51.814  28.093  35.896  1.00  0.00    -0.744 OA
ENDBRANCH  94  95
ENDBRANCH  68  89
ENDBRANCH  42  43
ENDBRANCH  35  37
ENDBRANCH  34  35
ENDBRANCH  33  34
ENDBRANCH  32  33
ENDBRANCH  31  32
ENDBRANCH   1  31
TORSDOF 23
ENDMDL
MODEL 2
REMARK VINA RESULT:     -10.2      2.444      8.386
REMARK SMILES CCCCN(c1ccccc1C(=O)OCCOCCOC(=O)c1ccc(-c2c3nc(c(-c4ccc(S(=O)(=O)[O-])cc4)c4ccc([nH]4)c(-c4ccc(S(=O)(=O)[O-])cc4)c4nc(c(-c5ccc(S(=O)(=O)[O-])cc5)c5ccc2[nH]5)C=C4)C=C3)cc1)S(=O)(=O)c1ccc2c(c1)oc(=O)n2C
REMARK SMILES IDX 16 1 15 2 14 3 12 4 13 5 11 6 6 7 7 8 8 9 10 10 9 11 5 12
REMARK SMILES IDX 4 13 3 14 2 15 1 16 83 17 84 18 85 19 86 20 87 21 91 22
REMARK SMILES IDX 88 23 90 24 89 25 92 26 95 27 93 28 96 29 94 30 17 31 18 32
REMARK SMILES IDX 19 33 20 34 21 35 22 36 23 37 24 38 82 39 25 40 81 41 26 42
REMARK SMILES IDX 27 43 28 44 75 45 29 46 80 47 74 48 76 49 30 50 79 51 73 52
REMARK SMILES IDX 72 53 31 55 61 56 42 57 60 58 43 59 46 60 59 61 77 62 44 63
REMARK SMILES IDX 45 64 58 66 78 67 47 68 32 69 33 70 41 71 34 72 40 73 35 74
REMARK SMILES IDX 36 75 37 76 38 77 39 78 62 79 63 80 71 81 64 82 70 83 65 84
REMARK SMILES IDX 66 85 67 86 68 87 69 88 48 89 49 90 57 91 50 92 56 93 51 94
REMARK SMILES IDX 52 95 53 96 54 97 55 98
REMARK H PARENT 76 54 46 65
REMARK Flexibility Score: inf
ROOT
ATOM      1  C   UNL A   1      32.090  28.969  26.319  1.00  0.00     0.202 C 
ENDROOT
BRANCH   1   2
ATOM      2  C   UNL A   1      31.355  27.646  26.097  1.00  0.00     0.261 C 
BRANCH   2   3
ATOM      3  O   UNL A   1      31.915  26.572  26.871  1.00  0.00    -0.460 OA
BRANCH   3   4
ATOM      4  C   UNL A   1      31.372  25.363  26.620  1.00  0.00     0.340 C 
ATOM      5  O   UNL A   1      30.177  25.099  26.579  1.00  0.00    -0.246 OA
BRANCH   4   6
ATOM      6  C   UNL A   1      32.369  24.342  26.239  1.00  0.00     0.084 A 
ATOM      7  C   UNL A   1      33.118  24.367  25.048  1.00  0.00     0.066 A 
ATOM      8  C   UNL A   1      34.411  23.827  25.134  1.00  0.00     0.028 A 
ATOM      9  C   UNL A   1      34.865  23.099  26.238  1.00  0.00     0.002 A 
ATOM     10  C   UNL A   1      32.830  23.612  27.363  1.00  0.00     0.018 A 
ATOM     11  C   UNL A   1      34.049  22.946  27.342  1.00  0.00     0.001 A 
BRANCH   7  12
ATOM     12  N   UNL A   1      32.659  24.705  23.677  1.00  0.00    -0.265 N 
BRANCH  12  13
ATOM     13  C   UNL A   1      32.771  23.611  22.651  1.00  0.00     0.136 C 
BRANCH  13  14
ATOM     14  C   UNL A   1      31.920  22.375  22.936  1.00  0.00     0.022 C 
BRANCH  14  15
ATOM     15  C   UNL A   1      32.621  21.090  23.371  1.00  0.00    -0.002 C 
ATOM     16  C   UNL A   1      32.191  20.580  24.734  1.00  0.00     0.004 C 
ENDBRANCH  14  15
ENDBRANCH  13  14
ENDBRANCH  12  13
BRANCH  12  17
ATOM     17  S   UNL A   1      33.341  26.236  23.086  1.00  0.00     0.264 S 
ATOM     18  O   UNL A   1      34.082  26.836  24.174  1.00  0.00    -0.201 OA
ATOM     19  O   UNL A   1      33.945  26.048  21.786  1.00  0.00    -0.201 OA
BRANCH  17  20
ATOM     20  C   UNL A   1      31.969  27.313  22.734  1.00  0.00     0.091 A 
ATOM     21  C   UNL A   1      32.213  28.684  22.491  1.00  0.00     0.025 A 
ATOM     22  C   UNL A   1      30.674  26.795  22.764  1.00  0.00     0.071 A 
ATOM     23  C   UNL A   1      31.147  29.583  22.404  1.00  0.00     0.032 A 
ATOM     24  C   UNL A   1      29.655  27.719  22.788  1.00  0.00     0.157 A 
ATOM     25  C   UNL A   1      29.885  29.071  22.622  1.00  0.00     0.090 A 
ATOM     26  O   UNL A   1      28.337  27.429  23.103  1.00  0.00    -0.408 OA
ATOM     27  N   UNL A   1      28.665  29.677  22.797  1.00  0.00    -0.277 N 
ATOM     28  C   UNL A   1      27.756  28.702  23.156  1.00  0.00     0.419 A 
ATOM     29  C   UNL A   1      28.382  31.078  22.732  1.00  0.00     0.157 C 
ATOM     30  O   UNL A   1      26.599  28.894  23.506  1.00  0.00    -0.223 OA
ENDBRANCH  17  20
ENDBRANCH  12  17
ENDBRANCH   7  12
ENDBRANCH   4   6
ENDBRANCH   3   4
ENDBRANCH   2   3
ENDBRANCH   1   2
BRANCH   1  31
ATOM     31  O   UNL A   1      31.389  30.181  26.054  1.00  0.00    -0.374 OA
BRANCH  31  32
ATOM     32  C   UNL A   1      31.854  31.380  26.663  1.00  0.00     0.202 C 
BRANCH  32  33
ATOM     33  C   UNL A   1      33.228  31.401  27.353  1.00  0.00     0.261 C 
BRANCH  33  34
ATOM     34  O   UNL A   1      33.950  32.637  27.251  1.00  0.00    -0.460 OA
BRANCH  34  35
ATOM     35  C   UNL A   1      33.773  33.489  28.289  1.00  0.00     0.338 C 
ATOM     36  O   UNL A   1      32.810  34.207  28.501  1.00  0.00    -0.246 OA
BRANCH  35  37
ATOM     37  C   UNL A   1      34.887  33.363  29.244  1.00  0.00     0.060 A 
ATOM     38  C   UNL A   1      36.137  33.890  28.901  1.00  0.00     0.016 A 
ATOM     39  C   UNL A   1      34.734  32.590  30.393  1.00  0.00     0.016 A 
ATOM     40  C   UNL A   1      37.253  33.622  29.697  1.00  0.00     0.010 A 
ATOM     41  C   UNL A   1      35.855  32.322  31.188  1.00  0.00     0.010 A 
ATOM     42  C   UNL A   1      37.128  32.811  30.832  1.00  0.00    -0.014 A 
BRANCH  42  43
ATOM     43  C   UNL A   1      38.332  32.374  31.589  1.00  0.00     0.031 A 
ATOM     44  C   UNL A   1      39.180  31.261  31.033  1.00  0.00     0.074 A 
ATOM     45  C   UNL A   1      38.661  32.940  32.767  1.00  0.00     0.049 A 
ATOM     46  N   UNL A   1      40.214  30.665  31.569  1.00  0.00    -0.248 NA
ATOM     47  C   UNL A   1      38.828  30.766  29.692  1.00  0.00     0.031 C 
ATOM     48  C   UNL A   1      37.989  34.084  33.376  1.00  0.00     0.029 A 
ATOM     49  N   UNL A   1      39.631  32.607  33.680  1.00  0.00    -0.354 N 
ATOM     50  C   UNL A   1      40.633  29.725  30.635  1.00  0.00     0.074 A 
ATOM     51  C   UNL A   1      39.718  29.800  29.517  1.00  0.00     0.031 C 
ATOM     52  C   UNL A   1      38.497  34.300  34.599  1.00  0.00     0.029 A 
ATOM     53  C   UNL A   1      39.550  33.324  34.852  1.00  0.00     0.049 A 
ATOM     54  H   UNL A   1      40.317  31.921  33.514  1.00  0.00     0.167 HD
ATOM     55  C   UNL A   1      41.695  28.887  30.696  1.00  0.00     0.031 A 
ATOM     56  C   UNL A   1      40.236  33.205  36.006  1.00  0.00     0.031 A 
ATOM     57  C   UNL A   1      42.598  28.813  31.815  1.00  0.00     0.049 A 
ATOM     58  C   UNL A   1      41.350  32.201  36.093  1.00  0.00     0.074 A 
ATOM     59  C   UNL A   1      43.726  28.022  31.956  1.00  0.00     0.029 A 
ATOM     60  N   UNL A   1      42.471  29.542  32.988  1.00  0.00    -0.354 N 
ATOM     61  N   UNL A   1      41.765  31.353  35.181  1.00  0.00    -0.248 NA
ATOM     62  C   UNL A   1      42.115  32.161  37.347  1.00  0.00     0.031 C 
ATOM     63  C   UNL A   1      44.239  28.221  33.242  1.00  0.00     0.029 A 
ATOM     64  C   UNL A   1      43.477  29.192  33.873  1.00  0.00     0.049 A 
ATOM     65  H   UNL A   1      41.770  30.210  33.164  1.00  0.00     0.167 HD
ATOM     66  C   UNL A   1      42.866  30.711  35.735  1.00  0.00     0.074 A 
ATOM     67  C   UNL A   1      43.054  31.271  37.058  1.00  0.00     0.031 C 
ATOM     68  C   UNL A   1      43.655  29.753  35.190  1.00  0.00     0.031 A 
BRANCH  55  69
ATOM     69  C   UNL A   1      41.925  27.959  29.530  1.00  0.00    -0.014 A 
ATOM     70  C   UNL A   1      41.081  26.859  29.291  1.00  0.00     0.010 A 
ATOM     71  C   UNL A   1      42.971  28.227  28.628  1.00  0.00     0.010 A 
ATOM     72  C   UNL A   1      41.302  26.025  28.191  1.00  0.00     0.020 A 
ATOM     73  C   UNL A   1      43.176  27.413  27.511  1.00  0.00     0.020 A 
ATOM     74  C   UNL A   1      42.348  26.308  27.307  1.00  0.00     0.054 A 
BRANCH  74  75
ATOM     75  S   UNL A   1      42.588  25.228  25.870  1.00  0.00     0.124 S 
ATOM     76  O   UNL A   1      41.878  24.018  26.280  1.00  0.00    -0.237 OA
ATOM     77  O   UNL A   1      41.960  25.988  24.792  1.00  0.00    -0.237 OA
ATOM     78  O   UNL A   1      44.039  25.094  25.773  1.00  0.00    -0.744 OA
ENDBRANCH  74  75
ENDBRANCH  55  69
BRANCH  56  79
ATOM     79  C   UNL A   1      39.891  34.075  37.164  1.00  0.00    -0.014 A 
ATOM     80  C   UNL A   1      39.091  33.594  38.213  1.00  0.00     0.010 A 
ATOM     81  C   UNL A   1      40.383  35.393  37.230  1.00  0.00     0.010 A 
ATOM     82  C   UNL A   1      38.772  34.418  39.298  1.00  0.00     0.020 A 
ATOM     83  C   UNL A   1      40.090  36.211  38.325  1.00  0.00     0.020 A 
ATOM     84  C   UNL A   1      39.278  35.720  39.349  1.00  0.00     0.054 A 
BRANCH  84  85
ATOM     85  S   UNL A   1      38.893  36.749  40.793  1.00  0.00     0.124 S 
ATOM     86  O   UNL A   1      40.209  36.932  41.397  1.00  0.00    -0.237 OA
ATOM     87  O   UNL A   1      38.305  37.938  40.182  1.00  0.00    -0.237 OA
ATOM     88  O   UNL A   1      37.959  35.926  41.561  1.00  0.00    -0.744 OA
ENDBRANCH  84  85
ENDBRANCH  56  79
BRANCH  68  89
ATOM     89  C   UNL A   1      44.826  29.268  36.004  1.00  0.00    -0.014 A 
ATOM     90  C   UNL A   1      44.649  28.430  37.119  1.00  0.00     0.010 A 
ATOM     91  C   UNL A   1      46.133  29.610  35.605  1.00  0.00     0.010 A 
ATOM     92  C   UNL A   1      45.754  27.964  37.835  1.00  0.00     0.020 A 
ATOM     93  C   UNL A   1      47.242  29.119  36.299  1.00  0.00     0.020 A 
ATOM     94  C   UNL A   1      47.045  28.310  37.418  1.00  0.00     0.054 A 
BRANCH  94  95
ATOM     95  S   UNL A   1      48.463  27.648  38.334  1.00  0.00     0.124 S 
ATOM     96  O   UNL A   1      47.915  27.503  39.680  1.00  0.00    -0.237 OA
ATOM     97  O   UNL A   1      48.741  26.398  37.632  1.00  0.00    -0.237 OA
ATOM     98  O   UNL A   1      49.485  28.680  38.185  1.00  0.00    -0.744 OA
ENDBRANCH  94  95
ENDBRANCH  68  89
ENDBRANCH  42  43
ENDBRANCH  35  37
ENDBRANCH  34  35
ENDBRANCH  33  34
ENDBRANCH  32  33
ENDBRANCH  31  32
ENDBRANCH   1  31
TORSDOF 23
ENDMDL
MODEL 3
REMARK VINA RESULT:     -10.1      2.392      3.453
REMARK SMILES CCCCN(c1ccccc1C(=O)OCCOCCOC(=O)c1ccc(-c2c3nc(c(-c4ccc(S(=O)(=O)[O-])cc4)c4ccc([nH]4)c(-c4ccc(S(=O)(=O)[O-])cc4)c4nc(c(-c5ccc(S(=O)(=O)[O-])cc5)c5ccc2[nH]5)C=C4)C=C3)cc1)S(=O)(=O)c1ccc2c(c1)oc(=O)n2C
REMARK SMILES IDX 16 1 15 2 14 3 12 4 13 5 11 6 6 7 7 8 8 9 10 10 9 11 5 12
REMARK SMILES IDX 4 13 3 14 2 15 1 16 83 17 84 18 85 19 86 20 87 21 91 22
REMARK SMILES IDX 88 23 90 24 89 25 92 26 95 27 93 28 96 29 94 30 17 31 18 32
REMARK SMILES IDX 19 33 20 34 21 35 22 36 23 37 24 38 82 39 25 40 81 41 26 42
REMARK SMILES IDX 27 43 28 44 75 45 29 46 80 47 74 48 76 49 30 50 79 51 73 52
REMARK SMILES IDX 72 53 31 55 61 56 42 57 60 58 43 59 46 60 59 61 77 62 44 63
REMARK SMILES IDX 45 64 58 66 78 67 47 68 32 69 33 70 41 71 34 72 40 73 35 74
REMARK SMILES IDX 36 75 37 76 38 77 39 78 62 79 63 80 71 81 64 82 70 83 65 84
REMARK SMILES IDX 66 85 67 86 68 87 69 88 48 89 49 90 57 91 50 92 56 93 51 94
REMARK SMILES IDX 52 95 53 96 54 97 55 98
REMARK H PARENT 76 54 46 65
REMARK Flexibility Score: inf
ROOT
ATOM      1  C   UNL A   1      32.274  29.287  27.033  1.00  0.00     0.202 C 
ENDROOT
BRANCH   1   2
ATOM      2  C   UNL A   1      31.576  27.943  27.257  1.00  0.00     0.261 C 
BRANCH   2   3
ATOM      3  O   UNL A   1      32.264  26.856  26.615  1.00  0.00    -0.460 OA
BRANCH   3   4
ATOM      4  C   UNL A   1      31.531  25.731  26.490  1.00  0.00     0.340 C 
ATOM      5  O   UNL A   1      30.309  25.655  26.512  1.00  0.00    -0.246 OA
BRANCH   4   6
ATOM      6  C   UNL A   1      32.341  24.538  26.167  1.00  0.00     0.084 A 
ATOM      7  C   UNL A   1      33.064  24.367  24.973  1.00  0.00     0.066 A 
ATOM      8  C   UNL A   1      34.252  23.629  25.084  1.00  0.00     0.028 A 
ATOM      9  C   UNL A   1      34.599  22.903  26.229  1.00  0.00     0.002 A 
ATOM     10  C   UNL A   1      32.694  23.812  27.331  1.00  0.00     0.018 A 
ATOM     11  C   UNL A   1      33.787  22.954  27.345  1.00  0.00     0.001 A 
BRANCH   7  12
ATOM     12  N   UNL A   1      32.644  24.693  23.586  1.00  0.00    -0.265 N 
BRANCH  12  13
ATOM     13  C   UNL A   1      32.803  23.595  22.569  1.00  0.00     0.136 C 
BRANCH  13  14
ATOM     14  C   UNL A   1      31.964  22.347  22.839  1.00  0.00     0.022 C 
BRANCH  14  15
ATOM     15  C   UNL A   1      32.680  21.059  23.240  1.00  0.00    -0.002 C 
ATOM     16  C   UNL A   1      32.215  20.478  24.562  1.00  0.00     0.004 C 
ENDBRANCH  14  15
ENDBRANCH  13  14
ENDBRANCH  12  13
BRANCH  12  17
ATOM     17  S   UNL A   1      33.325  26.229  23.008  1.00  0.00     0.264 S 
ATOM     18  O   UNL A   1      34.083  26.811  24.095  1.00  0.00    -0.201 OA
ATOM     19  O   UNL A   1      33.911  26.058  21.698  1.00  0.00    -0.201 OA
BRANCH  17  20
ATOM     20  C   UNL A   1      31.954  27.317  22.690  1.00  0.00     0.091 A 
ATOM     21  C   UNL A   1      32.202  28.687  22.445  1.00  0.00     0.025 A 
ATOM     22  C   UNL A   1      30.656  26.809  22.748  1.00  0.00     0.071 A 
ATOM     23  C   UNL A   1      31.141  29.593  22.385  1.00  0.00     0.032 A 
ATOM     24  C   UNL A   1      29.644  27.739  22.799  1.00  0.00     0.157 A 
ATOM     25  C   UNL A   1      29.880  29.090  22.631  1.00  0.00     0.090 A 
ATOM     26  O   UNL A   1      28.332  27.458  23.142  1.00  0.00    -0.408 OA
ATOM     27  N   UNL A   1      28.669  29.705  22.834  1.00  0.00    -0.277 N 
ATOM     28  C   UNL A   1      27.761  28.735  23.211  1.00  0.00     0.419 A 
ATOM     29  C   UNL A   1      28.394  31.107  22.780  1.00  0.00     0.157 C 
ATOM     30  O   UNL A   1      26.614  28.934  23.589  1.00  0.00    -0.223 OA
ENDBRANCH  17  20
ENDBRANCH  12  17
ENDBRANCH   7  12
ENDBRANCH   4   6
ENDBRANCH   3   4
ENDBRANCH   2   3
ENDBRANCH   1   2
BRANCH   1  31
ATOM     31  O   UNL A   1      31.509  30.358  26.488  1.00  0.00    -0.374 OA
BRANCH  31  32
ATOM     32  C   UNL A   1      31.890  31.692  26.805  1.00  0.00     0.202 C 
BRANCH  32  33
ATOM     33  C   UNL A   1      33.226  31.954  27.519  1.00  0.00     0.261 C 
BRANCH  33  34
ATOM     34  O   UNL A   1      33.718  33.300  27.433  1.00  0.00    -0.460 OA
BRANCH  34  35
ATOM     35  C   UNL A   1      33.607  34.021  28.575  1.00  0.00     0.338 C 
ATOM     36  O   UNL A   1      32.687  34.752  28.901  1.00  0.00    -0.246 OA
BRANCH  35  37
ATOM     37  C   UNL A   1      34.732  33.722  29.475  1.00  0.00     0.060 A 
ATOM     38  C   UNL A   1      36.030  34.061  29.075  1.00  0.00     0.016 A 
ATOM     39  C   UNL A   1      34.521  32.968  30.628  1.00  0.00     0.016 A 
ATOM     40  C   UNL A   1      37.130  33.623  29.816  1.00  0.00     0.010 A 
ATOM     41  C   UNL A   1      35.625  32.529  31.367  1.00  0.00     0.010 A 
ATOM     42  C   UNL A   1      36.939  32.828  30.953  1.00  0.00    -0.014 A 
BRANCH  42  43
ATOM     43  C   UNL A   1      38.098  32.209  31.651  1.00  0.00     0.031 A 
ATOM     44  C   UNL A   1      38.556  32.790  32.962  1.00  0.00     0.074 A 
ATOM     45  C   UNL A   1      38.751  31.155  31.123  1.00  0.00     0.049 A 
ATOM     46  N   UNL A   1      39.594  32.467  33.690  1.00  0.00    -0.248 NA
ATOM     47  C   UNL A   1      37.729  33.865  33.536  1.00  0.00     0.031 C 
ATOM     48  C   UNL A   1      38.363  30.435  29.914  1.00  0.00     0.029 A 
ATOM     49  N   UNL A   1      39.905  30.526  31.521  1.00  0.00    -0.354 N 
ATOM     50  C   UNL A   1      39.546  33.298  34.804  1.00  0.00     0.074 A 
ATOM     51  C   UNL A   1      38.404  34.168  34.635  1.00  0.00     0.031 C 
ATOM     52  C   UNL A   1      39.304  29.528  29.613  1.00  0.00     0.029 A 
ATOM     53  C   UNL A   1      40.355  29.586  30.623  1.00  0.00     0.049 A 
ATOM     54  H   UNL A   1      40.366  30.728  32.368  1.00  0.00     0.167 HD
ATOM     55  C   UNL A   1      40.371  33.322  35.877  1.00  0.00     0.031 A 
ATOM     56  C   UNL A   1      41.489  28.859  30.604  1.00  0.00     0.031 A 
ATOM     57  C   UNL A   1      41.511  32.456  36.035  1.00  0.00     0.049 A 
ATOM     58  C   UNL A   1      42.446  28.968  31.758  1.00  0.00     0.074 A 
ATOM     59  C   UNL A   1      42.387  32.377  37.104  1.00  0.00     0.029 A 
ATOM     60  N   UNL A   1      41.943  31.532  35.096  1.00  0.00    -0.354 N 
ATOM     61  N   UNL A   1      42.360  29.724  32.826  1.00  0.00    -0.248 NA
ATOM     62  C   UNL A   1      43.631  28.101  31.724  1.00  0.00     0.031 C 
ATOM     63  C   UNL A   1      43.389  31.457  36.780  1.00  0.00     0.029 A 
ATOM     64  C   UNL A   1      43.095  30.905  35.543  1.00  0.00     0.049 A 
ATOM     65  H   UNL A   1      41.496  31.347  34.238  1.00  0.00     0.167 HD
ATOM     66  C   UNL A   1      43.457  29.392  33.613  1.00  0.00     0.074 A 
ATOM     67  C   UNL A   1      44.187  28.364  32.899  1.00  0.00     0.031 C 
ATOM     68  C   UNL A   1      43.817  29.886  34.823  1.00  0.00     0.031 A 
BRANCH  55  69
ATOM     69  C   UNL A   1      40.090  34.335  36.957  1.00  0.00    -0.014 A 
ATOM     70  C   UNL A   1      40.565  35.656  36.864  1.00  0.00     0.010 A 
ATOM     71  C   UNL A   1      39.289  33.972  38.055  1.00  0.00     0.010 A 
ATOM     72  C   UNL A   1      40.273  36.584  37.868  1.00  0.00     0.020 A 
ATOM     73  C   UNL A   1      38.970  34.906  39.045  1.00  0.00     0.020 A 
ATOM     74  C   UNL A   1      39.476  36.203  38.952  1.00  0.00     0.054 A 
BRANCH  74  75
ATOM     75  S   UNL A   1      39.085  37.439  40.221  1.00  0.00     0.124 S 
ATOM     76  O   UNL A   1      38.468  36.619  41.261  1.00  0.00    -0.237 OA
ATOM     77  O   UNL A   1      40.399  37.985  40.550  1.00  0.00    -0.237 OA
ATOM     78  O   UNL A   1      38.181  38.362  39.540  1.00  0.00    -0.744 OA
ENDBRANCH  74  75
ENDBRANCH  55  69
BRANCH  56  79
ATOM     79  C   UNL A   1      41.769  27.953  29.455  1.00  0.00    -0.014 A 
ATOM     80  C   UNL A   1      41.168  26.686  29.376  1.00  0.00     0.010 A 
ATOM     81  C   UNL A   1      42.629  28.368  28.420  1.00  0.00     0.010 A 
ATOM     82  C   UNL A   1      41.436  25.841  28.293  1.00  0.00     0.020 A 
ATOM     83  C   UNL A   1      42.878  27.538  27.323  1.00  0.00     0.020 A 
ATOM     84  C   UNL A   1      42.286  26.274  27.271  1.00  0.00     0.054 A 
BRANCH  84  85
ATOM     85  S   UNL A   1      42.572  25.180  25.853  1.00  0.00     0.124 S 
ATOM     86  O   UNL A   1      42.421  26.094  24.725  1.00  0.00    -0.237 OA
ATOM     87  O   UNL A   1      43.929  24.697  26.100  1.00  0.00    -0.237 OA
ATOM     88  O   UNL A   1      41.526  24.167  25.984  1.00  0.00    -0.744 OA
ENDBRANCH  84  85
ENDBRANCH  56  79
BRANCH  68  89
ATOM     89  C   UNL A   1      45.038  29.297  35.481  1.00  0.00    -0.014 A 
ATOM     90  C   UNL A   1      46.323  29.812  35.237  1.00  0.00     0.010 A 
ATOM     91  C   UNL A   1      44.885  28.249  36.409  1.00  0.00     0.010 A 
ATOM     92  C   UNL A   1      47.435  29.272  35.888  1.00  0.00     0.020 A 
ATOM     93  C   UNL A   1      45.990  27.729  37.087  1.00  0.00     0.020 A 
ATOM     94  C   UNL A   1      47.260  28.236  36.812  1.00  0.00     0.054 A 
BRANCH  94  95
ATOM     95  S   UNL A   1      48.715  27.590  37.682  1.00  0.00     0.124 S 
ATOM     96  O   UNL A   1      48.474  26.150  37.651  1.00  0.00    -0.237 OA
ATOM     97  O   UNL A   1      49.819  28.060  36.850  1.00  0.00    -0.237 OA
ATOM     98  O   UNL A   1      48.631  28.208  39.003  1.00  0.00    -0.744 OA
ENDBRANCH  94  95
ENDBRANCH  68  89
ENDBRANCH  42  43
ENDBRANCH  35  37
ENDBRANCH  34  35
ENDBRANCH  33  34
ENDBRANCH  32  33
ENDBRANCH  31  32
ENDBRANCH   1  31
TORSDOF 23
ENDMDL
