MODEL 1
REMARK VINA RESULT:     -11.8      0.000      0.000
REMARK SMILES CCSc1ccc(-c2cc(Cl)cc3c2O[C@@H](C(F)(F)F)C(C(=O)OCCOCCOC(=O)c2ccc(-c4c5nc(c(-c6ccc(S(=O)(=O)[O-])cc6)c6ccc([nH]6)c(-c6ccc(S(=O)(=O)[O-])cc6)c6nc(c(-c7ccc(S(=O)(=O)[O-])cc7)c7ccc4[nH]7)C=C6)C=C5)cc2)=C3)cc1
REMARK SMILES IDX 27 1 26 2 25 3 24 4 22 5 23 6 21 7 8 8 9 9 14 10 10 11 13 12
REMARK SMILES IDX 15 13 11 14 12 15 93 16 16 17 7 18 4 19 5 20 95 21 6 22
REMARK SMILES IDX 94 23 3 24 2 25 1 26 17 27 18 28 19 29 20 30 28 31 29 32
REMARK SMILES IDX 30 33 31 34 32 35 33 36 34 37 92 38 35 39 91 40 36 41 37 42
REMARK SMILES IDX 38 43 85 44 39 45 90 46 84 47 86 48 40 49 89 50 83 51 82 52
REMARK SMILES IDX 41 54 71 55 52 56 70 57 53 58 56 59 69 60 87 61 54 62 55 63
REMARK SMILES IDX 68 65 88 66 57 67 42 68 43 69 51 70 44 71 50 72 45 73 46 74
REMARK SMILES IDX 47 75 48 76 49 77 72 78 73 79 81 80 74 81 80 82 75 83 76 84
REMARK SMILES IDX 77 85 78 86 79 87 58 88 59 89 67 90 60 91 66 92 61 93 62 94
REMARK SMILES IDX 63 95 64 96 65 97
REMARK H PARENT 86 53 56 64
REMARK Flexibility Score: inf
ROOT
ATOM      1  O   UNL A   1      32.791  31.482  27.294  1.00  0.00    -0.374 OA
ENDROOT
BRANCH   1   2
ATOM      2  C   UNL A   1      31.947  30.488  26.727  1.00  0.00     0.202 C 
BRANCH   2   3
ATOM      3  C   UNL A   1      32.321  29.009  26.913  1.00  0.00     0.261 C 
BRANCH   3   4
ATOM      4  O   UNL A   1      32.876  28.410  25.731  1.00  0.00    -0.460 OA
BRANCH   4   5
ATOM      5  C   UNL A   1      32.335  27.234  25.362  1.00  0.00     0.338 C 
ATOM      6  O   UNL A   1      31.139  26.973  25.362  1.00  0.00    -0.246 OA
BRANCH   5   7
ATOM      7  C   UNL A   1      33.329  26.308  24.767  1.00  0.00     0.087 C 
ATOM      8  C   UNL A   1      32.041  22.405  24.186  1.00  0.00     0.026 A 
ATOM      9  C   UNL A   1      30.969  22.241  25.094  1.00  0.00     0.033 A 
ATOM     10  C   UNL A   1      32.717  23.639  24.279  1.00  0.00     0.135 A 
ATOM     11  C   UNL A   1      30.854  23.052  26.223  1.00  0.00     0.042 A 
ATOM     12  C   UNL A   1      32.779  24.282  25.525  1.00  0.00     0.019 A 
ATOM     13  O   UNL A   1      32.861  24.443  23.131  1.00  0.00    -0.475 OA
ATOM     14  Cl  UNL A   1      29.579  22.780  27.340  1.00  0.00    -0.084 Cl
ATOM     15  C   UNL A   1      31.822  24.008  26.494  1.00  0.00     0.032 A 
ATOM     16  C   UNL A   1      33.718  25.411  25.688  1.00  0.00     0.027 C 
ATOM     17  C   UNL A   1      33.413  25.813  23.338  1.00  0.00     0.316 C 
BRANCH   8  18
ATOM     18  C   UNL A   1      32.722  21.096  23.850  1.00  0.00    -0.015 A 
ATOM     19  C   UNL A   1      33.358  18.288  23.827  1.00  0.00     0.007 A 
ATOM     20  C   UNL A   1      32.465  18.839  22.903  1.00  0.00     0.015 A 
ATOM     21  C   UNL A   1      33.988  19.155  24.718  1.00  0.00     0.015 A 
ATOM     22  C   UNL A   1      32.169  20.216  22.898  1.00  0.00     0.010 A 
ATOM     23  C   UNL A   1      33.684  20.536  24.721  1.00  0.00     0.010 A 
BRANCH  19  24
ATOM     24  S   UNL A   1      33.478  16.503  23.866  1.00  0.00    -0.126 SA
BRANCH  24  25
ATOM     25  C   UNL A   1      34.176  16.110  25.505  1.00  0.00     0.071 C 
ATOM     26  C   UNL A   1      35.624  15.668  25.428  1.00  0.00     0.016 C 
ENDBRANCH  24  25
ENDBRANCH  19  24
ENDBRANCH   8  18
BRANCH  17  27
ATOM     27  C   UNL A   1      33.086  26.866  22.255  1.00  0.00     0.430 C 
ATOM     28  F   UNL A   1      31.789  27.259  22.396  1.00  0.00    -0.167 F 
ATOM     29  F   UNL A   1      33.838  27.982  22.397  1.00  0.00    -0.167 F 
ATOM     30  F   UNL A   1      33.230  26.449  20.985  1.00  0.00    -0.167 F 
ENDBRANCH  17  27
ENDBRANCH   5   7
ENDBRANCH   4   5
ENDBRANCH   3   4
ENDBRANCH   2   3
ENDBRANCH   1   2
BRANCH   1  31
ATOM     31  C   UNL A   1      34.107  31.101  27.689  1.00  0.00     0.202 C 
BRANCH  31  32
ATOM     32  C   UNL A   1      34.869  31.986  28.680  1.00  0.00     0.261 C 
BRANCH  32  33
ATOM     33  O   UNL A   1      36.280  31.726  28.722  1.00  0.00    -0.460 OA
BRANCH  33  34
ATOM     34  C   UNL A   1      36.685  31.001  29.792  1.00  0.00     0.338 C 
ATOM     35  O   UNL A   1      36.091  30.849  30.853  1.00  0.00    -0.246 OA
BRANCH  34  36
ATOM     36  C   UNL A   1      37.906  30.257  29.458  1.00  0.00     0.060 A 
ATOM     37  C   UNL A   1      38.784  29.929  30.498  1.00  0.00     0.016 A 
ATOM     38  C   UNL A   1      38.231  29.976  28.130  1.00  0.00     0.016 A 
ATOM     39  C   UNL A   1      40.016  29.349  30.208  1.00  0.00     0.010 A 
ATOM     40  C   UNL A   1      39.471  29.400  27.842  1.00  0.00     0.010 A 
ATOM     41  C   UNL A   1      40.381  29.115  28.875  1.00  0.00    -0.014 A 
BRANCH  41  42
ATOM     42  C   UNL A   1      41.764  28.695  28.554  1.00  0.00     0.031 A 
ATOM     43  C   UNL A   1      42.860  29.726  28.557  1.00  0.00     0.074 A 
ATOM     44  C   UNL A   1      42.038  27.408  28.278  1.00  0.00     0.049 A 
ATOM     45  N   UNL A   1      44.124  29.589  28.253  1.00  0.00    -0.248 NA
ATOM     46  C   UNL A   1      42.478  31.092  28.949  1.00  0.00     0.031 C 
ATOM     47  C   UNL A   1      41.064  26.317  28.286  1.00  0.00     0.029 A 
ATOM     48  N   UNL A   1      43.219  26.805  27.926  1.00  0.00    -0.354 N 
ATOM     49  C   UNL A   1      44.687  30.852  28.407  1.00  0.00     0.074 A 
ATOM     50  C   UNL A   1      43.620  31.746  28.798  1.00  0.00     0.031 C 
ATOM     51  C   UNL A   1      41.686  25.176  27.944  1.00  0.00     0.029 A 
ATOM     52  C   UNL A   1      43.090  25.464  27.655  1.00  0.00     0.049 A 
ATOM     53  H   UNL A   1      44.076  27.285  27.874  1.00  0.00     0.167 HD
ATOM     54  C   UNL A   1      45.978  31.228  28.243  1.00  0.00     0.031 A 
ATOM     55  C   UNL A   1      43.994  24.575  27.198  1.00  0.00     0.031 A 
ATOM     56  C   UNL A   1      47.029  30.332  27.834  1.00  0.00     0.049 A 
ATOM     57  C   UNL A   1      45.408  25.033  26.950  1.00  0.00     0.074 A 
ATOM     58  C   UNL A   1      48.371  30.609  27.648  1.00  0.00     0.029 A 
ATOM     59  N   UNL A   1      46.853  28.987  27.542  1.00  0.00    -0.354 N 
ATOM     60  N   UNL A   1      45.932  26.224  27.120  1.00  0.00    -0.248 NA
ATOM     61  C   UNL A   1      46.355  24.023  26.458  1.00  0.00     0.031 C 
ATOM     62  C   UNL A   1      48.995  29.447  27.182  1.00  0.00     0.029 A 
ATOM     63  C   UNL A   1      48.057  28.427  27.149  1.00  0.00     0.049 A 
ATOM     64  H   UNL A   1      45.998  28.503  27.605  1.00  0.00     0.167 HD
ATOM     65  C   UNL A   1      47.276  26.099  26.784  1.00  0.00     0.074 A 
ATOM     66  C   UNL A   1      47.486  24.714  26.416  1.00  0.00     0.031 C 
ATOM     67  C   UNL A   1      48.249  27.045  26.783  1.00  0.00     0.031 A 
BRANCH  54  68
ATOM     68  C   UNL A   1      46.315  32.680  28.470  1.00  0.00    -0.014 A 
ATOM     69  C   UNL A   1      46.766  33.140  29.720  1.00  0.00     0.010 A 
ATOM     70  C   UNL A   1      46.209  33.593  27.405  1.00  0.00     0.010 A 
ATOM     71  C   UNL A   1      47.064  34.492  29.913  1.00  0.00     0.020 A 
ATOM     72  C   UNL A   1      46.536  34.941  27.584  1.00  0.00     0.020 A 
ATOM     73  C   UNL A   1      46.945  35.384  28.844  1.00  0.00     0.054 A 
BRANCH  73  74
ATOM     74  S   UNL A   1      47.356  37.129  29.118  1.00  0.00     0.124 S 
ATOM     75  O   UNL A   1      46.606  37.788  28.052  1.00  0.00    -0.237 OA
ATOM     76  O   UNL A   1      46.861  37.365  30.472  1.00  0.00    -0.237 OA
ATOM     77  O   UNL A   1      48.809  37.172  28.974  1.00  0.00    -0.744 OA
ENDBRANCH  73  74
ENDBRANCH  54  68
BRANCH  55  78
ATOM     78  C   UNL A   1      43.581  23.171  26.926  1.00  0.00    -0.014 A 
ATOM     79  C   UNL A   1      43.780  22.592  25.661  1.00  0.00     0.010 A 
ATOM     80  C   UNL A   1      42.992  22.399  27.945  1.00  0.00     0.010 A 
ATOM     81  C   UNL A   1      43.385  21.273  25.415  1.00  0.00     0.020 A 
ATOM     82  C   UNL A   1      42.625  21.070  27.713  1.00  0.00     0.020 A 
ATOM     83  C   UNL A   1      42.815  20.519  26.446  1.00  0.00     0.054 A 
BRANCH  83  84
ATOM     84  S   UNL A   1      42.362  18.793  26.119  1.00  0.00     0.124 S 
ATOM     85  O   UNL A   1      43.288  18.433  25.049  1.00  0.00    -0.237 OA
ATOM     86  O   UNL A   1      42.607  18.154  27.409  1.00  0.00    -0.237 OA
ATOM     87  O   UNL A   1      40.956  18.875  25.729  1.00  0.00    -0.744 OA
ENDBRANCH  83  84
ENDBRANCH  55  78
BRANCH  67  88
ATOM     88  C   UNL A   1      49.643  26.609  26.409  1.00  0.00    -0.014 A 
ATOM     89  C   UNL A   1      50.519  26.055  27.359  1.00  0.00     0.010 A 
ATOM     90  C   UNL A   1      50.058  26.704  25.067  1.00  0.00     0.010 A 
ATOM     91  C   UNL A   1      51.797  25.636  26.979  1.00  0.00     0.020 A 
ATOM     92  C   UNL A   1      51.323  26.255  24.678  1.00  0.00     0.020 A 
ATOM     93  C   UNL A   1      52.191  25.737  25.641  1.00  0.00     0.054 A 
BRANCH  93  94
ATOM     94  S   UNL A   1      53.838  25.144  25.168  1.00  0.00     0.124 S 
ATOM     95  O   UNL A   1      54.599  25.348  26.398  1.00  0.00    -0.237 OA
ATOM     96  O   UNL A   1      53.585  23.751  24.810  1.00  0.00    -0.237 OA
ATOM     97  O   UNL A   1      54.213  26.011  24.054  1.00  0.00    -0.744 OA
ENDBRANCH  93  94
ENDBRANCH  67  88
ENDBRANCH  41  42
ENDBRANCH  34  36
ENDBRANCH  33  34
ENDBRANCH  32  33
ENDBRANCH  31  32
ENDBRANCH   1  31
TORSDOF 21
ENDMDL
MODEL 2
REMARK VINA RESULT:     -11.3      3.003      9.280
REMARK SMILES CCSc1ccc(-c2cc(Cl)cc3c2O[C@@H](C(F)(F)F)C(C(=O)OCCOCCOC(=O)c2ccc(-c4c5nc(c(-c6ccc(S(=O)(=O)[O-])cc6)c6ccc([nH]6)c(-c6ccc(S(=O)(=O)[O-])cc6)c6nc(c(-c7ccc(S(=O)(=O)[O-])cc7)c7ccc4[nH]7)C=C6)C=C5)cc2)=C3)cc1
REMARK SMILES IDX 27 1 26 2 25 3 24 4 22 5 23 6 21 7 8 8 9 9 14 10 10 11 13 12
REMARK SMILES IDX 15 13 11 14 12 15 93 16 16 17 7 18 4 19 5 20 95 21 6 22
REMARK SMILES IDX 94 23 3 24 2 25 1 26 17 27 18 28 19 29 20 30 28 31 29 32
REMARK SMILES IDX 30 33 31 34 32 35 33 36 34 37 92 38 35 39 91 40 36 41 37 42
REMARK SMILES IDX 38 43 85 44 39 45 90 46 84 47 86 48 40 49 89 50 83 51 82 52
REMARK SMILES IDX 41 54 71 55 52 56 70 57 53 58 56 59 69 60 87 61 54 62 55 63
REMARK SMILES IDX 68 65 88 66 57 67 42 68 43 69 51 70 44 71 50 72 45 73 46 74
REMARK SMILES IDX 47 75 48 76 49 77 72 78 73 79 81 80 74 81 80 82 75 83 76 84
REMARK SMILES IDX 77 85 78 86 79 87 58 88 59 89 67 90 60 91 66 92 61 93 62 94
REMARK SMILES IDX 63 95 64 96 65 97
REMARK H PARENT 86 53 56 64
REMARK Flexibility Score: inf
ROOT
ATOM      1  O   UNL A   1      37.435  22.051  24.830  1.00  0.00    -0.374 OA
ENDROOT
BRANCH   1   2
ATOM      2  C   UNL A   1      36.498  23.057  25.193  1.00  0.00     0.202 C 
BRANCH   2   3
ATOM      3  C   UNL A   1      35.353  22.687  26.149  1.00  0.00     0.261 C 
BRANCH   3   4
ATOM      4  O   UNL A   1      34.171  23.481  25.956  1.00  0.00    -0.460 OA
BRANCH   4   5
ATOM      5  C   UNL A   1      33.012  22.905  26.325  1.00  0.00     0.338 C 
ATOM      6  O   UNL A   1      32.797  22.376  27.408  1.00  0.00    -0.246 OA
BRANCH   5   7
ATOM      7  C   UNL A   1      31.923  23.128  25.344  1.00  0.00     0.087 C 
ATOM      8  C   UNL A   1      31.615  26.983  23.834  1.00  0.00     0.026 A 
ATOM      9  C   UNL A   1      32.245  27.799  24.801  1.00  0.00     0.033 A 
ATOM     10  C   UNL A   1      31.501  25.622  24.186  1.00  0.00     0.135 A 
ATOM     11  C   UNL A   1      32.378  27.375  26.123  1.00  0.00     0.042 A 
ATOM     12  C   UNL A   1      31.380  25.284  25.543  1.00  0.00     0.019 A 
ATOM     13  O   UNL A   1      32.005  24.633  23.319  1.00  0.00    -0.475 OA
ATOM     14  Cl  UNL A   1      33.088  28.421  27.285  1.00  0.00    -0.084 Cl
ATOM     15  C   UNL A   1      31.849  26.155  26.518  1.00  0.00     0.032 A 
ATOM     16  C   UNL A   1      30.975  23.906  25.892  1.00  0.00     0.027 C 
ATOM     17  C   UNL A   1      32.026  23.234  23.837  1.00  0.00     0.316 C 
BRANCH   8  18
ATOM     18  C   UNL A   1      30.575  27.733  23.030  1.00  0.00    -0.015 A 
ATOM     19  C   UNL A   1      28.755  29.801  22.194  1.00  0.00     0.007 A 
ATOM     20  C   UNL A   1      30.069  29.751  21.717  1.00  0.00     0.015 A 
ATOM     21  C   UNL A   1      28.330  28.774  23.035  1.00  0.00     0.015 A 
ATOM     22  C   UNL A   1      30.953  28.728  22.107  1.00  0.00     0.010 A 
ATOM     23  C   UNL A   1      29.222  27.752  23.437  1.00  0.00     0.010 A 
BRANCH  19  24
ATOM     24  S   UNL A   1      27.808  31.266  21.794  1.00  0.00    -0.126 SA
BRANCH  24  25
ATOM     25  C   UNL A   1      28.634  32.623  22.690  1.00  0.00     0.071 C 
ATOM     26  C   UNL A   1      29.187  32.181  24.031  1.00  0.00     0.016 C 
ENDBRANCH  24  25
ENDBRANCH  19  24
ENDBRANCH   8  18
BRANCH  17  27
ATOM     27  C   UNL A   1      33.025  22.260  23.173  1.00  0.00     0.430 C 
ATOM     28  F   UNL A   1      32.529  21.873  21.964  1.00  0.00    -0.167 F 
ATOM     29  F   UNL A   1      34.214  22.857  22.921  1.00  0.00    -0.167 F 
ATOM     30  F   UNL A   1      33.282  21.138  23.866  1.00  0.00    -0.167 F 
ENDBRANCH  17  27
ENDBRANCH   5   7
ENDBRANCH   4   5
ENDBRANCH   3   4
ENDBRANCH   2   3
ENDBRANCH   1   2
BRANCH   1  31
ATOM     31  C   UNL A   1      38.489  21.754  25.742  1.00  0.00     0.202 C 
BRANCH  31  32
ATOM     32  C   UNL A   1      39.139  20.367  25.698  1.00  0.00     0.261 C 
BRANCH  32  33
ATOM     33  O   UNL A   1      40.090  20.140  26.748  1.00  0.00    -0.460 OA
BRANCH  33  34
ATOM     34  C   UNL A   1      41.361  19.945  26.321  1.00  0.00     0.338 C 
ATOM     35  O   UNL A   1      41.808  18.961  25.743  1.00  0.00    -0.246 OA
BRANCH  34  36
ATOM     36  C   UNL A   1      42.143  21.175  26.503  1.00  0.00     0.060 A 
ATOM     37  C   UNL A   1      42.498  21.546  27.805  1.00  0.00     0.016 A 
ATOM     38  C   UNL A   1      42.434  22.004  25.417  1.00  0.00     0.016 A 
ATOM     39  C   UNL A   1      43.116  22.772  28.033  1.00  0.00     0.010 A 
ATOM     40  C   UNL A   1      43.047  23.237  25.651  1.00  0.00     0.010 A 
ATOM     41  C   UNL A   1      43.361  23.640  26.961  1.00  0.00    -0.014 A 
BRANCH  41  42
ATOM     42  C   UNL A   1      43.823  25.022  27.224  1.00  0.00     0.031 A 
ATOM     43  C   UNL A   1      45.275  25.358  27.018  1.00  0.00     0.074 A 
ATOM     44  C   UNL A   1      42.955  25.966  27.627  1.00  0.00     0.049 A 
ATOM     45  N   UNL A   1      45.903  26.483  27.240  1.00  0.00    -0.248 NA
ATOM     46  C   UNL A   1      46.133  24.280  26.499  1.00  0.00     0.031 C 
ATOM     47  C   UNL A   1      41.519  25.765  27.820  1.00  0.00     0.029 A 
ATOM     48  N   UNL A   1      43.159  27.281  27.957  1.00  0.00    -0.354 N 
ATOM     49  C   UNL A   1      47.230  26.248  26.897  1.00  0.00     0.074 A 
ATOM     50  C   UNL A   1      47.322  24.865  26.486  1.00  0.00     0.031 C 
ATOM     51  C   UNL A   1      40.971  26.916  28.245  1.00  0.00     0.029 A 
ATOM     52  C   UNL A   1      42.023  27.921  28.392  1.00  0.00     0.049 A 
ATOM     53  H   UNL A   1      44.034  27.726  27.887  1.00  0.00     0.167 HD
ATOM     54  C   UNL A   1      48.275  27.110  26.918  1.00  0.00     0.031 A 
ATOM     55  C   UNL A   1      41.855  29.165  28.880  1.00  0.00     0.031 A 
ATOM     56  C   UNL A   1      48.175  28.481  27.348  1.00  0.00     0.049 A 
ATOM     57  C   UNL A   1      43.046  30.084  28.966  1.00  0.00     0.074 A 
ATOM     58  C   UNL A   1      49.169  29.441  27.399  1.00  0.00     0.029 A 
ATOM     59  N   UNL A   1      47.013  29.083  27.808  1.00  0.00    -0.354 N 
ATOM     60  N   UNL A   1      44.291  29.856  28.618  1.00  0.00    -0.248 NA
ATOM     61  C   UNL A   1      42.807  31.432  29.499  1.00  0.00     0.031 C 
ATOM     62  C   UNL A   1      48.623  30.605  27.949  1.00  0.00     0.029 A 
ATOM     63  C   UNL A   1      47.271  30.394  28.171  1.00  0.00     0.049 A 
ATOM     64  H   UNL A   1      46.134  28.643  27.866  1.00  0.00     0.167 HD
ATOM     65  C   UNL A   1      44.977  31.041  28.865  1.00  0.00     0.074 A 
ATOM     66  C   UNL A   1      44.005  31.986  29.375  1.00  0.00     0.031 C 
ATOM     67  C   UNL A   1      46.292  31.322  28.681  1.00  0.00     0.031 A 
BRANCH  54  68
ATOM     68  C   UNL A   1      49.623  26.582  26.498  1.00  0.00    -0.014 A 
ATOM     69  C   UNL A   1      50.479  25.947  27.415  1.00  0.00     0.010 A 
ATOM     70  C   UNL A   1      50.026  26.696  25.155  1.00  0.00     0.010 A 
ATOM     71  C   UNL A   1      51.730  25.473  27.007  1.00  0.00     0.020 A 
ATOM     72  C   UNL A   1      51.263  26.196  24.735  1.00  0.00     0.020 A 
ATOM     73  C   UNL A   1      52.114  25.603  25.670  1.00  0.00     0.054 A 
BRANCH  73  74
ATOM     74  S   UNL A   1      53.735  24.963  25.166  1.00  0.00     0.124 S 
ATOM     75  O   UNL A   1      54.590  25.410  26.262  1.00  0.00    -0.237 OA
ATOM     76  O   UNL A   1      53.502  23.522  25.098  1.00  0.00    -0.237 OA
ATOM     77  O   UNL A   1      53.981  25.612  23.880  1.00  0.00    -0.744 OA
ENDBRANCH  73  74
ENDBRANCH  54  68
BRANCH  55  78
ATOM     78  C   UNL A   1      40.511  29.603  29.345  1.00  0.00    -0.014 A 
ATOM     79  C   UNL A   1      40.179  29.594  30.711  1.00  0.00     0.010 A 
ATOM     80  C   UNL A   1      39.551  30.047  28.414  1.00  0.00     0.010 A 
ATOM     81  C   UNL A   1      38.913  30.005  31.136  1.00  0.00     0.020 A 
ATOM     82  C   UNL A   1      38.295  30.488  28.838  1.00  0.00     0.020 A 
ATOM     83  C   UNL A   1      37.980  30.455  30.196  1.00  0.00     0.054 A 
BRANCH  83  84
ATOM     84  S   UNL A   1      36.363  31.036  30.778  1.00  0.00     0.124 S 
ATOM     85  O   UNL A   1      35.575  31.023  29.549  1.00  0.00    -0.237 OA
ATOM     86  O   UNL A   1      36.005  30.026  31.770  1.00  0.00    -0.237 OA
ATOM     87  O   UNL A   1      36.651  32.361  31.324  1.00  0.00    -0.744 OA
ENDBRANCH  83  84
ENDBRANCH  55  78
BRANCH  67  88
ATOM     88  C   UNL A   1      46.754  32.722  28.998  1.00  0.00    -0.014 A 
ATOM     89  C   UNL A   1      46.708  33.746  28.035  1.00  0.00     0.010 A 
ATOM     90  C   UNL A   1      47.189  33.026  30.301  1.00  0.00     0.010 A 
ATOM     91  C   UNL A   1      47.119  35.041  28.363  1.00  0.00     0.020 A 
ATOM     92  C   UNL A   1      47.570  34.327  30.641  1.00  0.00     0.020 A 
ATOM     93  C   UNL A   1      47.546  35.324  29.664  1.00  0.00     0.054 A 
BRANCH  93  94
ATOM     94  S   UNL A   1      48.032  37.022  30.074  1.00  0.00     0.124 S 
ATOM     95  O   UNL A   1      48.596  37.490  28.810  1.00  0.00    -0.237 OA
ATOM     96  O   UNL A   1      46.764  37.633  30.461  1.00  0.00    -0.237 OA
ATOM     97  O   UNL A   1      48.996  36.856  31.160  1.00  0.00    -0.744 OA
ENDBRANCH  93  94
ENDBRANCH  67  88
ENDBRANCH  41  42
ENDBRANCH  34  36
ENDBRANCH  33  34
ENDBRANCH  32  33
ENDBRANCH  31  32
ENDBRANCH   1  31
TORSDOF 21
ENDMDL
MODEL 3
REMARK VINA RESULT:     -11.0      3.238      8.938
REMARK SMILES CCSc1ccc(-c2cc(Cl)cc3c2O[C@@H](C(F)(F)F)C(C(=O)OCCOCCOC(=O)c2ccc(-c4c5nc(c(-c6ccc(S(=O)(=O)[O-])cc6)c6ccc([nH]6)c(-c6ccc(S(=O)(=O)[O-])cc6)c6nc(c(-c7ccc(S(=O)(=O)[O-])cc7)c7ccc4[nH]7)C=C6)C=C5)cc2)=C3)cc1
REMARK SMILES IDX 27 1 26 2 25 3 24 4 22 5 23 6 21 7 8 8 9 9 14 10 10 11 13 12
REMARK SMILES IDX 15 13 11 14 12 15 93 16 16 17 7 18 4 19 5 20 95 21 6 22
REMARK SMILES IDX 94 23 3 24 2 25 1 26 17 27 18 28 19 29 20 30 28 31 29 32
REMARK SMILES IDX 30 33 31 34 32 35 33 36 34 37 92 38 35 39 91 40 36 41 37 42
REMARK SMILES IDX 38 43 85 44 39 45 90 46 84 47 86 48 40 49 89 50 83 51 82 52
REMARK SMILES IDX 41 54 71 55 52 56 70 57 53 58 56 59 69 60 87 61 54 62 55 63
REMARK SMILES IDX 68 65 88 66 57 67 42 68 43 69 51 70 44 71 50 72 45 73 46 74
REMARK SMILES IDX 47 75 48 76 49 77 72 78 73 79 81 80 74 81 80 82 75 83 76 84
REMARK SMILES IDX 77 85 78 86 79 87 58 88 59 89 67 90 60 91 66 92 61 93 62 94
REMARK SMILES IDX 63 95 64 96 65 97
REMARK H PARENT 86 53 56 64
REMARK Flexibility Score: inf
ROOT
ATOM      1  O   UNL A   1      37.654  22.153  24.861  1.00  0.00    -0.374 OA
ENDROOT
BRANCH   1   2
ATOM      2  C   UNL A   1      36.358  22.732  24.785  1.00  0.00     0.202 C 
BRANCH   2   3
ATOM      3  C   UNL A   1      35.325  22.371  25.864  1.00  0.00     0.261 C 
BRANCH   3   4
ATOM      4  O   UNL A   1      34.220  23.287  25.923  1.00  0.00    -0.460 OA
BRANCH   4   5
ATOM      5  C   UNL A   1      33.088  22.805  26.469  1.00  0.00     0.338 C 
ATOM      6  O   UNL A   1      32.994  22.315  27.587  1.00  0.00    -0.246 OA
BRANCH   5   7
ATOM      7  C   UNL A   1      31.889  23.086  25.645  1.00  0.00     0.087 C 
ATOM      8  C   UNL A   1      31.785  26.814  23.819  1.00  0.00     0.026 A 
ATOM      9  C   UNL A   1      32.652  27.617  24.595  1.00  0.00     0.033 A 
ATOM     10  C   UNL A   1      31.574  25.511  24.319  1.00  0.00     0.135 A 
ATOM     11  C   UNL A   1      32.946  27.288  25.918  1.00  0.00     0.042 A 
ATOM     12  C   UNL A   1      31.635  25.303  25.706  1.00  0.00     0.019 A 
ATOM     13  O   UNL A   1      31.816  24.399  23.489  1.00  0.00    -0.475 OA
ATOM     14  Cl  UNL A   1      33.948  28.324  26.851  1.00  0.00    -0.084 Cl
ATOM     15  C   UNL A   1      32.351  26.183  26.508  1.00  0.00     0.032 A 
ATOM     16  C   UNL A   1      31.136  24.022  26.247  1.00  0.00     0.027 C 
ATOM     17  C   UNL A   1      31.759  23.056  24.136  1.00  0.00     0.316 C 
BRANCH   8  18
ATOM     18  C   UNL A   1      30.723  27.624  23.109  1.00  0.00    -0.015 A 
ATOM     19  C   UNL A   1      28.724  29.631  22.593  1.00  0.00     0.007 A 
ATOM     20  C   UNL A   1      30.066  29.836  22.256  1.00  0.00     0.015 A 
ATOM     21  C   UNL A   1      28.370  28.391  23.124  1.00  0.00     0.015 A 
ATOM     22  C   UNL A   1      31.041  28.847  22.487  1.00  0.00     0.010 A 
ATOM     23  C   UNL A   1      29.351  27.401  23.367  1.00  0.00     0.010 A 
BRANCH  19  24
ATOM     24  S   UNL A   1      27.632  31.042  22.449  1.00  0.00    -0.126 SA
BRANCH  24  25
ATOM     25  C   UNL A   1      28.716  32.433  21.982  1.00  0.00     0.071 C 
ATOM     26  C   UNL A   1      28.937  33.405  23.124  1.00  0.00     0.016 C 
ENDBRANCH  24  25
ENDBRANCH  19  24
ENDBRANCH   8  18
BRANCH  17  27
ATOM     27  C   UNL A   1      32.521  21.911  23.431  1.00  0.00     0.430 C 
ATOM     28  F   UNL A   1      31.817  21.523  22.330  1.00  0.00    -0.167 F 
ATOM     29  F   UNL A   1      33.732  22.316  22.983  1.00  0.00    -0.167 F 
ATOM     30  F   UNL A   1      32.719  20.808  24.174  1.00  0.00    -0.167 F 
ENDBRANCH  17  27
ENDBRANCH   5   7
ENDBRANCH   4   5
ENDBRANCH   3   4
ENDBRANCH   2   3
ENDBRANCH   1   2
BRANCH   1  31
ATOM     31  C   UNL A   1      37.757  20.780  25.230  1.00  0.00     0.202 C 
BRANCH  31  32
ATOM     32  C   UNL A   1      39.135  20.203  25.568  1.00  0.00     0.261 C 
BRANCH  32  33
ATOM     33  O   UNL A   1      40.124  21.201  25.862  1.00  0.00    -0.460 OA
BRANCH  33  34
ATOM     34  C   UNL A   1      40.590  21.171  27.133  1.00  0.00     0.338 C 
ATOM     35  O   UNL A   1      40.780  20.182  27.832  1.00  0.00    -0.246 OA
BRANCH  34  36
ATOM     36  C   UNL A   1      41.011  22.518  27.543  1.00  0.00     0.060 A 
ATOM     37  C   UNL A   1      40.638  23.599  26.736  1.00  0.00     0.016 A 
ATOM     38  C   UNL A   1      41.844  22.700  28.647  1.00  0.00     0.016 A 
ATOM     39  C   UNL A   1      41.132  24.871  27.011  1.00  0.00     0.010 A 
ATOM     40  C   UNL A   1      42.344  23.977  28.916  1.00  0.00     0.010 A 
ATOM     41  C   UNL A   1      42.017  25.060  28.081  1.00  0.00    -0.014 A 
BRANCH  41  42
ATOM     42  C   UNL A   1      42.702  26.362  28.247  1.00  0.00     0.031 A 
ATOM     43  C   UNL A   1      41.909  27.550  28.717  1.00  0.00     0.074 A 
ATOM     44  C   UNL A   1      44.018  26.476  27.995  1.00  0.00     0.049 A 
ATOM     45  N   UNL A   1      42.293  28.790  28.878  1.00  0.00    -0.248 NA
ATOM     46  C   UNL A   1      40.494  27.311  29.044  1.00  0.00     0.031 C 
ATOM     47  C   UNL A   1      44.895  25.383  27.575  1.00  0.00     0.029 A 
ATOM     48  N   UNL A   1      44.844  27.570  28.048  1.00  0.00    -0.354 N 
ATOM     49  C   UNL A   1      41.167  29.480  29.314  1.00  0.00     0.074 A 
ATOM     50  C   UNL A   1      40.080  28.529  29.360  1.00  0.00     0.031 C 
ATOM     51  C   UNL A   1      46.136  25.865  27.397  1.00  0.00     0.029 A 
ATOM     52  C   UNL A   1      46.132  27.304  27.652  1.00  0.00     0.049 A 
ATOM     53  H   UNL A   1      44.542  28.460  28.341  1.00  0.00     0.167 HD
ATOM     54  C   UNL A   1      41.055  30.787  29.652  1.00  0.00     0.031 A 
ATOM     55  C   UNL A   1      47.182  28.132  27.487  1.00  0.00     0.031 A 
ATOM     56  C   UNL A   1      42.141  31.730  29.583  1.00  0.00     0.049 A 
ATOM     57  C   UNL A   1      47.014  29.597  27.795  1.00  0.00     0.074 A 
ATOM     58  C   UNL A   1      42.135  33.074  29.912  1.00  0.00     0.029 A 
ATOM     59  N   UNL A   1      43.425  31.428  29.152  1.00  0.00    -0.354 N 
ATOM     60  N   UNL A   1      45.951  30.233  28.228  1.00  0.00    -0.248 NA
ATOM     61  C   UNL A   1      48.192  30.455  27.604  1.00  0.00     0.031 C 
ATOM     62  C   UNL A   1      43.398  33.599  29.618  1.00  0.00     0.029 A 
ATOM     63  C   UNL A   1      44.212  32.567  29.177  1.00  0.00     0.049 A 
ATOM     64  H   UNL A   1      43.730  30.536  28.869  1.00  0.00     0.167 HD
ATOM     65  C   UNL A   1      46.339  31.559  28.388  1.00  0.00     0.074 A 
ATOM     66  C   UNL A   1      47.738  31.629  28.021  1.00  0.00     0.031 C 
ATOM     67  C   UNL A   1      45.605  32.621  28.805  1.00  0.00     0.031 A 
BRANCH  54  68
ATOM     68  C   UNL A   1      39.699  31.279  30.089  1.00  0.00    -0.014 A 
ATOM     69  C   UNL A   1      38.723  31.666  29.153  1.00  0.00     0.010 A 
ATOM     70  C   UNL A   1      39.385  31.327  31.460  1.00  0.00     0.010 A 
ATOM     71  C   UNL A   1      37.474  32.129  29.580  1.00  0.00     0.020 A 
ATOM     72  C   UNL A   1      38.127  31.759  31.891  1.00  0.00     0.020 A 
ATOM     73  C   UNL A   1      37.186  32.175  30.947  1.00  0.00     0.054 A 
BRANCH  73  74
ATOM     74  S   UNL A   1      35.552  32.763  31.470  1.00  0.00     0.124 S 
ATOM     75  O   UNL A   1      35.412  32.138  32.784  1.00  0.00    -0.237 OA
ATOM     76  O   UNL A   1      35.722  34.214  31.480  1.00  0.00    -0.237 OA
ATOM     77  O   UNL A   1      34.651  32.251  30.440  1.00  0.00    -0.744 OA
ENDBRANCH  73  74
ENDBRANCH  54  68
BRANCH  55  78
ATOM     78  C   UNL A   1      48.477  27.596  26.983  1.00  0.00    -0.014 A 
ATOM     79  C   UNL A   1      49.491  27.203  27.873  1.00  0.00     0.010 A 
ATOM     80  C   UNL A   1      48.696  27.466  25.598  1.00  0.00     0.010 A 
ATOM     81  C   UNL A   1      50.704  26.703  27.389  1.00  0.00     0.020 A 
ATOM     82  C   UNL A   1      49.895  26.937  25.111  1.00  0.00     0.020 A 
ATOM     83  C   UNL A   1      50.896  26.569  26.010  1.00  0.00     0.054 A 
BRANCH  83  84
ATOM     84  S   UNL A   1      52.456  25.866  25.409  1.00  0.00     0.124 S 
ATOM     85  O   UNL A   1      53.444  26.604  26.191  1.00  0.00    -0.237 OA
ATOM     86  O   UNL A   1      52.313  24.451  25.742  1.00  0.00    -0.237 OA
ATOM     87  O   UNL A   1      52.439  26.166  23.978  1.00  0.00    -0.744 OA
ENDBRANCH  83  84
ENDBRANCH  55  78
BRANCH  67  88
ATOM     88  C   UNL A   1      46.309  33.949  28.924  1.00  0.00    -0.014 A 
ATOM     89  C   UNL A   1      46.332  34.866  27.859  1.00  0.00     0.010 A 
ATOM     90  C   UNL A   1      46.907  34.305  30.148  1.00  0.00     0.010 A 
ATOM     91  C   UNL A   1      46.971  36.101  28.005  1.00  0.00     0.020 A 
ATOM     92  C   UNL A   1      47.518  35.551  30.308  1.00  0.00     0.020 A 
ATOM     93  C   UNL A   1      47.558  36.437  29.229  1.00  0.00     0.054 A 
BRANCH  93  94
ATOM     94  S   UNL A   1      48.341  38.063  29.405  1.00  0.00     0.124 S 
ATOM     95  O   UNL A   1      49.760  37.716  29.426  1.00  0.00    -0.237 OA
ATOM     96  O   UNL A   1      47.883  38.768  28.212  1.00  0.00    -0.237 OA
ATOM     97  O   UNL A   1      47.808  38.571  30.668  1.00  0.00    -0.744 OA
ENDBRANCH  93  94
ENDBRANCH  67  88
ENDBRANCH  41  42
ENDBRANCH  34  36
ENDBRANCH  33  34
ENDBRANCH  32  33
ENDBRANCH  31  32
ENDBRANCH   1  31
TORSDOF 21
ENDMDL
