MODEL 1
REMARK VINA RESULT:      -9.5      0.000      0.000
REMARK SMILES CC(C)C[C@H](C)NS(=O)(=O)c1cc(C(=O)OCCOCCOC(=O)c2ccc(-c3c4nc(c(-c5ccc(S(=O)(=O)[O-])cc5)c5ccc([nH]5)c(-c5ccc(S(=O)(=O)[O-])cc5)c5nc(c(-c6ccc(S(=O)(=O)[O-])cc6)c6ccc3[nH]6)C=C5)C=C4)cc2)ccc1Cl
REMARK SMILES IDX 18 1 17 2 16 3 14 4 15 5 13 6 11 7 12 8 87 9 86 10 88 11
REMARK SMILES IDX 85 12 8 13 9 14 10 15 7 16 5 18 6 19 4 20 2 21 1 22 3 23
REMARK SMILES IDX 19 24 20 25 21 26 22 27 23 28 24 29 25 30 26 31 84 32 27 33
REMARK SMILES IDX 83 34 28 35 29 36 30 37 77 38 31 39 82 40 76 41 78 42 32 43
REMARK SMILES IDX 81 44 75 45 74 46 33 48 63 49 44 50 62 51 45 52 48 53 61 54
REMARK SMILES IDX 79 55 46 56 47 57 60 59 80 60 49 61 34 62 35 63 43 64 36 65
REMARK SMILES IDX 42 66 37 67 38 68 39 69 40 70 41 71 64 72 65 73 73 74 66 75
REMARK SMILES IDX 72 76 67 77 68 78 69 79 70 80 71 81 50 82 51 83 59 84 52 85
REMARK SMILES IDX 58 86 53 87 54 88 55 89 56 90 57 91
REMARK H PARENT 7 17 78 47 48 58
REMARK Flexibility Score: inf
ROOT
ATOM      1  C   UNL A   1      36.476  21.604  24.826  1.00  0.00     0.202 C 
ENDROOT
BRANCH   1   2
ATOM      2  C   UNL A   1      34.959  21.516  25.018  1.00  0.00     0.261 C 
BRANCH   2   3
ATOM      3  O   UNL A   1      34.260  21.881  23.817  1.00  0.00    -0.460 OA
BRANCH   3   4
ATOM      4  C   UNL A   1      34.515  23.129  23.366  1.00  0.00     0.338 C 
ATOM      5  O   UNL A   1      35.526  23.542  22.825  1.00  0.00    -0.246 OA
BRANCH   4   6
ATOM      6  C   UNL A   1      33.267  23.915  23.398  1.00  0.00     0.061 A 
ATOM      7  C   UNL A   1      31.470  24.803  24.782  1.00  0.00     0.101 A 
ATOM      8  C   UNL A   1      32.647  24.050  24.643  1.00  0.00     0.039 A 
ATOM      9  C   UNL A   1      30.911  25.415  23.659  1.00  0.00     0.061 A 
ATOM     10  C   UNL A   1      31.558  25.293  22.415  1.00  0.00     0.023 A 
ATOM     11  Cl  UNL A   1      29.442  26.314  23.650  1.00  0.00    -0.083 Cl
ATOM     12  C   UNL A   1      32.742  24.559  22.282  1.00  0.00     0.017 A 
BRANCH   7  13
ATOM     13  S   UNL A   1      30.915  25.053  26.441  1.00  0.00     0.242 S 
ATOM     14  O   UNL A   1      31.265  23.934  27.283  1.00  0.00    -0.207 OA
ATOM     15  O   UNL A   1      29.524  25.451  26.347  1.00  0.00    -0.207 OA
BRANCH  13  16
ATOM     16  N   UNL A   1      31.682  26.422  27.066  1.00  0.00    -0.208 NA
ATOM     17  H   UNL A   1      31.211  26.625  27.947  1.00  0.00     0.141 HD
BRANCH  16  18
ATOM     18  C   UNL A   1      31.775  27.711  26.356  1.00  0.00     0.067 C 
ATOM     19  C   UNL A   1      31.680  28.839  27.389  1.00  0.00     0.025 C 
BRANCH  18  20
ATOM     20  C   UNL A   1      33.057  27.822  25.507  1.00  0.00     0.022 C 
BRANCH  20  21
ATOM     21  C   UNL A   1      33.075  28.755  24.274  1.00  0.00    -0.016 C 
ATOM     22  C   UNL A   1      33.933  28.211  23.127  1.00  0.00     0.007 C 
ATOM     23  C   UNL A   1      31.640  28.929  23.759  1.00  0.00     0.007 C 
ENDBRANCH  20  21
ENDBRANCH  18  20
ENDBRANCH  16  18
ENDBRANCH  13  16
ENDBRANCH   7  13
ENDBRANCH   4   6
ENDBRANCH   3   4
ENDBRANCH   2   3
ENDBRANCH   1   2
BRANCH   1  24
ATOM     24  O   UNL A   1      37.273  20.687  25.577  1.00  0.00    -0.374 OA
BRANCH  24  25
ATOM     25  C   UNL A   1      38.693  20.801  25.463  1.00  0.00     0.202 C 
BRANCH  25  26
ATOM     26  C   UNL A   1      39.523  19.518  25.592  1.00  0.00     0.261 C 
BRANCH  26  27
ATOM     27  O   UNL A   1      40.552  19.629  26.591  1.00  0.00    -0.460 OA
BRANCH  27  28
ATOM     28  C   UNL A   1      41.775  19.958  26.107  1.00  0.00     0.338 C 
ATOM     29  O   UNL A   1      42.448  19.323  25.312  1.00  0.00    -0.246 OA
BRANCH  28  30
ATOM     30  C   UNL A   1      42.128  21.328  26.525  1.00  0.00     0.060 A 
ATOM     31  C   UNL A   1      42.171  22.315  25.531  1.00  0.00     0.016 A 
ATOM     32  C   UNL A   1      42.479  21.629  27.841  1.00  0.00     0.016 A 
ATOM     33  C   UNL A   1      42.614  23.598  25.841  1.00  0.00     0.010 A 
ATOM     34  C   UNL A   1      42.933  22.916  28.148  1.00  0.00     0.010 A 
ATOM     35  C   UNL A   1      43.034  23.897  27.143  1.00  0.00    -0.014 A 
BRANCH  35  36
ATOM     36  C   UNL A   1      43.708  25.189  27.417  1.00  0.00     0.031 A 
ATOM     37  C   UNL A   1      42.909  26.323  28.000  1.00  0.00     0.074 A 
ATOM     38  C   UNL A   1      45.024  25.342  27.180  1.00  0.00     0.049 A 
ATOM     39  N   UNL A   1      43.289  27.539  28.295  1.00  0.00    -0.248 NA
ATOM     40  C   UNL A   1      41.490  26.050  28.289  1.00  0.00     0.031 C 
ATOM     41  C   UNL A   1      45.914  24.304  26.659  1.00  0.00     0.029 A 
ATOM     42  N   UNL A   1      45.838  26.434  27.344  1.00  0.00    -0.354 N 
ATOM     43  C   UNL A   1      42.159  28.180  28.791  1.00  0.00     0.074 A 
ATOM     44  C   UNL A   1      41.072  27.227  28.731  1.00  0.00     0.031 C 
ATOM     45  C   UNL A   1      47.153  24.813  26.543  1.00  0.00     0.029 A 
ATOM     46  C   UNL A   1      47.135  26.218  26.944  1.00  0.00     0.049 A 
ATOM     47  H   UNL A   1      45.523  27.290  27.712  1.00  0.00     0.167 HD
ATOM     48  C   UNL A   1      42.040  29.445  29.260  1.00  0.00     0.031 A 
ATOM     49  C   UNL A   1      48.185  27.063  26.889  1.00  0.00     0.031 A 
ATOM     50  C   UNL A   1      43.121  30.393  29.307  1.00  0.00     0.049 A 
ATOM     51  C   UNL A   1      48.009  28.487  27.349  1.00  0.00     0.074 A 
ATOM     52  C   UNL A   1      43.104  31.694  29.779  1.00  0.00     0.029 A 
ATOM     53  N   UNL A   1      44.410  30.148  28.859  1.00  0.00    -0.354 N 
ATOM     54  N   UNL A   1      46.939  29.071  27.837  1.00  0.00    -0.248 NA
ATOM     55  C   UNL A   1      49.185  29.363  27.258  1.00  0.00     0.031 C 
ATOM     56  C   UNL A   1      44.367  32.256  29.560  1.00  0.00     0.029 A 
ATOM     57  C   UNL A   1      45.189  31.282  29.016  1.00  0.00     0.049 A 
ATOM     58  H   UNL A   1      44.725  29.294  28.484  1.00  0.00     0.167 HD
ATOM     59  C   UNL A   1      47.324  30.373  28.140  1.00  0.00     0.074 A 
ATOM     60  C   UNL A   1      48.726  30.487  27.792  1.00  0.00     0.031 C 
ATOM     61  C   UNL A   1      46.584  31.383  28.663  1.00  0.00     0.031 A 
BRANCH  48  62
ATOM     62  C   UNL A   1      40.677  29.889  29.727  1.00  0.00    -0.014 A 
ATOM     63  C   UNL A   1      39.636  30.137  28.814  1.00  0.00     0.010 A 
ATOM     64  C   UNL A   1      40.424  30.025  31.105  1.00  0.00     0.010 A 
ATOM     65  C   UNL A   1      38.379  30.548  29.269  1.00  0.00     0.020 A 
ATOM     66  C   UNL A   1      39.162  30.406  31.565  1.00  0.00     0.020 A 
ATOM     67  C   UNL A   1      38.151  30.682  30.642  1.00  0.00     0.054 A 
BRANCH  67  68
ATOM     68  S   UNL A   1      36.504  31.195  31.204  1.00  0.00     0.124 S 
ATOM     69  O   UNL A   1      36.761  32.548  31.692  1.00  0.00    -0.237 OA
ATOM     70  O   UNL A   1      35.707  31.107  29.983  1.00  0.00    -0.237 OA
ATOM     71  O   UNL A   1      36.168  30.215  32.235  1.00  0.00    -0.744 OA
ENDBRANCH  67  68
ENDBRANCH  48  62
BRANCH  49  72
ATOM     72  C   UNL A   1      49.493  26.588  26.362  1.00  0.00    -0.014 A 
ATOM     73  C   UNL A   1      49.916  26.936  25.067  1.00  0.00     0.010 A 
ATOM     74  C   UNL A   1      50.327  25.782  27.160  1.00  0.00     0.010 A 
ATOM     75  C   UNL A   1      51.142  26.474  24.575  1.00  0.00     0.020 A 
ATOM     76  C   UNL A   1      51.565  25.345  26.684  1.00  0.00     0.020 A 
ATOM     77  C   UNL A   1      51.960  25.685  25.389  1.00  0.00     0.054 A 
BRANCH  77  78
ATOM     78  S   UNL A   1      53.571  25.145  24.750  1.00  0.00     0.124 S 
ATOM     79  O   UNL A   1      54.498  25.896  25.590  1.00  0.00    -0.237 OA
ATOM     80  O   UNL A   1      53.532  23.703  24.980  1.00  0.00    -0.237 OA
ATOM     81  O   UNL A   1      53.531  25.545  23.345  1.00  0.00    -0.744 OA
ENDBRANCH  77  78
ENDBRANCH  49  72
BRANCH  61  82
ATOM     82  C   UNL A   1      47.282  32.692  28.929  1.00  0.00    -0.014 A 
ATOM     83  C   UNL A   1      47.395  33.679  27.934  1.00  0.00     0.010 A 
ATOM     84  C   UNL A   1      47.789  32.956  30.215  1.00  0.00     0.010 A 
ATOM     85  C   UNL A   1      48.035  34.891  28.209  1.00  0.00     0.020 A 
ATOM     86  C   UNL A   1      48.402  34.178  30.503  1.00  0.00     0.020 A 
ATOM     87  C   UNL A   1      48.535  35.132  29.493  1.00  0.00     0.054 A 
BRANCH  87  88
ATOM     88  S   UNL A   1      49.329  36.727  29.835  1.00  0.00     0.124 S 
ATOM     89  O   UNL A   1      50.504  36.323  30.603  1.00  0.00    -0.237 OA
ATOM     90  O   UNL A   1      49.601  37.244  28.496  1.00  0.00    -0.237 OA
ATOM     91  O   UNL A   1      48.317  37.465  30.588  1.00  0.00    -0.744 OA
ENDBRANCH  87  88
ENDBRANCH  61  82
ENDBRANCH  35  36
ENDBRANCH  28  30
ENDBRANCH  27  28
ENDBRANCH  26  27
ENDBRANCH  25  26
ENDBRANCH  24  25
ENDBRANCH   1  24
TORSDOF 22
ENDMDL
MODEL 2
REMARK VINA RESULT:      -9.4      5.671     10.237
REMARK SMILES CC(C)C[C@H](C)NS(=O)(=O)c1cc(C(=O)OCCOCCOC(=O)c2ccc(-c3c4nc(c(-c5ccc(S(=O)(=O)[O-])cc5)c5ccc([nH]5)c(-c5ccc(S(=O)(=O)[O-])cc5)c5nc(c(-c6ccc(S(=O)(=O)[O-])cc6)c6ccc3[nH]6)C=C5)C=C4)cc2)ccc1Cl
REMARK SMILES IDX 18 1 17 2 16 3 14 4 15 5 13 6 11 7 12 8 87 9 86 10 88 11
REMARK SMILES IDX 85 12 8 13 9 14 10 15 7 16 5 18 6 19 4 20 2 21 1 22 3 23
REMARK SMILES IDX 19 24 20 25 21 26 22 27 23 28 24 29 25 30 26 31 84 32 27 33
REMARK SMILES IDX 83 34 28 35 29 36 30 37 77 38 31 39 82 40 76 41 78 42 32 43
REMARK SMILES IDX 81 44 75 45 74 46 33 48 63 49 44 50 62 51 45 52 48 53 61 54
REMARK SMILES IDX 79 55 46 56 47 57 60 59 80 60 49 61 34 62 35 63 43 64 36 65
REMARK SMILES IDX 42 66 37 67 38 68 39 69 40 70 41 71 64 72 65 73 73 74 66 75
REMARK SMILES IDX 72 76 67 77 68 78 69 79 70 80 71 81 50 82 51 83 59 84 52 85
REMARK SMILES IDX 58 86 53 87 54 88 55 89 56 90 57 91
REMARK H PARENT 7 17 78 47 48 58
REMARK Flexibility Score: inf
ROOT
ATOM      1  C   UNL A   1      38.863  19.845  25.392  1.00  0.00     0.202 C 
ENDROOT
BRANCH   1   2
ATOM      2  C   UNL A   1      37.424  20.115  24.940  1.00  0.00     0.261 C 
BRANCH   2   3
ATOM      3  O   UNL A   1      36.974  21.407  25.379  1.00  0.00    -0.460 OA
BRANCH   3   4
ATOM      4  C   UNL A   1      36.303  22.122  24.448  1.00  0.00     0.338 C 
ATOM      5  O   UNL A   1      36.720  22.558  23.389  1.00  0.00    -0.246 OA
BRANCH   4   6
ATOM      6  C   UNL A   1      34.865  22.111  24.779  1.00  0.00     0.061 A 
ATOM      7  C   UNL A   1      32.972  23.394  25.618  1.00  0.00     0.101 A 
ATOM      8  C   UNL A   1      34.336  23.295  25.298  1.00  0.00     0.039 A 
ATOM      9  C   UNL A   1      32.140  22.291  25.422  1.00  0.00     0.061 A 
ATOM     10  C   UNL A   1      32.680  21.111  24.875  1.00  0.00     0.023 A 
ATOM     11  Cl  UNL A   1      30.467  22.229  25.824  1.00  0.00    -0.083 Cl
ATOM     12  C   UNL A   1      34.035  21.021  24.539  1.00  0.00     0.017 A 
BRANCH   7  13
ATOM     13  S   UNL A   1      32.408  25.007  26.070  1.00  0.00     0.242 S 
ATOM     14  O   UNL A   1      33.508  25.937  26.163  1.00  0.00    -0.207 OA
ATOM     15  O   UNL A   1      31.545  24.827  27.220  1.00  0.00    -0.207 OA
BRANCH  13  16
ATOM     16  N   UNL A   1      31.364  25.570  24.868  1.00  0.00    -0.208 NA
ATOM     17  H   UNL A   1      31.641  25.090  24.013  1.00  0.00     0.141 HD
BRANCH  16  18
ATOM     18  C   UNL A   1      31.220  26.991  24.502  1.00  0.00     0.067 C 
ATOM     19  C   UNL A   1      29.995  27.134  23.593  1.00  0.00     0.025 C 
BRANCH  18  20
ATOM     20  C   UNL A   1      31.121  27.908  25.738  1.00  0.00     0.022 C 
BRANCH  20  21
ATOM     21  C   UNL A   1      31.748  29.320  25.689  1.00  0.00    -0.016 C 
ATOM     22  C   UNL A   1      32.031  29.896  27.081  1.00  0.00     0.007 C 
ATOM     23  C   UNL A   1      33.074  29.251  24.920  1.00  0.00     0.007 C 
ENDBRANCH  20  21
ENDBRANCH  18  20
ENDBRANCH  16  18
ENDBRANCH  13  16
ENDBRANCH   7  13
ENDBRANCH   4   6
ENDBRANCH   3   4
ENDBRANCH   2   3
ENDBRANCH   1   2
BRANCH   1  24
ATOM     24  O   UNL A   1      39.620  20.972  25.835  1.00  0.00    -0.374 OA
BRANCH  24  25
ATOM     25  C   UNL A   1      40.730  20.722  26.699  1.00  0.00     0.202 C 
BRANCH  25  26
ATOM     26  C   UNL A   1      41.499  21.934  27.238  1.00  0.00     0.261 C 
BRANCH  26  27
ATOM     27  O   UNL A   1      41.048  23.171  26.659  1.00  0.00    -0.460 OA
BRANCH  27  28
ATOM     28  C   UNL A   1      41.996  24.139  26.586  1.00  0.00     0.338 C 
ATOM     29  O   UNL A   1      42.946  24.184  25.824  1.00  0.00    -0.246 OA
BRANCH  28  30
ATOM     30  C   UNL A   1      41.617  25.275  27.447  1.00  0.00     0.060 A 
ATOM     31  C   UNL A   1      42.567  26.287  27.635  1.00  0.00     0.016 A 
ATOM     32  C   UNL A   1      40.392  25.318  28.114  1.00  0.00     0.016 A 
ATOM     33  C   UNL A   1      42.316  27.323  28.531  1.00  0.00     0.010 A 
ATOM     34  C   UNL A   1      40.145  26.355  29.020  1.00  0.00     0.010 A 
ATOM     35  C   UNL A   1      41.119  27.343  29.257  1.00  0.00    -0.014 A 
BRANCH  35  36
ATOM     36  C   UNL A   1      40.949  28.318  30.363  1.00  0.00     0.031 A 
ATOM     37  C   UNL A   1      41.858  28.233  31.560  1.00  0.00     0.074 A 
ATOM     38  C   UNL A   1      40.019  29.286  30.288  1.00  0.00     0.049 A 
ATOM     39  N   UNL A   1      41.870  28.964  32.644  1.00  0.00    -0.248 NA
ATOM     40  C   UNL A   1      42.890  27.182  31.531  1.00  0.00     0.031 C 
ATOM     41  C   UNL A   1      39.110  29.500  29.161  1.00  0.00     0.029 A 
ATOM     42  N   UNL A   1      39.684  30.271  31.183  1.00  0.00    -0.354 N 
ATOM     43  C   UNL A   1      42.899  28.458  33.431  1.00  0.00     0.074 A 
ATOM     44  C   UNL A   1      43.469  27.339  32.713  1.00  0.00     0.031 C 
ATOM     45  C   UNL A   1      38.317  30.549  29.436  1.00  0.00     0.029 A 
ATOM     46  C   UNL A   1      38.636  31.057  30.768  1.00  0.00     0.049 A 
ATOM     47  H   UNL A   1      40.150  30.402  32.039  1.00  0.00     0.167 HD
ATOM     48  C   UNL A   1      43.333  28.890  34.639  1.00  0.00     0.031 A 
ATOM     49  C   UNL A   1      37.992  32.060  31.400  1.00  0.00     0.031 A 
ATOM     50  C   UNL A   1      42.754  29.996  35.355  1.00  0.00     0.049 A 
ATOM     51  C   UNL A   1      38.446  32.476  32.775  1.00  0.00     0.074 A 
ATOM     52  C   UNL A   1      43.133  30.521  36.579  1.00  0.00     0.029 A 
ATOM     53  N   UNL A   1      41.670  30.743  34.919  1.00  0.00    -0.354 N 
ATOM     54  N   UNL A   1      39.436  32.002  33.497  1.00  0.00    -0.248 NA
ATOM     55  C   UNL A   1      37.703  33.568  33.418  1.00  0.00     0.031 C 
ATOM     56  C   UNL A   1      42.240  31.545  36.911  1.00  0.00     0.029 A 
ATOM     57  C   UNL A   1      41.348  31.704  35.862  1.00  0.00     0.049 A 
ATOM     58  H   UNL A   1      41.199  30.609  34.066  1.00  0.00     0.167 HD
ATOM     59  C   UNL A   1      39.452  32.759  34.663  1.00  0.00     0.074 A 
ATOM     60  C   UNL A   1      38.382  33.729  34.546  1.00  0.00     0.031 C 
ATOM     61  C   UNL A   1      40.279  32.663  35.734  1.00  0.00     0.031 A 
BRANCH  48  62
ATOM     62  C   UNL A   1      44.469  28.136  35.282  1.00  0.00    -0.014 A 
ATOM     63  C   UNL A   1      44.246  26.946  35.998  1.00  0.00     0.010 A 
ATOM     64  C   UNL A   1      45.787  28.607  35.133  1.00  0.00     0.010 A 
ATOM     65  C   UNL A   1      45.315  26.263  36.586  1.00  0.00     0.020 A 
ATOM     66  C   UNL A   1      46.861  27.912  35.693  1.00  0.00     0.020 A 
ATOM     67  C   UNL A   1      46.616  26.752  36.431  1.00  0.00     0.054 A 
BRANCH  67  68
ATOM     68  S   UNL A   1      47.986  25.833  37.186  1.00  0.00     0.124 S 
ATOM     69  O   UNL A   1      47.952  24.577  36.439  1.00  0.00    -0.237 OA
ATOM     70  O   UNL A   1      49.135  26.693  36.917  1.00  0.00    -0.237 OA
ATOM     71  O   UNL A   1      47.604  25.731  38.592  1.00  0.00    -0.744 OA
ENDBRANCH  67  68
ENDBRANCH  48  62
BRANCH  49  72
ATOM     72  C   UNL A   1      36.836  32.729  30.745  1.00  0.00    -0.014 A 
ATOM     73  C   UNL A   1      35.524  32.266  30.951  1.00  0.00     0.010 A 
ATOM     74  C   UNL A   1      37.044  33.842  29.909  1.00  0.00     0.010 A 
ATOM     75  C   UNL A   1      34.445  32.894  30.320  1.00  0.00     0.020 A 
ATOM     76  C   UNL A   1      35.966  34.491  29.302  1.00  0.00     0.020 A 
ATOM     77  C   UNL A   1      34.673  34.005  29.503  1.00  0.00     0.054 A 
BRANCH  77  78
ATOM     78  S   UNL A   1      33.252  34.838  28.741  1.00  0.00     0.124 S 
ATOM     79  O   UNL A   1      32.456  35.208  29.906  1.00  0.00    -0.237 OA
ATOM     80  O   UNL A   1      33.883  35.946  28.027  1.00  0.00    -0.237 OA
ATOM     81  O   UNL A   1      32.671  33.806  27.885  1.00  0.00    -0.744 OA
ENDBRANCH  77  78
ENDBRANCH  49  72
BRANCH  61  82
ATOM     82  C   UNL A   1      40.089  33.656  36.852  1.00  0.00    -0.014 A 
ATOM     83  C   UNL A   1      40.863  34.827  36.932  1.00  0.00     0.010 A 
ATOM     84  C   UNL A   1      39.083  33.434  37.810  1.00  0.00     0.010 A 
ATOM     85  C   UNL A   1      40.658  35.740  37.971  1.00  0.00     0.020 A 
ATOM     86  C   UNL A   1      38.854  34.359  38.832  1.00  0.00     0.020 A 
ATOM     87  C   UNL A   1      39.655  35.500  38.915  1.00  0.00     0.054 A 
BRANCH  87  88
ATOM     88  S   UNL A   1      39.385  36.717  40.233  1.00  0.00     0.124 S 
ATOM     89  O   UNL A   1      40.750  37.003  40.667  1.00  0.00    -0.237 OA
ATOM     90  O   UNL A   1      38.708  37.804  39.530  1.00  0.00    -0.237 OA
ATOM     91  O   UNL A   1      38.560  36.001  41.203  1.00  0.00    -0.744 OA
ENDBRANCH  87  88
ENDBRANCH  61  82
ENDBRANCH  35  36
ENDBRANCH  28  30
ENDBRANCH  27  28
ENDBRANCH  26  27
ENDBRANCH  25  26
ENDBRANCH  24  25
ENDBRANCH   1  24
TORSDOF 22
ENDMDL
MODEL 3
REMARK VINA RESULT:      -9.3      1.092      8.227
REMARK SMILES CC(C)C[C@H](C)NS(=O)(=O)c1cc(C(=O)OCCOCCOC(=O)c2ccc(-c3c4nc(c(-c5ccc(S(=O)(=O)[O-])cc5)c5ccc([nH]5)c(-c5ccc(S(=O)(=O)[O-])cc5)c5nc(c(-c6ccc(S(=O)(=O)[O-])cc6)c6ccc3[nH]6)C=C5)C=C4)cc2)ccc1Cl
REMARK SMILES IDX 18 1 17 2 16 3 14 4 15 5 13 6 11 7 12 8 87 9 86 10 88 11
REMARK SMILES IDX 85 12 8 13 9 14 10 15 7 16 5 18 6 19 4 20 2 21 1 22 3 23
REMARK SMILES IDX 19 24 20 25 21 26 22 27 23 28 24 29 25 30 26 31 84 32 27 33
REMARK SMILES IDX 83 34 28 35 29 36 30 37 77 38 31 39 82 40 76 41 78 42 32 43
REMARK SMILES IDX 81 44 75 45 74 46 33 48 63 49 44 50 62 51 45 52 48 53 61 54
REMARK SMILES IDX 79 55 46 56 47 57 60 59 80 60 49 61 34 62 35 63 43 64 36 65
REMARK SMILES IDX 42 66 37 67 38 68 39 69 40 70 41 71 64 72 65 73 73 74 66 75
REMARK SMILES IDX 72 76 67 77 68 78 69 79 70 80 71 81 50 82 51 83 59 84 52 85
REMARK SMILES IDX 58 86 53 87 54 88 55 89 56 90 57 91
REMARK H PARENT 7 17 78 47 48 58
REMARK Flexibility Score: inf
ROOT
ATOM      1  C   UNL A   1      37.599  22.861  25.579  1.00  0.00     0.202 C 
ENDROOT
BRANCH   1   2
ATOM      2  C   UNL A   1      36.207  22.888  26.218  1.00  0.00     0.261 C 
BRANCH   2   3
ATOM      3  O   UNL A   1      35.475  21.687  25.923  1.00  0.00    -0.460 OA
BRANCH   3   4
ATOM      4  C   UNL A   1      34.233  21.633  26.455  1.00  0.00     0.338 C 
ATOM      5  O   UNL A   1      33.910  21.282  27.576  1.00  0.00    -0.246 OA
BRANCH   4   6
ATOM      6  C   UNL A   1      33.290  22.307  25.542  1.00  0.00     0.061 A 
ATOM      7  C   UNL A   1      31.347  23.765  25.357  1.00  0.00     0.101 A 
ATOM      8  C   UNL A   1      32.277  23.063  26.140  1.00  0.00     0.039 A 
ATOM      9  C   UNL A   1      31.434  23.699  23.965  1.00  0.00     0.061 A 
ATOM     10  C   UNL A   1      32.473  22.956  23.375  1.00  0.00     0.023 A 
ATOM     11  Cl  UNL A   1      30.336  24.446  22.868  1.00  0.00    -0.083 Cl
ATOM     12  C   UNL A   1      33.411  22.272  24.156  1.00  0.00     0.017 A 
BRANCH   7  13
ATOM     13  S   UNL A   1      30.256  24.835  26.243  1.00  0.00     0.242 S 
ATOM     14  O   UNL A   1      29.536  24.115  27.267  1.00  0.00    -0.207 OA
ATOM     15  O   UNL A   1      29.504  25.567  25.242  1.00  0.00    -0.207 OA
BRANCH  13  16
ATOM     16  N   UNL A   1      31.173  26.029  27.008  1.00  0.00    -0.208 NA
ATOM     17  H   UNL A   1      30.666  26.263  27.861  1.00  0.00     0.141 HD
BRANCH  16  18
ATOM     18  C   UNL A   1      31.529  27.318  26.388  1.00  0.00     0.067 C 
ATOM     19  C   UNL A   1      31.778  28.339  27.504  1.00  0.00     0.025 C 
BRANCH  18  20
ATOM     20  C   UNL A   1      32.742  27.200  25.443  1.00  0.00     0.022 C 
BRANCH  20  21
ATOM     21  C   UNL A   1      32.528  27.294  23.915  1.00  0.00    -0.016 C 
ATOM     22  C   UNL A   1      31.328  28.168  23.533  1.00  0.00     0.007 C 
ATOM     23  C   UNL A   1      33.784  27.896  23.271  1.00  0.00     0.007 C 
ENDBRANCH  20  21
ENDBRANCH  18  20
ENDBRANCH  16  18
ENDBRANCH  13  16
ENDBRANCH   7  13
ENDBRANCH   4   6
ENDBRANCH   3   4
ENDBRANCH   2   3
ENDBRANCH   1   2
BRANCH   1  24
ATOM     24  O   UNL A   1      38.119  21.579  25.226  1.00  0.00    -0.374 OA
BRANCH  24  25
ATOM     25  C   UNL A   1      39.234  21.090  25.975  1.00  0.00     0.202 C 
BRANCH  25  26
ATOM     26  C   UNL A   1      39.707  19.659  25.695  1.00  0.00     0.261 C 
BRANCH  26  27
ATOM     27  O   UNL A   1      41.139  19.565  25.596  1.00  0.00    -0.460 OA
BRANCH  27  28
ATOM     28  C   UNL A   1      41.792  19.632  26.783  1.00  0.00     0.338 C 
ATOM     29  O   UNL A   1      41.920  18.741  27.604  1.00  0.00    -0.246 OA
BRANCH  28  30
ATOM     30  C   UNL A   1      42.524  20.909  26.879  1.00  0.00     0.060 A 
ATOM     31  C   UNL A   1      42.787  21.407  28.162  1.00  0.00     0.016 A 
ATOM     32  C   UNL A   1      42.881  21.641  25.746  1.00  0.00     0.016 A 
ATOM     33  C   UNL A   1      43.366  22.664  28.318  1.00  0.00     0.010 A 
ATOM     34  C   UNL A   1      43.455  22.907  25.905  1.00  0.00     0.010 A 
ATOM     35  C   UNL A   1      43.668  23.438  27.191  1.00  0.00    -0.014 A 
BRANCH  35  36
ATOM     36  C   UNL A   1      44.076  24.854  27.363  1.00  0.00     0.031 A 
ATOM     37  C   UNL A   1      45.511  25.238  27.120  1.00  0.00     0.074 A 
ATOM     38  C   UNL A   1      43.174  25.793  27.701  1.00  0.00     0.049 A 
ATOM     39  N   UNL A   1      46.086  26.406  27.234  1.00  0.00    -0.248 NA
ATOM     40  C   UNL A   1      46.418  24.159  26.691  1.00  0.00     0.031 C 
ATOM     41  C   UNL A   1      41.747  25.553  27.920  1.00  0.00     0.029 A 
ATOM     42  N   UNL A   1      43.327  27.138  27.923  1.00  0.00    -0.354 N 
ATOM     43  C   UNL A   1      47.423  26.205  26.904  1.00  0.00     0.074 A 
ATOM     44  C   UNL A   1      47.578  24.796  26.613  1.00  0.00     0.031 C 
ATOM     45  C   UNL A   1      41.157  26.715  28.249  1.00  0.00     0.029 A 
ATOM     46  C   UNL A   1      42.166  27.769  28.300  1.00  0.00     0.049 A 
ATOM     47  H   UNL A   1      44.187  27.605  27.822  1.00  0.00     0.167 HD
ATOM     48  C   UNL A   1      48.426  27.112  26.843  1.00  0.00     0.031 A 
ATOM     49  C   UNL A   1      41.947  29.049  28.665  1.00  0.00     0.031 A 
ATOM     50  C   UNL A   1      48.269  28.510  27.145  1.00  0.00     0.049 A 
ATOM     51  C   UNL A   1      43.095  30.024  28.660  1.00  0.00     0.074 A 
ATOM     52  C   UNL A   1      49.223  29.512  27.097  1.00  0.00     0.029 A 
ATOM     53  N   UNL A   1      47.086  29.104  27.560  1.00  0.00    -0.354 N 
ATOM     54  N   UNL A   1      44.348  29.823  28.323  1.00  0.00    -0.248 NA
ATOM     55  C   UNL A   1      42.797  31.402  29.075  1.00  0.00     0.031 C 
ATOM     56  C   UNL A   1      48.631  30.700  27.541  1.00  0.00     0.029 A 
ATOM     57  C   UNL A   1      47.292  30.452  27.799  1.00  0.00     0.049 A 
ATOM     58  H   UNL A   1      46.228  28.636  27.667  1.00  0.00     0.167 HD
ATOM     59  C   UNL A   1      44.979  31.055  28.456  1.00  0.00     0.074 A 
ATOM     60  C   UNL A   1      43.968  31.998  28.892  1.00  0.00     0.031 C 
ATOM     61  C   UNL A   1      46.278  31.379  28.235  1.00  0.00     0.031 A 
BRANCH  48  62
ATOM     62  C   UNL A   1      49.798  26.609  26.470  1.00  0.00    -0.014 A 
ATOM     63  C   UNL A   1      50.720  26.202  27.450  1.00  0.00     0.010 A 
ATOM     64  C   UNL A   1      50.154  26.508  25.112  1.00  0.00     0.010 A 
ATOM     65  C   UNL A   1      51.987  25.739  27.081  1.00  0.00     0.020 A 
ATOM     66  C   UNL A   1      51.408  26.017  24.738  1.00  0.00     0.020 A 
ATOM     67  C   UNL A   1      52.323  25.652  25.727  1.00  0.00     0.054 A 
BRANCH  67  68
ATOM     68  S   UNL A   1      53.965  25.025  25.277  1.00  0.00     0.124 S 
ATOM     69  O   UNL A   1      54.337  25.917  24.180  1.00  0.00    -0.237 OA
ATOM     70  O   UNL A   1      54.723  25.199  26.513  1.00  0.00    -0.237 OA
ATOM     71  O   UNL A   1      53.714  23.638  24.893  1.00  0.00    -0.744 OA
ENDBRANCH  67  68
ENDBRANCH  48  62
BRANCH  49  72
ATOM     72  C   UNL A   1      40.585  29.477  29.085  1.00  0.00    -0.014 A 
ATOM     73  C   UNL A   1      39.580  29.719  28.132  1.00  0.00     0.010 A 
ATOM     74  C   UNL A   1      40.285  29.644  30.450  1.00  0.00     0.010 A 
ATOM     75  C   UNL A   1      38.306  30.135  28.535  1.00  0.00     0.020 A 
ATOM     76  C   UNL A   1      39.006  30.028  30.859  1.00  0.00     0.020 A 
ATOM     77  C   UNL A   1      38.027  30.282  29.897  1.00  0.00     0.054 A 
BRANCH  77  78
ATOM     78  S   UNL A   1      36.351  30.766  30.400  1.00  0.00     0.124 S 
ATOM     79  O   UNL A   1      35.590  30.540  29.176  1.00  0.00    -0.237 OA
ATOM     80  O   UNL A   1      36.075  29.844  31.499  1.00  0.00    -0.237 OA
ATOM     81  O   UNL A   1      36.505  32.164  30.794  1.00  0.00    -0.744 OA
ENDBRANCH  77  78
ENDBRANCH  49  72
BRANCH  61  82
ATOM     82  C   UNL A   1      46.677  32.820  28.421  1.00  0.00    -0.014 A 
ATOM     83  C   UNL A   1      47.166  33.294  29.652  1.00  0.00     0.010 A 
ATOM     84  C   UNL A   1      46.609  33.703  27.327  1.00  0.00     0.010 A 
ATOM     85  C   UNL A   1      47.544  34.632  29.795  1.00  0.00     0.020 A 
ATOM     86  C   UNL A   1      47.014  35.034  27.457  1.00  0.00     0.020 A 
ATOM     87  C   UNL A   1      47.465  35.494  28.697  1.00  0.00     0.054 A 
BRANCH  87  88
ATOM     88  S   UNL A   1      47.994  37.217  28.899  1.00  0.00     0.124 S 
ATOM     89  O   UNL A   1      48.491  37.541  27.564  1.00  0.00    -0.237 OA
ATOM     90  O   UNL A   1      46.757  37.889  29.289  1.00  0.00    -0.237 OA
ATOM     91  O   UNL A   1      49.014  37.147  29.943  1.00  0.00    -0.744 OA
ENDBRANCH  87  88
ENDBRANCH  61  82
ENDBRANCH  35  36
ENDBRANCH  28  30
ENDBRANCH  27  28
ENDBRANCH  26  27
ENDBRANCH  25  26
ENDBRANCH  24  25
ENDBRANCH   1  24
TORSDOF 22
ENDMDL
