MODEL 1
REMARK VINA RESULT:     -11.1      0.000      0.000
REMARK SMILES Cc1ccc(-c2nn(CCC(=O)OCCOCCOC(=O)c3ccc(-c4c5nc(c(-c6ccc(S(=O)(=O)[O-])cc6)c6ccc([nH]6)c(-c6ccc(S(=O)(=O)[O-])cc6)c6nc(c(-c7ccc(S(=O)(=O)[O-])cc7)c7ccc4[nH]7)C=C6)C=C5)cc3)c(=O)c3noc(C)c23)cc1C
REMARK SMILES IDX 16 1 15 2 14 3 13 4 11 5 12 6 10 7 9 8 8 9 6 10 7 11 89 12
REMARK SMILES IDX 84 13 87 14 82 15 85 16 86 17 88 18 83 19 5 20 1 21 2 22
REMARK SMILES IDX 3 23 91 24 4 25 90 26 92 27 17 28 18 29 19 30 20 31 21 32
REMARK SMILES IDX 22 33 23 34 81 35 24 36 80 37 25 38 26 39 27 40 74 41 28 42
REMARK SMILES IDX 79 43 73 44 75 45 29 46 78 47 72 48 71 49 30 51 60 52 41 53
REMARK SMILES IDX 59 54 42 55 45 56 58 57 76 58 43 59 44 60 57 62 77 63 46 64
REMARK SMILES IDX 31 65 32 66 40 67 33 68 39 69 34 70 35 71 36 72 37 73 38 74
REMARK SMILES IDX 61 75 62 76 70 77 63 78 69 79 64 80 65 81 66 82 67 83 68 84
REMARK SMILES IDX 47 85 48 86 56 87 49 88 55 89 50 90 51 91 52 92 53 93 54 94
REMARK H PARENT 75 50 45 61
REMARK Flexibility Score: inf
ROOT
ATOM      1  O   UNL A   1      36.641  22.671  24.555  1.00  0.00    -0.374 OA
ENDROOT
BRANCH   1   2
ATOM      2  C   UNL A   1      35.629  23.682  24.567  1.00  0.00     0.202 C 
BRANCH   2   3
ATOM      3  C   UNL A   1      34.704  23.684  25.801  1.00  0.00     0.261 C 
BRANCH   3   4
ATOM      4  O   UNL A   1      34.036  22.429  26.058  1.00  0.00    -0.463 OA
BRANCH   4   5
ATOM      5  C   UNL A   1      32.797  22.471  26.603  1.00  0.00     0.307 C 
ATOM      6  O   UNL A   1      32.533  22.885  27.725  1.00  0.00    -0.252 OA
BRANCH   5   7
ATOM      7  C   UNL A   1      31.755  21.863  25.686  1.00  0.00     0.146 C 
BRANCH   7   8
ATOM      8  C   UNL A   1      30.820  22.849  24.980  1.00  0.00     0.160 C 
BRANCH   8   9
ATOM      9  N   UNL A   1      31.501  23.934  24.269  1.00  0.00    -0.227 N 
ATOM     10  C   UNL A   1      32.222  26.163  24.335  1.00  0.00     0.104 A 
ATOM     11  N   UNL A   1      31.603  25.169  24.919  1.00  0.00    -0.169 NA
ATOM     12  C   UNL A   1      32.710  26.033  22.988  1.00  0.00     0.078 A 
ATOM     13  C   UNL A   1      32.654  24.785  22.367  1.00  0.00     0.183 A 
ATOM     14  C   UNL A   1      33.319  26.839  22.054  1.00  0.00     0.143 A 
ATOM     15  C   UNL A   1      32.176  23.646  23.082  1.00  0.00     0.296 A 
ATOM     16  N   UNL A   1      33.099  24.809  21.109  1.00  0.00    -0.074 NA
ATOM     17  O   UNL A   1      33.520  26.114  20.912  1.00  0.00    -0.360 OA
ATOM     18  C   UNL A   1      33.804  28.228  21.992  1.00  0.00     0.091 C 
ATOM     19  O   UNL A   1      32.366  22.496  22.691  1.00  0.00    -0.265 OA
BRANCH  10  20
ATOM     20  C   UNL A   1      32.422  27.416  25.059  1.00  0.00     0.003 A 
ATOM     21  C   UNL A   1      32.954  31.050  27.270  1.00  0.00     0.044 C 
ATOM     22  C   UNL A   1      32.799  29.768  26.497  1.00  0.00    -0.048 A 
ATOM     23  C   UNL A   1      31.605  29.549  25.786  1.00  0.00     0.004 A 
ATOM     24  C   UNL A   1      33.815  28.791  26.475  1.00  0.00    -0.048 A 
ATOM     25  C   UNL A   1      31.412  28.375  25.064  1.00  0.00     0.011 A 
ATOM     26  C   UNL A   1      33.620  27.621  25.734  1.00  0.00     0.014 A 
ATOM     27  C   UNL A   1      35.106  28.907  27.235  1.00  0.00     0.044 C 
ENDBRANCH  10  20
ENDBRANCH   8   9
ENDBRANCH   7   8
ENDBRANCH   5   7
ENDBRANCH   4   5
ENDBRANCH   3   4
ENDBRANCH   2   3
ENDBRANCH   1   2
BRANCH   1  28
ATOM     28  C   UNL A   1      37.584  22.690  25.621  1.00  0.00     0.202 C 
BRANCH  28  29
ATOM     29  C   UNL A   1      38.495  21.457  25.844  1.00  0.00     0.261 C 
BRANCH  29  30
ATOM     30  O   UNL A   1      39.915  21.662  25.941  1.00  0.00    -0.460 OA
BRANCH  30  31
ATOM     31  C   UNL A   1      40.340  22.069  27.156  1.00  0.00     0.338 C 
ATOM     32  O   UNL A   1      40.607  21.342  28.102  1.00  0.00    -0.246 OA
BRANCH  31  33
ATOM     33  C   UNL A   1      40.477  23.540  27.253  1.00  0.00     0.060 A 
ATOM     34  C   UNL A   1      41.561  24.111  26.578  1.00  0.00     0.016 A 
ATOM     35  C   UNL A   1      39.696  24.324  28.108  1.00  0.00     0.016 A 
ATOM     36  C   UNL A   1      41.912  25.439  26.807  1.00  0.00     0.010 A 
ATOM     37  C   UNL A   1      40.056  25.660  28.341  1.00  0.00     0.010 A 
ATOM     38  C   UNL A   1      41.182  26.219  27.714  1.00  0.00    -0.014 A 
BRANCH  38  39
ATOM     39  C   UNL A   1      41.625  27.621  27.906  1.00  0.00     0.031 A 
ATOM     40  C   UNL A   1      40.532  28.631  28.039  1.00  0.00     0.074 A 
ATOM     41  C   UNL A   1      42.810  27.904  28.499  1.00  0.00     0.049 A 
ATOM     42  N   UNL A   1      39.854  28.792  29.138  1.00  0.00    -0.248 NA
ATOM     43  C   UNL A   1      39.970  29.345  26.893  1.00  0.00     0.031 C 
ATOM     44  C   UNL A   1      43.379  27.097  29.589  1.00  0.00     0.029 A 
ATOM     45  N   UNL A   1      43.605  29.029  28.467  1.00  0.00    -0.354 N 
ATOM     46  C   UNL A   1      38.765  29.593  28.843  1.00  0.00     0.074 A 
ATOM     47  C   UNL A   1      38.880  29.913  27.437  1.00  0.00     0.031 C 
ATOM     48  C   UNL A   1      44.307  27.832  30.235  1.00  0.00     0.029 A 
ATOM     49  C   UNL A   1      44.514  29.092  29.525  1.00  0.00     0.049 A 
ATOM     50  H   UNL A   1      43.539  29.719  27.768  1.00  0.00     0.167 HD
ATOM     51  C   UNL A   1      37.845  29.949  29.781  1.00  0.00     0.031 A 
ATOM     52  C   UNL A   1      44.968  30.245  30.096  1.00  0.00     0.031 A 
ATOM     53  C   UNL A   1      38.117  29.471  31.107  1.00  0.00     0.049 A 
ATOM     54  C   UNL A   1      43.758  30.644  30.904  1.00  0.00     0.074 A 
ATOM     55  C   UNL A   1      37.762  28.401  31.899  1.00  0.00     0.029 A 
ATOM     56  N   UNL A   1      39.026  30.172  31.864  1.00  0.00    -0.354 N 
ATOM     57  N   UNL A   1      43.384  30.124  32.044  1.00  0.00    -0.248 NA
ATOM     58  C   UNL A   1      42.712  31.392  30.202  1.00  0.00     0.031 C 
ATOM     59  C   UNL A   1      38.812  28.276  32.864  1.00  0.00     0.029 A 
ATOM     60  C   UNL A   1      39.762  29.255  32.571  1.00  0.00     0.049 A 
ATOM     61  H   UNL A   1      39.129  31.150  31.894  1.00  0.00     0.167 HD
ATOM     62  C   UNL A   1      41.989  30.190  32.038  1.00  0.00     0.074 A 
ATOM     63  C   UNL A   1      41.645  31.001  30.885  1.00  0.00     0.031 C 
ATOM     64  C   UNL A   1      41.177  29.431  32.834  1.00  0.00     0.031 A 
BRANCH  51  65
ATOM     65  C   UNL A   1      36.733  30.905  29.571  1.00  0.00    -0.014 A 
ATOM     66  C   UNL A   1      36.834  31.785  28.477  1.00  0.00     0.010 A 
ATOM     67  C   UNL A   1      35.727  31.112  30.526  1.00  0.00     0.010 A 
ATOM     68  C   UNL A   1      35.993  32.890  28.368  1.00  0.00     0.020 A 
ATOM     69  C   UNL A   1      34.866  32.215  30.412  1.00  0.00     0.020 A 
ATOM     70  C   UNL A   1      35.024  33.109  29.347  1.00  0.00     0.054 A 
BRANCH  70  71
ATOM     71  S   UNL A   1      34.019  34.614  29.220  1.00  0.00     0.124 S 
ATOM     72  O   UNL A   1      32.715  34.086  28.830  1.00  0.00    -0.237 OA
ATOM     73  O   UNL A   1      34.101  35.155  30.575  1.00  0.00    -0.237 OA
ATOM     74  O   UNL A   1      34.703  35.400  28.197  1.00  0.00    -0.744 OA
ENDBRANCH  70  71
ENDBRANCH  51  65
BRANCH  52  75
ATOM     75  C   UNL A   1      45.696  31.175  29.168  1.00  0.00    -0.014 A 
ATOM     76  C   UNL A   1      46.122  32.410  29.706  1.00  0.00     0.010 A 
ATOM     77  C   UNL A   1      46.028  30.909  27.828  1.00  0.00     0.010 A 
ATOM     78  C   UNL A   1      46.988  33.254  29.006  1.00  0.00     0.020 A 
ATOM     79  C   UNL A   1      46.920  31.735  27.127  1.00  0.00     0.020 A 
ATOM     80  C   UNL A   1      47.429  32.880  27.740  1.00  0.00     0.054 A 
BRANCH  80  81
ATOM     81  S   UNL A   1      48.741  33.859  26.961  1.00  0.00     0.124 S 
ATOM     82  O   UNL A   1      48.637  33.467  25.559  1.00  0.00    -0.237 OA
ATOM     83  O   UNL A   1      48.321  35.226  27.267  1.00  0.00    -0.237 OA
ATOM     84  O   UNL A   1      49.954  33.418  27.645  1.00  0.00    -0.744 OA
ENDBRANCH  80  81
ENDBRANCH  52  75
BRANCH  64  85
ATOM     85  C   UNL A   1      41.837  28.588  33.882  1.00  0.00    -0.014 A 
ATOM     86  C   UNL A   1      42.503  27.408  33.522  1.00  0.00     0.010 A 
ATOM     87  C   UNL A   1      41.888  29.016  35.224  1.00  0.00     0.010 A 
ATOM     88  C   UNL A   1      43.258  26.704  34.464  1.00  0.00     0.020 A 
ATOM     89  C   UNL A   1      42.656  28.326  36.166  1.00  0.00     0.020 A 
ATOM     90  C   UNL A   1      43.352  27.181  35.774  1.00  0.00     0.054 A 
BRANCH  90  91
ATOM     91  S   UNL A   1      44.446  26.319  36.934  1.00  0.00     0.124 S 
ATOM     92  O   UNL A   1      44.505  24.972  36.374  1.00  0.00    -0.237 OA
ATOM     93  O   UNL A   1      45.683  27.094  36.834  1.00  0.00    -0.237 OA
ATOM     94  O   UNL A   1      43.756  26.430  38.218  1.00  0.00    -0.744 OA
ENDBRANCH  90  91
ENDBRANCH  64  85
ENDBRANCH  38  39
ENDBRANCH  31  33
ENDBRANCH  30  31
ENDBRANCH  29  30
ENDBRANCH  28  29
ENDBRANCH   1  28
TORSDOF 20
ENDMDL
MODEL 2
REMARK VINA RESULT:     -10.3      2.733      7.843
REMARK SMILES Cc1ccc(-c2nn(CCC(=O)OCCOCCOC(=O)c3ccc(-c4c5nc(c(-c6ccc(S(=O)(=O)[O-])cc6)c6ccc([nH]6)c(-c6ccc(S(=O)(=O)[O-])cc6)c6nc(c(-c7ccc(S(=O)(=O)[O-])cc7)c7ccc4[nH]7)C=C6)C=C5)cc3)c(=O)c3noc(C)c23)cc1C
REMARK SMILES IDX 16 1 15 2 14 3 13 4 11 5 12 6 10 7 9 8 8 9 6 10 7 11 89 12
REMARK SMILES IDX 84 13 87 14 82 15 85 16 86 17 88 18 83 19 5 20 1 21 2 22
REMARK SMILES IDX 3 23 91 24 4 25 90 26 92 27 17 28 18 29 19 30 20 31 21 32
REMARK SMILES IDX 22 33 23 34 81 35 24 36 80 37 25 38 26 39 27 40 74 41 28 42
REMARK SMILES IDX 79 43 73 44 75 45 29 46 78 47 72 48 71 49 30 51 60 52 41 53
REMARK SMILES IDX 59 54 42 55 45 56 58 57 76 58 43 59 44 60 57 62 77 63 46 64
REMARK SMILES IDX 31 65 32 66 40 67 33 68 39 69 34 70 35 71 36 72 37 73 38 74
REMARK SMILES IDX 61 75 62 76 70 77 63 78 69 79 64 80 65 81 66 82 67 83 68 84
REMARK SMILES IDX 47 85 48 86 56 87 49 88 55 89 50 90 51 91 52 92 53 93 54 94
REMARK H PARENT 75 50 45 61
REMARK Flexibility Score: inf
ROOT
ATOM      1  O   UNL A   1      32.638  30.355  26.499  1.00  0.00    -0.374 OA
ENDROOT
BRANCH   1   2
ATOM      2  C   UNL A   1      32.407  29.092  25.867  1.00  0.00     0.202 C 
BRANCH   2   3
ATOM      3  C   UNL A   1      32.310  29.124  24.328  1.00  0.00     0.261 C 
BRANCH   3   4
ATOM      4  O   UNL A   1      33.472  28.612  23.639  1.00  0.00    -0.463 OA
BRANCH   4   5
ATOM      5  C   UNL A   1      33.272  27.881  22.517  1.00  0.00     0.307 C 
ATOM      6  O   UNL A   1      34.116  27.660  21.657  1.00  0.00    -0.252 OA
BRANCH   5   7
ATOM      7  C   UNL A   1      31.834  27.417  22.393  1.00  0.00     0.146 C 
BRANCH   7   8
ATOM      8  C   UNL A   1      31.616  25.903  22.323  1.00  0.00     0.160 C 
BRANCH   8   9
ATOM      9  N   UNL A   1      31.859  25.193  23.581  1.00  0.00    -0.227 N 
ATOM     10  C   UNL A   1      33.385  23.961  24.865  1.00  0.00     0.104 A 
ATOM     11  N   UNL A   1      33.111  24.588  23.750  1.00  0.00    -0.169 NA
ATOM     12  C   UNL A   1      32.379  23.795  25.880  1.00  0.00     0.078 A 
ATOM     13  C   UNL A   1      31.155  24.445  25.729  1.00  0.00     0.183 A 
ATOM     14  C   UNL A   1      32.270  23.164  27.097  1.00  0.00     0.143 A 
ATOM     15  C   UNL A   1      30.929  25.308  24.615  1.00  0.00     0.296 A 
ATOM     16  N   UNL A   1      30.296  24.177  26.716  1.00  0.00    -0.074 NA
ATOM     17  O   UNL A   1      31.006  23.362  27.583  1.00  0.00    -0.360 OA
ATOM     18  C   UNL A   1      33.148  22.375  27.977  1.00  0.00     0.091 C 
ATOM     19  O   UNL A   1      29.999  26.111  24.580  1.00  0.00    -0.265 OA
BRANCH  10  20
ATOM     20  C   UNL A   1      34.726  23.425  25.082  1.00  0.00     0.003 A 
ATOM     21  C   UNL A   1      38.637  21.836  25.829  1.00  0.00     0.044 C 
ATOM     22  C   UNL A   1      37.257  22.367  25.550  1.00  0.00    -0.048 A 
ATOM     23  C   UNL A   1      36.989  23.722  25.816  1.00  0.00     0.004 A 
ATOM     24  C   UNL A   1      36.237  21.541  25.036  1.00  0.00    -0.048 A 
ATOM     25  C   UNL A   1      35.725  24.256  25.582  1.00  0.00     0.011 A 
ATOM     26  C   UNL A   1      34.974  22.089  24.789  1.00  0.00     0.014 A 
ATOM     27  C   UNL A   1      36.406  20.073  24.761  1.00  0.00     0.044 C 
ENDBRANCH  10  20
ENDBRANCH   8   9
ENDBRANCH   7   8
ENDBRANCH   5   7
ENDBRANCH   4   5
ENDBRANCH   3   4
ENDBRANCH   2   3
ENDBRANCH   1   2
BRANCH   1  28
ATOM     28  C   UNL A   1      33.696  30.417  27.449  1.00  0.00     0.202 C 
BRANCH  28  29
ATOM     29  C   UNL A   1      34.232  31.802  27.891  1.00  0.00     0.261 C 
BRANCH  29  30
ATOM     30  O   UNL A   1      35.655  32.001  27.942  1.00  0.00    -0.460 OA
BRANCH  30  31
ATOM     31  C   UNL A   1      36.271  31.372  28.965  1.00  0.00     0.338 C 
ATOM     32  O   UNL A   1      35.794  31.163  30.071  1.00  0.00    -0.246 OA
BRANCH  31  33
ATOM     33  C   UNL A   1      37.638  30.918  28.620  1.00  0.00     0.060 A 
ATOM     34  C   UNL A   1      37.743  29.995  27.574  1.00  0.00     0.016 A 
ATOM     35  C   UNL A   1      38.763  31.231  29.390  1.00  0.00     0.016 A 
ATOM     36  C   UNL A   1      38.944  29.331  27.339  1.00  0.00     0.010 A 
ATOM     37  C   UNL A   1      39.970  30.555  29.154  1.00  0.00     0.010 A 
ATOM     38  C   UNL A   1      40.062  29.581  28.146  1.00  0.00    -0.014 A 
BRANCH  38  39
ATOM     39  C   UNL A   1      41.300  28.828  27.834  1.00  0.00     0.031 A 
ATOM     40  C   UNL A   1      42.535  29.654  27.669  1.00  0.00     0.074 A 
ATOM     41  C   UNL A   1      41.459  27.546  28.241  1.00  0.00     0.049 A 
ATOM     42  N   UNL A   1      43.195  30.140  28.679  1.00  0.00    -0.248 NA
ATOM     43  C   UNL A   1      42.963  30.187  26.377  1.00  0.00     0.031 C 
ATOM     44  C   UNL A   1      40.926  27.032  29.513  1.00  0.00     0.029 A 
ATOM     45  N   UNL A   1      42.287  26.538  27.796  1.00  0.00    -0.354 N 
ATOM     46  C   UNL A   1      44.101  31.060  28.182  1.00  0.00     0.074 A 
ATOM     47  C   UNL A   1      43.922  31.054  26.747  1.00  0.00     0.031 C 
ATOM     48  C   UNL A   1      41.578  25.895  29.830  1.00  0.00     0.029 A 
ATOM     49  C   UNL A   1      42.458  25.513  28.728  1.00  0.00     0.049 A 
ATOM     50  H   UNL A   1      42.715  26.541  26.909  1.00  0.00     0.167 HD
ATOM     51  C   UNL A   1      44.948  31.759  28.986  1.00  0.00     0.031 A 
ATOM     52  C   UNL A   1      43.585  24.755  28.856  1.00  0.00     0.031 A 
ATOM     53  C   UNL A   1      44.863  31.433  30.382  1.00  0.00     0.049 A 
ATOM     54  C   UNL A   1      44.502  25.741  29.537  1.00  0.00     0.074 A 
ATOM     55  C   UNL A   1      44.220  31.908  31.503  1.00  0.00     0.029 A 
ATOM     56  N   UNL A   1      45.524  30.309  30.816  1.00  0.00    -0.354 N 
ATOM     57  N   UNL A   1      44.477  26.074  30.801  1.00  0.00    -0.248 NA
ATOM     58  C   UNL A   1      45.220  26.682  28.674  1.00  0.00     0.031 C 
ATOM     59  C   UNL A   1      44.155  30.798  32.405  1.00  0.00     0.029 A 
ATOM     60  C   UNL A   1      44.728  29.704  31.756  1.00  0.00     0.049 A 
ATOM     61  H   UNL A   1      46.406  29.995  30.511  1.00  0.00     0.167 HD
ATOM     62  C   UNL A   1      44.875  27.412  30.838  1.00  0.00     0.074 A 
ATOM     63  C   UNL A   1      45.337  27.715  29.496  1.00  0.00     0.031 C 
ATOM     64  C   UNL A   1      44.629  28.263  31.879  1.00  0.00     0.031 A 
BRANCH  51  65
ATOM     65  C   UNL A   1      46.028  32.657  28.518  1.00  0.00    -0.014 A 
ATOM     66  C   UNL A   1      45.806  34.043  28.616  1.00  0.00     0.010 A 
ATOM     67  C   UNL A   1      47.133  32.191  27.790  1.00  0.00     0.010 A 
ATOM     68  C   UNL A   1      46.628  34.949  27.950  1.00  0.00     0.020 A 
ATOM     69  C   UNL A   1      47.974  33.100  27.129  1.00  0.00     0.020 A 
ATOM     70  C   UNL A   1      47.699  34.471  27.194  1.00  0.00     0.054 A 
BRANCH  70  71
ATOM     71  S   UNL A   1      48.681  35.677  26.262  1.00  0.00     0.124 S 
ATOM     72  O   UNL A   1      47.653  36.540  25.688  1.00  0.00    -0.237 OA
ATOM     73  O   UNL A   1      49.502  36.282  27.308  1.00  0.00    -0.237 OA
ATOM     74  O   UNL A   1      49.412  34.856  25.299  1.00  0.00    -0.744 OA
ENDBRANCH  70  71
ENDBRANCH  51  65
BRANCH  52  75
ATOM     75  C   UNL A   1      43.968  23.965  27.637  1.00  0.00    -0.014 A 
ATOM     76  C   UNL A   1      45.280  23.443  27.599  1.00  0.00     0.010 A 
ATOM     77  C   UNL A   1      43.125  23.664  26.553  1.00  0.00     0.010 A 
ATOM     78  C   UNL A   1      45.673  22.520  26.627  1.00  0.00     0.020 A 
ATOM     79  C   UNL A   1      43.500  22.717  25.587  1.00  0.00     0.020 A 
ATOM     80  C   UNL A   1      44.757  22.118  25.659  1.00  0.00     0.054 A 
BRANCH  80  81
ATOM     81  S   UNL A   1      45.206  20.741  24.567  1.00  0.00     0.124 S 
ATOM     82  O   UNL A   1      44.531  21.093  23.322  1.00  0.00    -0.237 OA
ATOM     83  O   UNL A   1      46.664  20.837  24.543  1.00  0.00    -0.237 OA
ATOM     84  O   UNL A   1      44.675  19.568  25.256  1.00  0.00    -0.744 OA
ENDBRANCH  80  81
ENDBRANCH  52  75
BRANCH  64  85
ATOM     85  C   UNL A   1      44.027  27.674  33.119  1.00  0.00    -0.014 A 
ATOM     86  C   UNL A   1      42.639  27.718  33.318  1.00  0.00     0.010 A 
ATOM     87  C   UNL A   1      44.826  26.980  34.048  1.00  0.00     0.010 A 
ATOM     88  C   UNL A   1      42.054  27.031  34.385  1.00  0.00     0.020 A 
ATOM     89  C   UNL A   1      44.246  26.276  35.107  1.00  0.00     0.020 A 
ATOM     90  C   UNL A   1      42.858  26.292  35.259  1.00  0.00     0.054 A 
BRANCH  90  91
ATOM     91  S   UNL A   1      42.056  25.305  36.550  1.00  0.00     0.124 S 
ATOM     92  O   UNL A   1      40.973  26.180  36.991  1.00  0.00    -0.237 OA
ATOM     93  O   UNL A   1      41.637  24.111  35.818  1.00  0.00    -0.237 OA
ATOM     94  O   UNL A   1      43.115  25.083  37.533  1.00  0.00    -0.744 OA
ENDBRANCH  90  91
ENDBRANCH  64  85
ENDBRANCH  38  39
ENDBRANCH  31  33
ENDBRANCH  30  31
ENDBRANCH  29  30
ENDBRANCH  28  29
ENDBRANCH   1  28
TORSDOF 20
ENDMDL
MODEL 3
REMARK VINA RESULT:      -9.9      1.417      2.141
REMARK SMILES Cc1ccc(-c2nn(CCC(=O)OCCOCCOC(=O)c3ccc(-c4c5nc(c(-c6ccc(S(=O)(=O)[O-])cc6)c6ccc([nH]6)c(-c6ccc(S(=O)(=O)[O-])cc6)c6nc(c(-c7ccc(S(=O)(=O)[O-])cc7)c7ccc4[nH]7)C=C6)C=C5)cc3)c(=O)c3noc(C)c23)cc1C
REMARK SMILES IDX 16 1 15 2 14 3 13 4 11 5 12 6 10 7 9 8 8 9 6 10 7 11 89 12
REMARK SMILES IDX 84 13 87 14 82 15 85 16 86 17 88 18 83 19 5 20 1 21 2 22
REMARK SMILES IDX 3 23 91 24 4 25 90 26 92 27 17 28 18 29 19 30 20 31 21 32
REMARK SMILES IDX 22 33 23 34 81 35 24 36 80 37 25 38 26 39 27 40 74 41 28 42
REMARK SMILES IDX 79 43 73 44 75 45 29 46 78 47 72 48 71 49 30 51 60 52 41 53
REMARK SMILES IDX 59 54 42 55 45 56 58 57 76 58 43 59 44 60 57 62 77 63 46 64
REMARK SMILES IDX 31 65 32 66 40 67 33 68 39 69 34 70 35 71 36 72 37 73 38 74
REMARK SMILES IDX 61 75 62 76 70 77 63 78 69 79 64 80 65 81 66 82 67 83 68 84
REMARK SMILES IDX 47 85 48 86 56 87 49 88 55 89 50 90 51 91 52 92 53 93 54 94
REMARK H PARENT 75 50 45 61
REMARK Flexibility Score: inf
ROOT
ATOM      1  O   UNL A   1      37.833  22.516  25.110  1.00  0.00    -0.374 OA
ENDROOT
BRANCH   1   2
ATOM      2  C   UNL A   1      36.674  21.720  25.373  1.00  0.00     0.202 C 
BRANCH   2   3
ATOM      3  C   UNL A   1      35.333  22.322  24.906  1.00  0.00     0.261 C 
BRANCH   3   4
ATOM      4  O   UNL A   1      34.336  22.455  25.943  1.00  0.00    -0.463 OA
BRANCH   4   5
ATOM      5  C   UNL A   1      33.288  21.598  25.928  1.00  0.00     0.307 C 
ATOM      6  O   UNL A   1      33.335  20.431  25.558  1.00  0.00    -0.252 OA
BRANCH   5   7
ATOM      7  C   UNL A   1      31.999  22.272  26.354  1.00  0.00     0.146 C 
BRANCH   7   8
ATOM      8  C   UNL A   1      31.150  22.875  25.232  1.00  0.00     0.160 C 
BRANCH   8   9
ATOM      9  N   UNL A   1      31.787  23.980  24.511  1.00  0.00    -0.227 N 
ATOM     10  C   UNL A   1      32.590  26.180  24.621  1.00  0.00     0.104 A 
ATOM     11  N   UNL A   1      32.004  25.171  25.214  1.00  0.00    -0.169 NA
ATOM     12  C   UNL A   1      32.922  26.116  23.222  1.00  0.00     0.078 A 
ATOM     13  C   UNL A   1      32.754  24.909  22.543  1.00  0.00     0.183 A 
ATOM     14  C   UNL A   1      33.453  26.958  22.272  1.00  0.00     0.143 A 
ATOM     15  C   UNL A   1      32.316  23.744  23.241  1.00  0.00     0.296 A 
ATOM     16  N   UNL A   1      33.057  24.995  21.245  1.00  0.00    -0.074 NA
ATOM     17  O   UNL A   1      33.500  26.296  21.076  1.00  0.00    -0.360 OA
ATOM     18  C   UNL A   1      33.977  28.333  22.234  1.00  0.00     0.091 C 
ATOM     19  O   UNL A   1      32.421  22.614  22.768  1.00  0.00    -0.265 OA
BRANCH  10  20
ATOM     20  C   UNL A   1      32.912  27.381  25.386  1.00  0.00     0.003 A 
ATOM     21  C   UNL A   1      33.921  30.944  27.546  1.00  0.00     0.044 C 
ATOM     22  C   UNL A   1      33.537  29.705  26.784  1.00  0.00    -0.048 A 
ATOM     23  C   UNL A   1      34.406  28.599  26.811  1.00  0.00     0.004 A 
ATOM     24  C   UNL A   1      32.336  29.632  26.048  1.00  0.00    -0.048 A 
ATOM     25  C   UNL A   1      34.097  27.434  26.114  1.00  0.00     0.011 A 
ATOM     26  C   UNL A   1      32.026  28.452  25.364  1.00  0.00     0.014 A 
ATOM     27  C   UNL A   1      31.363  30.769  25.918  1.00  0.00     0.044 C 
ENDBRANCH  10  20
ENDBRANCH   8   9
ENDBRANCH   7   8
ENDBRANCH   5   7
ENDBRANCH   4   5
ENDBRANCH   3   4
ENDBRANCH   2   3
ENDBRANCH   1   2
BRANCH   1  28
ATOM     28  C   UNL A   1      38.677  22.812  26.218  1.00  0.00     0.202 C 
BRANCH  28  29
ATOM     29  C   UNL A   1      39.622  21.711  26.761  1.00  0.00     0.261 C 
BRANCH  29  30
ATOM     30  O   UNL A   1      40.663  22.091  27.676  1.00  0.00    -0.460 OA
BRANCH  30  31
ATOM     31  C   UNL A   1      41.876  22.260  27.106  1.00  0.00     0.338 C 
ATOM     32  O   UNL A   1      42.466  21.439  26.421  1.00  0.00    -0.246 OA
BRANCH  31  33
ATOM     33  C   UNL A   1      42.457  23.594  27.380  1.00  0.00     0.060 A 
ATOM     34  C   UNL A   1      41.957  24.276  28.494  1.00  0.00     0.016 A 
ATOM     35  C   UNL A   1      43.323  24.244  26.495  1.00  0.00     0.016 A 
ATOM     36  C   UNL A   1      42.260  25.620  28.691  1.00  0.00     0.010 A 
ATOM     37  C   UNL A   1      43.621  25.602  26.693  1.00  0.00     0.010 A 
ATOM     38  C   UNL A   1      43.070  26.307  27.776  1.00  0.00    -0.014 A 
BRANCH  38  39
ATOM     39  C   UNL A   1      43.339  27.738  28.055  1.00  0.00     0.031 A 
ATOM     40  C   UNL A   1      42.137  28.572  28.363  1.00  0.00     0.074 A 
ATOM     41  C   UNL A   1      44.524  28.138  28.574  1.00  0.00     0.049 A 
ATOM     42  N   UNL A   1      41.547  28.552  29.523  1.00  0.00    -0.248 NA
ATOM     43  C   UNL A   1      41.384  29.285  27.333  1.00  0.00     0.031 C 
ATOM     44  C   UNL A   1      45.292  27.338  29.540  1.00  0.00     0.029 A 
ATOM     45  N   UNL A   1      45.157  29.363  28.578  1.00  0.00    -0.354 N 
ATOM     46  C   UNL A   1      40.339  29.212  29.387  1.00  0.00     0.074 A 
ATOM     47  C   UNL A   1      40.282  29.652  28.010  1.00  0.00     0.031 C 
ATOM     48  C   UNL A   1      46.169  28.144  30.172  1.00  0.00     0.029 A 
ATOM     49  C   UNL A   1      46.142  29.470  29.561  1.00  0.00     0.049 A 
ATOM     50  H   UNL A   1      44.936  30.088  27.950  1.00  0.00     0.167 HD
ATOM     51  C   UNL A   1      39.469  29.364  30.423  1.00  0.00     0.031 A 
ATOM     52  C   UNL A   1      46.488  30.629  30.193  1.00  0.00     0.031 A 
ATOM     53  C   UNL A   1      39.922  28.829  31.676  1.00  0.00     0.049 A 
ATOM     54  C   UNL A   1      45.315  30.792  31.128  1.00  0.00     0.074 A 
ATOM     55  C   UNL A   1      39.785  27.663  32.396  1.00  0.00     0.029 A 
ATOM     56  N   UNL A   1      40.795  29.590  32.417  1.00  0.00    -0.354 N 
ATOM     57  N   UNL A   1      45.119  30.140  32.243  1.00  0.00    -0.248 NA
ATOM     58  C   UNL A   1      44.119  31.437  30.580  1.00  0.00     0.031 C 
ATOM     59  C   UNL A   1      40.926  27.613  33.260  1.00  0.00     0.029 A 
ATOM     60  C   UNL A   1      41.708  28.734  32.979  1.00  0.00     0.049 A 
ATOM     61  H   UNL A   1      40.769  30.568  32.525  1.00  0.00     0.167 HD
ATOM     62  C   UNL A   1      43.733  30.010  32.355  1.00  0.00     0.074 A 
ATOM     63  C   UNL A   1      43.180  30.850  31.309  1.00  0.00     0.031 C 
ATOM     64  C   UNL A   1      43.104  29.087  33.143  1.00  0.00     0.031 A 
BRANCH  51  65
ATOM     65  C   UNL A   1      38.226  30.168  30.387  1.00  0.00    -0.014 A 
ATOM     66  C   UNL A   1      38.330  31.504  29.956  1.00  0.00     0.010 A 
ATOM     67  C   UNL A   1      37.027  29.728  30.968  1.00  0.00     0.010 A 
ATOM     68  C   UNL A   1      37.288  32.404  30.158  1.00  0.00     0.020 A 
ATOM     69  C   UNL A   1      35.967  30.628  31.159  1.00  0.00     0.020 A 
ATOM     70  C   UNL A   1      36.116  31.965  30.774  1.00  0.00     0.054 A 
BRANCH  70  71
ATOM     71  S   UNL A   1      34.824  33.194  31.109  1.00  0.00     0.124 S 
ATOM     72  O   UNL A   1      35.598  34.343  31.569  1.00  0.00    -0.237 OA
ATOM     73  O   UNL A   1      34.193  33.342  29.799  1.00  0.00    -0.237 OA
ATOM     74  O   UNL A   1      33.995  32.554  32.127  1.00  0.00    -0.744 OA
ENDBRANCH  70  71
ENDBRANCH  51  65
BRANCH  52  75
ATOM     75  C   UNL A   1      46.999  31.720  29.296  1.00  0.00    -0.014 A 
ATOM     76  C   UNL A   1      47.900  31.340  28.276  1.00  0.00     0.010 A 
ATOM     77  C   UNL A   1      46.629  33.075  29.355  1.00  0.00     0.010 A 
ATOM     78  C   UNL A   1      48.268  32.223  27.258  1.00  0.00     0.020 A 
ATOM     79  C   UNL A   1      46.969  33.962  28.322  1.00  0.00     0.020 A 
ATOM     80  C   UNL A   1      47.751  33.515  27.257  1.00  0.00     0.054 A 
BRANCH  80  81
ATOM     81  S   UNL A   1      48.039  34.557  25.800  1.00  0.00     0.124 S 
ATOM     82  O   UNL A   1      49.167  33.894  25.156  1.00  0.00    -0.237 OA
ATOM     83  O   UNL A   1      46.761  34.454  25.097  1.00  0.00    -0.237 OA
ATOM     84  O   UNL A   1      48.327  35.871  26.368  1.00  0.00    -0.744 OA
ENDBRANCH  80  81
ENDBRANCH  52  75
BRANCH  64  85
ATOM     85  C   UNL A   1      43.963  28.267  34.057  1.00  0.00    -0.014 A 
ATOM     86  C   UNL A   1      43.940  28.496  35.440  1.00  0.00     0.010 A 
ATOM     87  C   UNL A   1      44.724  27.190  33.559  1.00  0.00     0.010 A 
ATOM     88  C   UNL A   1      44.608  27.633  36.314  1.00  0.00     0.020 A 
ATOM     89  C   UNL A   1      45.379  26.313  34.427  1.00  0.00     0.020 A 
ATOM     90  C   UNL A   1      45.302  26.531  35.804  1.00  0.00     0.054 A 
BRANCH  90  91
ATOM     91  S   UNL A   1      46.043  25.359  36.971  1.00  0.00     0.124 S 
ATOM     92  O   UNL A   1      47.230  26.075  37.430  1.00  0.00    -0.237 OA
ATOM     93  O   UNL A   1      44.985  25.196  37.967  1.00  0.00    -0.237 OA
ATOM     94  O   UNL A   1      46.308  24.173  36.159  1.00  0.00    -0.744 OA
ENDBRANCH  90  91
ENDBRANCH  64  85
ENDBRANCH  38  39
ENDBRANCH  31  33
ENDBRANCH  30  31
ENDBRANCH  29  30
ENDBRANCH  28  29
ENDBRANCH   1  28
TORSDOF 20
ENDMDL
