MODEL 1
REMARK VINA RESULT:     -11.6      0.000      0.000
REMARK SMILES O=C(OCCOCCOC(=O)c1cc2c(c(S(=O)(=O)Nc3cc(C(F)(F)F)ccc3-n3cccn3)c1)CCC2)c1ccc(-c2c3nc(c(-c4ccc(S(=O)(=O)[O-])cc4)c4ccc([nH]4)c(-c4ccc(S(=O)(=O)[O-])cc4)c4nc(c(-c5ccc(S(=O)(=O)[O-])cc5)c5ccc2[nH]5)C=C4)C=C3)cc1
REMARK SMILES IDX 7 1 6 2 5 3 4 4 3 5 2 6 1 7 40 8 41 9 99 10 42 11 98 12
REMARK SMILES IDX 43 13 44 14 45 15 92 16 46 17 97 18 91 19 93 20 47 21 96 22
REMARK SMILES IDX 90 23 89 24 48 26 78 27 59 28 77 29 60 30 63 31 76 32 94 33
REMARK SMILES IDX 61 34 62 35 75 37 95 38 64 39 49 40 50 41 58 42 51 43 57 44
REMARK SMILES IDX 52 45 53 46 54 47 55 48 56 49 79 50 80 51 88 52 81 53 87 54
REMARK SMILES IDX 82 55 83 56 84 57 85 58 86 59 65 60 66 61 74 62 67 63 73 64
REMARK SMILES IDX 68 65 69 66 70 67 71 68 72 69 8 70 9 71 10 72 11 73 12 74
REMARK SMILES IDX 13 75 36 76 14 77 16 78 15 79 39 80 37 81 38 82 17 83 18 84
REMARK SMILES IDX 19 85 20 86 21 88 22 89 30 90 23 91 29 92 28 93 31 94 32 95
REMARK SMILES IDX 35 96 33 97 34 98 24 99 25 100 26 101 27 102
REMARK H PARENT 93 25 63 36 20 87
REMARK Flexibility Score: inf
ROOT
ATOM      1  C   UNL A   1      37.293  22.421  25.665  1.00  0.00     0.202 C 
ENDROOT
BRANCH   1   2
ATOM      2  O   UNL A   1      38.325  21.439  25.845  1.00  0.00    -0.374 OA
BRANCH   2   3
ATOM      3  C   UNL A   1      39.615  21.929  26.200  1.00  0.00     0.202 C 
BRANCH   3   4
ATOM      4  C   UNL A   1      40.795  20.959  26.162  1.00  0.00     0.261 C 
BRANCH   4   5
ATOM      5  O   UNL A   1      42.018  21.584  26.592  1.00  0.00    -0.460 OA
BRANCH   5   6
ATOM      6  C   UNL A   1      42.726  22.493  25.886  1.00  0.00     0.338 C 
ATOM      7  O   UNL A   1      43.080  22.233  24.738  1.00  0.00    -0.246 OA
BRANCH   6   8
ATOM      8  C   UNL A   1      42.878  23.878  26.394  1.00  0.00     0.060 A 
ATOM      9  C   UNL A   1      43.757  24.283  27.398  1.00  0.00     0.016 A 
ATOM     10  C   UNL A   1      41.966  24.804  25.868  1.00  0.00     0.016 A 
ATOM     11  C   UNL A   1      43.516  25.452  28.084  1.00  0.00     0.010 A 
ATOM     12  C   UNL A   1      41.780  26.021  26.489  1.00  0.00     0.010 A 
ATOM     13  C   UNL A   1      42.478  26.279  27.661  1.00  0.00    -0.014 A 
BRANCH  13  14
ATOM     14  C   UNL A   1      42.250  27.499  28.408  1.00  0.00     0.031 A 
ATOM     15  C   UNL A   1      43.363  28.476  28.270  1.00  0.00     0.074 A 
ATOM     16  C   UNL A   1      41.097  27.722  29.067  1.00  0.00     0.049 A 
ATOM     17  N   UNL A   1      44.150  28.917  29.194  1.00  0.00    -0.248 NA
ATOM     18  C   UNL A   1      43.768  28.858  26.904  1.00  0.00     0.031 C 
ATOM     19  C   UNL A   1      39.866  26.926  29.053  1.00  0.00     0.029 A 
ATOM     20  N   UNL A   1      40.744  28.794  29.817  1.00  0.00    -0.354 N 
ATOM     21  C   UNL A   1      45.018  29.799  28.559  1.00  0.00     0.074 A 
ATOM     22  C   UNL A   1      44.856  29.588  27.144  1.00  0.00     0.031 C 
ATOM     23  C   UNL A   1      38.843  27.679  29.520  1.00  0.00     0.029 A 
ATOM     24  C   UNL A   1      39.375  28.941  30.005  1.00  0.00     0.049 A 
ATOM     25  H   UNL A   1      41.404  29.419  30.197  1.00  0.00     0.167 HD
ATOM     26  C   UNL A   1      45.629  30.810  29.236  1.00  0.00     0.031 A 
ATOM     27  C   UNL A   1      38.737  30.054  30.456  1.00  0.00     0.031 A 
ATOM     28  C   UNL A   1      45.625  30.579  30.655  1.00  0.00     0.049 A 
ATOM     29  C   UNL A   1      39.761  30.885  31.144  1.00  0.00     0.074 A 
ATOM     30  C   UNL A   1      46.170  29.604  31.467  1.00  0.00     0.029 A 
ATOM     31  N   UNL A   1      44.624  31.170  31.390  1.00  0.00    -0.354 N 
ATOM     32  N   UNL A   1      40.369  30.504  32.233  1.00  0.00    -0.248 NA
ATOM     33  C   UNL A   1      40.470  31.880  30.350  1.00  0.00     0.031 C 
ATOM     34  C   UNL A   1      45.160  29.327  32.434  1.00  0.00     0.029 A 
ATOM     35  C   UNL A   1      44.099  30.212  32.221  1.00  0.00     0.049 A 
ATOM     36  H   UNL A   1      44.337  32.110  31.330  1.00  0.00     0.167 HD
ATOM     37  C   UNL A   1      41.698  30.863  32.046  1.00  0.00     0.074 A 
ATOM     38  C   UNL A   1      41.685  31.772  30.899  1.00  0.00     0.031 C 
ATOM     39  C   UNL A   1      42.713  30.171  32.645  1.00  0.00     0.031 A 
BRANCH  26  40
ATOM     40  C   UNL A   1      45.861  32.165  28.623  1.00  0.00    -0.014 A 
ATOM     41  C   UNL A   1      46.490  32.262  27.368  1.00  0.00     0.010 A 
ATOM     42  C   UNL A   1      45.717  33.361  29.361  1.00  0.00     0.010 A 
ATOM     43  C   UNL A   1      46.981  33.488  26.895  1.00  0.00     0.020 A 
ATOM     44  C   UNL A   1      46.166  34.592  28.884  1.00  0.00     0.020 A 
ATOM     45  C   UNL A   1      46.819  34.644  27.662  1.00  0.00     0.054 A 
BRANCH  45  46
ATOM     46  S   UNL A   1      47.512  36.208  27.075  1.00  0.00     0.124 S 
ATOM     47  O   UNL A   1      48.934  36.032  27.352  1.00  0.00    -0.237 OA
ATOM     48  O   UNL A   1      47.135  36.202  25.665  1.00  0.00    -0.237 OA
ATOM     49  O   UNL A   1      46.834  37.212  27.891  1.00  0.00    -0.744 OA
ENDBRANCH  45  46
ENDBRANCH  26  40
BRANCH  27  50
ATOM     50  C   UNL A   1      37.440  30.608  29.978  1.00  0.00    -0.014 A 
ATOM     51  C   UNL A   1      36.517  31.193  30.866  1.00  0.00     0.010 A 
ATOM     52  C   UNL A   1      37.234  30.820  28.598  1.00  0.00     0.010 A 
ATOM     53  C   UNL A   1      35.466  32.003  30.396  1.00  0.00     0.020 A 
ATOM     54  C   UNL A   1      36.189  31.622  28.122  1.00  0.00     0.020 A 
ATOM     55  C   UNL A   1      35.322  32.231  29.024  1.00  0.00     0.054 A 
BRANCH  55  56
ATOM     56  S   UNL A   1      34.078  33.421  28.431  1.00  0.00     0.124 S 
ATOM     57  O   UNL A   1      34.873  34.309  27.589  1.00  0.00    -0.237 OA
ATOM     58  O   UNL A   1      33.128  32.564  27.728  1.00  0.00    -0.237 OA
ATOM     59  O   UNL A   1      33.567  34.025  29.661  1.00  0.00    -0.744 OA
ENDBRANCH  55  56
ENDBRANCH  27  50
BRANCH  39  60
ATOM     60  C   UNL A   1      42.360  29.134  33.692  1.00  0.00    -0.014 A 
ATOM     61  C   UNL A   1      42.252  27.750  33.435  1.00  0.00     0.010 A 
ATOM     62  C   UNL A   1      42.288  29.569  35.026  1.00  0.00     0.010 A 
ATOM     63  C   UNL A   1      42.046  26.837  34.486  1.00  0.00     0.020 A 
ATOM     64  C   UNL A   1      42.102  28.666  36.074  1.00  0.00     0.020 A 
ATOM     65  C   UNL A   1      41.969  27.305  35.801  1.00  0.00     0.054 A 
BRANCH  65  66
ATOM     66  S   UNL A   1      41.725  26.130  37.164  1.00  0.00     0.124 S 
ATOM     67  O   UNL A   1      42.863  26.411  38.034  1.00  0.00    -0.237 OA
ATOM     68  O   UNL A   1      40.418  26.509  37.694  1.00  0.00    -0.237 OA
ATOM     69  O   UNL A   1      41.759  24.823  36.506  1.00  0.00    -0.744 OA
ENDBRANCH  65  66
ENDBRANCH  39  60
ENDBRANCH  13  14
ENDBRANCH   6   8
ENDBRANCH   5   6
ENDBRANCH   4   5
ENDBRANCH   3   4
ENDBRANCH   2   3
ENDBRANCH   1   2
BRANCH   1  70
ATOM     70  C   UNL A   1      35.911  21.946  25.191  1.00  0.00     0.261 C 
BRANCH  70  71
ATOM     71  O   UNL A   1      35.026  23.050  24.915  1.00  0.00    -0.460 OA
BRANCH  71  72
ATOM     72  C   UNL A   1      34.332  23.564  25.960  1.00  0.00     0.338 C 
ATOM     73  O   UNL A   1      34.157  23.059  27.059  1.00  0.00    -0.246 OA
BRANCH  72  74
ATOM     74  C   UNL A   1      33.991  24.965  25.629  1.00  0.00     0.061 A 
ATOM     75  C   UNL A   1      33.614  25.814  26.662  1.00  0.00     0.019 A 
ATOM     76  C   UNL A   1      34.005  25.413  24.282  1.00  0.00     0.038 A 
ATOM     77  C   UNL A   1      33.257  27.098  26.320  1.00  0.00    -0.043 A 
ATOM     78  C   UNL A   1      33.587  26.719  23.933  1.00  0.00     0.092 A 
ATOM     79  C   UNL A   1      33.171  27.536  24.975  1.00  0.00    -0.024 A 
ATOM     80  C   UNL A   1      32.934  28.205  27.279  1.00  0.00     0.036 C 
ATOM     81  C   UNL A   1      32.580  28.908  25.004  1.00  0.00     0.037 C 
ATOM     82  C   UNL A   1      33.137  29.396  26.346  1.00  0.00     0.010 C 
BRANCH  78  83
ATOM     83  S   UNL A   1      33.405  27.115  22.199  1.00  0.00     0.262 S 
ATOM     84  O   UNL A   1      33.842  28.490  22.040  1.00  0.00    -0.201 OA
ATOM     85  O   UNL A   1      34.071  26.066  21.458  1.00  0.00    -0.201 OA
BRANCH  83  86
ATOM     86  N   UNL A   1      31.798  27.128  21.604  1.00  0.00    -0.277 N 
ATOM     87  H   UNL A   1      31.630  26.757  20.707  1.00  0.00     0.180 HD
BRANCH  86  88
ATOM     88  C   UNL A   1      30.683  27.648  22.342  1.00  0.00     0.075 A 
ATOM     89  C   UNL A   1      30.193  28.927  22.012  1.00  0.00     0.042 A 
ATOM     90  C   UNL A   1      29.998  26.877  23.292  1.00  0.00     0.089 A 
ATOM     91  C   UNL A   1      28.969  29.390  22.542  1.00  0.00     0.058 A 
ATOM     92  C   UNL A   1      28.800  27.347  23.849  1.00  0.00     0.031 A 
ATOM     93  C   UNL A   1      28.290  28.595  23.475  1.00  0.00     0.015 A 
BRANCH  90  94
ATOM     94  N   UNL A   1      30.454  25.589  23.653  1.00  0.00    -0.239 N 
ATOM     95  C   UNL A   1      30.771  24.540  22.822  1.00  0.00     0.115 A 
ATOM     96  N   UNL A   1      30.482  25.214  24.957  1.00  0.00    -0.177 NA
ATOM     97  C   UNL A   1      30.779  23.408  23.599  1.00  0.00     0.042 A 
ATOM     98  C   UNL A   1      30.555  23.881  24.902  1.00  0.00     0.135 A 
ENDBRANCH  90  94
BRANCH  91  99
ATOM     99  C   UNL A   1      28.347  30.669  22.024  1.00  0.00     0.416 C 
ATOM    100  F   UNL A   1      27.434  30.455  21.040  1.00  0.00    -0.166 F 
ATOM    101  F   UNL A   1      27.695  31.360  23.002  1.00  0.00    -0.166 F 
ATOM    102  F   UNL A   1      29.258  31.542  21.509  1.00  0.00    -0.166 F 
ENDBRANCH  91  99
ENDBRANCH  86  88
ENDBRANCH  83  86
ENDBRANCH  78  83
ENDBRANCH  72  74
ENDBRANCH  71  72
ENDBRANCH  70  71
ENDBRANCH   1  70
TORSDOF 22
ENDMDL
MODEL 2
REMARK VINA RESULT:     -11.6      3.304      9.379
REMARK SMILES O=C(OCCOCCOC(=O)c1cc2c(c(S(=O)(=O)Nc3cc(C(F)(F)F)ccc3-n3cccn3)c1)CCC2)c1ccc(-c2c3nc(c(-c4ccc(S(=O)(=O)[O-])cc4)c4ccc([nH]4)c(-c4ccc(S(=O)(=O)[O-])cc4)c4nc(c(-c5ccc(S(=O)(=O)[O-])cc5)c5ccc2[nH]5)C=C4)C=C3)cc1
REMARK SMILES IDX 7 1 6 2 5 3 4 4 3 5 2 6 1 7 40 8 41 9 99 10 42 11 98 12
REMARK SMILES IDX 43 13 44 14 45 15 92 16 46 17 97 18 91 19 93 20 47 21 96 22
REMARK SMILES IDX 90 23 89 24 48 26 78 27 59 28 77 29 60 30 63 31 76 32 94 33
REMARK SMILES IDX 61 34 62 35 75 37 95 38 64 39 49 40 50 41 58 42 51 43 57 44
REMARK SMILES IDX 52 45 53 46 54 47 55 48 56 49 79 50 80 51 88 52 81 53 87 54
REMARK SMILES IDX 82 55 83 56 84 57 85 58 86 59 65 60 66 61 74 62 67 63 73 64
REMARK SMILES IDX 68 65 69 66 70 67 71 68 72 69 8 70 9 71 10 72 11 73 12 74
REMARK SMILES IDX 13 75 36 76 14 77 16 78 15 79 39 80 37 81 38 82 17 83 18 84
REMARK SMILES IDX 19 85 20 86 21 88 22 89 30 90 23 91 29 92 28 93 31 94 32 95
REMARK SMILES IDX 35 96 33 97 34 98 24 99 25 100 26 101 27 102
REMARK H PARENT 93 25 63 36 20 87
REMARK Flexibility Score: inf
ROOT
ATOM      1  C   UNL A   1      34.786  31.900  29.013  1.00  0.00     0.202 C 
ENDROOT
BRANCH   1   2
ATOM      2  O   UNL A   1      34.055  32.559  30.058  1.00  0.00    -0.374 OA
BRANCH   2   3
ATOM      3  C   UNL A   1      34.786  33.485  30.858  1.00  0.00     0.202 C 
BRANCH   3   4
ATOM      4  C   UNL A   1      35.237  33.042  32.249  1.00  0.00     0.261 C 
BRANCH   4   5
ATOM      5  O   UNL A   1      36.653  32.788  32.298  1.00  0.00    -0.460 OA
BRANCH   5   6
ATOM      6  C   UNL A   1      37.258  31.853  33.063  1.00  0.00     0.338 C 
ATOM      7  O   UNL A   1      36.868  31.659  34.213  1.00  0.00    -0.246 OA
BRANCH   6   8
ATOM      8  C   UNL A   1      38.225  30.905  32.457  1.00  0.00     0.060 A 
ATOM      9  C   UNL A   1      38.029  29.534  32.303  1.00  0.00     0.016 A 
ATOM     10  C   UNL A   1      39.469  31.461  32.126  1.00  0.00     0.016 A 
ATOM     11  C   UNL A   1      39.116  28.703  32.149  1.00  0.00     0.010 A 
ATOM     12  C   UNL A   1      40.548  30.641  31.875  1.00  0.00     0.010 A 
ATOM     13  C   UNL A   1      40.381  29.269  32.006  1.00  0.00    -0.014 A 
BRANCH  13  14
ATOM     14  C   UNL A   1      41.503  28.366  31.851  1.00  0.00     0.031 A 
ATOM     15  C   UNL A   1      42.108  27.969  33.150  1.00  0.00     0.074 A 
ATOM     16  C   UNL A   1      41.867  27.888  30.646  1.00  0.00     0.049 A 
ATOM     17  N   UNL A   1      43.300  28.217  33.579  1.00  0.00    -0.248 NA
ATOM     18  C   UNL A   1      41.211  27.395  34.172  1.00  0.00     0.031 C 
ATOM     19  C   UNL A   1      41.181  28.034  29.359  1.00  0.00     0.029 A 
ATOM     20  N   UNL A   1      42.893  27.058  30.338  1.00  0.00    -0.354 N 
ATOM     21  C   UNL A   1      43.374  27.641  34.843  1.00  0.00     0.074 A 
ATOM     22  C   UNL A   1      42.024  27.313  35.224  1.00  0.00     0.031 C 
ATOM     23  C   UNL A   1      41.649  27.102  28.495  1.00  0.00     0.029 A 
ATOM     24  C   UNL A   1      42.763  26.407  29.118  1.00  0.00     0.049 A 
ATOM     25  H   UNL A   1      43.668  26.927  30.932  1.00  0.00     0.167 HD
ATOM     26  C   UNL A   1      44.561  27.253  35.383  1.00  0.00     0.031 A 
ATOM     27  C   UNL A   1      43.477  25.329  28.699  1.00  0.00     0.031 A 
ATOM     28  C   UNL A   1      45.675  27.887  34.731  1.00  0.00     0.049 A 
ATOM     29  C   UNL A   1      44.702  25.273  29.540  1.00  0.00     0.074 A 
ATOM     30  C   UNL A   1      46.081  29.199  34.590  1.00  0.00     0.029 A 
ATOM     31  N   UNL A   1      46.306  27.184  33.731  1.00  0.00    -0.354 N 
ATOM     32  N   UNL A   1      45.627  26.193  29.511  1.00  0.00    -0.248 NA
ATOM     33  C   UNL A   1      44.647  24.485  30.764  1.00  0.00     0.031 C 
ATOM     34  C   UNL A   1      46.524  29.301  33.240  1.00  0.00     0.029 A 
ATOM     35  C   UNL A   1      46.457  28.031  32.661  1.00  0.00     0.049 A 
ATOM     36  H   UNL A   1      46.597  26.244  33.776  1.00  0.00     0.167 HD
ATOM     37  C   UNL A   1      45.971  26.398  30.840  1.00  0.00     0.074 A 
ATOM     38  C   UNL A   1      45.387  25.265  31.560  1.00  0.00     0.031 C 
ATOM     39  C   UNL A   1      46.442  27.605  31.276  1.00  0.00     0.031 A 
BRANCH  26  40
ATOM     40  C   UNL A   1      44.697  26.011  36.223  1.00  0.00    -0.014 A 
ATOM     41  C   UNL A   1      45.310  26.091  37.487  1.00  0.00     0.010 A 
ATOM     42  C   UNL A   1      44.475  24.718  35.699  1.00  0.00     0.010 A 
ATOM     43  C   UNL A   1      45.714  24.934  38.171  1.00  0.00     0.020 A 
ATOM     44  C   UNL A   1      44.836  23.560  36.388  1.00  0.00     0.020 A 
ATOM     45  C   UNL A   1      45.478  23.677  37.612  1.00  0.00     0.054 A 
BRANCH  45  46
ATOM     46  S   UNL A   1      46.059  22.195  38.470  1.00  0.00     0.124 S 
ATOM     47  O   UNL A   1      45.360  22.291  39.747  1.00  0.00    -0.237 OA
ATOM     48  O   UNL A   1      45.611  21.128  37.579  1.00  0.00    -0.237 OA
ATOM     49  O   UNL A   1      47.507  22.379  38.532  1.00  0.00    -0.744 OA
ENDBRANCH  45  46
ENDBRANCH  26  40
BRANCH  27  50
ATOM     50  C   UNL A   1      42.975  24.156  27.931  1.00  0.00    -0.014 A 
ATOM     51  C   UNL A   1      43.739  23.566  26.904  1.00  0.00     0.010 A 
ATOM     52  C   UNL A   1      41.858  23.434  28.403  1.00  0.00     0.010 A 
ATOM     53  C   UNL A   1      43.430  22.283  26.413  1.00  0.00     0.020 A 
ATOM     54  C   UNL A   1      41.543  22.159  27.916  1.00  0.00     0.020 A 
ATOM     55  C   UNL A   1      42.345  21.577  26.939  1.00  0.00     0.054 A 
BRANCH  55  56
ATOM     56  S   UNL A   1      42.058  19.852  26.432  1.00  0.00     0.124 S 
ATOM     57  O   UNL A   1      42.324  19.117  27.665  1.00  0.00    -0.237 OA
ATOM     58  O   UNL A   1      40.664  19.876  25.998  1.00  0.00    -0.237 OA
ATOM     59  O   UNL A   1      43.032  19.641  25.363  1.00  0.00    -0.744 OA
ENDBRANCH  55  56
ENDBRANCH  27  50
BRANCH  39  60
ATOM     60  C   UNL A   1      46.788  28.659  30.244  1.00  0.00    -0.014 A 
ATOM     61  C   UNL A   1      48.028  28.739  29.574  1.00  0.00     0.010 A 
ATOM     62  C   UNL A   1      45.752  29.512  29.826  1.00  0.00     0.010 A 
ATOM     63  C   UNL A   1      48.227  29.669  28.538  1.00  0.00     0.020 A 
ATOM     64  C   UNL A   1      45.939  30.424  28.786  1.00  0.00     0.020 A 
ATOM     65  C   UNL A   1      47.178  30.510  28.153  1.00  0.00     0.054 A 
BRANCH  65  66
ATOM     66  S   UNL A   1      47.423  31.697  26.801  1.00  0.00     0.124 S 
ATOM     67  O   UNL A   1      46.558  31.166  25.751  1.00  0.00    -0.237 OA
ATOM     68  O   UNL A   1      46.991  32.961  27.393  1.00  0.00    -0.237 OA
ATOM     69  O   UNL A   1      48.856  31.613  26.520  1.00  0.00    -0.744 OA
ENDBRANCH  65  66
ENDBRANCH  39  60
ENDBRANCH  13  14
ENDBRANCH   6   8
ENDBRANCH   5   6
ENDBRANCH   4   5
ENDBRANCH   3   4
ENDBRANCH   2   3
ENDBRANCH   1   2
BRANCH   1  70
ATOM     70  C   UNL A   1      34.081  31.669  27.667  1.00  0.00     0.261 C 
BRANCH  70  71
ATOM     71  O   UNL A   1      33.272  30.475  27.680  1.00  0.00    -0.460 OA
BRANCH  71  72
ATOM     72  C   UNL A   1      33.827  29.345  27.177  1.00  0.00     0.338 C 
ATOM     73  O   UNL A   1      34.879  28.819  27.510  1.00  0.00    -0.246 OA
BRANCH  72  74
ATOM     74  C   UNL A   1      32.830  28.711  26.287  1.00  0.00     0.061 A 
ATOM     75  C   UNL A   1      32.308  29.460  25.240  1.00  0.00     0.019 A 
ATOM     76  C   UNL A   1      32.387  27.383  26.528  1.00  0.00     0.038 A 
ATOM     77  C   UNL A   1      31.349  28.860  24.457  1.00  0.00    -0.043 A 
ATOM     78  C   UNL A   1      31.364  26.792  25.751  1.00  0.00     0.092 A 
ATOM     79  C   UNL A   1      30.824  27.575  24.739  1.00  0.00    -0.024 A 
ATOM     80  C   UNL A   1      30.742  29.440  23.213  1.00  0.00     0.036 C 
ATOM     81  C   UNL A   1      29.690  27.353  23.792  1.00  0.00     0.037 C 
ATOM     82  C   UNL A   1      30.203  28.155  22.590  1.00  0.00     0.010 C 
BRANCH  78  83
ATOM     83  S   UNL A   1      30.701  25.218  26.277  1.00  0.00     0.262 S 
ATOM     84  O   UNL A   1      31.525  24.771  27.386  1.00  0.00    -0.201 OA
ATOM     85  O   UNL A   1      29.281  25.408  26.476  1.00  0.00    -0.201 OA
BRANCH  83  86
ATOM     86  N   UNL A   1      30.824  23.941  25.139  1.00  0.00    -0.277 N 
ATOM     87  H   UNL A   1      30.156  23.219  25.175  1.00  0.00     0.180 HD
BRANCH  86  88
ATOM     88  C   UNL A   1      31.847  23.869  24.137  1.00  0.00     0.075 A 
ATOM     89  C   UNL A   1      31.661  24.570  22.930  1.00  0.00     0.042 A 
ATOM     90  C   UNL A   1      33.070  23.224  24.370  1.00  0.00     0.089 A 
ATOM     91  C   UNL A   1      32.722  24.722  22.010  1.00  0.00     0.058 A 
ATOM     92  C   UNL A   1      34.116  23.340  23.444  1.00  0.00     0.031 A 
ATOM     93  C   UNL A   1      33.943  24.085  22.274  1.00  0.00     0.015 A 
BRANCH  90  94
ATOM     94  N   UNL A   1      33.301  22.508  25.567  1.00  0.00    -0.239 N 
ATOM     95  C   UNL A   1      34.190  22.806  26.574  1.00  0.00     0.115 A 
ATOM     96  N   UNL A   1      32.716  21.300  25.765  1.00  0.00    -0.177 NA
ATOM     97  C   UNL A   1      34.348  21.661  27.314  1.00  0.00     0.042 A 
ATOM     98  C   UNL A   1      33.443  20.752  26.743  1.00  0.00     0.135 A 
ENDBRANCH  90  94
BRANCH  91  99
ATOM     99  C   UNL A   1      32.578  25.649  20.822  1.00  0.00     0.416 C 
ATOM    100  F   UNL A   1      31.296  26.047  20.612  1.00  0.00    -0.166 F 
ATOM    101  F   UNL A   1      33.312  26.788  20.964  1.00  0.00    -0.166 F 
ATOM    102  F   UNL A   1      32.995  25.090  19.650  1.00  0.00    -0.166 F 
ENDBRANCH  91  99
ENDBRANCH  86  88
ENDBRANCH  83  86
ENDBRANCH  78  83
ENDBRANCH  72  74
ENDBRANCH  71  72
ENDBRANCH  70  71
ENDBRANCH   1  70
TORSDOF 22
ENDMDL
MODEL 3
REMARK VINA RESULT:     -11.2      3.234      8.349
REMARK SMILES O=C(OCCOCCOC(=O)c1cc2c(c(S(=O)(=O)Nc3cc(C(F)(F)F)ccc3-n3cccn3)c1)CCC2)c1ccc(-c2c3nc(c(-c4ccc(S(=O)(=O)[O-])cc4)c4ccc([nH]4)c(-c4ccc(S(=O)(=O)[O-])cc4)c4nc(c(-c5ccc(S(=O)(=O)[O-])cc5)c5ccc2[nH]5)C=C4)C=C3)cc1
REMARK SMILES IDX 7 1 6 2 5 3 4 4 3 5 2 6 1 7 40 8 41 9 99 10 42 11 98 12
REMARK SMILES IDX 43 13 44 14 45 15 92 16 46 17 97 18 91 19 93 20 47 21 96 22
REMARK SMILES IDX 90 23 89 24 48 26 78 27 59 28 77 29 60 30 63 31 76 32 94 33
REMARK SMILES IDX 61 34 62 35 75 37 95 38 64 39 49 40 50 41 58 42 51 43 57 44
REMARK SMILES IDX 52 45 53 46 54 47 55 48 56 49 79 50 80 51 88 52 81 53 87 54
REMARK SMILES IDX 82 55 83 56 84 57 85 58 86 59 65 60 66 61 74 62 67 63 73 64
REMARK SMILES IDX 68 65 69 66 70 67 71 68 72 69 8 70 9 71 10 72 11 73 12 74
REMARK SMILES IDX 13 75 36 76 14 77 16 78 15 79 39 80 37 81 38 82 17 83 18 84
REMARK SMILES IDX 19 85 20 86 21 88 22 89 30 90 23 91 29 92 28 93 31 94 32 95
REMARK SMILES IDX 35 96 33 97 34 98 24 99 25 100 26 101 27 102
REMARK H PARENT 93 25 63 36 20 87
REMARK Flexibility Score: inf
ROOT
ATOM      1  C   UNL A   1      29.286  31.908  23.782  1.00  0.00     0.202 C 
ENDROOT
BRANCH   1   2
ATOM      2  O   UNL A   1      30.173  32.667  24.617  1.00  0.00    -0.374 OA
BRANCH   2   3
ATOM      3  C   UNL A   1      30.477  32.109  25.893  1.00  0.00     0.202 C 
BRANCH   3   4
ATOM      4  C   UNL A   1      31.835  32.428  26.518  1.00  0.00     0.261 C 
BRANCH   4   5
ATOM      5  O   UNL A   1      31.790  33.626  27.315  1.00  0.00    -0.460 OA
BRANCH   5   6
ATOM      6  C   UNL A   1      32.767  34.056  28.143  1.00  0.00     0.338 C 
ATOM      7  O   UNL A   1      32.541  34.972  28.932  1.00  0.00    -0.246 OA
BRANCH   6   8
ATOM      8  C   UNL A   1      34.028  33.285  28.272  1.00  0.00     0.060 A 
ATOM      9  C   UNL A   1      34.216  32.166  29.081  1.00  0.00     0.016 A 
ATOM     10  C   UNL A   1      35.125  33.828  27.588  1.00  0.00     0.016 A 
ATOM     11  C   UNL A   1      35.489  31.806  29.462  1.00  0.00     0.010 A 
ATOM     12  C   UNL A   1      36.404  33.411  27.891  1.00  0.00     0.010 A 
ATOM     13  C   UNL A   1      36.573  32.485  28.911  1.00  0.00    -0.014 A 
BRANCH  13  14
ATOM     14  C   UNL A   1      37.898  32.084  29.337  1.00  0.00     0.031 A 
ATOM     15  C   UNL A   1      38.161  30.636  29.117  1.00  0.00     0.074 A 
ATOM     16  C   UNL A   1      38.799  32.976  29.791  1.00  0.00     0.049 A 
ATOM     17  N   UNL A   1      38.391  29.728  30.006  1.00  0.00    -0.248 NA
ATOM     18  C   UNL A   1      37.949  30.104  27.758  1.00  0.00     0.031 C 
ATOM     19  C   UNL A   1      38.706  34.439  29.809  1.00  0.00     0.029 A 
ATOM     20  N   UNL A   1      40.059  32.757  30.237  1.00  0.00    -0.354 N 
ATOM     21  C   UNL A   1      38.566  28.544  29.298  1.00  0.00     0.074 A 
ATOM     22  C   UNL A   1      38.110  28.796  27.956  1.00  0.00     0.031 C 
ATOM     23  C   UNL A   1      39.945  34.962  29.975  1.00  0.00     0.029 A 
ATOM     24  C   UNL A   1      40.880  33.878  30.226  1.00  0.00     0.049 A 
ATOM     25  H   UNL A   1      40.369  31.873  30.544  1.00  0.00     0.167 HD
ATOM     26  C   UNL A   1      39.298  27.513  29.801  1.00  0.00     0.031 A 
ATOM     27  C   UNL A   1      42.233  33.888  30.342  1.00  0.00     0.031 A 
ATOM     28  C   UNL A   1      39.461  27.620  31.225  1.00  0.00     0.049 A 
ATOM     29  C   UNL A   1      42.622  32.585  30.943  1.00  0.00     0.074 A 
ATOM     30  C   UNL A   1      38.583  27.616  32.291  1.00  0.00     0.029 A 
ATOM     31  N   UNL A   1      40.619  28.201  31.688  1.00  0.00    -0.354 N 
ATOM     32  N   UNL A   1      42.286  32.233  32.154  1.00  0.00    -0.248 NA
ATOM     33  C   UNL A   1      42.927  31.486  30.038  1.00  0.00     0.031 C 
ATOM     34  C   UNL A   1      39.071  28.627  33.170  1.00  0.00     0.029 A 
ATOM     35  C   UNL A   1      40.267  29.122  32.643  1.00  0.00     0.049 A 
ATOM     36  H   UNL A   1      41.533  27.992  31.388  1.00  0.00     0.167 HD
ATOM     37  C   UNL A   1      41.911  30.900  32.049  1.00  0.00     0.074 A 
ATOM     38  C   UNL A   1      42.398  30.474  30.735  1.00  0.00     0.031 C 
ATOM     39  C   UNL A   1      40.996  30.348  32.900  1.00  0.00     0.031 A 
BRANCH  26  40
ATOM     40  C   UNL A   1      40.178  26.652  28.934  1.00  0.00    -0.014 A 
ATOM     41  C   UNL A   1      39.680  25.439  28.426  1.00  0.00     0.010 A 
ATOM     42  C   UNL A   1      41.569  26.871  28.819  1.00  0.00     0.010 A 
ATOM     43  C   UNL A   1      40.537  24.480  27.864  1.00  0.00     0.020 A 
ATOM     44  C   UNL A   1      42.426  25.943  28.227  1.00  0.00     0.020 A 
ATOM     45  C   UNL A   1      41.906  24.739  27.775  1.00  0.00     0.054 A 
BRANCH  45  46
ATOM     46  S   UNL A   1      43.013  23.473  27.111  1.00  0.00     0.124 S 
ATOM     47  O   UNL A   1      43.894  23.215  28.245  1.00  0.00    -0.237 OA
ATOM     48  O   UNL A   1      42.084  22.399  26.773  1.00  0.00    -0.237 OA
ATOM     49  O   UNL A   1      43.639  24.130  25.966  1.00  0.00    -0.744 OA
ENDBRANCH  45  46
ENDBRANCH  26  40
BRANCH  27  50
ATOM     50  C   UNL A   1      43.196  34.752  29.604  1.00  0.00    -0.014 A 
ATOM     51  C   UNL A   1      43.335  34.672  28.205  1.00  0.00     0.010 A 
ATOM     52  C   UNL A   1      43.779  35.864  30.250  1.00  0.00     0.010 A 
ATOM     53  C   UNL A   1      43.979  35.692  27.477  1.00  0.00     0.020 A 
ATOM     54  C   UNL A   1      44.423  36.880  29.533  1.00  0.00     0.020 A 
ATOM     55  C   UNL A   1      44.501  36.803  28.146  1.00  0.00     0.054 A 
BRANCH  55  56
ATOM     56  S   UNL A   1      45.169  38.201  27.190  1.00  0.00     0.124 S 
ATOM     57  O   UNL A   1      45.840  38.989  28.219  1.00  0.00    -0.237 OA
ATOM     58  O   UNL A   1      46.046  37.539  26.229  1.00  0.00    -0.237 OA
ATOM     59  O   UNL A   1      43.979  38.822  26.611  1.00  0.00    -0.744 OA
ENDBRANCH  55  56
ENDBRANCH  27  50
BRANCH  39  60
ATOM     60  C   UNL A   1      40.550  31.156  34.103  1.00  0.00    -0.014 A 
ATOM     61  C   UNL A   1      39.499  32.098  34.082  1.00  0.00     0.010 A 
ATOM     62  C   UNL A   1      41.125  30.830  35.343  1.00  0.00     0.010 A 
ATOM     63  C   UNL A   1      39.062  32.714  35.269  1.00  0.00     0.020 A 
ATOM     64  C   UNL A   1      40.682  31.424  36.526  1.00  0.00     0.020 A 
ATOM     65  C   UNL A   1      39.662  32.374  36.485  1.00  0.00     0.054 A 
BRANCH  65  66
ATOM     66  S   UNL A   1      39.087  33.149  38.023  1.00  0.00     0.124 S 
ATOM     67  O   UNL A   1      38.395  32.052  38.693  1.00  0.00    -0.237 OA
ATOM     68  O   UNL A   1      40.330  33.588  38.653  1.00  0.00    -0.237 OA
ATOM     69  O   UNL A   1      38.221  34.235  37.562  1.00  0.00    -0.744 OA
ENDBRANCH  65  66
ENDBRANCH  39  60
ENDBRANCH  13  14
ENDBRANCH   6   8
ENDBRANCH   5   6
ENDBRANCH   4   5
ENDBRANCH   3   4
ENDBRANCH   2   3
ENDBRANCH   1   2
BRANCH   1  70
ATOM     70  C   UNL A   1      28.833  30.524  24.271  1.00  0.00     0.261 C 
BRANCH  70  71
ATOM     71  O   UNL A   1      28.646  29.601  23.179  1.00  0.00    -0.460 OA
BRANCH  71  72
ATOM     72  C   UNL A   1      29.760  29.087  22.603  1.00  0.00     0.338 C 
ATOM     73  O   UNL A   1      30.123  29.209  21.442  1.00  0.00    -0.246 OA
BRANCH  72  74
ATOM     74  C   UNL A   1      30.604  28.521  23.679  1.00  0.00     0.061 A 
ATOM     75  C   UNL A   1      31.846  29.094  23.914  1.00  0.00     0.019 A 
ATOM     76  C   UNL A   1      30.168  27.390  24.419  1.00  0.00     0.038 A 
ATOM     77  C   UNL A   1      32.629  28.518  24.888  1.00  0.00    -0.043 A 
ATOM     78  C   UNL A   1      30.998  26.773  25.383  1.00  0.00     0.092 A 
ATOM     79  C   UNL A   1      32.255  27.334  25.570  1.00  0.00    -0.024 A 
ATOM     80  C   UNL A   1      33.945  29.043  25.382  1.00  0.00     0.036 C 
ATOM     81  C   UNL A   1      33.426  26.924  26.400  1.00  0.00     0.037 C 
ATOM     82  C   UNL A   1      34.009  28.306  26.717  1.00  0.00     0.010 C 
BRANCH  78  83
ATOM     83  S   UNL A   1      30.468  25.218  26.087  1.00  0.00     0.262 S 
ATOM     84  O   UNL A   1      31.384  24.921  27.174  1.00  0.00    -0.201 OA
ATOM     85  O   UNL A   1      29.053  25.344  26.363  1.00  0.00    -0.201 OA
BRANCH  83  86
ATOM     86  N   UNL A   1      30.600  23.852  25.059  1.00  0.00    -0.277 N 
ATOM     87  H   UNL A   1      29.971  23.107  25.192  1.00  0.00     0.180 HD
BRANCH  86  88
ATOM     88  C   UNL A   1      31.577  23.737  24.016  1.00  0.00     0.075 A 
ATOM     89  C   UNL A   1      31.495  24.610  22.914  1.00  0.00     0.042 A 
ATOM     90  C   UNL A   1      32.673  22.867  24.118  1.00  0.00     0.089 A 
ATOM     91  C   UNL A   1      32.550  24.697  21.980  1.00  0.00     0.058 A 
ATOM     92  C   UNL A   1      33.707  22.923  23.173  1.00  0.00     0.031 A 
ATOM     93  C   UNL A   1      33.645  23.832  22.113  1.00  0.00     0.015 A 
BRANCH  90  94
ATOM     94  N   UNL A   1      32.795  21.973  25.206  1.00  0.00    -0.239 N 
ATOM     95  C   UNL A   1      33.355  22.213  26.440  1.00  0.00     0.115 A 
ATOM     96  N   UNL A   1      32.471  20.664  25.056  1.00  0.00    -0.177 NA
ATOM     97  C   UNL A   1      33.605  20.987  27.006  1.00  0.00     0.042 A 
ATOM     98  C   UNL A   1      33.074  20.067  26.088  1.00  0.00     0.135 A 
ENDBRANCH  90  94
BRANCH  91  99
ATOM     99  C   UNL A   1      32.550  25.781  20.923  1.00  0.00     0.416 C 
ATOM    100  F   UNL A   1      31.329  26.352  20.750  1.00  0.00    -0.166 F 
ATOM    101  F   UNL A   1      33.405  26.798  21.226  1.00  0.00    -0.166 F 
ATOM    102  F   UNL A   1      32.935  25.335  19.694  1.00  0.00    -0.166 F 
ENDBRANCH  91  99
ENDBRANCH  86  88
ENDBRANCH  83  86
ENDBRANCH  78  83
ENDBRANCH  72  74
ENDBRANCH  71  72
ENDBRANCH  70  71
ENDBRANCH   1  70
TORSDOF 22
ENDMDL
