MODEL 1
REMARK VINA RESULT:     -11.7      0.000      0.000
REMARK SMILES Cc1cccc(O[C@H](C)C(=O)NNC(=O)[C@H]2[C@@H]3CC[C@@H](C3)[C@@H]2C(=O)OCCOCCOC(=O)c2ccc(-c3c4nc(c(-c5ccc(S(=O)(=O)[O-])cc5)c5ccc([nH]5)c(-c5ccc(S(=O)(=O)[O-])cc5)c5nc(c(-c6ccc(S(=O)(=O)[O-])cc6)c6ccc3[nH]6)C=C5)C=C4)cc2)c1
REMARK SMILES IDX 27 1 26 2 25 3 23 4 24 5 22 6 16 7 17 8 18 9 21 10 20 11
REMARK SMILES IDX 19 12 14 13 13 14 15 16 12 17 10 18 11 19 8 21 9 22 7 23
REMARK SMILES IDX 6 24 1 25 2 26 3 27 94 28 4 29 5 30 28 31 29 32 30 33 31 34
REMARK SMILES IDX 32 35 33 36 34 37 35 38 93 39 36 40 92 41 37 42 38 43 39 44
REMARK SMILES IDX 86 45 40 46 91 47 85 48 87 49 41 50 90 51 84 52 83 53 42 55
REMARK SMILES IDX 72 56 53 57 71 58 54 59 57 60 70 61 88 62 55 63 56 64 69 66
REMARK SMILES IDX 89 67 58 68 43 69 44 70 52 71 45 72 51 73 46 74 47 75 48 76
REMARK SMILES IDX 49 77 50 78 73 79 74 80 82 81 75 82 81 83 76 84 77 85 78 86
REMARK SMILES IDX 79 87 80 88 59 89 60 90 68 91 61 92 67 93 62 94 63 95 64 96
REMARK SMILES IDX 65 97 66 98
REMARK H PARENT 13 15 12 20 87 54 57 65
REMARK Flexibility Score: inf
ROOT
ATOM      1  C   UNL A   1      33.443  28.724  25.079  1.00  0.00     0.202 C 
ENDROOT
BRANCH   1   2
ATOM      2  C   UNL A   1      33.620  27.374  24.422  1.00  0.00     0.261 C 
BRANCH   2   3
ATOM      3  O   UNL A   1      34.396  26.482  25.234  1.00  0.00    -0.463 OA
BRANCH   3   4
ATOM      4  C   UNL A   1      34.048  25.159  25.333  1.00  0.00     0.310 C 
ATOM      5  O   UNL A   1      33.065  24.667  25.825  1.00  0.00    -0.252 OA
BRANCH   4   6
ATOM      6  C   UNL A   1      35.028  24.412  24.469  1.00  0.00     0.115 C 
ATOM      7  C   UNL A   1      34.448  23.053  24.072  1.00  0.00     0.098 C 
ATOM      8  C   UNL A   1      35.698  22.147  24.032  1.00  0.00     0.003 C 
ATOM      9  C   UNL A   1      36.035  21.758  25.487  1.00  0.00     0.005 C 
ATOM     10  C   UNL A   1      36.838  23.130  23.755  1.00  0.00     0.009 C 
ATOM     11  C   UNL A   1      36.447  24.066  24.914  1.00  0.00     0.004 C 
ATOM     12  C   UNL A   1      36.475  23.096  26.103  1.00  0.00     0.005 C 
BRANCH   7  13
ATOM     13  C   UNL A   1      33.510  22.986  22.882  1.00  0.00     0.242 C 
ATOM     14  N   UNL A   1      32.275  22.408  22.924  1.00  0.00    -0.267 N 
ATOM     15  H   UNL A   1      31.995  21.916  22.118  1.00  0.00     0.191 HD
ATOM     16  O   UNL A   1      33.898  23.415  21.788  1.00  0.00    -0.273 OA
BRANCH  14  17
ATOM     17  N   UNL A   1      31.371  22.432  23.969  1.00  0.00    -0.264 N 
ATOM     18  C   UNL A   1      31.632  22.011  25.239  1.00  0.00     0.279 C 
ATOM     19  O   UNL A   1      31.015  22.577  26.152  1.00  0.00    -0.269 OA
ATOM     20  H   UNL A   1      30.470  22.779  23.781  1.00  0.00     0.191 HD
BRANCH  18  21
ATOM     21  C   UNL A   1      32.424  20.710  25.540  1.00  0.00     0.260 C 
ATOM     22  C   UNL A   1      33.259  20.948  26.807  1.00  0.00     0.064 C 
BRANCH  21  23
ATOM     23  O   UNL A   1      32.001  19.379  25.340  1.00  0.00    -0.481 OA
BRANCH  23  24
ATOM     24  C   UNL A   1      32.584  18.450  24.542  1.00  0.00     0.120 A 
ATOM     25  C   UNL A   1      35.198  15.766  25.286  1.00  0.00     0.044 C 
ATOM     26  C   UNL A   1      34.238  16.651  24.550  1.00  0.00    -0.047 A 
ATOM     27  C   UNL A   1      34.150  16.580  23.159  1.00  0.00     0.003 A 
ATOM     28  C   UNL A   1      33.444  17.583  25.231  1.00  0.00     0.049 A 
ATOM     29  C   UNL A   1      33.271  17.412  22.469  1.00  0.00     0.004 A 
ATOM     30  C   UNL A   1      32.480  18.336  23.159  1.00  0.00     0.046 A 
ENDBRANCH  23  24
ENDBRANCH  21  23
ENDBRANCH  18  21
ENDBRANCH  14  17
ENDBRANCH   7  13
ENDBRANCH   4   6
ENDBRANCH   3   4
ENDBRANCH   2   3
ENDBRANCH   1   2
BRANCH   1  31
ATOM     31  O   UNL A   1      32.179  28.691  25.733  1.00  0.00    -0.374 OA
BRANCH  31  32
ATOM     32  C   UNL A   1      31.996  29.602  26.796  1.00  0.00     0.202 C 
BRANCH  32  33
ATOM     33  C   UNL A   1      32.944  30.806  26.748  1.00  0.00     0.261 C 
BRANCH  33  34
ATOM     34  O   UNL A   1      33.665  30.943  27.991  1.00  0.00    -0.460 OA
BRANCH  34  35
ATOM     35  C   UNL A   1      34.906  31.501  27.887  1.00  0.00     0.338 C 
ATOM     36  O   UNL A   1      35.109  32.650  27.539  1.00  0.00    -0.246 OA
BRANCH  35  37
ATOM     37  C   UNL A   1      35.948  30.495  28.241  1.00  0.00     0.060 A 
ATOM     38  C   UNL A   1      35.946  29.842  29.487  1.00  0.00     0.016 A 
ATOM     39  C   UNL A   1      37.043  30.359  27.397  1.00  0.00     0.016 A 
ATOM     40  C   UNL A   1      37.096  29.159  29.938  1.00  0.00     0.010 A 
ATOM     41  C   UNL A   1      38.192  29.769  27.882  1.00  0.00     0.010 A 
ATOM     42  C   UNL A   1      38.248  29.174  29.154  1.00  0.00    -0.014 A 
BRANCH  42  43
ATOM     43  C   UNL A   1      39.592  28.710  29.533  1.00  0.00     0.031 A 
ATOM     44  C   UNL A   1      40.043  27.364  29.071  1.00  0.00     0.074 A 
ATOM     45  C   UNL A   1      40.544  29.554  30.005  1.00  0.00     0.049 A 
ATOM     46  N   UNL A   1      41.139  26.798  29.452  1.00  0.00    -0.248 NA
ATOM     47  C   UNL A   1      39.280  26.512  28.157  1.00  0.00     0.031 C 
ATOM     48  C   UNL A   1      41.989  29.421  29.782  1.00  0.00     0.029 A 
ATOM     49  N   UNL A   1      40.487  30.749  30.689  1.00  0.00    -0.354 N 
ATOM     50  C   UNL A   1      41.407  25.772  28.578  1.00  0.00     0.074 A 
ATOM     51  C   UNL A   1      40.161  25.543  27.891  1.00  0.00     0.031 C 
ATOM     52  C   UNL A   1      42.655  30.371  30.456  1.00  0.00     0.029 A 
ATOM     53  C   UNL A   1      41.696  31.055  31.295  1.00  0.00     0.049 A 
ATOM     54  H   UNL A   1      39.684  31.317  30.739  1.00  0.00     0.167 HD
ATOM     55  C   UNL A   1      42.693  25.341  28.435  1.00  0.00     0.031 A 
ATOM     56  C   UNL A   1      41.826  31.281  32.634  1.00  0.00     0.031 A 
ATOM     57  C   UNL A   1      43.618  26.082  29.308  1.00  0.00     0.049 A 
ATOM     58  C   UNL A   1      42.680  30.187  33.240  1.00  0.00     0.074 A 
ATOM     59  C   UNL A   1      44.629  26.997  29.061  1.00  0.00     0.029 A 
ATOM     60  N   UNL A   1      43.392  26.117  30.682  1.00  0.00    -0.354 N 
ATOM     61  N   UNL A   1      42.912  29.068  32.611  1.00  0.00    -0.248 NA
ATOM     62  C   UNL A   1      43.388  30.244  34.515  1.00  0.00     0.031 C 
ATOM     63  C   UNL A   1      44.999  27.590  30.302  1.00  0.00     0.029 A 
ATOM     64  C   UNL A   1      44.233  27.018  31.306  1.00  0.00     0.049 A 
ATOM     65  H   UNL A   1      42.720  25.570  31.150  1.00  0.00     0.167 HD
ATOM     66  C   UNL A   1      43.810  28.310  33.289  1.00  0.00     0.074 A 
ATOM     67  C   UNL A   1      44.049  29.067  34.506  1.00  0.00     0.031 C 
ATOM     68  C   UNL A   1      44.265  27.135  32.766  1.00  0.00     0.031 A 
BRANCH  55  69
ATOM     69  C   UNL A   1      43.185  24.385  27.358  1.00  0.00    -0.014 A 
ATOM     70  C   UNL A   1      44.312  23.573  27.609  1.00  0.00     0.010 A 
ATOM     71  C   UNL A   1      42.603  24.233  26.085  1.00  0.00     0.010 A 
ATOM     72  C   UNL A   1      44.840  22.698  26.643  1.00  0.00     0.020 A 
ATOM     73  C   UNL A   1      43.120  23.369  25.106  1.00  0.00     0.020 A 
ATOM     74  C   UNL A   1      44.241  22.605  25.391  1.00  0.00     0.054 A 
BRANCH  74  75
ATOM     75  S   UNL A   1      44.920  21.468  24.157  1.00  0.00     0.124 S 
ATOM     76  O   UNL A   1      44.538  22.106  22.900  1.00  0.00    -0.237 OA
ATOM     77  O   UNL A   1      46.346  21.482  24.466  1.00  0.00    -0.237 OA
ATOM     78  O   UNL A   1      44.239  20.205  24.437  1.00  0.00    -0.744 OA
ENDBRANCH  74  75
ENDBRANCH  55  69
BRANCH  56  79
ATOM     79  C   UNL A   1      40.649  31.991  33.222  1.00  0.00    -0.014 A 
ATOM     80  C   UNL A   1      40.454  33.330  32.804  1.00  0.00     0.010 A 
ATOM     81  C   UNL A   1      39.527  31.259  33.653  1.00  0.00     0.010 A 
ATOM     82  C   UNL A   1      39.164  33.857  32.643  1.00  0.00     0.020 A 
ATOM     83  C   UNL A   1      38.232  31.778  33.471  1.00  0.00     0.020 A 
ATOM     84  C   UNL A   1      38.057  33.054  32.920  1.00  0.00     0.054 A 
BRANCH  84  85
ATOM     85  S   UNL A   1      36.416  33.547  32.275  1.00  0.00     0.124 S 
ATOM     86  O   UNL A   1      36.498  33.153  30.876  1.00  0.00    -0.237 OA
ATOM     87  O   UNL A   1      35.486  32.771  33.096  1.00  0.00    -0.237 OA
ATOM     88  O   UNL A   1      36.388  34.983  32.539  1.00  0.00    -0.744 OA
ENDBRANCH  84  85
ENDBRANCH  56  79
BRANCH  68  89
ATOM     89  C   UNL A   1      44.843  25.992  33.561  1.00  0.00    -0.014 A 
ATOM     90  C   UNL A   1      46.151  25.516  33.406  1.00  0.00     0.010 A 
ATOM     91  C   UNL A   1      44.094  25.463  34.642  1.00  0.00     0.010 A 
ATOM     92  C   UNL A   1      46.670  24.532  34.253  1.00  0.00     0.020 A 
ATOM     93  C   UNL A   1      44.619  24.524  35.529  1.00  0.00     0.020 A 
ATOM     94  C   UNL A   1      45.902  24.046  35.311  1.00  0.00     0.054 A 
BRANCH  94  95
ATOM     95  S   UNL A   1      46.625  22.818  36.419  1.00  0.00     0.124 S 
ATOM     96  O   UNL A   1      46.456  21.588  35.649  1.00  0.00    -0.237 OA
ATOM     97  O   UNL A   1      48.003  23.286  36.557  1.00  0.00    -0.237 OA
ATOM     98  O   UNL A   1      45.815  22.918  37.629  1.00  0.00    -0.744 OA
ENDBRANCH  94  95
ENDBRANCH  68  89
ENDBRANCH  42  43
ENDBRANCH  35  37
ENDBRANCH  34  35
ENDBRANCH  33  34
ENDBRANCH  32  33
ENDBRANCH  31  32
ENDBRANCH   1  31
TORSDOF 22
ENDMDL
MODEL 2
REMARK VINA RESULT:     -11.3      2.038      3.400
REMARK SMILES Cc1cccc(O[C@H](C)C(=O)NNC(=O)[C@H]2[C@@H]3CC[C@@H](C3)[C@@H]2C(=O)OCCOCCOC(=O)c2ccc(-c3c4nc(c(-c5ccc(S(=O)(=O)[O-])cc5)c5ccc([nH]5)c(-c5ccc(S(=O)(=O)[O-])cc5)c5nc(c(-c6ccc(S(=O)(=O)[O-])cc6)c6ccc3[nH]6)C=C5)C=C4)cc2)c1
REMARK SMILES IDX 27 1 26 2 25 3 23 4 24 5 22 6 16 7 17 8 18 9 21 10 20 11
REMARK SMILES IDX 19 12 14 13 13 14 15 16 12 17 10 18 11 19 8 21 9 22 7 23
REMARK SMILES IDX 6 24 1 25 2 26 3 27 94 28 4 29 5 30 28 31 29 32 30 33 31 34
REMARK SMILES IDX 32 35 33 36 34 37 35 38 93 39 36 40 92 41 37 42 38 43 39 44
REMARK SMILES IDX 86 45 40 46 91 47 85 48 87 49 41 50 90 51 84 52 83 53 42 55
REMARK SMILES IDX 72 56 53 57 71 58 54 59 57 60 70 61 88 62 55 63 56 64 69 66
REMARK SMILES IDX 89 67 58 68 43 69 44 70 52 71 45 72 51 73 46 74 47 75 48 76
REMARK SMILES IDX 49 77 50 78 73 79 74 80 82 81 75 82 81 83 76 84 77 85 78 86
REMARK SMILES IDX 79 87 80 88 59 89 60 90 68 91 61 92 67 93 62 94 63 95 64 96
REMARK SMILES IDX 65 97 66 98
REMARK H PARENT 13 15 12 20 87 54 57 65
REMARK Flexibility Score: inf
ROOT
ATOM      1  C   UNL A   1      33.668  28.318  24.660  1.00  0.00     0.202 C 
ENDROOT
BRANCH   1   2
ATOM      2  C   UNL A   1      33.182  27.613  23.414  1.00  0.00     0.261 C 
BRANCH   2   3
ATOM      3  O   UNL A   1      33.593  26.239  23.382  1.00  0.00    -0.463 OA
BRANCH   3   4
ATOM      4  C   UNL A   1      32.669  25.246  23.176  1.00  0.00     0.310 C 
ATOM      5  O   UNL A   1      32.076  24.958  22.169  1.00  0.00    -0.252 OA
BRANCH   4   6
ATOM      6  C   UNL A   1      32.708  24.389  24.412  1.00  0.00     0.115 C 
ATOM      7  C   UNL A   1      31.773  23.189  24.247  1.00  0.00     0.098 C 
ATOM      8  C   UNL A   1      31.240  22.973  25.681  1.00  0.00     0.003 C 
ATOM      9  C   UNL A   1      30.125  24.013  25.922  1.00  0.00     0.005 C 
ATOM     10  C   UNL A   1      32.342  23.566  26.561  1.00  0.00     0.009 C 
ATOM     11  C   UNL A   1      32.363  24.908  25.807  1.00  0.00     0.004 C 
ATOM     12  C   UNL A   1      30.896  25.342  25.930  1.00  0.00     0.005 C 
BRANCH   7  13
ATOM     13  C   UNL A   1      32.288  21.966  23.512  1.00  0.00     0.242 C 
ATOM     14  N   UNL A   1      33.454  21.331  23.826  1.00  0.00    -0.267 N 
ATOM     15  H   UNL A   1      33.977  20.980  23.069  1.00  0.00     0.191 HD
ATOM     16  O   UNL A   1      31.661  21.549  22.530  1.00  0.00    -0.273 OA
BRANCH  14  17
ATOM     17  N   UNL A   1      33.985  21.124  25.084  1.00  0.00    -0.264 N 
ATOM     18  C   UNL A   1      35.207  21.566  25.500  1.00  0.00     0.279 C 
ATOM     19  O   UNL A   1      35.325  21.826  26.706  1.00  0.00    -0.269 OA
ATOM     20  H   UNL A   1      33.441  20.617  25.729  1.00  0.00     0.191 HD
BRANCH  18  21
ATOM     21  C   UNL A   1      36.473  21.480  24.606  1.00  0.00     0.260 C 
ATOM     22  C   UNL A   1      36.395  22.610  23.569  1.00  0.00     0.064 C 
BRANCH  21  23
ATOM     23  O   UNL A   1      37.778  21.110  24.994  1.00  0.00    -0.481 OA
BRANCH  23  24
ATOM     24  C   UNL A   1      38.636  21.829  25.759  1.00  0.00     0.120 A 
ATOM     25  C   UNL A   1      41.921  20.866  27.455  1.00  0.00     0.044 C 
ATOM     26  C   UNL A   1      40.719  21.652  27.024  1.00  0.00    -0.047 A 
ATOM     27  C   UNL A   1      40.494  22.926  27.551  1.00  0.00     0.003 A 
ATOM     28  C   UNL A   1      39.789  21.119  26.123  1.00  0.00     0.049 A 
ATOM     29  C   UNL A   1      39.371  23.653  27.165  1.00  0.00     0.004 A 
ATOM     30  C   UNL A   1      38.450  23.113  26.262  1.00  0.00     0.046 A 
ENDBRANCH  23  24
ENDBRANCH  21  23
ENDBRANCH  18  21
ENDBRANCH  14  17
ENDBRANCH   7  13
ENDBRANCH   4   6
ENDBRANCH   3   4
ENDBRANCH   2   3
ENDBRANCH   1   2
BRANCH   1  31
ATOM     31  O   UNL A   1      32.544  28.424  25.527  1.00  0.00    -0.374 OA
BRANCH  31  32
ATOM     32  C   UNL A   1      32.822  28.550  26.906  1.00  0.00     0.202 C 
BRANCH  32  33
ATOM     33  C   UNL A   1      33.344  29.935  27.307  1.00  0.00     0.261 C 
BRANCH  33  34
ATOM     34  O   UNL A   1      34.729  29.868  27.705  1.00  0.00    -0.460 OA
BRANCH  34  35
ATOM     35  C   UNL A   1      35.307  31.066  28.011  1.00  0.00     0.338 C 
ATOM     36  O   UNL A   1      34.905  32.141  27.602  1.00  0.00    -0.246 OA
BRANCH  35  37
ATOM     37  C   UNL A   1      36.493  30.850  28.888  1.00  0.00     0.060 A 
ATOM     38  C   UNL A   1      37.635  31.666  28.793  1.00  0.00     0.016 A 
ATOM     39  C   UNL A   1      36.535  29.698  29.664  1.00  0.00     0.016 A 
ATOM     40  C   UNL A   1      38.855  31.257  29.374  1.00  0.00     0.010 A 
ATOM     41  C   UNL A   1      37.749  29.262  30.149  1.00  0.00     0.010 A 
ATOM     42  C   UNL A   1      38.927  30.017  30.006  1.00  0.00    -0.014 A 
BRANCH  42  43
ATOM     43  C   UNL A   1      40.136  29.326  30.482  1.00  0.00     0.031 A 
ATOM     44  C   UNL A   1      40.605  28.114  29.749  1.00  0.00     0.074 A 
ATOM     45  C   UNL A   1      41.009  29.905  31.345  1.00  0.00     0.049 A 
ATOM     46  N   UNL A   1      41.566  27.352  30.152  1.00  0.00    -0.248 NA
ATOM     47  C   UNL A   1      40.010  27.626  28.504  1.00  0.00     0.031 C 
ATOM     48  C   UNL A   1      42.460  29.684  31.369  1.00  0.00     0.029 A 
ATOM     49  N   UNL A   1      40.869  30.871  32.318  1.00  0.00    -0.354 N 
ATOM     50  C   UNL A   1      41.961  26.576  29.088  1.00  0.00     0.074 A 
ATOM     51  C   UNL A   1      40.877  26.675  28.144  1.00  0.00     0.031 C 
ATOM     52  C   UNL A   1      43.016  30.339  32.399  1.00  0.00     0.029 A 
ATOM     53  C   UNL A   1      41.937  30.872  33.202  1.00  0.00     0.049 A 
ATOM     54  H   UNL A   1      40.103  31.488  32.377  1.00  0.00     0.167 HD
ATOM     55  C   UNL A   1      43.225  26.064  29.072  1.00  0.00     0.031 A 
ATOM     56  C   UNL A   1      41.794  30.714  34.549  1.00  0.00     0.031 A 
ATOM     57  C   UNL A   1      43.981  26.439  30.277  1.00  0.00     0.049 A 
ATOM     58  C   UNL A   1      42.446  29.413  34.968  1.00  0.00     0.074 A 
ATOM     59  C   UNL A   1      45.067  27.274  30.496  1.00  0.00     0.029 A 
ATOM     60  N   UNL A   1      43.474  26.128  31.537  1.00  0.00    -0.354 N 
ATOM     61  N   UNL A   1      42.748  28.486  34.100  1.00  0.00    -0.248 NA
ATOM     62  C   UNL A   1      42.872  29.048  36.315  1.00  0.00     0.031 C 
ATOM     63  C   UNL A   1      45.197  27.468  31.901  1.00  0.00     0.029 A 
ATOM     64  C   UNL A   1      44.209  26.733  32.538  1.00  0.00     0.049 A 
ATOM     65  H   UNL A   1      42.692  25.551  31.694  1.00  0.00     0.167 HD
ATOM     66  C   UNL A   1      43.445  27.482  34.691  1.00  0.00     0.074 A 
ATOM     67  C   UNL A   1      43.460  27.853  36.095  1.00  0.00     0.031 C 
ATOM     68  C   UNL A   1      43.939  26.448  33.950  1.00  0.00     0.031 A 
BRANCH  55  69
ATOM     69  C   UNL A   1      43.883  25.386  27.880  1.00  0.00    -0.014 A 
ATOM     70  C   UNL A   1      43.918  23.976  27.812  1.00  0.00     0.010 A 
ATOM     71  C   UNL A   1      44.489  26.057  26.801  1.00  0.00     0.010 A 
ATOM     72  C   UNL A   1      44.545  23.287  26.758  1.00  0.00     0.020 A 
ATOM     73  C   UNL A   1      45.125  25.387  25.743  1.00  0.00     0.020 A 
ATOM     74  C   UNL A   1      45.151  24.001  25.729  1.00  0.00     0.054 A 
BRANCH  74  75
ATOM     75  S   UNL A   1      45.946  23.108  24.370  1.00  0.00     0.124 S 
ATOM     76  O   UNL A   1      46.491  21.932  25.043  1.00  0.00    -0.237 OA
ATOM     77  O   UNL A   1      44.832  22.858  23.462  1.00  0.00    -0.237 OA
ATOM     78  O   UNL A   1      46.947  24.051  23.873  1.00  0.00    -0.744 OA
ENDBRANCH  74  75
ENDBRANCH  55  69
BRANCH  56  79
ATOM     79  C   UNL A   1      40.558  31.362  35.084  1.00  0.00    -0.014 A 
ATOM     80  C   UNL A   1      40.510  32.775  35.009  1.00  0.00     0.010 A 
ATOM     81  C   UNL A   1      39.340  30.656  35.095  1.00  0.00     0.010 A 
ATOM     82  C   UNL A   1      39.303  33.447  34.765  1.00  0.00     0.020 A 
ATOM     83  C   UNL A   1      38.132  31.325  34.828  1.00  0.00     0.020 A 
ATOM     84  C   UNL A   1      38.128  32.710  34.614  1.00  0.00     0.054 A 
BRANCH  84  85
ATOM     85  S   UNL A   1      36.672  33.505  33.840  1.00  0.00     0.124 S 
ATOM     86  O   UNL A   1      35.734  32.396  33.727  1.00  0.00    -0.237 OA
ATOM     87  O   UNL A   1      36.306  34.545  34.801  1.00  0.00    -0.237 OA
ATOM     88  O   UNL A   1      37.217  34.017  32.586  1.00  0.00    -0.744 OA
ENDBRANCH  84  85
ENDBRANCH  56  79
BRANCH  68  89
ATOM     89  C   UNL A   1      44.279  25.079  34.480  1.00  0.00    -0.014 A 
ATOM     90  C   UNL A   1      43.628  23.904  34.084  1.00  0.00     0.010 A 
ATOM     91  C   UNL A   1      45.423  24.930  35.303  1.00  0.00     0.010 A 
ATOM     92  C   UNL A   1      44.066  22.650  34.521  1.00  0.00     0.020 A 
ATOM     93  C   UNL A   1      45.904  23.682  35.699  1.00  0.00     0.020 A 
ATOM     94  C   UNL A   1      45.202  22.547  35.321  1.00  0.00     0.054 A 
BRANCH  94  95
ATOM     95  S   UNL A   1      45.772  20.908  35.819  1.00  0.00     0.124 S 
ATOM     96  O   UNL A   1      44.813  20.041  35.138  1.00  0.00    -0.237 OA
ATOM     97  O   UNL A   1      47.134  20.871  35.291  1.00  0.00    -0.237 OA
ATOM     98  O   UNL A   1      45.674  20.931  37.275  1.00  0.00    -0.744 OA
ENDBRANCH  94  95
ENDBRANCH  68  89
ENDBRANCH  42  43
ENDBRANCH  35  37
ENDBRANCH  34  35
ENDBRANCH  33  34
ENDBRANCH  32  33
ENDBRANCH  31  32
ENDBRANCH   1  31
TORSDOF 22
ENDMDL
MODEL 3
REMARK VINA RESULT:     -10.7      5.463     11.382
REMARK SMILES Cc1cccc(O[C@H](C)C(=O)NNC(=O)[C@H]2[C@@H]3CC[C@@H](C3)[C@@H]2C(=O)OCCOCCOC(=O)c2ccc(-c3c4nc(c(-c5ccc(S(=O)(=O)[O-])cc5)c5ccc([nH]5)c(-c5ccc(S(=O)(=O)[O-])cc5)c5nc(c(-c6ccc(S(=O)(=O)[O-])cc6)c6ccc3[nH]6)C=C5)C=C4)cc2)c1
REMARK SMILES IDX 27 1 26 2 25 3 23 4 24 5 22 6 16 7 17 8 18 9 21 10 20 11
REMARK SMILES IDX 19 12 14 13 13 14 15 16 12 17 10 18 11 19 8 21 9 22 7 23
REMARK SMILES IDX 6 24 1 25 2 26 3 27 94 28 4 29 5 30 28 31 29 32 30 33 31 34
REMARK SMILES IDX 32 35 33 36 34 37 35 38 93 39 36 40 92 41 37 42 38 43 39 44
REMARK SMILES IDX 86 45 40 46 91 47 85 48 87 49 41 50 90 51 84 52 83 53 42 55
REMARK SMILES IDX 72 56 53 57 71 58 54 59 57 60 70 61 88 62 55 63 56 64 69 66
REMARK SMILES IDX 89 67 58 68 43 69 44 70 52 71 45 72 51 73 46 74 47 75 48 76
REMARK SMILES IDX 49 77 50 78 73 79 74 80 82 81 75 82 81 83 76 84 77 85 78 86
REMARK SMILES IDX 79 87 80 88 59 89 60 90 68 91 61 92 67 93 62 94 63 95 64 96
REMARK SMILES IDX 65 97 66 98
REMARK H PARENT 13 15 12 20 87 54 57 65
REMARK Flexibility Score: inf
ROOT
ATOM      1  C   UNL A   1      46.405  27.791  26.488  1.00  0.00     0.202 C 
ENDROOT
BRANCH   1   2
ATOM      2  C   UNL A   1      45.351  28.004  25.427  1.00  0.00     0.261 C 
BRANCH   2   3
ATOM      3  O   UNL A   1      44.163  28.601  25.966  1.00  0.00    -0.463 OA
BRANCH   3   4
ATOM      4  C   UNL A   1      42.929  28.096  25.645  1.00  0.00     0.310 C 
ATOM      5  O   UNL A   1      42.305  28.208  24.621  1.00  0.00    -0.252 OA
BRANCH   4   6
ATOM      6  C   UNL A   1      42.581  27.134  26.749  1.00  0.00     0.115 C 
ATOM      7  C   UNL A   1      41.901  25.892  26.168  1.00  0.00     0.098 C 
ATOM      8  C   UNL A   1      40.889  25.510  27.270  1.00  0.00     0.003 C 
ATOM      9  C   UNL A   1      39.669  26.444  27.122  1.00  0.00     0.005 C 
ATOM     10  C   UNL A   1      41.511  26.096  28.540  1.00  0.00     0.009 C 
ATOM     11  C   UNL A   1      41.683  27.499  27.930  1.00  0.00     0.004 C 
ATOM     12  C   UNL A   1      40.244  27.817  27.503  1.00  0.00     0.005 C 
BRANCH   7  13
ATOM     13  C   UNL A   1      42.775  24.780  25.619  1.00  0.00     0.242 C 
ATOM     14  N   UNL A   1      42.544  23.455  25.849  1.00  0.00    -0.267 N 
ATOM     15  H   UNL A   1      43.339  22.889  25.976  1.00  0.00     0.191 HD
ATOM     16  O   UNL A   1      43.793  25.076  24.982  1.00  0.00    -0.273 OA
BRANCH  14  17
ATOM     17  N   UNL A   1      41.322  22.816  25.925  1.00  0.00    -0.264 N 
ATOM     18  C   UNL A   1      41.092  21.642  26.580  1.00  0.00     0.279 C 
ATOM     19  O   UNL A   1      39.958  21.480  27.053  1.00  0.00    -0.269 OA
ATOM     20  H   UNL A   1      40.558  23.240  25.470  1.00  0.00     0.191 HD
BRANCH  18  21
ATOM     21  C   UNL A   1      42.071  20.440  26.504  1.00  0.00     0.260 C 
ATOM     22  C   UNL A   1      41.627  19.402  27.546  1.00  0.00     0.064 C 
BRANCH  21  23
ATOM     23  O   UNL A   1      42.695  19.908  25.355  1.00  0.00    -0.481 OA
BRANCH  23  24
ATOM     24  C   UNL A   1      44.007  19.997  25.025  1.00  0.00     0.120 A 
ATOM     25  C   UNL A   1      46.982  17.761  25.884  1.00  0.00     0.044 C 
ATOM     26  C   UNL A   1      46.166  18.898  25.349  1.00  0.00    -0.047 A 
ATOM     27  C   UNL A   1      46.797  19.986  24.743  1.00  0.00     0.003 A 
ATOM     28  C   UNL A   1      44.770  18.911  25.476  1.00  0.00     0.049 A 
ATOM     29  C   UNL A   1      46.043  21.052  24.259  1.00  0.00     0.004 A 
ATOM     30  C   UNL A   1      44.651  21.054  24.387  1.00  0.00     0.046 A 
ENDBRANCH  23  24
ENDBRANCH  21  23
ENDBRANCH  18  21
ENDBRANCH  14  17
ENDBRANCH   7  13
ENDBRANCH   4   6
ENDBRANCH   3   4
ENDBRANCH   2   3
ENDBRANCH   1   2
BRANCH   1  31
ATOM     31  O   UNL A   1      47.646  27.660  25.803  1.00  0.00    -0.374 OA
BRANCH  31  32
ATOM     32  C   UNL A   1      48.456  26.563  26.170  1.00  0.00     0.202 C 
BRANCH  32  33
ATOM     33  C   UNL A   1      47.803  25.199  25.912  1.00  0.00     0.261 C 
BRANCH  33  34
ATOM     34  O   UNL A   1      47.695  24.441  27.134  1.00  0.00    -0.460 OA
BRANCH  34  35
ATOM     35  C   UNL A   1      46.429  24.059  27.474  1.00  0.00     0.338 C 
ATOM     36  O   UNL A   1      45.775  23.240  26.854  1.00  0.00    -0.246 OA
BRANCH  35  37
ATOM     37  C   UNL A   1      45.980  24.804  28.686  1.00  0.00     0.060 A 
ATOM     38  C   UNL A   1      46.890  25.513  29.491  1.00  0.00     0.016 A 
ATOM     39  C   UNL A   1      44.674  24.619  29.124  1.00  0.00     0.016 A 
ATOM     40  C   UNL A   1      46.524  25.924  30.790  1.00  0.00     0.010 A 
ATOM     41  C   UNL A   1      44.354  24.942  30.425  1.00  0.00     0.010 A 
ATOM     42  C   UNL A   1      45.265  25.583  31.283  1.00  0.00    -0.014 A 
BRANCH  42  43
ATOM     43  C   UNL A   1      44.777  25.732  32.664  1.00  0.00     0.031 A 
ATOM     44  C   UNL A   1      44.201  27.044  33.083  1.00  0.00     0.074 A 
ATOM     45  C   UNL A   1      44.537  24.664  33.466  1.00  0.00     0.049 A 
ATOM     46  N   UNL A   1      43.869  27.332  34.297  1.00  0.00    -0.248 NA
ATOM     47  C   UNL A   1      43.975  28.169  32.175  1.00  0.00     0.031 C 
ATOM     48  C   UNL A   1      43.492  24.587  34.495  1.00  0.00     0.029 A 
ATOM     49  N   UNL A   1      45.059  23.390  33.518  1.00  0.00    -0.354 N 
ATOM     50  C   UNL A   1      43.059  28.442  34.258  1.00  0.00     0.074 A 
ATOM     51  C   UNL A   1      43.278  29.005  32.949  1.00  0.00     0.031 C 
ATOM     52  C   UNL A   1      43.582  23.428  35.166  1.00  0.00     0.029 A 
ATOM     53  C   UNL A   1      44.796  22.773  34.731  1.00  0.00     0.049 A 
ATOM     54  H   UNL A   1      45.557  22.968  32.780  1.00  0.00     0.167 HD
ATOM     55  C   UNL A   1      42.189  28.667  35.284  1.00  0.00     0.031 A 
ATOM     56  C   UNL A   1      45.772  22.282  35.548  1.00  0.00     0.031 A 
ATOM     57  C   UNL A   1      42.290  27.628  36.322  1.00  0.00     0.049 A 
ATOM     58  C   UNL A   1      45.790  23.079  36.835  1.00  0.00     0.074 A 
ATOM     59  C   UNL A   1      41.440  26.616  36.739  1.00  0.00     0.029 A 
ATOM     60  N   UNL A   1      43.518  27.375  36.930  1.00  0.00    -0.354 N 
ATOM     61  N   UNL A   1      45.202  24.241  36.932  1.00  0.00    -0.248 NA
ATOM     62  C   UNL A   1      46.374  22.665  38.106  1.00  0.00     0.031 C 
ATOM     63  C   UNL A   1      42.175  25.746  37.594  1.00  0.00     0.029 A 
ATOM     64  C   UNL A   1      43.463  26.242  37.719  1.00  0.00     0.049 A 
ATOM     65  H   UNL A   1      44.322  27.931  36.812  1.00  0.00     0.167 HD
ATOM     66  C   UNL A   1      45.235  24.693  38.211  1.00  0.00     0.074 A 
ATOM     67  C   UNL A   1      46.023  23.692  38.909  1.00  0.00     0.031 C 
ATOM     68  C   UNL A   1      44.601  25.851  38.556  1.00  0.00     0.031 A 
BRANCH  55  69
ATOM     69  C   UNL A   1      41.081  29.709  35.284  1.00  0.00    -0.014 A 
ATOM     70  C   UNL A   1      41.153  30.801  36.176  1.00  0.00     0.010 A 
ATOM     71  C   UNL A   1      39.946  29.682  34.453  1.00  0.00     0.010 A 
ATOM     72  C   UNL A   1      40.143  31.777  36.254  1.00  0.00     0.020 A 
ATOM     73  C   UNL A   1      38.925  30.644  34.520  1.00  0.00     0.020 A 
ATOM     74  C   UNL A   1      39.029  31.689  35.426  1.00  0.00     0.054 A 
BRANCH  74  75
ATOM     75  S   UNL A   1      37.739  32.955  35.524  1.00  0.00     0.124 S 
ATOM     76  O   UNL A   1      36.903  32.641  34.369  1.00  0.00    -0.237 OA
ATOM     77  O   UNL A   1      37.139  32.694  36.828  1.00  0.00    -0.237 OA
ATOM     78  O   UNL A   1      38.478  34.213  35.424  1.00  0.00    -0.744 OA
ENDBRANCH  74  75
ENDBRANCH  55  69
BRANCH  56  79
ATOM     79  C   UNL A   1      46.917  21.685  34.794  1.00  0.00    -0.014 A 
ATOM     80  C   UNL A   1      47.997  22.554  34.505  1.00  0.00     0.010 A 
ATOM     81  C   UNL A   1      47.181  20.305  34.890  1.00  0.00     0.010 A 
ATOM     82  C   UNL A   1      49.319  22.087  34.499  1.00  0.00     0.020 A 
ATOM     83  C   UNL A   1      48.508  19.839  34.906  1.00  0.00     0.020 A 
ATOM     84  C   UNL A   1      49.571  20.740  34.761  1.00  0.00     0.054 A 
BRANCH  84  85
ATOM     85  S   UNL A   1      51.267  20.224  35.221  1.00  0.00     0.124 S 
ATOM     86  O   UNL A   1      52.085  20.939  34.250  1.00  0.00    -0.237 OA
ATOM     87  O   UNL A   1      51.392  20.676  36.606  1.00  0.00    -0.237 OA
ATOM     88  O   UNL A   1      51.210  18.773  35.069  1.00  0.00    -0.744 OA
ENDBRANCH  84  85
ENDBRANCH  56  79
BRANCH  68  89
ATOM     89  C   UNL A   1      44.938  26.707  39.749  1.00  0.00    -0.014 A 
ATOM     90  C   UNL A   1      44.227  26.681  40.956  1.00  0.00     0.010 A 
ATOM     91  C   UNL A   1      46.132  27.470  39.726  1.00  0.00     0.010 A 
ATOM     92  C   UNL A   1      44.658  27.412  42.067  1.00  0.00     0.020 A 
ATOM     93  C   UNL A   1      46.603  28.158  40.846  1.00  0.00     0.020 A 
ATOM     94  C   UNL A   1      45.844  28.141  42.006  1.00  0.00     0.054 A 
BRANCH  94  95
ATOM     95  S   UNL A   1      46.400  29.026  43.478  1.00  0.00     0.124 S 
ATOM     96  O   UNL A   1      47.390  28.101  44.025  1.00  0.00    -0.237 OA
ATOM     97  O   UNL A   1      46.941  30.263  42.920  1.00  0.00    -0.237 OA
ATOM     98  O   UNL A   1      45.184  29.185  44.270  1.00  0.00    -0.744 OA
ENDBRANCH  94  95
ENDBRANCH  68  89
ENDBRANCH  42  43
ENDBRANCH  35  37
ENDBRANCH  34  35
ENDBRANCH  33  34
ENDBRANCH  32  33
ENDBRANCH  31  32
ENDBRANCH   1  31
TORSDOF 22
ENDMDL
