MODEL 1
REMARK VINA RESULT:     -10.2      0.000      0.000
REMARK SMILES Cc1cnc(N2CCO[C@H](CC(=O)OCCOCCOC(=O)c3ccc(-c4c5nc(c(-c6ccc(S(=O)(=O)[O-])cc6)c6ccc([nH]6)c(-c6ccc(S(=O)(=O)[O-])cc6)c6nc(c(-c7ccc(S(=O)(=O)[O-])cc7)c7ccc4[nH]7)C=C6)C=C5)cc3)C2)c([N+](=O)[O-])c1
REMARK SMILES IDX 17 1 16 2 15 3 14 4 12 5 13 6 11 7 10 8 6 9 7 10 83 11 8 12
REMARK SMILES IDX 9 13 5 14 1 15 2 16 3 17 88 18 4 19 84 20 85 21 86 22 87 23
REMARK SMILES IDX 18 24 19 25 20 26 21 27 22 28 23 29 24 30 82 31 25 32 81 33
REMARK SMILES IDX 26 34 27 35 28 36 75 37 29 38 80 39 74 40 76 41 30 42 79 43
REMARK SMILES IDX 73 44 72 45 31 47 61 48 42 49 60 50 43 51 46 52 59 53 77 54
REMARK SMILES IDX 44 55 45 56 58 58 78 59 47 60 32 61 33 62 41 63 34 64 40 65
REMARK SMILES IDX 35 66 36 67 37 68 38 69 39 70 62 71 63 72 71 73 64 74 70 75
REMARK SMILES IDX 65 76 66 77 67 78 68 79 69 80 48 81 49 82 57 83 50 84 56 85
REMARK SMILES IDX 51 86 52 87 53 88 54 89 55 90
REMARK H PARENT 76 46 46 57
REMARK Flexibility Score: inf
ROOT
ATOM      1  O   UNL A   1      33.714  34.141  30.521  1.00  0.00    -0.374 OA
ENDROOT
BRANCH   1   2
ATOM      2  C   UNL A   1      33.585  34.836  29.284  1.00  0.00     0.202 C 
BRANCH   2   3
ATOM      3  C   UNL A   1      34.095  34.145  28.017  1.00  0.00     0.261 C 
BRANCH   3   4
ATOM      4  O   UNL A   1      33.265  33.057  27.584  1.00  0.00    -0.463 OA
BRANCH   4   5
ATOM      5  C   UNL A   1      33.860  31.839  27.643  1.00  0.00     0.308 C 
ATOM      6  O   UNL A   1      35.028  31.637  27.955  1.00  0.00    -0.252 OA
BRANCH   5   7
ATOM      7  C   UNL A   1      32.945  30.727  27.224  1.00  0.00     0.156 C 
BRANCH   7   8
ATOM      8  C   UNL A   1      33.623  29.461  26.668  1.00  0.00     0.148 C 
ATOM      9  N   UNL A   1      31.750  28.944  25.234  1.00  0.00    -0.346 N 
ATOM     10  C   UNL A   1      31.369  27.763  26.006  1.00  0.00     0.147 C 
ATOM     11  C   UNL A   1      33.188  29.204  25.204  1.00  0.00     0.151 C 
ATOM     12  C   UNL A   1      31.949  27.879  27.431  1.00  0.00     0.182 C 
ATOM     13  O   UNL A   1      33.333  28.285  27.465  1.00  0.00    -0.374 OA
BRANCH   9  14
ATOM     14  C   UNL A   1      30.923  29.594  24.361  1.00  0.00     0.208 A 
ATOM     15  C   UNL A   1      27.913  31.599  22.049  1.00  0.00     0.046 C 
ATOM     16  C   UNL A   1      28.972  30.881  22.820  1.00  0.00    -0.026 A 
ATOM     17  C   UNL A   1      29.448  31.375  24.028  1.00  0.00     0.117 A 
ATOM     18  C   UNL A   1      29.524  29.691  22.365  1.00  0.00     0.094 A 
ATOM     19  N   UNL A   1      30.380  30.756  24.797  1.00  0.00    -0.233 NA
ATOM     20  C   UNL A   1      30.508  29.062  23.139  1.00  0.00     0.311 A 
BRANCH  20  21
ATOM     21  N   UNL A   1      30.962  27.767  22.697  1.00  0.00     0.066 N 
ATOM     22  O   UNL A   1      30.201  26.804  22.854  1.00  0.00    -0.258 OA
ATOM     23  O   UNL A   1      32.119  27.699  22.258  1.00  0.00    -0.258 OA
ENDBRANCH  20  21
ENDBRANCH   9  14
ENDBRANCH   7   8
ENDBRANCH   5   7
ENDBRANCH   4   5
ENDBRANCH   3   4
ENDBRANCH   2   3
ENDBRANCH   1   2
BRANCH   1  24
ATOM     24  C   UNL A   1      35.008  33.668  30.888  1.00  0.00     0.202 C 
BRANCH  24  25
ATOM     25  C   UNL A   1      35.109  32.249  31.462  1.00  0.00     0.261 C 
BRANCH  25  26
ATOM     26  O   UNL A   1      36.465  31.769  31.525  1.00  0.00    -0.460 OA
BRANCH  26  27
ATOM     27  C   UNL A   1      36.652  30.532  30.996  1.00  0.00     0.338 C 
ATOM     28  O   UNL A   1      35.796  29.698  30.757  1.00  0.00    -0.246 OA
BRANCH  27  29
ATOM     29  C   UNL A   1      38.050  30.375  30.549  1.00  0.00     0.060 A 
ATOM     30  C   UNL A   1      38.277  30.240  29.172  1.00  0.00     0.016 A 
ATOM     31  C   UNL A   1      39.107  30.275  31.454  1.00  0.00     0.016 A 
ATOM     32  C   UNL A   1      39.560  29.970  28.698  1.00  0.00     0.010 A 
ATOM     33  C   UNL A   1      40.392  29.990  30.977  1.00  0.00     0.010 A 
ATOM     34  C   UNL A   1      40.620  29.810  29.600  1.00  0.00    -0.014 A 
BRANCH  34  35
ATOM     35  C   UNL A   1      41.940  29.350  29.102  1.00  0.00     0.031 A 
ATOM     36  C   UNL A   1      43.083  30.326  29.026  1.00  0.00     0.074 A 
ATOM     37  C   UNL A   1      42.127  28.064  28.751  1.00  0.00     0.049 A 
ATOM     38  N   UNL A   1      44.309  30.131  28.615  1.00  0.00    -0.248 NA
ATOM     39  C   UNL A   1      42.808  31.699  29.478  1.00  0.00     0.031 C 
ATOM     40  C   UNL A   1      41.113  27.013  28.823  1.00  0.00     0.029 A 
ATOM     41  N   UNL A   1      43.240  27.427  28.264  1.00  0.00    -0.354 N 
ATOM     42  C   UNL A   1      44.953  31.355  28.754  1.00  0.00     0.074 A 
ATOM     43  C   UNL A   1      43.975  32.291  29.264  1.00  0.00     0.031 C 
ATOM     44  C   UNL A   1      41.650  25.860  28.387  1.00  0.00     0.029 A 
ATOM     45  C   UNL A   1      43.032  26.099  27.976  1.00  0.00     0.049 A 
ATOM     46  H   UNL A   1      44.106  27.877  28.132  1.00  0.00     0.167 HD
ATOM     47  C   UNL A   1      46.243  31.670  28.485  1.00  0.00     0.031 A 
ATOM     48  C   UNL A   1      43.854  25.185  27.423  1.00  0.00     0.031 A 
ATOM     49  C   UNL A   1      47.211  30.743  27.960  1.00  0.00     0.049 A 
ATOM     50  C   UNL A   1      45.257  25.583  27.047  1.00  0.00     0.074 A 
ATOM     51  C   UNL A   1      48.547  30.964  27.675  1.00  0.00     0.029 A 
ATOM     52  N   UNL A   1      46.945  29.423  27.627  1.00  0.00    -0.354 N 
ATOM     53  N   UNL A   1      45.859  26.736  27.214  1.00  0.00    -0.248 NA
ATOM     54  C   UNL A   1      46.090  24.555  26.406  1.00  0.00     0.031 C 
ATOM     55  C   UNL A   1      49.074  29.795  27.114  1.00  0.00     0.029 A 
ATOM     56  C   UNL A   1      48.081  28.830  27.104  1.00  0.00     0.049 A 
ATOM     57  H   UNL A   1      46.076  28.976  27.746  1.00  0.00     0.167 HD
ATOM     58  C   UNL A   1      47.146  26.568  26.712  1.00  0.00     0.074 A 
ATOM     59  C   UNL A   1      47.240  25.197  26.254  1.00  0.00     0.031 C 
ATOM     60  C   UNL A   1      48.157  27.468  26.637  1.00  0.00     0.031 A 
BRANCH  47  61
ATOM     61  C   UNL A   1      46.675  33.093  28.722  1.00  0.00    -0.014 A 
ATOM     62  C   UNL A   1      46.448  34.093  27.759  1.00  0.00     0.010 A 
ATOM     63  C   UNL A   1      47.281  33.442  29.943  1.00  0.00     0.010 A 
ATOM     64  C   UNL A   1      46.853  35.409  27.999  1.00  0.00     0.020 A 
ATOM     65  C   UNL A   1      47.665  34.762  30.195  1.00  0.00     0.020 A 
ATOM     66  C   UNL A   1      47.464  35.735  29.214  1.00  0.00     0.054 A 
BRANCH  66  67
ATOM     67  S   UNL A   1      47.962  37.454  29.507  1.00  0.00     0.124 S 
ATOM     68  O   UNL A   1      49.416  37.334  29.593  1.00  0.00    -0.237 OA
ATOM     69  O   UNL A   1      47.458  38.141  28.320  1.00  0.00    -0.237 OA
ATOM     70  O   UNL A   1      47.291  37.802  30.757  1.00  0.00    -0.744 OA
ENDBRANCH  66  67
ENDBRANCH  47  61
BRANCH  48  71
ATOM     71  C   UNL A   1      43.359  23.806  27.160  1.00  0.00    -0.014 A 
ATOM     72  C   UNL A   1      43.308  23.299  25.851  1.00  0.00     0.010 A 
ATOM     73  C   UNL A   1      42.937  22.993  28.227  1.00  0.00     0.010 A 
ATOM     74  C   UNL A   1      42.834  22.005  25.612  1.00  0.00     0.020 A 
ATOM     75  C   UNL A   1      42.487  21.690  27.996  1.00  0.00     0.020 A 
ATOM     76  C   UNL A   1      42.431  21.207  26.687  1.00  0.00     0.054 A 
BRANCH  76  77
ATOM     77  S   UNL A   1      41.872  19.512  26.360  1.00  0.00     0.124 S 
ATOM     78  O   UNL A   1      42.367  18.797  27.532  1.00  0.00    -0.237 OA
ATOM     79  O   UNL A   1      40.422  19.667  26.279  1.00  0.00    -0.237 OA
ATOM     80  O   UNL A   1      42.526  19.175  25.097  1.00  0.00    -0.744 OA
ENDBRANCH  76  77
ENDBRANCH  48  71
BRANCH  60  81
ATOM     81  C   UNL A   1      49.461  26.999  26.044  1.00  0.00    -0.014 A 
ATOM     82  C   UNL A   1      49.765  27.232  24.691  1.00  0.00     0.010 A 
ATOM     83  C   UNL A   1      50.415  26.371  26.864  1.00  0.00     0.010 A 
ATOM     84  C   UNL A   1      50.991  26.818  24.162  1.00  0.00     0.020 A 
ATOM     85  C   UNL A   1      51.653  25.979  26.344  1.00  0.00     0.020 A 
ATOM     86  C   UNL A   1      51.928  26.195  24.992  1.00  0.00     0.054 A 
BRANCH  86  87
ATOM     87  S   UNL A   1      53.530  25.711  24.292  1.00  0.00     0.124 S 
ATOM     88  O   UNL A   1      53.630  24.312  24.700  1.00  0.00    -0.237 OA
ATOM     89  O   UNL A   1      53.337  25.937  22.861  1.00  0.00    -0.237 OA
ATOM     90  O   UNL A   1      54.478  26.617  24.937  1.00  0.00    -0.744 OA
ENDBRANCH  86  87
ENDBRANCH  60  81
ENDBRANCH  34  35
ENDBRANCH  27  29
ENDBRANCH  26  27
ENDBRANCH  25  26
ENDBRANCH  24  25
ENDBRANCH   1  24
TORSDOF 20
ENDMDL
MODEL 2
REMARK VINA RESULT:     -10.0      2.184      3.560
REMARK SMILES Cc1cnc(N2CCO[C@H](CC(=O)OCCOCCOC(=O)c3ccc(-c4c5nc(c(-c6ccc(S(=O)(=O)[O-])cc6)c6ccc([nH]6)c(-c6ccc(S(=O)(=O)[O-])cc6)c6nc(c(-c7ccc(S(=O)(=O)[O-])cc7)c7ccc4[nH]7)C=C6)C=C5)cc3)C2)c([N+](=O)[O-])c1
REMARK SMILES IDX 17 1 16 2 15 3 14 4 12 5 13 6 11 7 10 8 6 9 7 10 83 11 8 12
REMARK SMILES IDX 9 13 5 14 1 15 2 16 3 17 88 18 4 19 84 20 85 21 86 22 87 23
REMARK SMILES IDX 18 24 19 25 20 26 21 27 22 28 23 29 24 30 82 31 25 32 81 33
REMARK SMILES IDX 26 34 27 35 28 36 75 37 29 38 80 39 74 40 76 41 30 42 79 43
REMARK SMILES IDX 73 44 72 45 31 47 61 48 42 49 60 50 43 51 46 52 59 53 77 54
REMARK SMILES IDX 44 55 45 56 58 58 78 59 47 60 32 61 33 62 41 63 34 64 40 65
REMARK SMILES IDX 35 66 36 67 37 68 38 69 39 70 62 71 63 72 71 73 64 74 70 75
REMARK SMILES IDX 65 76 66 77 67 78 68 79 69 80 48 81 49 82 57 83 50 84 56 85
REMARK SMILES IDX 51 86 52 87 53 88 54 89 55 90
REMARK H PARENT 76 46 46 57
REMARK Flexibility Score: inf
ROOT
ATOM      1  O   UNL A   1      33.646  31.677  28.046  1.00  0.00    -0.374 OA
ENDROOT
BRANCH   1   2
ATOM      2  C   UNL A   1      33.682  30.609  27.103  1.00  0.00     0.202 C 
BRANCH   2   3
ATOM      3  C   UNL A   1      33.801  29.181  27.641  1.00  0.00     0.261 C 
BRANCH   3   4
ATOM      4  O   UNL A   1      33.492  28.173  26.667  1.00  0.00    -0.463 OA
BRANCH   4   5
ATOM      5  C   UNL A   1      32.335  27.504  26.898  1.00  0.00     0.308 C 
ATOM      6  O   UNL A   1      31.670  27.575  27.926  1.00  0.00    -0.252 OA
BRANCH   5   7
ATOM      7  C   UNL A   1      31.956  26.594  25.768  1.00  0.00     0.156 C 
BRANCH   7   8
ATOM      8  C   UNL A   1      30.620  25.843  25.916  1.00  0.00     0.148 C 
ATOM      9  N   UNL A   1      31.417  23.935  24.671  1.00  0.00    -0.346 N 
ATOM     10  C   UNL A   1      30.539  24.196  23.533  1.00  0.00     0.147 C 
ATOM     11  C   UNL A   1      30.854  24.313  25.965  1.00  0.00     0.151 C 
ATOM     12  C   UNL A   1      30.116  25.680  23.549  1.00  0.00     0.182 C 
ATOM     13  O   UNL A   1      29.693  26.151  24.845  1.00  0.00    -0.374 OA
BRANCH   9  14
ATOM     14  C   UNL A   1      32.530  23.141  24.621  1.00  0.00     0.208 A 
ATOM     15  C   UNL A   1      36.083  20.770  25.046  1.00  0.00     0.046 C 
ATOM     16  C   UNL A   1      34.861  21.609  24.862  1.00  0.00    -0.026 A 
ATOM     17  C   UNL A   1      33.690  21.346  25.564  1.00  0.00     0.117 A 
ATOM     18  C   UNL A   1      34.840  22.686  23.985  1.00  0.00     0.094 A 
ATOM     19  N   UNL A   1      32.558  22.088  25.473  1.00  0.00    -0.233 NA
ATOM     20  C   UNL A   1      33.664  23.438  23.864  1.00  0.00     0.311 A 
BRANCH  20  21
ATOM     21  N   UNL A   1      33.725  24.621  23.043  1.00  0.00     0.066 N 
ATOM     22  O   UNL A   1      33.461  24.503  21.840  1.00  0.00    -0.258 OA
ATOM     23  O   UNL A   1      34.112  25.663  23.591  1.00  0.00    -0.258 OA
ENDBRANCH  20  21
ENDBRANCH   9  14
ENDBRANCH   7   8
ENDBRANCH   5   7
ENDBRANCH   4   5
ENDBRANCH   3   4
ENDBRANCH   2   3
ENDBRANCH   1   2
BRANCH   1  24
ATOM     24  C   UNL A   1      34.766  32.557  28.099  1.00  0.00     0.202 C 
BRANCH  24  25
ATOM     25  C   UNL A   1      35.283  32.965  29.485  1.00  0.00     0.261 C 
BRANCH  25  26
ATOM     26  O   UNL A   1      36.645  32.557  29.713  1.00  0.00    -0.460 OA
BRANCH  26  27
ATOM     27  C   UNL A   1      36.779  31.401  30.414  1.00  0.00     0.338 C 
ATOM     28  O   UNL A   1      35.971  30.912  31.185  1.00  0.00    -0.246 OA
BRANCH  27  29
ATOM     29  C   UNL A   1      37.987  30.676  29.976  1.00  0.00     0.060 A 
ATOM     30  C   UNL A   1      38.987  30.449  30.932  1.00  0.00     0.016 A 
ATOM     31  C   UNL A   1      38.180  30.302  28.646  1.00  0.00     0.016 A 
ATOM     32  C   UNL A   1      40.199  29.875  30.553  1.00  0.00     0.010 A 
ATOM     33  C   UNL A   1      39.405  29.738  28.264  1.00  0.00     0.010 A 
ATOM     34  C   UNL A   1      40.429  29.547  29.210  1.00  0.00    -0.014 A 
BRANCH  34  35
ATOM     35  C   UNL A   1      41.781  29.104  28.787  1.00  0.00     0.031 A 
ATOM     36  C   UNL A   1      42.910  30.098  28.764  1.00  0.00     0.074 A 
ATOM     37  C   UNL A   1      42.006  27.819  28.459  1.00  0.00     0.049 A 
ATOM     38  N   UNL A   1      44.160  29.920  28.420  1.00  0.00    -0.248 NA
ATOM     39  C   UNL A   1      42.591  31.470  29.188  1.00  0.00     0.031 C 
ATOM     40  C   UNL A   1      41.007  26.752  28.485  1.00  0.00     0.029 A 
ATOM     41  N   UNL A   1      43.153  27.196  28.037  1.00  0.00    -0.354 N 
ATOM     42  C   UNL A   1      44.776  31.155  28.583  1.00  0.00     0.074 A 
ATOM     43  C   UNL A   1      43.758  32.079  29.032  1.00  0.00     0.031 C 
ATOM     44  C   UNL A   1      41.584  25.605  28.089  1.00  0.00     0.029 A 
ATOM     45  C   UNL A   1      42.983  25.863  27.750  1.00  0.00     0.049 A 
ATOM     46  H   UNL A   1      44.018  27.659  27.947  1.00  0.00     0.167 HD
ATOM     47  C   UNL A   1      46.073  31.489  28.380  1.00  0.00     0.031 A 
ATOM     48  C   UNL A   1      43.847  24.958  27.249  1.00  0.00     0.031 A 
ATOM     49  C   UNL A   1      47.082  30.573  27.915  1.00  0.00     0.049 A 
ATOM     50  C   UNL A   1      45.261  25.375  26.945  1.00  0.00     0.074 A 
ATOM     51  C   UNL A   1      48.428  30.813  27.699  1.00  0.00     0.029 A 
ATOM     52  N   UNL A   1      46.855  29.247  27.580  1.00  0.00    -0.354 N 
ATOM     53  N   UNL A   1      45.835  26.539  27.133  1.00  0.00    -0.248 NA
ATOM     54  C   UNL A   1      46.143  24.355  26.358  1.00  0.00     0.031 C 
ATOM     55  C   UNL A   1      49.002  29.648  27.177  1.00  0.00     0.029 A 
ATOM     56  C   UNL A   1      48.027  28.667  27.123  1.00  0.00     0.049 A 
ATOM     57  H   UNL A   1      45.989  28.786  27.656  1.00  0.00     0.167 HD
ATOM     58  C   UNL A   1      47.150  26.388  26.702  1.00  0.00     0.074 A 
ATOM     59  C   UNL A   1      47.290  25.014  26.262  1.00  0.00     0.031 C 
ATOM     60  C   UNL A   1      48.149  27.303  26.673  1.00  0.00     0.031 A 
BRANCH  47  61
ATOM     61  C   UNL A   1      46.470  32.920  28.627  1.00  0.00    -0.014 A 
ATOM     62  C   UNL A   1      47.017  33.322  29.859  1.00  0.00     0.010 A 
ATOM     63  C   UNL A   1      46.329  33.869  27.597  1.00  0.00     0.010 A 
ATOM     64  C   UNL A   1      47.383  34.655  30.067  1.00  0.00     0.020 A 
ATOM     65  C   UNL A   1      46.716  35.197  27.795  1.00  0.00     0.020 A 
ATOM     66  C   UNL A   1      47.226  35.586  29.035  1.00  0.00     0.054 A 
BRANCH  66  67
ATOM     67  S   UNL A   1      47.725  37.305  29.327  1.00  0.00     0.124 S 
ATOM     68  O   UNL A   1      48.057  37.754  27.977  1.00  0.00    -0.237 OA
ATOM     69  O   UNL A   1      46.522  37.895  29.908  1.00  0.00    -0.237 OA
ATOM     70  O   UNL A   1      48.860  37.185  30.240  1.00  0.00    -0.744 OA
ENDBRANCH  66  67
ENDBRANCH  47  61
BRANCH  48  71
ATOM     71  C   UNL A   1      43.388  23.569  26.972  1.00  0.00    -0.014 A 
ATOM     72  C   UNL A   1      43.269  23.101  25.653  1.00  0.00     0.010 A 
ATOM     73  C   UNL A   1      43.070  22.706  28.036  1.00  0.00     0.010 A 
ATOM     74  C   UNL A   1      42.830  21.797  25.402  1.00  0.00     0.020 A 
ATOM     75  C   UNL A   1      42.655  21.394  27.791  1.00  0.00     0.020 A 
ATOM     76  C   UNL A   1      42.530  20.951  26.473  1.00  0.00     0.054 A 
BRANCH  76  77
ATOM     77  S   UNL A   1      42.016  19.246  26.126  1.00  0.00     0.124 S 
ATOM     78  O   UNL A   1      42.408  18.554  27.350  1.00  0.00    -0.237 OA
ATOM     79  O   UNL A   1      40.578  19.387  25.911  1.00  0.00    -0.237 OA
ATOM     80  O   UNL A   1      42.784  18.894  24.933  1.00  0.00    -0.744 OA
ENDBRANCH  76  77
ENDBRANCH  48  71
BRANCH  60  81
ATOM     81  C   UNL A   1      49.490  26.851  26.154  1.00  0.00    -0.014 A 
ATOM     82  C   UNL A   1      49.914  27.188  24.856  1.00  0.00     0.010 A 
ATOM     83  C   UNL A   1      50.358  26.131  26.994  1.00  0.00     0.010 A 
ATOM     84  C   UNL A   1      51.173  26.787  24.399  1.00  0.00     0.020 A 
ATOM     85  C   UNL A   1      51.627  25.752  26.549  1.00  0.00     0.020 A 
ATOM     86  C   UNL A   1      52.022  26.072  25.249  1.00  0.00     0.054 A 
BRANCH  86  87
ATOM     87  S   UNL A   1      53.669  25.605  24.647  1.00  0.00     0.124 S 
ATOM     88  O   UNL A   1      53.721  24.183  24.976  1.00  0.00    -0.237 OA
ATOM     89  O   UNL A   1      53.592  25.919  23.222  1.00  0.00    -0.237 OA
ATOM     90  O   UNL A   1      54.573  26.456  25.418  1.00  0.00    -0.744 OA
ENDBRANCH  86  87
ENDBRANCH  60  81
ENDBRANCH  34  35
ENDBRANCH  27  29
ENDBRANCH  26  27
ENDBRANCH  25  26
ENDBRANCH  24  25
ENDBRANCH   1  24
TORSDOF 20
ENDMDL
MODEL 3
REMARK VINA RESULT:      -9.9      5.194      7.421
REMARK SMILES Cc1cnc(N2CCO[C@H](CC(=O)OCCOCCOC(=O)c3ccc(-c4c5nc(c(-c6ccc(S(=O)(=O)[O-])cc6)c6ccc([nH]6)c(-c6ccc(S(=O)(=O)[O-])cc6)c6nc(c(-c7ccc(S(=O)(=O)[O-])cc7)c7ccc4[nH]7)C=C6)C=C5)cc3)C2)c([N+](=O)[O-])c1
REMARK SMILES IDX 17 1 16 2 15 3 14 4 12 5 13 6 11 7 10 8 6 9 7 10 83 11 8 12
REMARK SMILES IDX 9 13 5 14 1 15 2 16 3 17 88 18 4 19 84 20 85 21 86 22 87 23
REMARK SMILES IDX 18 24 19 25 20 26 21 27 22 28 23 29 24 30 82 31 25 32 81 33
REMARK SMILES IDX 26 34 27 35 28 36 75 37 29 38 80 39 74 40 76 41 30 42 79 43
REMARK SMILES IDX 73 44 72 45 31 47 61 48 42 49 60 50 43 51 46 52 59 53 77 54
REMARK SMILES IDX 44 55 45 56 58 58 78 59 47 60 32 61 33 62 41 63 34 64 40 65
REMARK SMILES IDX 35 66 36 67 37 68 38 69 39 70 62 71 63 72 71 73 64 74 70 75
REMARK SMILES IDX 65 76 66 77 67 78 68 79 69 80 48 81 49 82 57 83 50 84 56 85
REMARK SMILES IDX 51 86 52 87 53 88 54 89 55 90
REMARK H PARENT 76 46 46 57
REMARK Flexibility Score: inf
ROOT
ATOM      1  O   UNL A   1      31.621  29.757  24.580  1.00  0.00    -0.374 OA
ENDROOT
BRANCH   1   2
ATOM      2  C   UNL A   1      30.448  29.292  23.917  1.00  0.00     0.202 C 
BRANCH   2   3
ATOM      3  C   UNL A   1      30.594  28.122  22.940  1.00  0.00     0.261 C 
BRANCH   3   4
ATOM      4  O   UNL A   1      31.911  27.552  22.920  1.00  0.00    -0.463 OA
BRANCH   4   5
ATOM      5  C   UNL A   1      31.954  26.252  22.535  1.00  0.00     0.308 C 
ATOM      6  O   UNL A   1      31.971  25.859  21.374  1.00  0.00    -0.252 OA
BRANCH   5   7
ATOM      7  C   UNL A   1      31.925  25.303  23.696  1.00  0.00     0.156 C 
BRANCH   7   8
ATOM      8  C   UNL A   1      31.949  25.940  25.098  1.00  0.00     0.148 C 
ATOM      9  N   UNL A   1      32.872  23.955  26.115  1.00  0.00    -0.346 N 
ATOM     10  C   UNL A   1      31.646  23.652  26.850  1.00  0.00     0.147 C 
ATOM     11  C   UNL A   1      33.128  25.382  25.933  1.00  0.00     0.151 C 
ATOM     12  C   UNL A   1      30.455  24.353  26.162  1.00  0.00     0.182 C 
ATOM     13  O   UNL A   1      30.710  25.731  25.820  1.00  0.00    -0.374 OA
BRANCH   9  14
ATOM     14  C   UNL A   1      33.867  23.050  25.869  1.00  0.00     0.208 A 
ATOM     15  C   UNL A   1      37.261  20.651  24.795  1.00  0.00     0.046 C 
ATOM     16  C   UNL A   1      36.056  21.453  25.162  1.00  0.00    -0.026 A 
ATOM     17  C   UNL A   1      36.160  22.605  25.932  1.00  0.00     0.117 A 
ATOM     18  C   UNL A   1      34.782  21.086  24.748  1.00  0.00     0.094 A 
ATOM     19  N   UNL A   1      35.113  23.400  26.270  1.00  0.00    -0.233 NA
ATOM     20  C   UNL A   1      33.693  21.886  25.118  1.00  0.00     0.311 A 
BRANCH  20  21
ATOM     21  N   UNL A   1      32.408  21.543  24.561  1.00  0.00     0.066 N 
ATOM     22  O   UNL A   1      32.083  22.071  23.490  1.00  0.00    -0.258 OA
ATOM     23  O   UNL A   1      31.686  20.797  25.238  1.00  0.00    -0.258 OA
ENDBRANCH  20  21
ENDBRANCH   9  14
ENDBRANCH   7   8
ENDBRANCH   5   7
ENDBRANCH   4   5
ENDBRANCH   3   4
ENDBRANCH   2   3
ENDBRANCH   1   2
BRANCH   1  24
ATOM     24  C   UNL A   1      31.743  29.500  25.977  1.00  0.00     0.202 C 
BRANCH  24  25
ATOM     25  C   UNL A   1      32.326  30.613  26.856  1.00  0.00     0.261 C 
BRANCH  25  26
ATOM     26  O   UNL A   1      33.766  30.609  26.878  1.00  0.00    -0.460 OA
BRANCH  26  27
ATOM     27  C   UNL A   1      34.320  31.468  27.772  1.00  0.00     0.338 C 
ATOM     28  O   UNL A   1      33.782  32.424  28.304  1.00  0.00    -0.246 OA
BRANCH  27  29
ATOM     29  C   UNL A   1      35.650  30.981  28.190  1.00  0.00     0.060 A 
ATOM     30  C   UNL A   1      35.734  29.674  28.687  1.00  0.00     0.016 A 
ATOM     31  C   UNL A   1      36.774  31.808  28.178  1.00  0.00     0.016 A 
ATOM     32  C   UNL A   1      36.937  29.198  29.206  1.00  0.00     0.010 A 
ATOM     33  C   UNL A   1      37.978  31.333  28.713  1.00  0.00     0.010 A 
ATOM     34  C   UNL A   1      38.058  30.036  29.253  1.00  0.00    -0.014 A 
BRANCH  34  35
ATOM     35  C   UNL A   1      39.279  29.584  29.967  1.00  0.00     0.031 A 
ATOM     36  C   UNL A   1      39.692  30.278  31.236  1.00  0.00     0.074 A 
ATOM     37  C   UNL A   1      39.993  28.542  29.504  1.00  0.00     0.049 A 
ATOM     38  N   UNL A   1      40.725  30.046  32.005  1.00  0.00    -0.248 NA
ATOM     39  C   UNL A   1      38.827  31.373  31.702  1.00  0.00     0.031 C 
ATOM     40  C   UNL A   1      39.670  27.759  28.312  1.00  0.00     0.029 A 
ATOM     41  N   UNL A   1      41.140  27.965  29.986  1.00  0.00    -0.354 N 
ATOM     42  C   UNL A   1      40.637  30.966  33.044  1.00  0.00     0.074 A 
ATOM     43  C   UNL A   1      39.465  31.776  32.792  1.00  0.00     0.031 C 
ATOM     44  C   UNL A   1      40.604  26.805  28.152  1.00  0.00     0.029 A 
ATOM     45  C   UNL A   1      41.607  26.932  29.208  1.00  0.00     0.049 A 
ATOM     46  H   UNL A   1      41.590  28.262  30.811  1.00  0.00     0.167 HD
ATOM     47  C   UNL A   1      41.456  31.119  34.112  1.00  0.00     0.031 A 
ATOM     48  C   UNL A   1      42.725  26.188  29.320  1.00  0.00     0.031 A 
ATOM     49  C   UNL A   1      42.632  30.325  34.352  1.00  0.00     0.049 A 
ATOM     50  C   UNL A   1      43.669  26.439  30.466  1.00  0.00     0.074 A 
ATOM     51  C   UNL A   1      43.513  30.393  35.417  1.00  0.00     0.029 A 
ATOM     52  N   UNL A   1      43.102  29.329  33.509  1.00  0.00    -0.354 N 
ATOM     53  N   UNL A   1      43.555  27.292  31.455  1.00  0.00    -0.248 NA
ATOM     54  C   UNL A   1      44.893  25.626  30.508  1.00  0.00     0.031 C 
ATOM     55  C   UNL A   1      44.548  29.479  35.188  1.00  0.00     0.029 A 
ATOM     56  C   UNL A   1      44.280  28.802  34.011  1.00  0.00     0.049 A 
ATOM     57  H   UNL A   1      42.661  29.040  32.678  1.00  0.00     0.167 HD
ATOM     58  C   UNL A   1      44.685  27.109  32.246  1.00  0.00     0.074 A 
ATOM     59  C   UNL A   1      45.460  26.051  31.630  1.00  0.00     0.031 C 
ATOM     60  C   UNL A   1      45.049  27.759  33.379  1.00  0.00     0.031 A 
BRANCH  47  61
ATOM     61  C   UNL A   1      41.125  32.217  35.089  1.00  0.00    -0.014 A 
ATOM     62  C   UNL A   1      41.648  33.514  34.931  1.00  0.00     0.010 A 
ATOM     63  C   UNL A   1      40.248  31.957  36.157  1.00  0.00     0.010 A 
ATOM     64  C   UNL A   1      41.326  34.520  35.846  1.00  0.00     0.020 A 
ATOM     65  C   UNL A   1      39.906  32.967  37.060  1.00  0.00     0.020 A 
ATOM     66  C   UNL A   1      40.461  34.239  36.908  1.00  0.00     0.054 A 
BRANCH  66  67
ATOM     67  S   UNL A   1      40.046  35.569  38.070  1.00  0.00     0.124 S 
ATOM     68  O   UNL A   1      41.287  35.700  38.831  1.00  0.00    -0.237 OA
ATOM     69  O   UNL A   1      39.734  36.685  37.182  1.00  0.00    -0.237 OA
ATOM     70  O   UNL A   1      38.911  35.034  38.818  1.00  0.00    -0.744 OA
ENDBRANCH  66  67
ENDBRANCH  47  61
BRANCH  48  71
ATOM     71  C   UNL A   1      43.031  25.152  28.296  1.00  0.00    -0.014 A 
ATOM     72  C   UNL A   1      43.751  25.481  27.135  1.00  0.00     0.010 A 
ATOM     73  C   UNL A   1      42.604  23.826  28.484  1.00  0.00     0.010 A 
ATOM     74  C   UNL A   1      44.028  24.503  26.174  1.00  0.00     0.020 A 
ATOM     75  C   UNL A   1      42.901  22.840  27.539  1.00  0.00     0.020 A 
ATOM     76  C   UNL A   1      43.604  23.188  26.385  1.00  0.00     0.054 A 
BRANCH  76  77
ATOM     77  S   UNL A   1      44.024  21.923  25.153  1.00  0.00     0.124 S 
ATOM     78  O   UNL A   1      45.411  21.620  25.487  1.00  0.00    -0.237 OA
ATOM     79  O   UNL A   1      43.057  20.868  25.442  1.00  0.00    -0.237 OA
ATOM     80  O   UNL A   1      43.821  22.609  23.878  1.00  0.00    -0.744 OA
ENDBRANCH  76  77
ENDBRANCH  48  71
BRANCH  60  81
ATOM     81  C   UNL A   1      46.339  27.341  34.036  1.00  0.00    -0.014 A 
ATOM     82  C   UNL A   1      46.369  26.292  34.972  1.00  0.00     0.010 A 
ATOM     83  C   UNL A   1      47.544  27.967  33.669  1.00  0.00     0.010 A 
ATOM     84  C   UNL A   1      47.578  25.896  35.550  1.00  0.00     0.020 A 
ATOM     85  C   UNL A   1      48.758  27.557  34.226  1.00  0.00     0.020 A 
ATOM     86  C   UNL A   1      48.766  26.531  35.173  1.00  0.00     0.054 A 
BRANCH  86  87
ATOM     87  S   UNL A   1      50.327  25.966  35.904  1.00  0.00     0.124 S 
ATOM     88  O   UNL A   1      51.027  27.226  36.138  1.00  0.00    -0.237 OA
ATOM     89  O   UNL A   1      49.885  25.260  37.104  1.00  0.00    -0.237 OA
ATOM     90  O   UNL A   1      50.907  25.115  34.867  1.00  0.00    -0.744 OA
ENDBRANCH  86  87
ENDBRANCH  60  81
ENDBRANCH  34  35
ENDBRANCH  27  29
ENDBRANCH  26  27
ENDBRANCH  25  26
ENDBRANCH  24  25
ENDBRANCH   1  24
TORSDOF 20
ENDMDL
