MODEL 1
REMARK VINA RESULT:     -11.9      0.000      0.000
REMARK SMILES O=C1C[C@H](c2cn[nH]c2C(=O)OCCOCCOC(=O)c2ccc(-c3c4nc(c(-c5ccc(S(=O)(=O)[O-])cc5)c5ccc([nH]5)c(-c5ccc(S(=O)(=O)[O-])cc5)c5nc(c(-c6ccc(S(=O)(=O)[O-])cc6)c6ccc3[nH]6)C=C5)C=C4)cc2)c2c(-c3cccs3)n[nH]c2N1
REMARK SMILES IDX 16 1 15 2 14 3 13 4 12 5 10 6 11 7 9 8 5 9 6 10 7 11 8 12
REMARK SMILES IDX 4 14 1 15 2 16 3 17 91 18 90 19 81 21 89 22 82 23 88 24
REMARK SMILES IDX 83 26 84 27 87 28 85 29 86 30 17 31 18 32 19 33 20 34 21 35
REMARK SMILES IDX 22 36 80 37 23 38 79 39 24 40 25 41 26 42 73 43 27 44 78 45
REMARK SMILES IDX 72 46 74 47 28 48 77 49 71 50 70 51 29 53 59 54 40 55 58 56
REMARK SMILES IDX 41 57 44 58 57 59 75 60 42 61 43 62 56 64 76 65 45 66 30 67
REMARK SMILES IDX 31 68 39 69 32 70 38 71 33 72 34 73 35 74 36 75 37 76 60 77
REMARK SMILES IDX 61 78 69 79 62 80 68 81 63 82 64 83 65 84 66 85 67 86 46 87
REMARK SMILES IDX 47 88 55 89 48 90 54 91 49 92 50 93 51 94 52 95 53 96
REMARK H PARENT 8 13 91 20 89 25 74 52 44 63
REMARK Flexibility Score: inf
ROOT
ATOM      1  C   UNL A   1      36.880  21.657  25.702  1.00  0.00     0.202 C 
ENDROOT
BRANCH   1   2
ATOM      2  O   UNL A   1      35.500  21.974  25.553  1.00  0.00    -0.374 OA
BRANCH   2   3
ATOM      3  C   UNL A   1      34.653  21.939  26.706  1.00  0.00     0.202 C 
BRANCH   3   4
ATOM      4  C   UNL A   1      33.170  22.158  26.441  1.00  0.00     0.261 C 
BRANCH   4   5
ATOM      5  O   UNL A   1      32.727  23.428  26.966  1.00  0.00    -0.459 OA
BRANCH   5   6
ATOM      6  C   UNL A   1      31.392  23.649  26.895  1.00  0.00     0.356 C 
ATOM      7  O   UNL A   1      30.555  23.077  27.582  1.00  0.00    -0.244 OA
BRANCH   6   8
ATOM      8  C   UNL A   1      31.059  24.771  26.055  1.00  0.00     0.147 A 
ATOM      9  C   UNL A   1      31.677  25.621  25.132  1.00  0.00     0.013 A 
ATOM     10  C   UNL A   1      30.587  26.419  24.660  1.00  0.00     0.140 A 
ATOM     11  N   UNL A   1      29.429  26.151  25.251  1.00  0.00    -0.183 NA
ATOM     12  N   UNL A   1      29.740  25.159  26.081  1.00  0.00    -0.271 N 
ATOM     13  H   UNL A   1      29.076  24.733  26.671  1.00  0.00     0.190 HD
BRANCH   9  14
ATOM     14  C   UNL A   1      33.065  25.743  24.517  1.00  0.00     0.069 C 
ATOM     15  O   UNL A   1      33.165  23.499  21.564  1.00  0.00    -0.275 OA
ATOM     16  C   UNL A   1      33.308  24.529  22.220  1.00  0.00     0.226 C 
ATOM     17  C   UNL A   1      33.476  24.474  23.730  1.00  0.00     0.114 C 
ATOM     18  N   UNL A   1      33.440  25.745  21.594  1.00  0.00    -0.311 N 
ATOM     19  C   UNL A   1      33.449  26.886  22.336  1.00  0.00     0.132 A 
ATOM     20  H   UNL A   1      33.527  25.790  20.614  1.00  0.00     0.171 HD
ATOM     21  C   UNL A   1      33.321  26.949  23.693  1.00  0.00     0.031 A 
ATOM     22  N   UNL A   1      33.522  28.164  21.877  1.00  0.00    -0.262 N 
ATOM     23  C   UNL A   1      33.440  28.324  23.991  1.00  0.00     0.108 A 
ATOM     24  N   UNL A   1      33.477  29.073  22.876  1.00  0.00    -0.173 NA
ATOM     25  H   UNL A   1      33.600  28.400  20.924  1.00  0.00     0.192 HD
BRANCH  23  26
ATOM     26  C   UNL A   1      33.361  28.899  25.363  1.00  0.00     0.055 A 
ATOM     27  C   UNL A   1      34.291  28.656  26.349  1.00  0.00     0.022 A 
ATOM     28  S   UNL A   1      32.177  30.023  25.854  1.00  0.00    -0.142 S 
ATOM     29  C   UNL A   1      34.096  29.508  27.475  1.00  0.00     0.012 A 
ATOM     30  C   UNL A   1      32.948  30.261  27.360  1.00  0.00     0.065 A 
ENDBRANCH  23  26
ENDBRANCH   9  14
ENDBRANCH   6   8
ENDBRANCH   5   6
ENDBRANCH   4   5
ENDBRANCH   3   4
ENDBRANCH   2   3
ENDBRANCH   1   2
BRANCH   1  31
ATOM     31  C   UNL A   1      37.875  22.744  25.349  1.00  0.00     0.261 C 
BRANCH  31  32
ATOM     32  O   UNL A   1      38.460  23.290  26.511  1.00  0.00    -0.460 OA
BRANCH  32  33
ATOM     33  C   UNL A   1      39.715  22.857  26.784  1.00  0.00     0.338 C 
ATOM     34  O   UNL A   1      40.102  21.721  26.928  1.00  0.00    -0.246 OA
BRANCH  33  35
ATOM     35  C   UNL A   1      40.505  24.070  27.004  1.00  0.00     0.060 A 
ATOM     36  C   UNL A   1      41.490  24.085  27.990  1.00  0.00     0.016 A 
ATOM     37  C   UNL A   1      40.062  25.243  26.381  1.00  0.00     0.016 A 
ATOM     38  C   UNL A   1      41.839  25.312  28.517  1.00  0.00     0.010 A 
ATOM     39  C   UNL A   1      40.508  26.449  26.810  1.00  0.00     0.010 A 
ATOM     40  C   UNL A   1      41.232  26.453  27.982  1.00  0.00    -0.014 A 
BRANCH  40  41
ATOM     41  C   UNL A   1      41.246  27.718  28.666  1.00  0.00     0.031 A 
ATOM     42  C   UNL A   1      42.392  28.546  28.265  1.00  0.00     0.074 A 
ATOM     43  C   UNL A   1      40.174  28.135  29.371  1.00  0.00     0.049 A 
ATOM     44  N   UNL A   1      43.509  28.658  28.896  1.00  0.00    -0.248 NA
ATOM     45  C   UNL A   1      42.423  29.063  26.886  1.00  0.00     0.031 C 
ATOM     46  C   UNL A   1      38.840  27.528  29.504  1.00  0.00     0.029 A 
ATOM     47  N   UNL A   1      40.030  29.289  30.054  1.00  0.00    -0.354 N 
ATOM     48  C   UNL A   1      44.272  29.512  28.118  1.00  0.00     0.074 A 
ATOM     49  C   UNL A   1      43.689  29.474  26.802  1.00  0.00     0.031 C 
ATOM     50  C   UNL A   1      37.977  28.442  30.012  1.00  0.00     0.029 A 
ATOM     51  C   UNL A   1      38.725  29.628  30.390  1.00  0.00     0.049 A 
ATOM     52  H   UNL A   1      40.797  29.854  30.298  1.00  0.00     0.167 HD
ATOM     53  C   UNL A   1      45.103  30.424  28.693  1.00  0.00     0.031 A 
ATOM     54  C   UNL A   1      38.326  30.828  30.889  1.00  0.00     0.031 A 
ATOM     55  C   UNL A   1      45.224  30.189  30.113  1.00  0.00     0.049 A 
ATOM     56  C   UNL A   1      39.555  31.493  31.413  1.00  0.00     0.074 A 
ATOM     57  C   UNL A   1      45.684  29.139  30.881  1.00  0.00     0.029 A 
ATOM     58  N   UNL A   1      44.405  30.937  30.932  1.00  0.00    -0.354 N 
ATOM     59  N   UNL A   1      40.251  31.014  32.412  1.00  0.00    -0.248 NA
ATOM     60  C   UNL A   1      40.298  32.353  30.501  1.00  0.00     0.031 C 
ATOM     61  C   UNL A   1      44.762  29.046  31.964  1.00  0.00     0.029 A 
ATOM     62  C   UNL A   1      43.846  30.097  31.863  1.00  0.00     0.049 A 
ATOM     63  H   UNL A   1      44.247  31.907  30.862  1.00  0.00     0.167 HD
ATOM     64  C   UNL A   1      41.582  31.159  32.034  1.00  0.00     0.074 A 
ATOM     65  C   UNL A   1      41.548  32.057  30.877  1.00  0.00     0.031 C 
ATOM     66  C   UNL A   1      42.549  30.301  32.484  1.00  0.00     0.031 A 
BRANCH  53  67
ATOM     67  C   UNL A   1      45.441  31.754  28.076  1.00  0.00    -0.014 A 
ATOM     68  C   UNL A   1      46.799  32.084  27.915  1.00  0.00     0.010 A 
ATOM     69  C   UNL A   1      44.500  32.787  27.881  1.00  0.00     0.010 A 
ATOM     70  C   UNL A   1      47.197  33.397  27.647  1.00  0.00     0.020 A 
ATOM     71  C   UNL A   1      44.884  34.091  27.572  1.00  0.00     0.020 A 
ATOM     72  C   UNL A   1      46.235  34.396  27.492  1.00  0.00     0.054 A 
BRANCH  72  73
ATOM     73  S   UNL A   1      46.764  36.105  27.253  1.00  0.00     0.124 S 
ATOM     74  O   UNL A   1      48.131  36.069  27.765  1.00  0.00    -0.237 OA
ATOM     75  O   UNL A   1      46.630  36.268  25.809  1.00  0.00    -0.237 OA
ATOM     76  O   UNL A   1      45.813  36.873  28.054  1.00  0.00    -0.744 OA
ENDBRANCH  72  73
ENDBRANCH  53  67
BRANCH  54  77
ATOM     77  C   UNL A   1      37.067  31.565  30.584  1.00  0.00    -0.014 A 
ATOM     78  C   UNL A   1      36.371  32.287  31.573  1.00  0.00     0.010 A 
ATOM     79  C   UNL A   1      36.694  31.784  29.241  1.00  0.00     0.010 A 
ATOM     80  C   UNL A   1      35.371  33.220  31.227  1.00  0.00     0.020 A 
ATOM     81  C   UNL A   1      35.701  32.711  28.889  1.00  0.00     0.020 A 
ATOM     82  C   UNL A   1      35.055  33.440  29.883  1.00  0.00     0.054 A 
BRANCH  82  83
ATOM     83  S   UNL A   1      33.878  34.754  29.435  1.00  0.00     0.124 S 
ATOM     84  O   UNL A   1      34.622  35.513  28.433  1.00  0.00    -0.237 OA
ATOM     85  O   UNL A   1      32.733  34.001  28.933  1.00  0.00    -0.237 OA
ATOM     86  O   UNL A   1      33.647  35.457  30.697  1.00  0.00    -0.744 OA
ENDBRANCH  82  83
ENDBRANCH  54  77
BRANCH  66  87
ATOM     87  C   UNL A   1      42.199  29.332  33.597  1.00  0.00    -0.014 A 
ATOM     88  C   UNL A   1      41.515  28.112  33.405  1.00  0.00     0.010 A 
ATOM     89  C   UNL A   1      42.768  29.583  34.857  1.00  0.00     0.010 A 
ATOM     90  C   UNL A   1      41.404  27.178  34.451  1.00  0.00     0.020 A 
ATOM     91  C   UNL A   1      42.677  28.653  35.894  1.00  0.00     0.020 A 
ATOM     92  C   UNL A   1      41.990  27.456  35.690  1.00  0.00     0.054 A 
BRANCH  92  93
ATOM     93  S   UNL A   1      41.904  26.229  37.027  1.00  0.00     0.124 S 
ATOM     94  O   UNL A   1      42.925  26.702  37.958  1.00  0.00    -0.237 OA
ATOM     95  O   UNL A   1      40.525  26.348  37.492  1.00  0.00    -0.237 OA
ATOM     96  O   UNL A   1      42.216  24.965  36.359  1.00  0.00    -0.744 OA
ENDBRANCH  92  93
ENDBRANCH  66  87
ENDBRANCH  40  41
ENDBRANCH  33  35
ENDBRANCH  32  33
ENDBRANCH  31  32
ENDBRANCH   1  31
TORSDOF 19
ENDMDL
MODEL 2
REMARK VINA RESULT:     -11.9      3.155      7.918
REMARK SMILES O=C1C[C@H](c2cn[nH]c2C(=O)OCCOCCOC(=O)c2ccc(-c3c4nc(c(-c5ccc(S(=O)(=O)[O-])cc5)c5ccc([nH]5)c(-c5ccc(S(=O)(=O)[O-])cc5)c5nc(c(-c6ccc(S(=O)(=O)[O-])cc6)c6ccc3[nH]6)C=C5)C=C4)cc2)c2c(-c3cccs3)n[nH]c2N1
REMARK SMILES IDX 16 1 15 2 14 3 13 4 12 5 10 6 11 7 9 8 5 9 6 10 7 11 8 12
REMARK SMILES IDX 4 14 1 15 2 16 3 17 91 18 90 19 81 21 89 22 82 23 88 24
REMARK SMILES IDX 83 26 84 27 87 28 85 29 86 30 17 31 18 32 19 33 20 34 21 35
REMARK SMILES IDX 22 36 80 37 23 38 79 39 24 40 25 41 26 42 73 43 27 44 78 45
REMARK SMILES IDX 72 46 74 47 28 48 77 49 71 50 70 51 29 53 59 54 40 55 58 56
REMARK SMILES IDX 41 57 44 58 57 59 75 60 42 61 43 62 56 64 76 65 45 66 30 67
REMARK SMILES IDX 31 68 39 69 32 70 38 71 33 72 34 73 35 74 36 75 37 76 60 77
REMARK SMILES IDX 61 78 69 79 62 80 68 81 63 82 64 83 65 84 66 85 67 86 46 87
REMARK SMILES IDX 47 88 55 89 48 90 54 91 49 92 50 93 51 94 52 95 53 96
REMARK H PARENT 8 13 91 20 89 25 74 52 44 63
REMARK Flexibility Score: inf
ROOT
ATOM      1  C   UNL A   1      31.570  30.272  25.415  1.00  0.00     0.202 C 
ENDROOT
BRANCH   1   2
ATOM      2  O   UNL A   1      31.852  29.122  24.624  1.00  0.00    -0.374 OA
BRANCH   2   3
ATOM      3  C   UNL A   1      33.170  28.953  24.093  1.00  0.00     0.202 C 
BRANCH   3   4
ATOM      4  C   UNL A   1      33.256  28.220  22.761  1.00  0.00     0.261 C 
BRANCH   4   5
ATOM      5  O   UNL A   1      33.800  26.893  22.929  1.00  0.00    -0.459 OA
BRANCH   5   6
ATOM      6  C   UNL A   1      33.403  25.984  22.006  1.00  0.00     0.356 C 
ATOM      7  O   UNL A   1      33.354  26.194  20.800  1.00  0.00    -0.244 OA
BRANCH   6   8
ATOM      8  C   UNL A   1      33.221  24.669  22.564  1.00  0.00     0.147 A 
ATOM      9  C   UNL A   1      33.175  24.049  23.818  1.00  0.00     0.013 A 
ATOM     10  C   UNL A   1      32.834  22.699  23.488  1.00  0.00     0.140 A 
ATOM     11  N   UNL A   1      32.732  22.472  22.185  1.00  0.00    -0.183 NA
ATOM     12  N   UNL A   1      32.968  23.670  21.654  1.00  0.00    -0.271 N 
ATOM     13  H   UNL A   1      32.961  23.829  20.682  1.00  0.00     0.190 HD
BRANCH   9  14
ATOM     14  C   UNL A   1      33.264  24.507  25.268  1.00  0.00     0.069 C 
ATOM     15  O   UNL A   1      29.856  25.535  26.313  1.00  0.00    -0.275 OA
ATOM     16  C   UNL A   1      30.944  24.966  26.371  1.00  0.00     0.226 C 
ATOM     17  C   UNL A   1      32.153  25.522  25.636  1.00  0.00     0.114 C 
ATOM     18  N   UNL A   1      31.125  23.882  27.196  1.00  0.00    -0.311 N 
ATOM     19  C   UNL A   1      32.288  23.178  27.136  1.00  0.00     0.132 A 
ATOM     20  H   UNL A   1      30.415  23.616  27.826  1.00  0.00     0.171 HD
ATOM     21  C   UNL A   1      33.330  23.441  26.296  1.00  0.00     0.031 A 
ATOM     22  N   UNL A   1      32.609  22.060  27.841  1.00  0.00    -0.262 N 
ATOM     23  C   UNL A   1      34.308  22.481  26.642  1.00  0.00     0.108 A 
ATOM     24  N   UNL A   1      33.834  21.586  27.525  1.00  0.00    -0.173 NA
ATOM     25  H   UNL A   1      32.015  21.644  28.508  1.00  0.00     0.192 HD
BRANCH  23  26
ATOM     26  C   UNL A   1      35.640  22.363  25.988  1.00  0.00     0.055 A 
ATOM     27  C   UNL A   1      36.613  23.335  26.053  1.00  0.00     0.022 A 
ATOM     28  S   UNL A   1      36.178  20.963  25.175  1.00  0.00    -0.142 S 
ATOM     29  C   UNL A   1      37.858  22.866  25.540  1.00  0.00     0.012 A 
ATOM     30  C   UNL A   1      37.746  21.612  24.979  1.00  0.00     0.065 A 
ENDBRANCH  23  26
ENDBRANCH   9  14
ENDBRANCH   6   8
ENDBRANCH   5   6
ENDBRANCH   4   5
ENDBRANCH   3   4
ENDBRANCH   2   3
ENDBRANCH   1   2
BRANCH   1  31
ATOM     31  C   UNL A   1      31.997  30.226  26.868  1.00  0.00     0.261 C 
BRANCH  31  32
ATOM     32  O   UNL A   1      33.152  31.008  27.080  1.00  0.00    -0.460 OA
BRANCH  32  33
ATOM     33  C   UNL A   1      32.922  32.271  27.515  1.00  0.00     0.338 C 
ATOM     34  O   UNL A   1      31.986  32.992  27.266  1.00  0.00    -0.246 OA
BRANCH  33  35
ATOM     35  C   UNL A   1      34.125  32.649  28.262  1.00  0.00     0.060 A 
ATOM     36  C   UNL A   1      35.066  33.493  27.676  1.00  0.00     0.016 A 
ATOM     37  C   UNL A   1      34.395  31.940  29.439  1.00  0.00     0.016 A 
ATOM     38  C   UNL A   1      36.362  33.419  28.147  1.00  0.00     0.010 A 
ATOM     39  C   UNL A   1      35.637  31.973  29.981  1.00  0.00     0.010 A 
ATOM     40  C   UNL A   1      36.624  32.556  29.216  1.00  0.00    -0.014 A 
BRANCH  40  41
ATOM     41  C   UNL A   1      37.958  32.138  29.551  1.00  0.00     0.031 A 
ATOM     42  C   UNL A   1      38.186  30.722  29.229  1.00  0.00     0.074 A 
ATOM     43  C   UNL A   1      38.907  33.043  29.869  1.00  0.00     0.049 A 
ATOM     44  N   UNL A   1      38.112  29.733  30.049  1.00  0.00    -0.248 NA
ATOM     45  C   UNL A   1      38.203  30.331  27.809  1.00  0.00     0.031 C 
ATOM     46  C   UNL A   1      38.854  34.513  29.841  1.00  0.00     0.029 A 
ATOM     47  N   UNL A   1      40.195  32.812  30.194  1.00  0.00    -0.354 N 
ATOM     48  C   UNL A   1      38.372  28.612  29.278  1.00  0.00     0.074 A 
ATOM     49  C   UNL A   1      38.120  29.003  27.916  1.00  0.00     0.031 C 
ATOM     50  C   UNL A   1      40.114  35.011  29.899  1.00  0.00     0.029 A 
ATOM     51  C   UNL A   1      41.036  33.915  30.132  1.00  0.00     0.049 A 
ATOM     52  H   UNL A   1      40.518  31.921  30.459  1.00  0.00     0.167 HD
ATOM     53  C   UNL A   1      39.087  27.570  29.783  1.00  0.00     0.031 A 
ATOM     54  C   UNL A   1      42.393  33.878  30.215  1.00  0.00     0.031 A 
ATOM     55  C   UNL A   1      39.283  27.718  31.206  1.00  0.00     0.049 A 
ATOM     56  C   UNL A   1      42.739  32.559  30.823  1.00  0.00     0.074 A 
ATOM     57  C   UNL A   1      38.436  27.794  32.294  1.00  0.00     0.029 A 
ATOM     58  N   UNL A   1      40.478  28.278  31.607  1.00  0.00    -0.354 N 
ATOM     59  N   UNL A   1      42.394  32.226  32.040  1.00  0.00    -0.248 NA
ATOM     60  C   UNL A   1      42.970  31.439  29.920  1.00  0.00     0.031 C 
ATOM     61  C   UNL A   1      39.000  28.803  33.128  1.00  0.00     0.029 A 
ATOM     62  C   UNL A   1      40.208  29.224  32.565  1.00  0.00     0.049 A 
ATOM     63  H   UNL A   1      41.371  28.041  31.266  1.00  0.00     0.167 HD
ATOM     64  C   UNL A   1      41.961  30.908  31.950  1.00  0.00     0.074 A 
ATOM     65  C   UNL A   1      42.408  30.454  30.631  1.00  0.00     0.031 C 
ATOM     66  C   UNL A   1      41.017  30.406  32.806  1.00  0.00     0.031 A 
BRANCH  53  67
ATOM     67  C   UNL A   1      39.964  26.674  28.950  1.00  0.00    -0.014 A 
ATOM     68  C   UNL A   1      39.392  25.512  28.401  1.00  0.00     0.010 A 
ATOM     69  C   UNL A   1      41.368  26.791  28.891  1.00  0.00     0.010 A 
ATOM     70  C   UNL A   1      40.192  24.486  27.889  1.00  0.00     0.020 A 
ATOM     71  C   UNL A   1      42.173  25.793  28.344  1.00  0.00     0.020 A 
ATOM     72  C   UNL A   1      41.580  24.629  27.877  1.00  0.00     0.054 A 
BRANCH  72  73
ATOM     73  S   UNL A   1      42.606  23.255  27.313  1.00  0.00     0.124 S 
ATOM     74  O   UNL A   1      41.821  22.734  26.198  1.00  0.00    -0.237 OA
ATOM     75  O   UNL A   1      43.851  23.929  26.954  1.00  0.00    -0.237 OA
ATOM     76  O   UNL A   1      42.689  22.385  28.484  1.00  0.00    -0.744 OA
ENDBRANCH  72  73
ENDBRANCH  53  67
BRANCH  54  77
ATOM     77  C   UNL A   1      43.372  34.709  29.460  1.00  0.00    -0.014 A 
ATOM     78  C   UNL A   1      43.440  34.682  28.053  1.00  0.00     0.010 A 
ATOM     79  C   UNL A   1      44.065  35.746  30.120  1.00  0.00     0.010 A 
ATOM     80  C   UNL A   1      44.139  35.676  27.336  1.00  0.00     0.020 A 
ATOM     81  C   UNL A   1      44.762  36.739  29.415  1.00  0.00     0.020 A 
ATOM     82  C   UNL A   1      44.781  36.711  28.024  1.00  0.00     0.054 A 
BRANCH  82  83
ATOM     83  S   UNL A   1      45.548  38.075  27.092  1.00  0.00     0.124 S 
ATOM     84  O   UNL A   1      44.386  38.799  26.584  1.00  0.00    -0.237 OA
ATOM     85  O   UNL A   1      46.323  38.767  28.117  1.00  0.00    -0.237 OA
ATOM     86  O   UNL A   1      46.345  37.393  26.073  1.00  0.00    -0.744 OA
ENDBRANCH  82  83
ENDBRANCH  54  77
BRANCH  66  87
ATOM     87  C   UNL A   1      40.621  31.233  34.014  1.00  0.00    -0.014 A 
ATOM     88  C   UNL A   1      39.570  32.175  34.024  1.00  0.00     0.010 A 
ATOM     89  C   UNL A   1      41.214  30.886  35.239  1.00  0.00     0.010 A 
ATOM     90  C   UNL A   1      39.136  32.754  35.230  1.00  0.00     0.020 A 
ATOM     91  C   UNL A   1      40.776  31.444  36.442  1.00  0.00     0.020 A 
ATOM     92  C   UNL A   1      39.743  32.380  36.434  1.00  0.00     0.054 A 
BRANCH  92  93
ATOM     93  S   UNL A   1      39.146  33.077  38.002  1.00  0.00     0.124 S 
ATOM     94  O   UNL A   1      39.155  34.512  37.735  1.00  0.00    -0.237 OA
ATOM     95  O   UNL A   1      37.825  32.472  38.146  1.00  0.00    -0.237 OA
ATOM     96  O   UNL A   1      40.134  32.625  38.981  1.00  0.00    -0.744 OA
ENDBRANCH  92  93
ENDBRANCH  66  87
ENDBRANCH  40  41
ENDBRANCH  33  35
ENDBRANCH  32  33
ENDBRANCH  31  32
ENDBRANCH   1  31
TORSDOF 19
ENDMDL
MODEL 3
REMARK VINA RESULT:     -11.6      2.724      9.003
REMARK SMILES O=C1C[C@H](c2cn[nH]c2C(=O)OCCOCCOC(=O)c2ccc(-c3c4nc(c(-c5ccc(S(=O)(=O)[O-])cc5)c5ccc([nH]5)c(-c5ccc(S(=O)(=O)[O-])cc5)c5nc(c(-c6ccc(S(=O)(=O)[O-])cc6)c6ccc3[nH]6)C=C5)C=C4)cc2)c2c(-c3cccs3)n[nH]c2N1
REMARK SMILES IDX 16 1 15 2 14 3 13 4 12 5 10 6 11 7 9 8 5 9 6 10 7 11 8 12
REMARK SMILES IDX 4 14 1 15 2 16 3 17 91 18 90 19 81 21 89 22 82 23 88 24
REMARK SMILES IDX 83 26 84 27 87 28 85 29 86 30 17 31 18 32 19 33 20 34 21 35
REMARK SMILES IDX 22 36 80 37 23 38 79 39 24 40 25 41 26 42 73 43 27 44 78 45
REMARK SMILES IDX 72 46 74 47 28 48 77 49 71 50 70 51 29 53 59 54 40 55 58 56
REMARK SMILES IDX 41 57 44 58 57 59 75 60 42 61 43 62 56 64 76 65 45 66 30 67
REMARK SMILES IDX 31 68 39 69 32 70 38 71 33 72 34 73 35 74 36 75 37 76 60 77
REMARK SMILES IDX 61 78 69 79 62 80 68 81 63 82 64 83 65 84 66 85 67 86 46 87
REMARK SMILES IDX 47 88 55 89 48 90 54 91 49 92 50 93 51 94 52 95 53 96
REMARK H PARENT 8 13 91 20 89 25 74 52 44 63
REMARK Flexibility Score: inf
ROOT
ATOM      1  C   UNL A   1      32.689  30.270  26.150  1.00  0.00     0.202 C 
ENDROOT
BRANCH   1   2
ATOM      2  O   UNL A   1      32.121  29.380  25.194  1.00  0.00    -0.374 OA
BRANCH   2   3
ATOM      3  C   UNL A   1      32.975  28.777  24.218  1.00  0.00     0.202 C 
BRANCH   3   4
ATOM      4  C   UNL A   1      32.330  28.481  22.870  1.00  0.00     0.261 C 
BRANCH   4   5
ATOM      5  O   UNL A   1      32.043  27.074  22.726  1.00  0.00    -0.459 OA
BRANCH   5   6
ATOM      6  C   UNL A   1      33.041  26.333  22.186  1.00  0.00     0.356 C 
ATOM      7  O   UNL A   1      33.943  26.784  21.490  1.00  0.00    -0.244 OA
BRANCH   6   8
ATOM      8  C   UNL A   1      33.048  24.975  22.667  1.00  0.00     0.147 A 
ATOM      9  C   UNL A   1      33.085  24.285  23.883  1.00  0.00     0.013 A 
ATOM     10  C   UNL A   1      32.944  22.920  23.474  1.00  0.00     0.140 A 
ATOM     11  N   UNL A   1      32.883  22.756  22.159  1.00  0.00    -0.183 NA
ATOM     12  N   UNL A   1      32.946  24.004  21.699  1.00  0.00    -0.271 N 
ATOM     13  H   UNL A   1      32.922  24.216  20.738  1.00  0.00     0.190 HD
BRANCH   9  14
ATOM     14  C   UNL A   1      33.099  24.667  25.357  1.00  0.00     0.069 C 
ATOM     15  O   UNL A   1      29.599  25.405  26.341  1.00  0.00    -0.275 OA
ATOM     16  C   UNL A   1      30.722  24.908  26.405  1.00  0.00     0.226 C 
ATOM     17  C   UNL A   1      31.911  25.583  25.742  1.00  0.00     0.114 C 
ATOM     18  N   UNL A   1      30.951  23.795  27.177  1.00  0.00    -0.311 N 
ATOM     19  C   UNL A   1      32.162  23.174  27.119  1.00  0.00     0.132 A 
ATOM     20  H   UNL A   1      30.244  23.448  27.768  1.00  0.00     0.171 HD
ATOM     21  C   UNL A   1      33.208  23.552  26.329  1.00  0.00     0.031 A 
ATOM     22  N   UNL A   1      32.537  22.043  27.774  1.00  0.00    -0.262 N 
ATOM     23  C   UNL A   1      34.238  22.642  26.656  1.00  0.00     0.108 A 
ATOM     24  N   UNL A   1      33.801  21.670  27.475  1.00  0.00    -0.173 NA
ATOM     25  H   UNL A   1      31.954  21.552  28.398  1.00  0.00     0.192 HD
BRANCH  23  26
ATOM     26  C   UNL A   1      35.594  22.650  26.042  1.00  0.00     0.055 A 
ATOM     27  C   UNL A   1      36.458  23.721  26.106  1.00  0.00     0.022 A 
ATOM     28  S   UNL A   1      36.299  21.295  25.283  1.00  0.00    -0.142 S 
ATOM     29  C   UNL A   1      37.759  23.373  25.640  1.00  0.00     0.012 A 
ATOM     30  C   UNL A   1      37.796  22.101  25.111  1.00  0.00     0.065 A 
ENDBRANCH  23  26
ENDBRANCH   9  14
ENDBRANCH   6   8
ENDBRANCH   5   6
ENDBRANCH   4   5
ENDBRANCH   3   4
ENDBRANCH   2   3
ENDBRANCH   1   2
BRANCH   1  31
ATOM     31  C   UNL A   1      34.088  29.950  26.638  1.00  0.00     0.261 C 
BRANCH  31  32
ATOM     32  O   UNL A   1      34.270  30.385  27.968  1.00  0.00    -0.460 OA
BRANCH  32  33
ATOM     33  C   UNL A   1      35.080  31.461  28.117  1.00  0.00     0.338 C 
ATOM     34  O   UNL A   1      35.019  32.530  27.556  1.00  0.00    -0.246 OA
BRANCH  33  35
ATOM     35  C   UNL A   1      36.149  31.021  29.017  1.00  0.00     0.060 A 
ATOM     36  C   UNL A   1      37.172  31.903  29.359  1.00  0.00     0.016 A 
ATOM     37  C   UNL A   1      36.228  29.651  29.292  1.00  0.00     0.016 A 
ATOM     38  C   UNL A   1      38.377  31.354  29.750  1.00  0.00     0.010 A 
ATOM     39  C   UNL A   1      37.369  29.126  29.804  1.00  0.00     0.010 A 
ATOM     40  C   UNL A   1      38.465  29.961  29.839  1.00  0.00    -0.014 A 
BRANCH  40  41
ATOM     41  C   UNL A   1      39.728  29.277  29.888  1.00  0.00     0.031 A 
ATOM     42  C   UNL A   1      40.234  29.157  31.263  1.00  0.00     0.074 A 
ATOM     43  C   UNL A   1      40.204  28.623  28.808  1.00  0.00     0.049 A 
ATOM     44  N   UNL A   1      41.096  29.929  31.828  1.00  0.00    -0.248 NA
ATOM     45  C   UNL A   1      39.498  28.287  32.197  1.00  0.00     0.031 C 
ATOM     46  C   UNL A   1      39.571  28.375  27.503  1.00  0.00     0.029 A 
ATOM     47  N   UNL A   1      41.358  27.933  28.699  1.00  0.00    -0.354 N 
ATOM     48  C   UNL A   1      41.221  29.438  33.117  1.00  0.00     0.074 A 
ATOM     49  C   UNL A   1      40.034  28.660  33.360  1.00  0.00     0.031 C 
ATOM     50  C   UNL A   1      40.248  27.397  26.851  1.00  0.00     0.029 A 
ATOM     51  C   UNL A   1      41.441  27.073  27.612  1.00  0.00     0.049 A 
ATOM     52  H   UNL A   1      42.092  28.032  29.347  1.00  0.00     0.167 HD
ATOM     53  C   UNL A   1      42.428  29.434  33.747  1.00  0.00     0.031 A 
ATOM     54  C   UNL A   1      42.410  26.138  27.418  1.00  0.00     0.031 A 
ATOM     55  C   UNL A   1      43.403  30.194  33.001  1.00  0.00     0.049 A 
ATOM     56  C   UNL A   1      43.546  26.523  28.307  1.00  0.00     0.074 A 
ATOM     57  C   UNL A   1      43.501  31.513  32.606  1.00  0.00     0.029 A 
ATOM     58  N   UNL A   1      44.231  29.477  32.162  1.00  0.00    -0.354 N 
ATOM     59  N   UNL A   1      44.221  27.632  28.156  1.00  0.00    -0.248 NA
ATOM     60  C   UNL A   1      43.568  25.967  29.654  1.00  0.00     0.031 C 
ATOM     61  C   UNL A   1      44.008  31.461  31.275  1.00  0.00     0.029 A 
ATOM     62  C   UNL A   1      44.287  30.128  30.955  1.00  0.00     0.049 A 
ATOM     63  H   UNL A   1      44.700  28.641  32.389  1.00  0.00     0.167 HD
ATOM     64  C   UNL A   1      44.396  28.133  29.442  1.00  0.00     0.074 A 
ATOM     65  C   UNL A   1      44.034  27.024  30.328  1.00  0.00     0.031 C 
ATOM     66  C   UNL A   1      44.510  29.476  29.676  1.00  0.00     0.031 A 
BRANCH  53  67
ATOM     67  C   UNL A   1      42.834  28.409  34.771  1.00  0.00    -0.014 A 
ATOM     68  C   UNL A   1      43.200  28.861  36.052  1.00  0.00     0.010 A 
ATOM     69  C   UNL A   1      43.110  27.061  34.461  1.00  0.00     0.010 A 
ATOM     70  C   UNL A   1      43.877  28.026  36.947  1.00  0.00     0.020 A 
ATOM     71  C   UNL A   1      43.746  26.208  35.362  1.00  0.00     0.020 A 
ATOM     72  C   UNL A   1      44.158  26.707  36.588  1.00  0.00     0.054 A 
BRANCH  72  73
ATOM     73  S   UNL A   1      45.124  25.673  37.708  1.00  0.00     0.124 S 
ATOM     74  O   UNL A   1      44.437  24.390  37.598  1.00  0.00    -0.237 OA
ATOM     75  O   UNL A   1      46.455  25.736  37.111  1.00  0.00    -0.237 OA
ATOM     76  O   UNL A   1      44.992  26.348  38.998  1.00  0.00    -0.744 OA
ENDBRANCH  72  73
ENDBRANCH  53  67
BRANCH  54  77
ATOM     77  C   UNL A   1      42.252  24.774  26.841  1.00  0.00    -0.014 A 
ATOM     78  C   UNL A   1      43.272  24.168  26.080  1.00  0.00     0.010 A 
ATOM     79  C   UNL A   1      41.192  23.949  27.273  1.00  0.00     0.010 A 
ATOM     80  C   UNL A   1      43.249  22.785  25.799  1.00  0.00     0.020 A 
ATOM     81  C   UNL A   1      41.163  22.573  26.999  1.00  0.00     0.020 A 
ATOM     82  C   UNL A   1      42.202  21.992  26.279  1.00  0.00     0.054 A 
BRANCH  82  83
ATOM     83  S   UNL A   1      42.257  20.187  26.049  1.00  0.00     0.124 S 
ATOM     84  O   UNL A   1      42.455  19.703  27.412  1.00  0.00    -0.237 OA
ATOM     85  O   UNL A   1      40.952  19.899  25.461  1.00  0.00    -0.237 OA
ATOM     86  O   UNL A   1      43.394  19.987  25.150  1.00  0.00    -0.744 OA
ENDBRANCH  82  83
ENDBRANCH  54  77
BRANCH  66  87
ATOM     87  C   UNL A   1      44.689  30.407  28.491  1.00  0.00    -0.014 A 
ATOM     88  C   UNL A   1      43.664  30.741  27.581  1.00  0.00     0.010 A 
ATOM     89  C   UNL A   1      45.896  31.123  28.426  1.00  0.00     0.010 A 
ATOM     90  C   UNL A   1      43.852  31.761  26.630  1.00  0.00     0.020 A 
ATOM     91  C   UNL A   1      46.082  32.148  27.497  1.00  0.00     0.020 A 
ATOM     92  C   UNL A   1      45.063  32.460  26.598  1.00  0.00     0.054 A 
BRANCH  92  93
ATOM     93  S   UNL A   1      45.291  33.820  25.415  1.00  0.00     0.124 S 
ATOM     94  O   UNL A   1      46.744  33.954  25.363  1.00  0.00    -0.237 OA
ATOM     95  O   UNL A   1      44.663  33.305  24.201  1.00  0.00    -0.237 OA
ATOM     96  O   UNL A   1      44.589  34.942  26.036  1.00  0.00    -0.744 OA
ENDBRANCH  92  93
ENDBRANCH  66  87
ENDBRANCH  40  41
ENDBRANCH  33  35
ENDBRANCH  32  33
ENDBRANCH  31  32
ENDBRANCH   1  31
TORSDOF 19
ENDMDL
