MODEL 1
REMARK VINA RESULT:     -10.0      0.000      0.000
REMARK SMILES CC(=O)Nc1ccc(/C(=C\c2ccc(S(C)(=O)=O)cc2)C(=O)OCCOCCOC(=O)c2ccc(-c3c4nc(c(-c5ccc(S(=O)(=O)[O-])cc5)c5ccc([nH]5)c(-c5ccc(S(=O)(=O)[O-])cc5)c5nc(c(-c6ccc(S(=O)(=O)[O-])cc6)c6ccc3[nH]6)C=C5)C=C4)cc2)cc1
REMARK SMILES IDX 27 1 26 2 25 3 24 4 23 5 21 6 22 7 9 8 10 9 8 10 5 11 6 12
REMARK SMILES IDX 93 13 7 14 92 15 4 16 1 17 2 18 3 19 11 21 12 22 20 23 13 24
REMARK SMILES IDX 19 25 14 26 15 27 16 28 17 29 18 30 28 31 29 32 30 33 31 34
REMARK SMILES IDX 32 35 33 36 91 37 34 38 90 39 35 40 36 41 37 42 84 43 38 44
REMARK SMILES IDX 89 45 83 46 85 47 39 48 88 49 82 50 81 51 40 53 70 54 51 55
REMARK SMILES IDX 69 56 52 57 55 58 68 59 86 60 53 61 54 62 67 64 87 65 56 66
REMARK SMILES IDX 41 67 42 68 50 69 43 70 49 71 44 72 45 73 46 74 47 75 48 76
REMARK SMILES IDX 71 77 72 78 80 79 73 80 79 81 74 82 75 83 76 84 77 85 78 86
REMARK SMILES IDX 57 87 58 88 66 89 59 90 65 91 60 92 61 93 62 94 63 95 64 96
REMARK H PARENT 4 20 85 52 55 63
REMARK Flexibility Score: inf
ROOT
ATOM      1  C   UNL A   1      32.949  29.680  26.971  1.00  0.00     0.202 C 
ENDROOT
BRANCH   1   2
ATOM      2  O   UNL A   1      32.235  29.389  25.769  1.00  0.00    -0.374 OA
BRANCH   2   3
ATOM      3  C   UNL A   1      31.497  28.167  25.720  1.00  0.00     0.202 C 
BRANCH   3   4
ATOM      4  C   UNL A   1      31.738  27.254  24.513  1.00  0.00     0.261 C 
BRANCH   4   5
ATOM      5  O   UNL A   1      32.618  26.171  24.845  1.00  0.00    -0.460 OA
BRANCH   5   6
ATOM      6  C   UNL A   1      33.128  25.495  23.781  1.00  0.00     0.338 C 
ATOM      7  O   UNL A   1      33.462  25.990  22.714  1.00  0.00    -0.246 OA
BRANCH   6   8
ATOM      8  C   UNL A   1      33.393  24.056  24.128  1.00  0.00     0.067 C 
ATOM      9  C   UNL A   1      32.310  23.243  24.187  1.00  0.00     0.024 C 
BRANCH   8  10
ATOM     10  C   UNL A   1      34.812  23.664  24.392  1.00  0.00    -0.011 A 
ATOM     11  C   UNL A   1      37.385  22.754  25.199  1.00  0.00     0.041 A 
ATOM     12  C   UNL A   1      36.803  22.309  24.008  1.00  0.00     0.027 A 
ATOM     13  C   UNL A   1      36.730  23.746  25.916  1.00  0.00     0.027 A 
ATOM     14  C   UNL A   1      35.544  22.774  23.602  1.00  0.00     0.011 A 
ATOM     15  C   UNL A   1      35.461  24.187  25.521  1.00  0.00     0.011 A 
BRANCH  11  16
ATOM     16  N   UNL A   1      38.621  22.194  25.561  1.00  0.00    -0.326 N 
ATOM     17  C   UNL A   1      39.405  23.780  27.329  1.00  0.00     0.114 C 
ATOM     18  C   UNL A   1      39.610  22.611  26.404  1.00  0.00     0.221 C 
ATOM     19  O   UNL A   1      40.668  21.977  26.433  1.00  0.00    -0.275 OA
ATOM     20  H   UNL A   1      38.811  21.334  25.122  1.00  0.00     0.169 HD
ENDBRANCH  11  16
ENDBRANCH   8  10
BRANCH   9  21
ATOM     21  C   UNL A   1      32.320  21.776  24.285  1.00  0.00    -0.025 A 
ATOM     22  C   UNL A   1      32.168  21.080  23.077  1.00  0.00     0.009 A 
ATOM     23  C   UNL A   1      32.642  21.073  25.453  1.00  0.00     0.009 A 
ATOM     24  C   UNL A   1      32.484  19.726  22.998  1.00  0.00     0.021 A 
ATOM     25  C   UNL A   1      32.968  19.714  25.380  1.00  0.00     0.021 A 
ATOM     26  C   UNL A   1      32.927  19.062  24.143  1.00  0.00     0.067 A 
BRANCH  26  27
ATOM     27  S   UNL A   1      33.630  17.440  23.954  1.00  0.00     0.175 S 
ATOM     28  C   UNL A   1      32.898  16.488  25.255  1.00  0.00     0.163 C 
ATOM     29  O   UNL A   1      33.152  16.922  22.686  1.00  0.00    -0.224 OA
ATOM     30  O   UNL A   1      35.053  17.539  24.218  1.00  0.00    -0.224 OA
ENDBRANCH  26  27
ENDBRANCH   9  21
ENDBRANCH   6   8
ENDBRANCH   5   6
ENDBRANCH   4   5
ENDBRANCH   3   4
ENDBRANCH   2   3
ENDBRANCH   1   2
BRANCH   1  31
ATOM     31  C   UNL A   1      33.618  31.051  27.103  1.00  0.00     0.261 C 
BRANCH  31  32
ATOM     32  O   UNL A   1      34.196  31.268  28.400  1.00  0.00    -0.460 OA
BRANCH  32  33
ATOM     33  C   UNL A   1      34.528  32.555  28.668  1.00  0.00     0.338 C 
ATOM     34  O   UNL A   1      33.777  33.520  28.701  1.00  0.00    -0.246 OA
BRANCH  33  35
ATOM     35  C   UNL A   1      35.930  32.615  29.113  1.00  0.00     0.060 A 
ATOM     36  C   UNL A   1      36.279  33.598  30.049  1.00  0.00     0.016 A 
ATOM     37  C   UNL A   1      36.893  31.745  28.600  1.00  0.00     0.016 A 
ATOM     38  C   UNL A   1      37.602  33.719  30.470  1.00  0.00     0.010 A 
ATOM     39  C   UNL A   1      38.222  31.878  29.015  1.00  0.00     0.010 A 
ATOM     40  C   UNL A   1      38.585  32.872  29.943  1.00  0.00    -0.014 A 
BRANCH  40  41
ATOM     41  C   UNL A   1      40.008  33.055  30.318  1.00  0.00     0.031 A 
ATOM     42  C   UNL A   1      40.640  32.117  31.309  1.00  0.00     0.074 A 
ATOM     43  C   UNL A   1      40.724  34.058  29.778  1.00  0.00     0.049 A 
ATOM     44  N   UNL A   1      41.838  32.158  31.831  1.00  0.00    -0.248 NA
ATOM     45  C   UNL A   1      39.815  30.990  31.773  1.00  0.00     0.031 C 
ATOM     46  C   UNL A   1      40.232  35.002  28.774  1.00  0.00     0.029 A 
ATOM     47  N   UNL A   1      42.017  34.456  30.008  1.00  0.00    -0.354 N 
ATOM     48  C   UNL A   1      41.914  31.064  32.687  1.00  0.00     0.074 A 
ATOM     49  C   UNL A   1      40.632  30.396  32.634  1.00  0.00     0.031 C 
ATOM     50  C   UNL A   1      41.209  35.880  28.485  1.00  0.00     0.029 A 
ATOM     51  C   UNL A   1      42.376  35.588  29.315  1.00  0.00     0.049 A 
ATOM     52  H   UNL A   1      42.629  33.977  30.613  1.00  0.00     0.167 HD
ATOM     53  C   UNL A   1      42.961  30.655  33.444  1.00  0.00     0.031 A 
ATOM     54  C   UNL A   1      43.502  36.326  29.368  1.00  0.00     0.031 A 
ATOM     55  C   UNL A   1      44.228  31.335  33.504  1.00  0.00     0.049 A 
ATOM     56  C   UNL A   1      44.613  35.905  30.296  1.00  0.00     0.074 A 
ATOM     57  C   UNL A   1      45.353  30.990  34.233  1.00  0.00     0.029 A 
ATOM     58  N   UNL A   1      44.538  32.500  32.820  1.00  0.00    -0.354 N 
ATOM     59  N   UNL A   1      44.680  34.853  31.078  1.00  0.00    -0.248 NA
ATOM     60  C   UNL A   1      45.798  36.771  30.349  1.00  0.00     0.031 C 
ATOM     61  C   UNL A   1      46.321  31.981  34.039  1.00  0.00     0.029 A 
ATOM     62  C   UNL A   1      45.823  32.908  33.139  1.00  0.00     0.049 A 
ATOM     63  H   UNL A   1      43.934  32.969  32.200  1.00  0.00     0.167 HD
ATOM     64  C   UNL A   1      45.923  34.923  31.699  1.00  0.00     0.074 A 
ATOM     65  C   UNL A   1      46.584  36.104  31.184  1.00  0.00     0.031 C 
ATOM     66  C   UNL A   1      46.467  34.088  32.619  1.00  0.00     0.031 A 
BRANCH  53  67
ATOM     67  C   UNL A   1      42.779  29.424  34.290  1.00  0.00    -0.014 A 
ATOM     68  C   UNL A   1      42.230  29.506  35.583  1.00  0.00     0.010 A 
ATOM     69  C   UNL A   1      43.085  28.158  33.755  1.00  0.00     0.010 A 
ATOM     70  C   UNL A   1      42.007  28.346  36.331  1.00  0.00     0.020 A 
ATOM     71  C   UNL A   1      42.840  26.995  34.491  1.00  0.00     0.020 A 
ATOM     72  C   UNL A   1      42.310  27.098  35.779  1.00  0.00     0.054 A 
BRANCH  72  73
ATOM     73  S   UNL A   1      41.958  25.609  36.754  1.00  0.00     0.124 S 
ATOM     74  O   UNL A   1      42.335  26.034  38.099  1.00  0.00    -0.237 OA
ATOM     75  O   UNL A   1      40.528  25.414  36.533  1.00  0.00    -0.237 OA
ATOM     76  O   UNL A   1      42.822  24.591  36.159  1.00  0.00    -0.744 OA
ENDBRANCH  72  73
ENDBRANCH  53  67
BRANCH  54  77
ATOM     77  C   UNL A   1      43.624  37.570  28.560  1.00  0.00    -0.014 A 
ATOM     78  C   UNL A   1      44.294  37.564  27.323  1.00  0.00     0.010 A 
ATOM     79  C   UNL A   1      43.095  38.782  29.044  1.00  0.00     0.010 A 
ATOM     80  C   UNL A   1      44.459  38.752  26.602  1.00  0.00     0.020 A 
ATOM     81  C   UNL A   1      43.230  39.963  28.311  1.00  0.00     0.020 A 
ATOM     82  C   UNL A   1      43.927  39.943  27.102  1.00  0.00     0.054 A 
BRANCH  82  83
ATOM     83  S   UNL A   1      44.134  41.468  26.141  1.00  0.00     0.124 S 
ATOM     84  O   UNL A   1      45.104  41.060  25.131  1.00  0.00    -0.237 OA
ATOM     85  O   UNL A   1      42.779  41.719  25.655  1.00  0.00    -0.237 OA
ATOM     86  O   UNL A   1      44.621  42.429  27.127  1.00  0.00    -0.744 OA
ENDBRANCH  82  83
ENDBRANCH  54  77
BRANCH  66  87
ATOM     87  C   UNL A   1      47.852  34.409  33.116  1.00  0.00    -0.014 A 
ATOM     88  C   UNL A   1      48.992  33.936  32.442  1.00  0.00     0.010 A 
ATOM     89  C   UNL A   1      48.017  35.242  34.239  1.00  0.00     0.010 A 
ATOM     90  C   UNL A   1      50.271  34.266  32.898  1.00  0.00     0.020 A 
ATOM     91  C   UNL A   1      49.294  35.600  34.680  1.00  0.00     0.020 A 
ATOM     92  C   UNL A   1      50.414  35.099  34.012  1.00  0.00     0.054 A 
BRANCH  92  93
ATOM     93  S   UNL A   1      52.085  35.554  34.550  1.00  0.00     0.124 S 
ATOM     94  O   UNL A   1      52.804  34.290  34.410  1.00  0.00    -0.237 OA
ATOM     95  O   UNL A   1      52.455  36.596  33.596  1.00  0.00    -0.237 OA
ATOM     96  O   UNL A   1      51.894  36.014  35.924  1.00  0.00    -0.744 OA
ENDBRANCH  92  93
ENDBRANCH  66  87
ENDBRANCH  40  41
ENDBRANCH  33  35
ENDBRANCH  32  33
ENDBRANCH  31  32
ENDBRANCH   1  31
TORSDOF 21
ENDMDL
MODEL 2
REMARK VINA RESULT:      -9.9      4.182      4.810
REMARK SMILES CC(=O)Nc1ccc(/C(=C\c2ccc(S(C)(=O)=O)cc2)C(=O)OCCOCCOC(=O)c2ccc(-c3c4nc(c(-c5ccc(S(=O)(=O)[O-])cc5)c5ccc([nH]5)c(-c5ccc(S(=O)(=O)[O-])cc5)c5nc(c(-c6ccc(S(=O)(=O)[O-])cc6)c6ccc3[nH]6)C=C5)C=C4)cc2)cc1
REMARK SMILES IDX 27 1 26 2 25 3 24 4 23 5 21 6 22 7 9 8 10 9 8 10 5 11 6 12
REMARK SMILES IDX 93 13 7 14 92 15 4 16 1 17 2 18 3 19 11 21 12 22 20 23 13 24
REMARK SMILES IDX 19 25 14 26 15 27 16 28 17 29 18 30 28 31 29 32 30 33 31 34
REMARK SMILES IDX 32 35 33 36 91 37 34 38 90 39 35 40 36 41 37 42 84 43 38 44
REMARK SMILES IDX 89 45 83 46 85 47 39 48 88 49 82 50 81 51 40 53 70 54 51 55
REMARK SMILES IDX 69 56 52 57 55 58 68 59 86 60 53 61 54 62 67 64 87 65 56 66
REMARK SMILES IDX 41 67 42 68 50 69 43 70 49 71 44 72 45 73 46 74 47 75 48 76
REMARK SMILES IDX 71 77 72 78 80 79 73 80 79 81 74 82 75 83 76 84 77 85 78 86
REMARK SMILES IDX 57 87 58 88 66 89 59 90 65 91 60 92 61 93 62 94 63 95 64 96
REMARK H PARENT 4 20 85 52 55 63
REMARK Flexibility Score: inf
ROOT
ATOM      1  C   UNL A   1      35.032  29.221  27.058  1.00  0.00     0.202 C 
ENDROOT
BRANCH   1   2
ATOM      2  O   UNL A   1      33.908  29.928  26.533  1.00  0.00    -0.374 OA
BRANCH   2   3
ATOM      3  C   UNL A   1      32.929  29.171  25.820  1.00  0.00     0.202 C 
BRANCH   3   4
ATOM      4  C   UNL A   1      33.380  28.491  24.524  1.00  0.00     0.261 C 
BRANCH   4   5
ATOM      5  O   UNL A   1      33.718  27.115  24.746  1.00  0.00    -0.460 OA
BRANCH   5   6
ATOM      6  C   UNL A   1      33.605  26.309  23.657  1.00  0.00     0.338 C 
ATOM      7  O   UNL A   1      33.663  26.672  22.491  1.00  0.00    -0.246 OA
BRANCH   6   8
ATOM      8  C   UNL A   1      33.560  24.859  24.056  1.00  0.00     0.067 C 
ATOM      9  C   UNL A   1      32.363  24.238  23.924  1.00  0.00     0.024 C 
BRANCH   8  10
ATOM     10  C   UNL A   1      34.824  24.250  24.574  1.00  0.00    -0.011 A 
ATOM     11  C   UNL A   1      37.404  23.363  25.385  1.00  0.00     0.041 A 
ATOM     12  C   UNL A   1      36.458  23.784  26.324  1.00  0.00     0.027 A 
ATOM     13  C   UNL A   1      37.011  23.271  24.056  1.00  0.00     0.027 A 
ATOM     14  C   UNL A   1      35.179  24.201  25.924  1.00  0.00     0.011 A 
ATOM     15  C   UNL A   1      35.744  23.714  23.659  1.00  0.00     0.011 A 
BRANCH  11  16
ATOM     16  N   UNL A   1      38.677  23.017  25.864  1.00  0.00    -0.326 N 
ATOM     17  C   UNL A   1      39.386  25.127  27.005  1.00  0.00     0.114 C 
ATOM     18  C   UNL A   1      39.651  23.737  26.495  1.00  0.00     0.221 C 
ATOM     19  O   UNL A   1      40.747  23.204  26.690  1.00  0.00    -0.275 OA
ATOM     20  H   UNL A   1      38.915  22.074  25.717  1.00  0.00     0.169 HD
ENDBRANCH  11  16
ENDBRANCH   8  10
BRANCH   9  21
ATOM     21  C   UNL A   1      32.110  22.794  24.033  1.00  0.00    -0.025 A 
ATOM     22  C   UNL A   1      32.137  22.074  22.828  1.00  0.00     0.009 A 
ATOM     23  C   UNL A   1      32.027  22.103  25.249  1.00  0.00     0.009 A 
ATOM     24  C   UNL A   1      32.238  20.686  22.838  1.00  0.00     0.021 A 
ATOM     25  C   UNL A   1      32.133  20.708  25.266  1.00  0.00     0.021 A 
ATOM     26  C   UNL A   1      32.281  20.014  24.060  1.00  0.00     0.067 A 
BRANCH  26  27
ATOM     27  S   UNL A   1      32.735  18.295  24.059  1.00  0.00     0.175 S 
ATOM     28  C   UNL A   1      32.447  17.764  22.395  1.00  0.00     0.163 C 
ATOM     29  O   UNL A   1      34.162  18.239  24.315  1.00  0.00    -0.224 OA
ATOM     30  O   UNL A   1      31.805  17.590  24.921  1.00  0.00    -0.224 OA
ENDBRANCH  26  27
ENDBRANCH   9  21
ENDBRANCH   6   8
ENDBRANCH   5   6
ENDBRANCH   4   5
ENDBRANCH   3   4
ENDBRANCH   2   3
ENDBRANCH   1   2
BRANCH   1  31
ATOM     31  C   UNL A   1      35.647  29.710  28.373  1.00  0.00     0.261 C 
BRANCH  31  32
ATOM     32  O   UNL A   1      36.754  30.603  28.175  1.00  0.00    -0.460 OA
BRANCH  32  33
ATOM     33  C   UNL A   1      37.973  30.060  28.415  1.00  0.00     0.338 C 
ATOM     34  O   UNL A   1      38.455  29.065  27.892  1.00  0.00    -0.246 OA
BRANCH  33  35
ATOM     35  C   UNL A   1      38.747  30.964  29.283  1.00  0.00     0.060 A 
ATOM     36  C   UNL A   1      38.205  32.224  29.566  1.00  0.00     0.016 A 
ATOM     37  C   UNL A   1      39.996  30.596  29.785  1.00  0.00     0.016 A 
ATOM     38  C   UNL A   1      38.919  33.128  30.350  1.00  0.00     0.010 A 
ATOM     39  C   UNL A   1      40.715  31.510  30.561  1.00  0.00     0.010 A 
ATOM     40  C   UNL A   1      40.186  32.785  30.838  1.00  0.00    -0.014 A 
BRANCH  40  41
ATOM     41  C   UNL A   1      40.989  33.774  31.596  1.00  0.00     0.031 A 
ATOM     42  C   UNL A   1      40.860  33.844  33.092  1.00  0.00     0.074 A 
ATOM     43  C   UNL A   1      41.822  34.607  30.945  1.00  0.00     0.049 A 
ATOM     44  N   UNL A   1      41.406  34.689  33.926  1.00  0.00    -0.248 NA
ATOM     45  C   UNL A   1      40.004  32.831  33.731  1.00  0.00     0.031 C 
ATOM     46  C   UNL A   1      42.064  34.603  29.502  1.00  0.00     0.029 A 
ATOM     47  N   UNL A   1      42.612  35.626  31.415  1.00  0.00    -0.354 N 
ATOM     48  C   UNL A   1      40.961  34.315  35.190  1.00  0.00     0.074 A 
ATOM     49  C   UNL A   1      40.079  33.183  35.008  1.00  0.00     0.031 C 
ATOM     50  C   UNL A   1      42.932  35.584  29.202  1.00  0.00     0.029 A 
ATOM     51  C   UNL A   1      43.271  36.313  30.423  1.00  0.00     0.049 A 
ATOM     52  H   UNL A   1      42.696  35.846  32.371  1.00  0.00     0.167 HD
ATOM     53  C   UNL A   1      41.266  34.865  36.390  1.00  0.00     0.031 A 
ATOM     54  C   UNL A   1      44.032  37.423  30.486  1.00  0.00     0.031 A 
ATOM     55  C   UNL A   1      42.132  36.002  36.561  1.00  0.00     0.049 A 
ATOM     56  C   UNL A   1      44.272  38.075  31.823  1.00  0.00     0.074 A 
ATOM     57  C   UNL A   1      42.510  36.623  37.739  1.00  0.00     0.029 A 
ATOM     58  N   UNL A   1      42.747  36.694  35.529  1.00  0.00    -0.354 N 
ATOM     59  N   UNL A   1      43.867  37.692  33.011  1.00  0.00    -0.248 NA
ATOM     60  C   UNL A   1      45.071  39.308  31.827  1.00  0.00     0.031 C 
ATOM     61  C   UNL A   1      43.302  37.730  37.415  1.00  0.00     0.029 A 
ATOM     62  C   UNL A   1      43.471  37.759  36.040  1.00  0.00     0.049 A 
ATOM     63  H   UNL A   1      42.679  36.464  34.575  1.00  0.00     0.167 HD
ATOM     64  C   UNL A   1      44.379  38.628  33.904  1.00  0.00     0.074 A 
ATOM     65  C   UNL A   1      45.144  39.578  33.124  1.00  0.00     0.031 C 
ATOM     66  C   UNL A   1      44.226  38.699  35.250  1.00  0.00     0.031 A 
BRANCH  53  67
ATOM     67  C   UNL A   1      40.642  34.260  37.619  1.00  0.00    -0.014 A 
ATOM     68  C   UNL A   1      41.341  33.324  38.402  1.00  0.00     0.010 A 
ATOM     69  C   UNL A   1      39.373  34.696  38.043  1.00  0.00     0.010 A 
ATOM     70  C   UNL A   1      40.774  32.821  39.577  1.00  0.00     0.020 A 
ATOM     71  C   UNL A   1      38.813  34.214  39.230  1.00  0.00     0.020 A 
ATOM     72  C   UNL A   1      39.515  33.272  39.985  1.00  0.00     0.054 A 
BRANCH  72  73
ATOM     73  S   UNL A   1      38.830  32.641  41.542  1.00  0.00     0.124 S 
ATOM     74  O   UNL A   1      39.382  31.290  41.588  1.00  0.00    -0.237 OA
ATOM     75  O   UNL A   1      39.368  33.575  42.528  1.00  0.00    -0.237 OA
ATOM     76  O   UNL A   1      37.384  32.715  41.342  1.00  0.00    -0.744 OA
ENDBRANCH  72  73
ENDBRANCH  53  67
BRANCH  54  77
ATOM     77  C   UNL A   1      44.585  38.026  29.241  1.00  0.00    -0.014 A 
ATOM     78  C   UNL A   1      45.948  37.899  28.922  1.00  0.00     0.010 A 
ATOM     79  C   UNL A   1      43.749  38.764  28.382  1.00  0.00     0.010 A 
ATOM     80  C   UNL A   1      46.470  38.524  27.784  1.00  0.00     0.020 A 
ATOM     81  C   UNL A   1      44.260  39.362  27.228  1.00  0.00     0.020 A 
ATOM     82  C   UNL A   1      45.622  39.252  26.946  1.00  0.00     0.054 A 
BRANCH  82  83
ATOM     83  S   UNL A   1      46.315  40.037  25.464  1.00  0.00     0.124 S 
ATOM     84  O   UNL A   1      45.173  40.790  24.958  1.00  0.00    -0.237 OA
ATOM     85  O   UNL A   1      47.409  40.834  26.013  1.00  0.00    -0.237 OA
ATOM     86  O   UNL A   1      46.733  38.903  24.642  1.00  0.00    -0.744 OA
ENDBRANCH  82  83
ENDBRANCH  54  77
BRANCH  66  87
ATOM     87  C   UNL A   1      44.912  39.830  35.970  1.00  0.00    -0.014 A 
ATOM     88  C   UNL A   1      46.199  39.670  36.512  1.00  0.00     0.010 A 
ATOM     89  C   UNL A   1      44.284  41.087  36.054  1.00  0.00     0.010 A 
ATOM     90  C   UNL A   1      46.835  40.737  37.151  1.00  0.00     0.020 A 
ATOM     91  C   UNL A   1      44.930  42.166  36.666  1.00  0.00     0.020 A 
ATOM     92  C   UNL A   1      46.197  41.980  37.221  1.00  0.00     0.054 A 
BRANCH  92  93
ATOM     93  S   UNL A   1      47.068  43.362  38.010  1.00  0.00     0.124 S 
ATOM     94  O   UNL A   1      48.249  43.501  37.163  1.00  0.00    -0.237 OA
ATOM     95  O   UNL A   1      46.096  44.448  37.915  1.00  0.00    -0.237 OA
ATOM     96  O   UNL A   1      47.326  42.880  39.365  1.00  0.00    -0.744 OA
ENDBRANCH  92  93
ENDBRANCH  66  87
ENDBRANCH  40  41
ENDBRANCH  33  35
ENDBRANCH  32  33
ENDBRANCH  31  32
ENDBRANCH   1  31
TORSDOF 21
ENDMDL
MODEL 3
REMARK VINA RESULT:      -9.6      5.709      9.805
REMARK SMILES CC(=O)Nc1ccc(/C(=C\c2ccc(S(C)(=O)=O)cc2)C(=O)OCCOCCOC(=O)c2ccc(-c3c4nc(c(-c5ccc(S(=O)(=O)[O-])cc5)c5ccc([nH]5)c(-c5ccc(S(=O)(=O)[O-])cc5)c5nc(c(-c6ccc(S(=O)(=O)[O-])cc6)c6ccc3[nH]6)C=C5)C=C4)cc2)cc1
REMARK SMILES IDX 27 1 26 2 25 3 24 4 23 5 21 6 22 7 9 8 10 9 8 10 5 11 6 12
REMARK SMILES IDX 93 13 7 14 92 15 4 16 1 17 2 18 3 19 11 21 12 22 20 23 13 24
REMARK SMILES IDX 19 25 14 26 15 27 16 28 17 29 18 30 28 31 29 32 30 33 31 34
REMARK SMILES IDX 32 35 33 36 91 37 34 38 90 39 35 40 36 41 37 42 84 43 38 44
REMARK SMILES IDX 89 45 83 46 85 47 39 48 88 49 82 50 81 51 40 53 70 54 51 55
REMARK SMILES IDX 69 56 52 57 55 58 68 59 86 60 53 61 54 62 67 64 87 65 56 66
REMARK SMILES IDX 41 67 42 68 50 69 43 70 49 71 44 72 45 73 46 74 47 75 48 76
REMARK SMILES IDX 71 77 72 78 80 79 73 80 79 81 74 82 75 83 76 84 77 85 78 86
REMARK SMILES IDX 57 87 58 88 66 89 59 90 65 91 60 92 61 93 62 94 63 95 64 96
REMARK H PARENT 4 20 85 52 55 63
REMARK Flexibility Score: inf
ROOT
ATOM      1  C   UNL A   1      41.376  21.855  25.903  1.00  0.00     0.202 C 
ENDROOT
BRANCH   1   2
ATOM      2  O   UNL A   1      41.654  23.169  26.387  1.00  0.00    -0.374 OA
BRANCH   2   3
ATOM      3  C   UNL A   1      40.542  24.036  26.615  1.00  0.00     0.202 C 
BRANCH   3   4
ATOM      4  C   UNL A   1      39.225  23.383  27.050  1.00  0.00     0.261 C 
BRANCH   4   5
ATOM      5  O   UNL A   1      38.142  23.772  26.194  1.00  0.00    -0.460 OA
BRANCH   5   6
ATOM      6  C   UNL A   1      37.464  22.744  25.619  1.00  0.00     0.338 C 
ATOM      7  O   UNL A   1      37.923  21.641  25.360  1.00  0.00    -0.246 OA
BRANCH   6   8
ATOM      8  C   UNL A   1      36.002  23.069  25.478  1.00  0.00     0.067 C 
ATOM      9  C   UNL A   1      35.696  24.371  25.256  1.00  0.00     0.024 C 
BRANCH   8  10
ATOM     10  C   UNL A   1      35.031  21.940  25.614  1.00  0.00    -0.011 A 
ATOM     11  C   UNL A   1      33.475  19.569  25.848  1.00  0.00     0.041 A 
ATOM     12  C   UNL A   1      33.537  20.496  26.892  1.00  0.00     0.027 A 
ATOM     13  C   UNL A   1      34.093  19.893  24.647  1.00  0.00     0.027 A 
ATOM     14  C   UNL A   1      34.288  21.675  26.767  1.00  0.00     0.011 A 
ATOM     15  C   UNL A   1      34.863  21.057  24.537  1.00  0.00     0.011 A 
BRANCH  11  16
ATOM     16  N   UNL A   1      32.749  18.389  26.077  1.00  0.00    -0.326 N 
ATOM     17  C   UNL A   1      34.176  16.679  24.938  1.00  0.00     0.114 C 
ATOM     18  C   UNL A   1      32.919  17.104  25.647  1.00  0.00     0.221 C 
ATOM     19  O   UNL A   1      32.039  16.276  25.899  1.00  0.00    -0.275 OA
ATOM     20  H   UNL A   1      31.966  18.511  26.660  1.00  0.00     0.169 HD
ENDBRANCH  11  16
ENDBRANCH   8  10
BRANCH   9  21
ATOM     21  C   UNL A   1      34.382  24.907  24.869  1.00  0.00    -0.025 A 
ATOM     22  C   UNL A   1      33.963  26.057  25.556  1.00  0.00     0.009 A 
ATOM     23  C   UNL A   1      33.644  24.451  23.770  1.00  0.00     0.009 A 
ATOM     24  C   UNL A   1      32.916  26.831  25.064  1.00  0.00     0.021 A 
ATOM     25  C   UNL A   1      32.594  25.227  23.266  1.00  0.00     0.021 A 
ATOM     26  C   UNL A   1      32.267  26.434  23.894  1.00  0.00     0.067 A 
BRANCH  26  27
ATOM     27  S   UNL A   1      31.167  27.589  23.110  1.00  0.00     0.175 S 
ATOM     28  C   UNL A   1      29.587  27.256  23.835  1.00  0.00     0.163 C 
ATOM     29  O   UNL A   1      31.588  28.915  23.524  1.00  0.00    -0.224 OA
ATOM     30  O   UNL A   1      31.094  27.248  21.702  1.00  0.00    -0.224 OA
ENDBRANCH  26  27
ENDBRANCH   9  21
ENDBRANCH   6   8
ENDBRANCH   5   6
ENDBRANCH   4   5
ENDBRANCH   3   4
ENDBRANCH   2   3
ENDBRANCH   1   2
BRANCH   1  31
ATOM     31  C   UNL A   1      42.422  20.760  26.134  1.00  0.00     0.261 C 
BRANCH  31  32
ATOM     32  O   UNL A   1      43.151  20.422  24.944  1.00  0.00    -0.460 OA
BRANCH  32  33
ATOM     33  C   UNL A   1      44.500  20.455  25.074  1.00  0.00     0.338 C 
ATOM     34  O   UNL A   1      45.289  19.555  24.820  1.00  0.00    -0.246 OA
BRANCH  33  35
ATOM     35  C   UNL A   1      44.927  21.827  25.396  1.00  0.00     0.060 A 
ATOM     36  C   UNL A   1      45.318  22.099  26.714  1.00  0.00     0.016 A 
ATOM     37  C   UNL A   1      44.914  22.837  24.434  1.00  0.00     0.016 A 
ATOM     38  C   UNL A   1      45.693  23.392  27.076  1.00  0.00     0.010 A 
ATOM     39  C   UNL A   1      45.277  24.136  24.804  1.00  0.00     0.010 A 
ATOM     40  C   UNL A   1      45.657  24.423  26.128  1.00  0.00    -0.014 A 
BRANCH  40  41
ATOM     41  C   UNL A   1      45.966  25.816  26.528  1.00  0.00     0.031 A 
ATOM     42  C   UNL A   1      44.854  26.723  26.978  1.00  0.00     0.074 A 
ATOM     43  C   UNL A   1      47.234  26.265  26.481  1.00  0.00     0.049 A 
ATOM     44  N   UNL A   1      44.902  27.993  27.285  1.00  0.00    -0.248 NA
ATOM     45  C   UNL A   1      43.516  26.122  27.096  1.00  0.00     0.031 C 
ATOM     46  C   UNL A   1      48.400  25.466  26.103  1.00  0.00     0.029 A 
ATOM     47  N   UNL A   1      47.750  27.510  26.742  1.00  0.00    -0.354 N 
ATOM     48  C   UNL A   1      43.603  28.347  27.632  1.00  0.00     0.074 A 
ATOM     49  C   UNL A   1      42.786  27.164  27.470  1.00  0.00     0.031 C 
ATOM     50  C   UNL A   1      49.494  26.245  26.143  1.00  0.00     0.029 A 
ATOM     51  C   UNL A   1      49.101  27.606  26.504  1.00  0.00     0.049 A 
ATOM     52  H   UNL A   1      47.205  28.262  27.066  1.00  0.00     0.167 HD
ATOM     53  C   UNL A   1      43.138  29.549  28.050  1.00  0.00     0.031 A 
ATOM     54  C   UNL A   1      49.921  28.675  26.538  1.00  0.00     0.031 A 
ATOM     55  C   UNL A   1      43.954  30.725  28.192  1.00  0.00     0.049 A 
ATOM     56  C   UNL A   1      49.356  30.022  26.908  1.00  0.00     0.074 A 
ATOM     57  C   UNL A   1      43.576  31.986  28.621  1.00  0.00     0.029 A 
ATOM     58  N   UNL A   1      45.309  30.793  27.902  1.00  0.00    -0.354 N 
ATOM     59  N   UNL A   1      48.131  30.334  27.259  1.00  0.00    -0.248 NA
ATOM     60  C   UNL A   1      50.285  31.160  26.884  1.00  0.00     0.031 C 
ATOM     61  C   UNL A   1      44.687  32.831  28.530  1.00  0.00     0.029 A 
ATOM     62  C   UNL A   1      45.772  32.082  28.106  1.00  0.00     0.049 A 
ATOM     63  H   UNL A   1      45.859  30.037  27.596  1.00  0.00     0.167 HD
ATOM     64  C   UNL A   1      48.149  31.701  27.518  1.00  0.00     0.074 A 
ATOM     65  C   UNL A   1      49.510  32.150  27.307  1.00  0.00     0.031 C 
ATOM     66  C   UNL A   1      47.130  32.515  27.890  1.00  0.00     0.031 A 
BRANCH  53  67
ATOM     67  C   UNL A   1      41.671  29.665  28.366  1.00  0.00    -0.014 A 
ATOM     68  C   UNL A   1      40.696  29.459  27.373  1.00  0.00     0.010 A 
ATOM     69  C   UNL A   1      41.259  29.903  29.691  1.00  0.00     0.010 A 
ATOM     70  C   UNL A   1      39.337  29.506  27.696  1.00  0.00     0.020 A 
ATOM     71  C   UNL A   1      39.901  29.926  30.022  1.00  0.00     0.020 A 
ATOM     72  C   UNL A   1      38.949  29.735  29.020  1.00  0.00     0.054 A 
BRANCH  72  73
ATOM     73  S   UNL A   1      37.178  29.736  29.417  1.00  0.00     0.124 S 
ATOM     74  O   UNL A   1      36.922  31.156  29.643  1.00  0.00    -0.237 OA
ATOM     75  O   UNL A   1      36.581  29.173  28.209  1.00  0.00    -0.237 OA
ATOM     76  O   UNL A   1      37.087  28.891  30.606  1.00  0.00    -0.744 OA
ENDBRANCH  72  73
ENDBRANCH  53  67
BRANCH  54  77
ATOM     77  C   UNL A   1      51.355  28.533  26.163  1.00  0.00    -0.014 A 
ATOM     78  C   UNL A   1      52.335  28.284  27.140  1.00  0.00     0.010 A 
ATOM     79  C   UNL A   1      51.752  28.682  24.821  1.00  0.00     0.010 A 
ATOM     80  C   UNL A   1      53.686  28.217  26.786  1.00  0.00     0.020 A 
ATOM     81  C   UNL A   1      53.098  28.584  24.459  1.00  0.00     0.020 A 
ATOM     82  C   UNL A   1      54.058  28.369  25.448  1.00  0.00     0.054 A 
BRANCH  82  83
ATOM     83  S   UNL A   1      55.815  28.258  25.008  1.00  0.00     0.124 S 
ATOM     84  O   UNL A   1      56.167  29.659  24.807  1.00  0.00    -0.237 OA
ATOM     85  O   UNL A   1      56.395  27.619  26.187  1.00  0.00    -0.237 OA
ATOM     86  O   UNL A   1      55.812  27.432  23.801  1.00  0.00    -0.744 OA
ENDBRANCH  82  83
ENDBRANCH  54  77
BRANCH  66  87
ATOM     87  C   UNL A   1      47.447  33.970  28.112  1.00  0.00    -0.014 A 
ATOM     88  C   UNL A   1      47.306  34.910  27.075  1.00  0.00     0.010 A 
ATOM     89  C   UNL A   1      47.836  34.414  29.390  1.00  0.00     0.010 A 
ATOM     90  C   UNL A   1      47.576  36.262  27.305  1.00  0.00     0.020 A 
ATOM     91  C   UNL A   1      48.077  35.769  29.631  1.00  0.00     0.020 A 
ATOM     92  C   UNL A   1      47.957  36.684  28.583  1.00  0.00     0.054 A 
BRANCH  92  93
ATOM     93  S   UNL A   1      48.250  38.451  28.864  1.00  0.00     0.124 S 
ATOM     94  O   UNL A   1      48.828  38.453  30.205  1.00  0.00    -0.237 OA
ATOM     95  O   UNL A   1      49.168  38.798  27.783  1.00  0.00    -0.237 OA
ATOM     96  O   UNL A   1      46.918  39.045  28.758  1.00  0.00    -0.744 OA
ENDBRANCH  92  93
ENDBRANCH  66  87
ENDBRANCH  40  41
ENDBRANCH  33  35
ENDBRANCH  32  33
ENDBRANCH  31  32
ENDBRANCH   1  31
TORSDOF 21
ENDMDL
