MODEL 1
REMARK VINA RESULT:     -10.7      0.000      0.000
REMARK SMILES O=C(C[C@H]1C(=O)NCC[N@@H+]1Cc1ccc(Cl)c(F)c1)OCCOCCOC(=O)c1ccc(-c2c3nc(c(-c4ccc(S(=O)(=O)[O-])cc4)c4ccc([nH]4)c(-c4ccc(S(=O)(=O)[O-])cc4)c4nc(c(-c5ccc(S(=O)(=O)[O-])cc5)c5ccc2[nH]5)C=C4)C=C3)cc1
REMARK SMILES IDX 23 1 22 2 21 3 20 4 2 5 1 6 3 7 4 8 5 9 10 10 6 11 7 12 9 13
REMARK SMILES IDX 8 15 11 17 12 18 13 19 19 20 14 21 17 22 15 23 18 24 16 25
REMARK SMILES IDX 24 26 25 27 26 28 27 29 28 30 29 31 30 32 88 33 31 34 87 35
REMARK SMILES IDX 32 36 33 37 34 38 81 39 35 40 86 41 80 42 82 43 36 44 85 45
REMARK SMILES IDX 79 46 78 47 37 49 67 50 48 51 66 52 49 53 52 54 65 55 83 56
REMARK SMILES IDX 50 57 51 58 64 60 84 61 53 62 38 63 39 64 47 65 40 66 46 67
REMARK SMILES IDX 41 68 42 69 43 70 44 71 45 72 68 73 69 74 77 75 70 76 76 77
REMARK SMILES IDX 71 78 72 79 73 80 74 81 75 82 54 83 55 84 63 85 56 86 62 87
REMARK SMILES IDX 57 88 58 89 59 90 60 91 61 92
REMARK H PARENT 10 14 7 16 82 48 52 59
REMARK Flexibility Score: inf
ROOT
ATOM      1  O   UNL A   1      37.651  23.177  25.863  1.00  0.00    -0.374 OA
ENDROOT
BRANCH   1   2
ATOM      2  C   UNL A   1      36.700  23.677  24.933  1.00  0.00     0.202 C 
BRANCH   2   3
ATOM      3  C   UNL A   1      36.663  23.112  23.515  1.00  0.00     0.261 C 
BRANCH   3   4
ATOM      4  O   UNL A   1      35.466  23.377  22.776  1.00  0.00    -0.463 OA
BRANCH   4   5
ATOM      5  C   UNL A   1      34.213  23.060  23.161  1.00  0.00     0.312 C 
ATOM      6  O   UNL A   1      33.310  23.885  23.016  1.00  0.00    -0.252 OA
BRANCH   5   7
ATOM      7  C   UNL A   1      33.933  21.762  23.873  1.00  0.00     0.198 C 
BRANCH   7   8
ATOM      8  C   UNL A   1      32.663  21.728  24.703  1.00  0.00     0.285 C 
ATOM      9  C   UNL A   1      32.632  20.376  25.418  1.00  0.00     0.279 C 
ATOM     10  N   UNL A   1      32.610  22.887  25.609  1.00  0.00    -0.319 N 
ATOM     11  O   UNL A   1      32.138  19.372  24.907  1.00  0.00    -0.268 OA
ATOM     12  N   UNL A   1      33.282  20.282  26.611  1.00  0.00    -0.345 N 
ATOM     13  C   UNL A   1      33.586  22.798  26.695  1.00  0.00     0.284 C 
ATOM     14  H   UNL A   1      32.940  23.682  25.063  1.00  0.00     0.349 HD
ATOM     15  C   UNL A   1      33.753  21.418  27.369  1.00  0.00     0.177 C 
ATOM     16  H   UNL A   1      33.440  19.383  26.980  1.00  0.00     0.163 HD
BRANCH  10  17
ATOM     17  C   UNL A   1      31.274  23.387  25.932  1.00  0.00     0.299 C 
BRANCH  17  18
ATOM     18  C   UNL A   1      31.078  24.850  25.634  1.00  0.00     0.009 A 
ATOM     19  C   UNL A   1      31.585  25.833  26.500  1.00  0.00     0.011 A 
ATOM     20  C   UNL A   1      30.528  25.239  24.408  1.00  0.00     0.050 A 
ATOM     21  C   UNL A   1      31.650  27.165  26.091  1.00  0.00     0.024 A 
ATOM     22  C   UNL A   1      30.626  26.560  23.994  1.00  0.00     0.142 A 
ATOM     23  C   UNL A   1      31.203  27.521  24.819  1.00  0.00     0.076 A 
ATOM     24  F   UNL A   1      30.210  26.870  22.758  1.00  0.00    -0.205 F 
ATOM     25  Cl  UNL A   1      31.410  29.137  24.266  1.00  0.00    -0.081 Cl
ENDBRANCH  17  18
ENDBRANCH  10  17
ENDBRANCH   7   8
ENDBRANCH   5   7
ENDBRANCH   4   5
ENDBRANCH   3   4
ENDBRANCH   2   3
ENDBRANCH   1   2
BRANCH   1  26
ATOM     26  C   UNL A   1      38.164  21.856  25.644  1.00  0.00     0.202 C 
BRANCH  26  27
ATOM     27  C   UNL A   1      39.590  21.571  26.113  1.00  0.00     0.261 C 
BRANCH  27  28
ATOM     28  O   UNL A   1      40.001  22.511  27.110  1.00  0.00    -0.460 OA
BRANCH  28  29
ATOM     29  C   UNL A   1      41.056  23.285  26.765  1.00  0.00     0.338 C 
ATOM     30  O   UNL A   1      41.901  23.053  25.914  1.00  0.00    -0.246 OA
BRANCH  29  31
ATOM     31  C   UNL A   1      40.879  24.602  27.404  1.00  0.00     0.060 A 
ATOM     32  C   UNL A   1      41.777  25.629  27.068  1.00  0.00     0.016 A 
ATOM     33  C   UNL A   1      39.833  24.826  28.299  1.00  0.00     0.016 A 
ATOM     34  C   UNL A   1      41.675  26.870  27.686  1.00  0.00     0.010 A 
ATOM     35  C   UNL A   1      39.739  26.061  28.928  1.00  0.00     0.010 A 
ATOM     36  C   UNL A   1      40.694  27.060  28.662  1.00  0.00    -0.014 A 
BRANCH  36  37
ATOM     37  C   UNL A   1      40.796  28.181  29.613  1.00  0.00     0.031 A 
ATOM     38  C   UNL A   1      41.853  28.084  30.674  1.00  0.00     0.074 A 
ATOM     39  C   UNL A   1      39.931  29.205  29.572  1.00  0.00     0.049 A 
ATOM     40  N   UNL A   1      42.025  28.813  31.742  1.00  0.00    -0.248 NA
ATOM     41  C   UNL A   1      42.832  26.992  30.521  1.00  0.00     0.031 C 
ATOM     42  C   UNL A   1      38.903  29.405  28.553  1.00  0.00     0.029 A 
ATOM     43  N   UNL A   1      39.762  30.248  30.442  1.00  0.00    -0.354 N 
ATOM     44  C   UNL A   1      43.105  28.245  32.408  1.00  0.00     0.074 A 
ATOM     45  C   UNL A   1      43.532  27.100  31.637  1.00  0.00     0.031 C 
ATOM     46  C   UNL A   1      38.183  30.493  28.876  1.00  0.00     0.029 A 
ATOM     47  C   UNL A   1      38.670  31.026  30.148  1.00  0.00     0.049 A 
ATOM     48  H   UNL A   1      40.364  30.423  31.202  1.00  0.00     0.167 HD
ATOM     49  C   UNL A   1      43.679  28.643  33.566  1.00  0.00     0.031 A 
ATOM     50  C   UNL A   1      38.105  32.023  30.854  1.00  0.00     0.031 A 
ATOM     51  C   UNL A   1      43.215  29.771  34.325  1.00  0.00     0.049 A 
ATOM     52  C   UNL A   1      38.721  32.421  32.169  1.00  0.00     0.074 A 
ATOM     53  C   UNL A   1      43.728  30.291  35.498  1.00  0.00     0.029 A 
ATOM     54  N   UNL A   1      42.114  30.549  33.986  1.00  0.00    -0.354 N 
ATOM     55  N   UNL A   1      39.755  31.898  32.785  1.00  0.00    -0.248 NA
ATOM     56  C   UNL A   1      38.103  33.548  32.879  1.00  0.00     0.031 C 
ATOM     57  C   UNL A   1      42.897  31.339  35.904  1.00  0.00     0.029 A 
ATOM     58  C   UNL A   1      41.915  31.528  34.942  1.00  0.00     0.049 A 
ATOM     59  H   UNL A   1      41.558  30.421  33.184  1.00  0.00     0.167 HD
ATOM     60  C   UNL A   1      39.936  32.656  33.937  1.00  0.00     0.074 A 
ATOM     61  C   UNL A   1      38.901  33.671  33.931  1.00  0.00     0.031 C 
ATOM     62  C   UNL A   1      40.879  32.532  34.906  1.00  0.00     0.031 A 
BRANCH  49  63
ATOM     63  C   UNL A   1      44.819  27.812  34.096  1.00  0.00    -0.014 A 
ATOM     64  C   UNL A   1      44.598  26.718  34.954  1.00  0.00     0.010 A 
ATOM     65  C   UNL A   1      46.139  28.143  33.741  1.00  0.00     0.010 A 
ATOM     66  C   UNL A   1      45.676  26.012  35.494  1.00  0.00     0.020 A 
ATOM     67  C   UNL A   1      47.219  27.417  34.249  1.00  0.00     0.020 A 
ATOM     68  C   UNL A   1      46.981  26.371  35.143  1.00  0.00     0.054 A 
BRANCH  68  69
ATOM     69  S   UNL A   1      48.362  25.446  35.866  1.00  0.00     0.124 S 
ATOM     70  O   UNL A   1      47.667  24.399  36.610  1.00  0.00    -0.237 OA
ATOM     71  O   UNL A   1      49.097  24.994  34.687  1.00  0.00    -0.237 OA
ATOM     72  O   UNL A   1      49.054  26.437  36.686  1.00  0.00    -0.744 OA
ENDBRANCH  68  69
ENDBRANCH  49  63
BRANCH  50  73
ATOM     73  C   UNL A   1      36.889  32.694  30.321  1.00  0.00    -0.014 A 
ATOM     74  C   UNL A   1      35.634  32.468  30.911  1.00  0.00     0.010 A 
ATOM     75  C   UNL A   1      36.994  33.623  29.269  1.00  0.00     0.010 A 
ATOM     76  C   UNL A   1      34.507  33.163  30.463  1.00  0.00     0.020 A 
ATOM     77  C   UNL A   1      35.875  34.339  28.836  1.00  0.00     0.020 A 
ATOM     78  C   UNL A   1      34.637  34.103  29.438  1.00  0.00     0.054 A 
BRANCH  78  79
ATOM     79  S   UNL A   1      33.177  35.063  28.947  1.00  0.00     0.124 S 
ATOM     80  O   UNL A   1      32.486  35.239  30.221  1.00  0.00    -0.237 OA
ATOM     81  O   UNL A   1      33.774  36.269  28.378  1.00  0.00    -0.237 OA
ATOM     82  O   UNL A   1      32.504  34.197  27.983  1.00  0.00    -0.744 OA
ENDBRANCH  78  79
ENDBRANCH  50  73
BRANCH  62  83
ATOM     83  C   UNL A   1      40.885  33.552  36.013  1.00  0.00    -0.014 A 
ATOM     84  C   UNL A   1      41.610  34.751  35.909  1.00  0.00     0.010 A 
ATOM     85  C   UNL A   1      40.062  33.341  37.136  1.00  0.00     0.010 A 
ATOM     86  C   UNL A   1      41.523  35.714  36.918  1.00  0.00     0.020 A 
ATOM     87  C   UNL A   1      39.948  34.314  38.130  1.00  0.00     0.020 A 
ATOM     88  C   UNL A   1      40.685  35.493  38.017  1.00  0.00     0.054 A 
BRANCH  88  89
ATOM     89  S   UNL A   1      40.531  36.792  39.273  1.00  0.00     0.124 S 
ATOM     90  O   UNL A   1      41.777  37.534  39.097  1.00  0.00    -0.237 OA
ATOM     91  O   UNL A   1      39.318  37.493  38.859  1.00  0.00    -0.237 OA
ATOM     92  O   UNL A   1      40.419  36.051  40.527  1.00  0.00    -0.744 OA
ENDBRANCH  88  89
ENDBRANCH  62  83
ENDBRANCH  36  37
ENDBRANCH  29  31
ENDBRANCH  28  29
ENDBRANCH  27  28
ENDBRANCH  26  27
ENDBRANCH   1  26
TORSDOF 20
ENDMDL
MODEL 2
REMARK VINA RESULT:     -10.2      2.782      4.036
REMARK SMILES O=C(C[C@H]1C(=O)NCC[N@@H+]1Cc1ccc(Cl)c(F)c1)OCCOCCOC(=O)c1ccc(-c2c3nc(c(-c4ccc(S(=O)(=O)[O-])cc4)c4ccc([nH]4)c(-c4ccc(S(=O)(=O)[O-])cc4)c4nc(c(-c5ccc(S(=O)(=O)[O-])cc5)c5ccc2[nH]5)C=C4)C=C3)cc1
REMARK SMILES IDX 23 1 22 2 21 3 20 4 2 5 1 6 3 7 4 8 5 9 10 10 6 11 7 12 9 13
REMARK SMILES IDX 8 15 11 17 12 18 13 19 19 20 14 21 17 22 15 23 18 24 16 25
REMARK SMILES IDX 24 26 25 27 26 28 27 29 28 30 29 31 30 32 88 33 31 34 87 35
REMARK SMILES IDX 32 36 33 37 34 38 81 39 35 40 86 41 80 42 82 43 36 44 85 45
REMARK SMILES IDX 79 46 78 47 37 49 67 50 48 51 66 52 49 53 52 54 65 55 83 56
REMARK SMILES IDX 50 57 51 58 64 60 84 61 53 62 38 63 39 64 47 65 40 66 46 67
REMARK SMILES IDX 41 68 42 69 43 70 44 71 45 72 68 73 69 74 77 75 70 76 76 77
REMARK SMILES IDX 71 78 72 79 73 80 74 81 75 82 54 83 55 84 63 85 56 86 62 87
REMARK SMILES IDX 57 88 58 89 59 90 60 91 61 92
REMARK H PARENT 10 14 7 16 82 48 52 59
REMARK Flexibility Score: inf
ROOT
ATOM      1  O   UNL A   1      41.584  21.842  26.131  1.00  0.00    -0.374 OA
ENDROOT
BRANCH   1   2
ATOM      2  C   UNL A   1      40.263  21.716  26.640  1.00  0.00     0.202 C 
BRANCH   2   3
ATOM      3  C   UNL A   1      39.140  21.250  25.717  1.00  0.00     0.261 C 
BRANCH   3   4
ATOM      4  O   UNL A   1      37.935  22.020  25.772  1.00  0.00    -0.463 OA
BRANCH   4   5
ATOM      5  C   UNL A   1      36.758  21.689  25.202  1.00  0.00     0.312 C 
ATOM      6  O   UNL A   1      36.495  20.501  25.009  1.00  0.00    -0.252 OA
BRANCH   5   7
ATOM      7  C   UNL A   1      35.823  22.754  24.693  1.00  0.00     0.198 C 
BRANCH   7   8
ATOM      8  C   UNL A   1      34.355  22.553  25.019  1.00  0.00     0.285 C 
ATOM      9  C   UNL A   1      33.763  23.937  25.289  1.00  0.00     0.279 C 
ATOM     10  N   UNL A   1      33.685  21.814  23.937  1.00  0.00    -0.319 N 
ATOM     11  O   UNL A   1      33.778  24.454  26.405  1.00  0.00    -0.268 OA
ATOM     12  N   UNL A   1      33.313  24.647  24.217  1.00  0.00    -0.345 N 
ATOM     13  C   UNL A   1      33.534  22.613  22.719  1.00  0.00     0.284 C 
ATOM     14  H   UNL A   1      34.337  21.082  23.656  1.00  0.00     0.349 HD
ATOM     15  C   UNL A   1      33.104  24.084  22.903  1.00  0.00     0.177 C 
ATOM     16  H   UNL A   1      33.118  25.604  24.346  1.00  0.00     0.163 HD
BRANCH  10  17
ATOM     17  C   UNL A   1      32.565  20.964  24.339  1.00  0.00     0.299 C 
BRANCH  17  18
ATOM     18  C   UNL A   1      32.953  19.541  24.643  1.00  0.00     0.009 A 
ATOM     19  C   UNL A   1      32.533  18.923  25.832  1.00  0.00     0.011 A 
ATOM     20  C   UNL A   1      33.599  18.776  23.667  1.00  0.00     0.050 A 
ATOM     21  C   UNL A   1      32.650  17.540  25.985  1.00  0.00     0.024 A 
ATOM     22  C   UNL A   1      33.683  17.399  23.811  1.00  0.00     0.142 A 
ATOM     23  C   UNL A   1      33.192  16.774  24.954  1.00  0.00     0.076 A 
ATOM     24  F   UNL A   1      34.188  16.684  22.796  1.00  0.00    -0.205 F 
ATOM     25  Cl  UNL A   1      33.211  15.059  25.089  1.00  0.00    -0.081 Cl
ENDBRANCH  17  18
ENDBRANCH  10  17
ENDBRANCH   7   8
ENDBRANCH   5   7
ENDBRANCH   4   5
ENDBRANCH   3   4
ENDBRANCH   2   3
ENDBRANCH   1   2
BRANCH   1  26
ATOM     26  C   UNL A   1      42.365  22.959  26.576  1.00  0.00     0.202 C 
BRANCH  26  27
ATOM     27  C   UNL A   1      42.107  24.306  25.904  1.00  0.00     0.261 C 
BRANCH  27  28
ATOM     28  O   UNL A   1      41.693  25.287  26.861  1.00  0.00    -0.460 OA
BRANCH  28  29
ATOM     29  C   UNL A   1      40.372  25.582  26.843  1.00  0.00     0.338 C 
ATOM     30  O   UNL A   1      39.481  24.961  26.285  1.00  0.00    -0.246 OA
BRANCH  29  31
ATOM     31  C   UNL A   1      40.132  26.644  27.837  1.00  0.00     0.060 A 
ATOM     32  C   UNL A   1      40.634  27.929  27.568  1.00  0.00     0.016 A 
ATOM     33  C   UNL A   1      39.407  26.383  28.999  1.00  0.00     0.016 A 
ATOM     34  C   UNL A   1      40.473  28.945  28.502  1.00  0.00     0.010 A 
ATOM     35  C   UNL A   1      39.259  27.395  29.939  1.00  0.00     0.010 A 
ATOM     36  C   UNL A   1      39.840  28.656  29.714  1.00  0.00    -0.014 A 
BRANCH  36  37
ATOM     37  C   UNL A   1      40.001  29.554  30.871  1.00  0.00     0.031 A 
ATOM     38  C   UNL A   1      41.148  29.278  31.799  1.00  0.00     0.074 A 
ATOM     39  C   UNL A   1      39.113  30.528  31.120  1.00  0.00     0.049 A 
ATOM     40  N   UNL A   1      41.396  29.770  32.980  1.00  0.00    -0.248 NA
ATOM     41  C   UNL A   1      42.134  28.283  31.337  1.00  0.00     0.031 C 
ATOM     42  C   UNL A   1      37.996  30.898  30.254  1.00  0.00     0.029 A 
ATOM     43  N   UNL A   1      38.998  31.355  32.204  1.00  0.00    -0.354 N 
ATOM     44  C   UNL A   1      42.543  29.118  33.420  1.00  0.00     0.074 A 
ATOM     45  C   UNL A   1      42.926  28.180  32.390  1.00  0.00     0.031 C 
ATOM     46  C   UNL A   1      37.283  31.862  30.859  1.00  0.00     0.029 A 
ATOM     47  C   UNL A   1      37.867  32.134  32.172  1.00  0.00     0.049 A 
ATOM     48  H   UNL A   1      39.659  31.390  32.933  1.00  0.00     0.167 HD
ATOM     49  C   UNL A   1      43.207  29.285  34.586  1.00  0.00     0.031 A 
ATOM     50  C   UNL A   1      37.344  32.936  33.118  1.00  0.00     0.031 A 
ATOM     51  C   UNL A   1      42.786  30.208  35.604  1.00  0.00     0.049 A 
ATOM     52  C   UNL A   1      38.063  33.071  34.434  1.00  0.00     0.074 A 
ATOM     53  C   UNL A   1      43.388  30.488  36.816  1.00  0.00     0.029 A 
ATOM     54  N   UNL A   1      41.643  30.995  35.529  1.00  0.00    -0.354 N 
ATOM     55  N   UNL A   1      39.159  32.472  34.839  1.00  0.00    -0.248 NA
ATOM     56  C   UNL A   1      37.485  33.997  35.416  1.00  0.00     0.031 C 
ATOM     57  C   UNL A   1      42.572  31.393  37.503  1.00  0.00     0.029 A 
ATOM     58  C   UNL A   1      41.507  31.741  36.685  1.00  0.00     0.049 A 
ATOM     59  H   UNL A   1      41.022  31.017  34.766  1.00  0.00     0.167 HD
ATOM     60  C   UNL A   1      39.423  32.975  36.108  1.00  0.00     0.074 A 
ATOM     61  C   UNL A   1      38.369  33.926  36.403  1.00  0.00     0.031 C 
ATOM     62  C   UNL A   1      40.449  32.687  36.948  1.00  0.00     0.031 A 
BRANCH  49  63
ATOM     63  C   UNL A   1      44.406  28.407  34.833  1.00  0.00    -0.014 A 
ATOM     64  C   UNL A   1      44.287  27.152  35.458  1.00  0.00     0.010 A 
ATOM     65  C   UNL A   1      45.682  28.856  34.445  1.00  0.00     0.010 A 
ATOM     66  C   UNL A   1      45.424  26.392  35.746  1.00  0.00     0.020 A 
ATOM     67  C   UNL A   1      46.818  28.082  34.696  1.00  0.00     0.020 A 
ATOM     68  C   UNL A   1      46.684  26.866  35.369  1.00  0.00     0.054 A 
BRANCH  68  69
ATOM     69  S   UNL A   1      48.143  25.866  35.763  1.00  0.00     0.124 S 
ATOM     70  O   UNL A   1      49.190  26.881  35.850  1.00  0.00    -0.237 OA
ATOM     71  O   UNL A   1      47.769  25.240  37.029  1.00  0.00    -0.237 OA
ATOM     72  O   UNL A   1      48.256  24.952  34.628  1.00  0.00    -0.744 OA
ENDBRANCH  68  69
ENDBRANCH  49  63
BRANCH  50  73
ATOM     73  C   UNL A   1      36.072  33.655  32.842  1.00  0.00    -0.014 A 
ATOM     74  C   UNL A   1      34.840  33.091  33.213  1.00  0.00     0.010 A 
ATOM     75  C   UNL A   1      36.093  34.942  32.273  1.00  0.00     0.010 A 
ATOM     76  C   UNL A   1      33.652  33.805  33.028  1.00  0.00     0.020 A 
ATOM     77  C   UNL A   1      34.911  35.670  32.111  1.00  0.00     0.020 A 
ATOM     78  C   UNL A   1      33.696  35.094  32.491  1.00  0.00     0.054 A 
BRANCH  78  79
ATOM     79  S   UNL A   1      32.151  36.035  32.358  1.00  0.00     0.124 S 
ATOM     80  O   UNL A   1      32.349  37.089  33.347  1.00  0.00    -0.237 OA
ATOM     81  O   UNL A   1      32.167  36.465  30.962  1.00  0.00    -0.237 OA
ATOM     82  O   UNL A   1      31.121  35.053  32.686  1.00  0.00    -0.744 OA
ENDBRANCH  78  79
ENDBRANCH  50  73
BRANCH  62  83
ATOM     83  C   UNL A   1      40.529  33.450  38.244  1.00  0.00    -0.014 A 
ATOM     84  C   UNL A   1      41.224  34.668  38.343  1.00  0.00     0.010 A 
ATOM     85  C   UNL A   1      39.804  32.979  39.356  1.00  0.00     0.010 A 
ATOM     86  C   UNL A   1      41.204  35.392  39.538  1.00  0.00     0.020 A 
ATOM     87  C   UNL A   1      39.757  33.716  40.540  1.00  0.00     0.020 A 
ATOM     88  C   UNL A   1      40.463  34.915  40.626  1.00  0.00     0.054 A 
BRANCH  88  89
ATOM     89  S   UNL A   1      40.391  35.914  42.138  1.00  0.00     0.124 S 
ATOM     90  O   UNL A   1      40.137  34.901  43.159  1.00  0.00    -0.237 OA
ATOM     91  O   UNL A   1      41.716  36.528  42.177  1.00  0.00    -0.237 OA
ATOM     92  O   UNL A   1      39.289  36.840  41.890  1.00  0.00    -0.744 OA
ENDBRANCH  88  89
ENDBRANCH  62  83
ENDBRANCH  36  37
ENDBRANCH  29  31
ENDBRANCH  28  29
ENDBRANCH  27  28
ENDBRANCH  26  27
ENDBRANCH   1  26
TORSDOF 20
ENDMDL
MODEL 3
REMARK VINA RESULT:     -10.2      2.845      9.056
REMARK SMILES O=C(C[C@H]1C(=O)NCC[N@@H+]1Cc1ccc(Cl)c(F)c1)OCCOCCOC(=O)c1ccc(-c2c3nc(c(-c4ccc(S(=O)(=O)[O-])cc4)c4ccc([nH]4)c(-c4ccc(S(=O)(=O)[O-])cc4)c4nc(c(-c5ccc(S(=O)(=O)[O-])cc5)c5ccc2[nH]5)C=C4)C=C3)cc1
REMARK SMILES IDX 23 1 22 2 21 3 20 4 2 5 1 6 3 7 4 8 5 9 10 10 6 11 7 12 9 13
REMARK SMILES IDX 8 15 11 17 12 18 13 19 19 20 14 21 17 22 15 23 18 24 16 25
REMARK SMILES IDX 24 26 25 27 26 28 27 29 28 30 29 31 30 32 88 33 31 34 87 35
REMARK SMILES IDX 32 36 33 37 34 38 81 39 35 40 86 41 80 42 82 43 36 44 85 45
REMARK SMILES IDX 79 46 78 47 37 49 67 50 48 51 66 52 49 53 52 54 65 55 83 56
REMARK SMILES IDX 50 57 51 58 64 60 84 61 53 62 38 63 39 64 47 65 40 66 46 67
REMARK SMILES IDX 41 68 42 69 43 70 44 71 45 72 68 73 69 74 77 75 70 76 76 77
REMARK SMILES IDX 71 78 72 79 73 80 74 81 75 82 54 83 55 84 63 85 56 86 62 87
REMARK SMILES IDX 57 88 58 89 59 90 60 91 61 92
REMARK H PARENT 10 14 7 16 82 48 52 59
REMARK Flexibility Score: inf
ROOT
ATOM      1  O   UNL A   1      39.575  21.566  26.284  1.00  0.00    -0.374 OA
ENDROOT
BRANCH   1   2
ATOM      2  C   UNL A   1      38.353  21.991  25.697  1.00  0.00     0.202 C 
BRANCH   2   3
ATOM      3  C   UNL A   1      37.449  20.968  25.013  1.00  0.00     0.261 C 
BRANCH   3   4
ATOM      4  O   UNL A   1      36.330  21.510  24.304  1.00  0.00    -0.463 OA
BRANCH   4   5
ATOM      5  C   UNL A   1      36.254  22.748  23.774  1.00  0.00     0.312 C 
ATOM      6  O   UNL A   1      36.871  23.000  22.738  1.00  0.00    -0.252 OA
BRANCH   5   7
ATOM      7  C   UNL A   1      35.528  23.851  24.498  1.00  0.00     0.198 C 
BRANCH   7   8
ATOM      8  C   UNL A   1      34.096  23.546  24.897  1.00  0.00     0.285 C 
ATOM      9  C   UNL A   1      33.375  24.887  25.039  1.00  0.00     0.279 C 
ATOM     10  N   UNL A   1      33.476  22.632  23.924  1.00  0.00    -0.319 N 
ATOM     11  O   UNL A   1      33.367  25.522  26.093  1.00  0.00    -0.268 OA
ATOM     12  N   UNL A   1      32.829  25.429  23.915  1.00  0.00    -0.345 N 
ATOM     13  C   UNL A   1      33.215  23.274  22.635  1.00  0.00     0.284 C 
ATOM     14  H   UNL A   1      34.190  21.940  23.699  1.00  0.00     0.349 HD
ATOM     15  C   UNL A   1      32.644  24.708  22.677  1.00  0.00     0.177 C 
ATOM     16  H   UNL A   1      32.543  26.370  23.949  1.00  0.00     0.163 HD
BRANCH  10  17
ATOM     17  C   UNL A   1      32.457  21.726  24.455  1.00  0.00     0.299 C 
BRANCH  17  18
ATOM     18  C   UNL A   1      32.745  20.268  24.212  1.00  0.00     0.009 A 
ATOM     19  C   UNL A   1      32.046  19.554  23.226  1.00  0.00     0.011 A 
ATOM     20  C   UNL A   1      33.824  19.659  24.860  1.00  0.00     0.050 A 
ATOM     21  C   UNL A   1      32.497  18.300  22.812  1.00  0.00     0.024 A 
ATOM     22  C   UNL A   1      34.288  18.427  24.421  1.00  0.00     0.142 A 
ATOM     23  C   UNL A   1      33.644  17.754  23.387  1.00  0.00     0.076 A 
ATOM     24  F   UNL A   1      35.406  17.935  24.975  1.00  0.00    -0.205 F 
ATOM     25  Cl  UNL A   1      34.276  16.273  22.782  1.00  0.00    -0.081 Cl
ENDBRANCH  17  18
ENDBRANCH  10  17
ENDBRANCH   7   8
ENDBRANCH   5   7
ENDBRANCH   4   5
ENDBRANCH   3   4
ENDBRANCH   2   3
ENDBRANCH   1   2
BRANCH   1  26
ATOM     26  C   UNL A   1      40.190  22.436  27.242  1.00  0.00     0.202 C 
BRANCH  26  27
ATOM     27  C   UNL A   1      40.598  23.829  26.764  1.00  0.00     0.261 C 
BRANCH  27  28
ATOM     28  O   UNL A   1      40.185  24.835  27.695  1.00  0.00    -0.460 OA
BRANCH  28  29
ATOM     29  C   UNL A   1      40.491  26.104  27.339  1.00  0.00     0.338 C 
ATOM     30  O   UNL A   1      40.729  26.523  26.217  1.00  0.00    -0.246 OA
BRANCH  29  31
ATOM     31  C   UNL A   1      40.233  26.974  28.500  1.00  0.00     0.060 A 
ATOM     32  C   UNL A   1      40.940  28.184  28.593  1.00  0.00     0.016 A 
ATOM     33  C   UNL A   1      39.293  26.615  29.466  1.00  0.00     0.016 A 
ATOM     34  C   UNL A   1      40.762  29.009  29.697  1.00  0.00     0.010 A 
ATOM     35  C   UNL A   1      39.126  27.431  30.577  1.00  0.00     0.010 A 
ATOM     36  C   UNL A   1      39.901  28.597  30.717  1.00  0.00    -0.014 A 
BRANCH  36  37
ATOM     37  C   UNL A   1      39.984  29.210  32.055  1.00  0.00     0.031 A 
ATOM     38  C   UNL A   1      38.971  30.267  32.387  1.00  0.00     0.074 A 
ATOM     39  C   UNL A   1      40.969  28.887  32.904  1.00  0.00     0.049 A 
ATOM     40  N   UNL A   1      38.940  31.099  33.390  1.00  0.00    -0.248 NA
ATOM     41  C   UNL A   1      37.855  30.422  31.436  1.00  0.00     0.031 C 
ATOM     42  C   UNL A   1      41.968  27.844  32.686  1.00  0.00     0.029 A 
ATOM     43  N   UNL A   1      41.307  29.442  34.109  1.00  0.00    -0.354 N 
ATOM     44  C   UNL A   1      37.827  31.902  33.171  1.00  0.00     0.074 A 
ATOM     45  C   UNL A   1      37.224  31.473  31.930  1.00  0.00     0.031 C 
ATOM     46  C   UNL A   1      42.835  27.855  33.713  1.00  0.00     0.029 A 
ATOM     47  C   UNL A   1      42.476  28.939  34.627  1.00  0.00     0.049 A 
ATOM     48  H   UNL A   1      40.768  30.130  34.560  1.00  0.00     0.167 HD
ATOM     49  C   UNL A   1      37.359  32.914  33.937  1.00  0.00     0.031 A 
ATOM     50  C   UNL A   1      43.194  29.345  35.691  1.00  0.00     0.031 A 
ATOM     51  C   UNL A   1      37.996  33.336  35.154  1.00  0.00     0.049 A 
ATOM     52  C   UNL A   1      42.692  30.508  36.504  1.00  0.00     0.074 A 
ATOM     53  C   UNL A   1      37.606  34.330  36.032  1.00  0.00     0.029 A 
ATOM     54  N   UNL A   1      39.171  32.791  35.658  1.00  0.00    -0.354 N 
ATOM     55  N   UNL A   1      41.627  31.252  36.308  1.00  0.00    -0.248 NA
ATOM     56  C   UNL A   1      43.479  30.883  37.686  1.00  0.00     0.031 C 
ATOM     57  C   UNL A   1      38.581  34.431  37.029  1.00  0.00     0.029 A 
ATOM     58  C   UNL A   1      39.535  33.445  36.821  1.00  0.00     0.049 A 
ATOM     59  H   UNL A   1      39.670  32.049  35.247  1.00  0.00     0.167 HD
ATOM     60  C   UNL A   1      41.595  32.157  37.363  1.00  0.00     0.074 A 
ATOM     61  C   UNL A   1      42.750  31.869  38.191  1.00  0.00     0.031 C 
ATOM     62  C   UNL A   1      40.688  33.131  37.630  1.00  0.00     0.031 A 
BRANCH  49  63
ATOM     63  C   UNL A   1      36.148  33.658  33.438  1.00  0.00    -0.014 A 
ATOM     64  C   UNL A   1      36.251  34.944  32.875  1.00  0.00     0.010 A 
ATOM     65  C   UNL A   1      34.878  33.064  33.552  1.00  0.00     0.010 A 
ATOM     66  C   UNL A   1      35.104  35.645  32.492  1.00  0.00     0.020 A 
ATOM     67  C   UNL A   1      33.731  33.746  33.135  1.00  0.00     0.020 A 
ATOM     68  C   UNL A   1      33.850  35.043  32.632  1.00  0.00     0.054 A 
BRANCH  68  69
ATOM     69  S   UNL A   1      32.377  35.977  32.137  1.00  0.00     0.124 S 
ATOM     70  O   UNL A   1      32.583  37.249  32.824  1.00  0.00    -0.237 OA
ATOM     71  O   UNL A   1      32.501  36.023  30.682  1.00  0.00    -0.237 OA
ATOM     72  O   UNL A   1      31.268  35.170  32.641  1.00  0.00    -0.744 OA
ENDBRANCH  68  69
ENDBRANCH  49  63
BRANCH  50  73
ATOM     73  C   UNL A   1      44.461  28.641  36.026  1.00  0.00    -0.014 A 
ATOM     74  C   UNL A   1      45.688  29.103  35.521  1.00  0.00     0.010 A 
ATOM     75  C   UNL A   1      44.453  27.550  36.915  1.00  0.00     0.010 A 
ATOM     76  C   UNL A   1      46.885  28.492  35.904  1.00  0.00     0.020 A 
ATOM     77  C   UNL A   1      45.650  26.953  37.321  1.00  0.00     0.020 A 
ATOM     78  C   UNL A   1      46.859  27.430  36.811  1.00  0.00     0.054 A 
BRANCH  78  79
ATOM     79  S   UNL A   1      48.435  26.723  37.368  1.00  0.00     0.124 S 
ATOM     80  O   UNL A   1      49.407  27.608  36.736  1.00  0.00    -0.237 OA
ATOM     81  O   UNL A   1      48.329  26.832  38.821  1.00  0.00    -0.237 OA
ATOM     82  O   UNL A   1      48.401  25.357  36.851  1.00  0.00    -0.744 OA
ENDBRANCH  78  79
ENDBRANCH  50  73
BRANCH  62  83
ATOM     83  C   UNL A   1      40.860  33.921  38.899  1.00  0.00    -0.014 A 
ATOM     84  C   UNL A   1      41.553  35.144  38.920  1.00  0.00     0.010 A 
ATOM     85  C   UNL A   1      40.226  33.470  40.073  1.00  0.00     0.010 A 
ATOM     86  C   UNL A   1      41.619  35.894  40.098  1.00  0.00     0.020 A 
ATOM     87  C   UNL A   1      40.263  34.232  41.241  1.00  0.00     0.020 A 
ATOM     88  C   UNL A   1      40.966  35.437  41.248  1.00  0.00     0.054 A 
BRANCH  88  89
ATOM     89  S   UNL A   1      41.002  36.467  42.740  1.00  0.00     0.124 S 
ATOM     90  O   UNL A   1      41.348  35.494  43.773  1.00  0.00    -0.237 OA
ATOM     91  O   UNL A   1      42.040  37.446  42.426  1.00  0.00    -0.237 OA
ATOM     92  O   UNL A   1      39.647  37.007  42.822  1.00  0.00    -0.744 OA
ENDBRANCH  88  89
ENDBRANCH  62  83
ENDBRANCH  36  37
ENDBRANCH  29  31
ENDBRANCH  28  29
ENDBRANCH  27  28
ENDBRANCH  26  27
ENDBRANCH   1  26
TORSDOF 20
ENDMDL
