MODEL 1
REMARK VINA RESULT:     -10.9      0.000      0.000
REMARK SMILES CC[NH2+][C@@]1(C(=O)OCCOCCOC(=O)c2ccc(-c3c4nc(c(-c5ccc(S(=O)(=O)[O-])cc5)c5ccc([nH]5)c(-c5ccc(S(=O)(=O)[O-])cc5)c5nc(c(-c6ccc(S(=O)(=O)[O-])cc6)c6ccc3[nH]6)C=C5)C=C4)cc2)CC[C@@H](n2cnc3ccccc32)C1
REMARK SMILES IDX 11 1 10 2 9 3 8 4 7 5 5 6 6 7 4 8 76 9 88 10 77 11 78 12
REMARK SMILES IDX 3 13 2 16 1 17 79 18 80 19 87 20 81 21 82 22 86 23 83 24
REMARK SMILES IDX 85 25 84 26 12 27 13 28 14 29 15 30 16 31 17 32 75 33 18 34
REMARK SMILES IDX 74 35 19 36 20 37 21 38 68 39 22 40 73 41 67 42 69 43 23 44
REMARK SMILES IDX 72 45 66 46 65 47 24 49 54 50 35 51 53 52 36 53 39 54 52 55
REMARK SMILES IDX 70 56 37 57 38 58 51 60 71 61 40 62 25 63 26 64 34 65 27 66
REMARK SMILES IDX 33 67 28 68 29 69 30 70 31 71 32 72 55 73 56 74 64 75 57 76
REMARK SMILES IDX 63 77 58 78 59 79 60 80 61 81 62 82 41 83 42 84 50 85 43 86
REMARK SMILES IDX 49 87 44 88 45 89 46 90 47 91 48 92
REMARK H PARENT 3 14 3 15 69 48 39 59
REMARK Flexibility Score: inf
ROOT
ATOM      1  C   UNL A   1      35.988  21.564  24.585  1.00  0.00     0.202 C 
ENDROOT
BRANCH   1   2
ATOM      2  O   UNL A   1      34.897  20.688  24.866  1.00  0.00    -0.374 OA
BRANCH   2   3
ATOM      3  C   UNL A   1      33.624  21.053  24.315  1.00  0.00     0.202 C 
BRANCH   3   4
ATOM      4  C   UNL A   1      32.415  21.086  25.267  1.00  0.00     0.261 C 
BRANCH   4   5
ATOM      5  O   UNL A   1      31.415  21.934  24.694  1.00  0.00    -0.459 OA
BRANCH   5   6
ATOM      6  C   UNL A   1      30.929  23.001  25.397  1.00  0.00     0.368 C 
ATOM      7  O   UNL A   1      30.204  22.865  26.377  1.00  0.00    -0.245 OA
BRANCH   6   8
ATOM      8  C   UNL A   1      31.463  24.540  24.601  1.00  0.00     0.196 C 
ATOM      9  C   UNL A   1      32.549  24.889  26.005  1.00  0.00     0.083 C 
ATOM     10  C   UNL A   1      30.222  25.538  25.540  1.00  0.00     0.106 C 
ATOM     11  C   UNL A   1      32.082  26.175  26.736  1.00  0.00     0.033 C 
ATOM     12  C   UNL A   1      30.963  26.795  25.897  1.00  0.00     0.096 C 
BRANCH   8  13
ATOM     13  N   UNL A   1      31.891  24.755  22.556  1.00  0.00    -0.332 N 
ATOM     14  H   UNL A   1      31.989  23.781  22.269  1.00  0.00     0.347 HD
ATOM     15  H   UNL A   1      31.212  25.508  22.449  1.00  0.00     0.347 HD
BRANCH  13  16
ATOM     16  C   UNL A   1      32.930  25.467  21.594  1.00  0.00     0.257 C 
ATOM     17  C   UNL A   1      32.476  25.485  20.132  1.00  0.00     0.071 C 
ENDBRANCH  13  16
ENDBRANCH   8  13
BRANCH  12  18
ATOM     18  N   UNL A   1      31.366  27.367  24.607  1.00  0.00    -0.327 N 
ATOM     19  C   UNL A   1      30.412  27.996  23.803  1.00  0.00     0.200 A 
ATOM     20  C   UNL A   1      32.458  28.259  24.740  1.00  0.00     0.068 A 
ATOM     21  N   UNL A   1      30.235  29.280  24.086  1.00  0.00    -0.237 NA
ATOM     22  C   UNL A   1      31.288  29.591  24.900  1.00  0.00     0.088 A 
ATOM     23  C   UNL A   1      33.977  28.259  25.766  1.00  0.00     0.028 A 
ATOM     24  C   UNL A   1      31.585  30.924  26.090  1.00  0.00     0.030 A 
ATOM     25  C   UNL A   1      34.233  29.545  27.027  1.00  0.00     0.002 A 
ATOM     26  C   UNL A   1      33.023  30.899  27.169  1.00  0.00     0.002 A 
ENDBRANCH  12  18
ENDBRANCH   6   8
ENDBRANCH   5   6
ENDBRANCH   4   5
ENDBRANCH   3   4
ENDBRANCH   2   3
ENDBRANCH   1   2
BRANCH   1  27
ATOM     27  C   UNL A   1      37.388  21.206  25.100  1.00  0.00     0.261 C 
BRANCH  27  28
ATOM     28  O   UNL A   1      38.036  22.326  25.724  1.00  0.00    -0.460 OA
BRANCH  28  29
ATOM     29  C   UNL A   1      39.222  22.021  26.304  1.00  0.00     0.338 C 
ATOM     30  O   UNL A   1      39.858  20.988  26.179  1.00  0.00    -0.246 OA
BRANCH  29  31
ATOM     31  C   UNL A   1      39.780  23.226  26.940  1.00  0.00     0.060 A 
ATOM     32  C   UNL A   1      39.310  24.459  26.471  1.00  0.00     0.016 A 
ATOM     33  C   UNL A   1      40.762  23.164  27.930  1.00  0.00     0.016 A 
ATOM     34  C   UNL A   1      39.849  25.643  26.957  1.00  0.00     0.010 A 
ATOM     35  C   UNL A   1      41.319  24.356  28.404  1.00  0.00     0.010 A 
ATOM     36  C   UNL A   1      40.890  25.595  27.890  1.00  0.00    -0.014 A 
BRANCH  36  37
ATOM     37  C   UNL A   1      41.643  26.837  28.179  1.00  0.00     0.031 A 
ATOM     38  C   UNL A   1      40.892  28.022  28.724  1.00  0.00     0.074 A 
ATOM     39  C   UNL A   1      42.977  26.889  28.017  1.00  0.00     0.049 A 
ATOM     40  N   UNL A   1      41.335  29.212  29.030  1.00  0.00    -0.248 NA
ATOM     41  C   UNL A   1      39.449  27.838  28.949  1.00  0.00     0.031 C 
ATOM     42  C   UNL A   1      43.817  25.785  27.557  1.00  0.00     0.029 A 
ATOM     43  N   UNL A   1      43.857  27.921  28.221  1.00  0.00    -0.354 N 
ATOM     44  C   UNL A   1      40.224  29.925  29.469  1.00  0.00     0.074 A 
ATOM     45  C   UNL A   1      39.084  29.042  29.361  1.00  0.00     0.031 C 
ATOM     46  C   UNL A   1      45.093  26.202  27.504  1.00  0.00     0.029 A 
ATOM     47  C   UNL A   1      45.153  27.611  27.886  1.00  0.00     0.049 A 
ATOM     48  H   UNL A   1      43.587  28.799  28.574  1.00  0.00     0.167 HD
ATOM     49  C   UNL A   1      40.163  31.200  29.923  1.00  0.00     0.031 A 
ATOM     50  C   UNL A   1      46.257  28.386  27.863  1.00  0.00     0.031 A 
ATOM     51  C   UNL A   1      41.304  32.072  30.013  1.00  0.00     0.049 A 
ATOM     52  C   UNL A   1      46.150  29.825  28.296  1.00  0.00     0.074 A 
ATOM     53  C   UNL A   1      41.353  33.375  30.474  1.00  0.00     0.029 A 
ATOM     54  N   UNL A   1      42.592  31.736  29.625  1.00  0.00    -0.354 N 
ATOM     55  N   UNL A   1      45.098  30.480  28.729  1.00  0.00    -0.248 NA
ATOM     56  C   UNL A   1      47.380  30.627  28.244  1.00  0.00     0.031 C 
ATOM     57  C   UNL A   1      42.655  33.851  30.294  1.00  0.00     0.029 A 
ATOM     58  C   UNL A   1      43.437  32.818  29.799  1.00  0.00     0.049 A 
ATOM     59  H   UNL A   1      42.866  30.856  29.275  1.00  0.00     0.167 HD
ATOM     60  C   UNL A   1      45.547  31.762  29.031  1.00  0.00     0.074 A 
ATOM     61  C   UNL A   1      46.968  31.784  28.744  1.00  0.00     0.031 C 
ATOM     62  C   UNL A   1      44.849  32.825  29.506  1.00  0.00     0.031 A 
BRANCH  49  63
ATOM     63  C   UNL A   1      38.809  31.742  30.303  1.00  0.00    -0.014 A 
ATOM     64  C   UNL A   1      38.345  31.705  31.630  1.00  0.00     0.010 A 
ATOM     65  C   UNL A   1      37.999  32.329  29.312  1.00  0.00     0.010 A 
ATOM     66  C   UNL A   1      37.080  32.206  31.952  1.00  0.00     0.020 A 
ATOM     67  C   UNL A   1      36.748  32.861  29.636  1.00  0.00     0.020 A 
ATOM     68  C   UNL A   1      36.290  32.780  30.951  1.00  0.00     0.054 A 
BRANCH  68  69
ATOM     69  S   UNL A   1      34.661  33.440  31.401  1.00  0.00     0.124 S 
ATOM     70  O   UNL A   1      35.019  34.654  32.132  1.00  0.00    -0.237 OA
ATOM     71  O   UNL A   1      34.035  33.655  30.100  1.00  0.00    -0.237 OA
ATOM     72  O   UNL A   1      34.067  32.380  32.210  1.00  0.00    -0.744 OA
ENDBRANCH  68  69
ENDBRANCH  49  63
BRANCH  50  73
ATOM     73  C   UNL A   1      47.548  27.821  27.384  1.00  0.00    -0.014 A 
ATOM     74  C   UNL A   1      47.989  28.037  26.067  1.00  0.00     0.010 A 
ATOM     75  C   UNL A   1      48.353  27.065  28.258  1.00  0.00     0.010 A 
ATOM     76  C   UNL A   1      49.202  27.496  25.629  1.00  0.00     0.020 A 
ATOM     77  C   UNL A   1      49.581  26.551  27.833  1.00  0.00     0.020 A 
ATOM     78  C   UNL A   1      49.994  26.761  26.517  1.00  0.00     0.054 A 
BRANCH  78  79
ATOM     79  S   UNL A   1      51.589  26.119  25.942  1.00  0.00     0.124 S 
ATOM     80  O   UNL A   1      52.527  27.079  26.515  1.00  0.00    -0.237 OA
ATOM     81  O   UNL A   1      51.616  24.781  26.527  1.00  0.00    -0.237 OA
ATOM     82  O   UNL A   1      51.467  26.154  24.486  1.00  0.00    -0.744 OA
ENDBRANCH  78  79
ENDBRANCH  50  73
BRANCH  62  83
ATOM     83  C   UNL A   1      45.614  34.093  29.787  1.00  0.00    -0.014 A 
ATOM     84  C   UNL A   1      46.246  34.311  31.024  1.00  0.00     0.010 A 
ATOM     85  C   UNL A   1      45.754  35.055  28.769  1.00  0.00     0.010 A 
ATOM     86  C   UNL A   1      46.976  35.482  31.247  1.00  0.00     0.020 A 
ATOM     87  C   UNL A   1      46.511  36.211  28.976  1.00  0.00     0.020 A 
ATOM     88  C   UNL A   1      47.106  36.424  30.220  1.00  0.00     0.054 A 
BRANCH  88  89
ATOM     89  S   UNL A   1      48.097  37.912  30.522  1.00  0.00     0.124 S 
ATOM     90  O   UNL A   1      49.442  37.360  30.655  1.00  0.00    -0.237 OA
ATOM     91  O   UNL A   1      47.858  38.704  29.317  1.00  0.00    -0.237 OA
ATOM     92  O   UNL A   1      47.528  38.466  31.748  1.00  0.00    -0.744 OA
ENDBRANCH  88  89
ENDBRANCH  62  83
ENDBRANCH  36  37
ENDBRANCH  29  31
ENDBRANCH  28  29
ENDBRANCH  27  28
ENDBRANCH   1  27
TORSDOF 20
ENDMDL
MODEL 2
REMARK VINA RESULT:     -10.9      0.748      8.131
REMARK SMILES CC[NH2+][C@@]1(C(=O)OCCOCCOC(=O)c2ccc(-c3c4nc(c(-c5ccc(S(=O)(=O)[O-])cc5)c5ccc([nH]5)c(-c5ccc(S(=O)(=O)[O-])cc5)c5nc(c(-c6ccc(S(=O)(=O)[O-])cc6)c6ccc3[nH]6)C=C5)C=C4)cc2)CC[C@@H](n2cnc3ccccc32)C1
REMARK SMILES IDX 11 1 10 2 9 3 8 4 7 5 5 6 6 7 4 8 76 9 88 10 77 11 78 12
REMARK SMILES IDX 3 13 2 16 1 17 79 18 80 19 87 20 81 21 82 22 86 23 83 24
REMARK SMILES IDX 85 25 84 26 12 27 13 28 14 29 15 30 16 31 17 32 75 33 18 34
REMARK SMILES IDX 74 35 19 36 20 37 21 38 68 39 22 40 73 41 67 42 69 43 23 44
REMARK SMILES IDX 72 45 66 46 65 47 24 49 54 50 35 51 53 52 36 53 39 54 52 55
REMARK SMILES IDX 70 56 37 57 38 58 51 60 71 61 40 62 25 63 26 64 34 65 27 66
REMARK SMILES IDX 33 67 28 68 29 69 30 70 31 71 32 72 55 73 56 74 64 75 57 76
REMARK SMILES IDX 63 77 58 78 59 79 60 80 61 81 62 82 41 83 42 84 50 85 43 86
REMARK SMILES IDX 49 87 44 88 45 89 46 90 47 91 48 92
REMARK H PARENT 3 14 3 15 69 48 39 59
REMARK Flexibility Score: inf
ROOT
ATOM      1  C   UNL A   1      36.062  21.640  24.472  1.00  0.00     0.202 C 
ENDROOT
BRANCH   1   2
ATOM      2  O   UNL A   1      34.870  22.054  25.139  1.00  0.00    -0.374 OA
BRANCH   2   3
ATOM      3  C   UNL A   1      34.156  21.043  25.863  1.00  0.00     0.202 C 
BRANCH   3   4
ATOM      4  C   UNL A   1      32.720  20.721  25.414  1.00  0.00     0.261 C 
BRANCH   4   5
ATOM      5  O   UNL A   1      32.271  21.774  24.554  1.00  0.00    -0.459 OA
BRANCH   5   6
ATOM      6  C   UNL A   1      31.441  22.750  25.032  1.00  0.00     0.368 C 
ATOM      7  O   UNL A   1      30.516  22.505  25.800  1.00  0.00    -0.245 OA
BRANCH   6   8
ATOM      8  C   UNL A   1      31.895  24.342  24.295  1.00  0.00     0.196 C 
ATOM      9  C   UNL A   1      32.864  24.748  25.768  1.00  0.00     0.083 C 
ATOM     10  C   UNL A   1      30.524  25.218  25.172  1.00  0.00     0.106 C 
ATOM     11  C   UNL A   1      32.252  25.977  26.489  1.00  0.00     0.033 C 
ATOM     12  C   UNL A   1      31.138  26.523  25.594  1.00  0.00     0.096 C 
BRANCH   8  13
ATOM     13  N   UNL A   1      32.426  24.632  22.283  1.00  0.00    -0.332 N 
ATOM     14  H   UNL A   1      33.296  24.105  22.229  1.00  0.00     0.347 HD
ATOM     15  H   UNL A   1      31.461  24.531  21.970  1.00  0.00     0.347 HD
BRANCH  13  16
ATOM     16  C   UNL A   1      32.707  25.802  21.251  1.00  0.00     0.257 C 
ATOM     17  C   UNL A   1      32.476  25.383  19.797  1.00  0.00     0.071 C 
ENDBRANCH  13  16
ENDBRANCH   8  13
BRANCH  12  18
ATOM     18  N   UNL A   1      31.570  27.152  24.340  1.00  0.00    -0.327 N 
ATOM     19  C   UNL A   1      30.619  27.724  23.492  1.00  0.00     0.200 A 
ATOM     20  C   UNL A   1      32.581  28.121  24.552  1.00  0.00     0.068 A 
ATOM     21  N   UNL A   1      30.328  28.985  23.786  1.00  0.00    -0.237 NA
ATOM     22  C   UNL A   1      31.305  29.356  24.666  1.00  0.00     0.088 A 
ATOM     23  C   UNL A   1      34.034  28.213  25.666  1.00  0.00     0.028 A 
ATOM     24  C   UNL A   1      31.431  30.682  25.894  1.00  0.00     0.030 A 
ATOM     25  C   UNL A   1      34.118  29.486  26.962  1.00  0.00     0.002 A 
ATOM     26  C   UNL A   1      32.802  30.742  27.056  1.00  0.00     0.002 A 
ENDBRANCH  12  18
ENDBRANCH   6   8
ENDBRANCH   5   6
ENDBRANCH   4   5
ENDBRANCH   3   4
ENDBRANCH   2   3
ENDBRANCH   1   2
BRANCH   1  27
ATOM     27  C   UNL A   1      37.308  21.306  25.302  1.00  0.00     0.261 C 
BRANCH  27  28
ATOM     28  O   UNL A   1      38.057  22.482  25.647  1.00  0.00    -0.460 OA
BRANCH  28  29
ATOM     29  C   UNL A   1      39.205  22.224  26.321  1.00  0.00     0.338 C 
ATOM     30  O   UNL A   1      39.895  21.223  26.241  1.00  0.00    -0.246 OA
BRANCH  29  31
ATOM     31  C   UNL A   1      39.653  23.446  27.009  1.00  0.00     0.060 A 
ATOM     32  C   UNL A   1      38.992  24.635  26.674  1.00  0.00     0.016 A 
ATOM     33  C   UNL A   1      40.711  23.448  27.919  1.00  0.00     0.016 A 
ATOM     34  C   UNL A   1      39.412  25.843  27.213  1.00  0.00     0.010 A 
ATOM     35  C   UNL A   1      41.147  24.668  28.445  1.00  0.00     0.010 A 
ATOM     36  C   UNL A   1      40.523  25.871  28.063  1.00  0.00    -0.014 A 
BRANCH  36  37
ATOM     37  C   UNL A   1      41.132  27.180  28.396  1.00  0.00     0.031 A 
ATOM     38  C   UNL A   1      42.614  27.352  28.204  1.00  0.00     0.074 A 
ATOM     39  C   UNL A   1      40.371  28.210  28.804  1.00  0.00     0.049 A 
ATOM     40  N   UNL A   1      43.363  28.394  28.445  1.00  0.00    -0.248 NA
ATOM     41  C   UNL A   1      43.347  26.192  27.670  1.00  0.00     0.031 C 
ATOM     42  C   UNL A   1      38.918  28.178  28.965  1.00  0.00     0.029 A 
ATOM     43  N   UNL A   1      40.722  29.488  29.159  1.00  0.00    -0.354 N 
ATOM     44  C   UNL A   1      44.658  28.013  28.110  1.00  0.00     0.074 A 
ATOM     45  C   UNL A   1      44.595  26.635  27.674  1.00  0.00     0.031 C 
ATOM     46  C   UNL A   1      38.502  29.380  29.398  1.00  0.00     0.029 A 
ATOM     47  C   UNL A   1      39.661  30.250  29.583  1.00  0.00     0.049 A 
ATOM     48  H   UNL A   1      41.645  29.826  29.115  1.00  0.00     0.167 HD
ATOM     49  C   UNL A   1      45.795  28.747  28.158  1.00  0.00     0.031 A 
ATOM     50  C   UNL A   1      39.632  31.500  30.090  1.00  0.00     0.031 A 
ATOM     51  C   UNL A   1      45.846  30.113  28.605  1.00  0.00     0.049 A 
ATOM     52  C   UNL A   1      40.922  32.271  30.211  1.00  0.00     0.074 A 
ATOM     53  C   UNL A   1      46.944  30.953  28.676  1.00  0.00     0.029 A 
ATOM     54  N   UNL A   1      44.758  30.838  29.066  1.00  0.00    -0.354 N 
ATOM     55  N   UNL A   1      42.135  31.905  29.868  1.00  0.00    -0.248 NA
ATOM     56  C   UNL A   1      40.837  33.623  30.777  1.00  0.00     0.031 C 
ATOM     57  C   UNL A   1      46.532  32.158  29.252  1.00  0.00     0.029 A 
ATOM     58  C   UNL A   1      45.163  32.102  29.461  1.00  0.00     0.049 A 
ATOM     59  H   UNL A   1      43.832  30.504  29.108  1.00  0.00     0.167 HD
ATOM     60  C   UNL A   1      42.953  32.996  30.150  1.00  0.00     0.074 A 
ATOM     61  C   UNL A   1      42.092  34.037  30.676  1.00  0.00     0.031 C 
ATOM     62  C   UNL A   1      44.294  33.126  29.985  1.00  0.00     0.031 A 
BRANCH  49  63
ATOM     63  C   UNL A   1      47.083  28.067  27.768  1.00  0.00    -0.014 A 
ATOM     64  C   UNL A   1      47.873  27.386  28.712  1.00  0.00     0.010 A 
ATOM     65  C   UNL A   1      47.492  28.086  26.422  1.00  0.00     0.010 A 
ATOM     66  C   UNL A   1      49.068  26.773  28.323  1.00  0.00     0.020 A 
ATOM     67  C   UNL A   1      48.669  27.447  26.023  1.00  0.00     0.020 A 
ATOM     68  C   UNL A   1      49.458  26.808  26.981  1.00  0.00     0.054 A 
BRANCH  68  69
ATOM     69  S   UNL A   1      51.003  25.988  26.502  1.00  0.00     0.124 S 
ATOM     70  O   UNL A   1      50.861  24.681  27.139  1.00  0.00    -0.237 OA
ATOM     71  O   UNL A   1      50.925  25.988  25.044  1.00  0.00    -0.237 OA
ATOM     72  O   UNL A   1      52.042  26.844  27.069  1.00  0.00    -0.744 OA
ENDBRANCH  68  69
ENDBRANCH  49  63
BRANCH  50  73
ATOM     73  C   UNL A   1      38.343  32.084  30.551  1.00  0.00    -0.014 A 
ATOM     74  C   UNL A   1      37.893  31.898  31.869  1.00  0.00     0.010 A 
ATOM     75  C   UNL A   1      37.557  32.842  29.662  1.00  0.00     0.010 A 
ATOM     76  C   UNL A   1      36.677  32.448  32.287  1.00  0.00     0.020 A 
ATOM     77  C   UNL A   1      36.357  33.421  30.085  1.00  0.00     0.020 A 
ATOM     78  C   UNL A   1      35.919  33.211  31.392  1.00  0.00     0.054 A 
BRANCH  78  79
ATOM     79  S   UNL A   1      34.374  33.961  31.974  1.00  0.00     0.124 S 
ATOM     80  O   UNL A   1      34.861  35.102  32.745  1.00  0.00    -0.237 OA
ATOM     81  O   UNL A   1      33.694  34.287  30.723  1.00  0.00    -0.237 OA
ATOM     82  O   UNL A   1      33.750  32.897  32.756  1.00  0.00    -0.744 OA
ENDBRANCH  78  79
ENDBRANCH  50  73
BRANCH  62  83
ATOM     83  C   UNL A   1      44.915  34.454  30.337  1.00  0.00    -0.014 A 
ATOM     84  C   UNL A   1      45.444  34.702  31.616  1.00  0.00     0.010 A 
ATOM     85  C   UNL A   1      45.025  35.449  29.347  1.00  0.00     0.010 A 
ATOM     86  C   UNL A   1      46.044  35.932  31.906  1.00  0.00     0.020 A 
ATOM     87  C   UNL A   1      45.654  36.665  29.622  1.00  0.00     0.020 A 
ATOM     88  C   UNL A   1      46.147  36.905  30.906  1.00  0.00     0.054 A 
BRANCH  88  89
ATOM     89  S   UNL A   1      46.970  38.472  31.296  1.00  0.00     0.124 S 
ATOM     90  O   UNL A   1      46.679  38.624  32.719  1.00  0.00    -0.237 OA
ATOM     91  O   UNL A   1      48.365  38.191  30.965  1.00  0.00    -0.237 OA
ATOM     92  O   UNL A   1      46.311  39.439  30.420  1.00  0.00    -0.744 OA
ENDBRANCH  88  89
ENDBRANCH  62  83
ENDBRANCH  36  37
ENDBRANCH  29  31
ENDBRANCH  28  29
ENDBRANCH  27  28
ENDBRANCH   1  27
TORSDOF 20
ENDMDL
MODEL 3
REMARK VINA RESULT:     -10.8      2.702      8.799
REMARK SMILES CC[NH2+][C@@]1(C(=O)OCCOCCOC(=O)c2ccc(-c3c4nc(c(-c5ccc(S(=O)(=O)[O-])cc5)c5ccc([nH]5)c(-c5ccc(S(=O)(=O)[O-])cc5)c5nc(c(-c6ccc(S(=O)(=O)[O-])cc6)c6ccc3[nH]6)C=C5)C=C4)cc2)CC[C@@H](n2cnc3ccccc32)C1
REMARK SMILES IDX 11 1 10 2 9 3 8 4 7 5 5 6 6 7 4 8 76 9 88 10 77 11 78 12
REMARK SMILES IDX 3 13 2 16 1 17 79 18 80 19 87 20 81 21 82 22 86 23 83 24
REMARK SMILES IDX 85 25 84 26 12 27 13 28 14 29 15 30 16 31 17 32 75 33 18 34
REMARK SMILES IDX 74 35 19 36 20 37 21 38 68 39 22 40 73 41 67 42 69 43 23 44
REMARK SMILES IDX 72 45 66 46 65 47 24 49 54 50 35 51 53 52 36 53 39 54 52 55
REMARK SMILES IDX 70 56 37 57 38 58 51 60 71 61 40 62 25 63 26 64 34 65 27 66
REMARK SMILES IDX 33 67 28 68 29 69 30 70 31 71 32 72 55 73 56 74 64 75 57 76
REMARK SMILES IDX 63 77 58 78 59 79 60 80 61 81 62 82 41 83 42 84 50 85 43 86
REMARK SMILES IDX 49 87 44 88 45 89 46 90 47 91 48 92
REMARK H PARENT 3 14 3 15 69 48 39 59
REMARK Flexibility Score: inf
ROOT
ATOM      1  C   UNL A   1      34.865  32.275  30.088  1.00  0.00     0.202 C 
ENDROOT
BRANCH   1   2
ATOM      2  O   UNL A   1      34.088  32.881  29.056  1.00  0.00    -0.374 OA
BRANCH   2   3
ATOM      3  C   UNL A   1      34.162  32.273  27.759  1.00  0.00     0.202 C 
BRANCH   3   4
ATOM      4  C   UNL A   1      32.839  31.896  27.068  1.00  0.00     0.261 C 
BRANCH   4   5
ATOM      5  O   UNL A   1      32.560  30.522  27.351  1.00  0.00    -0.459 OA
BRANCH   5   6
ATOM      6  C   UNL A   1      33.372  29.537  26.860  1.00  0.00     0.368 C 
ATOM      7  O   UNL A   1      34.492  29.323  27.314  1.00  0.00    -0.245 OA
BRANCH   6   8
ATOM      8  C   UNL A   1      32.557  28.728  25.457  1.00  0.00     0.196 C 
ATOM      9  C   UNL A   1      32.149  27.314  26.510  1.00  0.00     0.083 C 
ATOM     10  C   UNL A   1      34.075  27.758  25.046  1.00  0.00     0.106 C 
ATOM     11  C   UNL A   1      32.877  26.042  26.003  1.00  0.00     0.033 C 
ATOM     12  C   UNL A   1      33.550  26.400  24.676  1.00  0.00     0.096 C 
BRANCH   8  13
ATOM     13  N   UNL A   1      31.322  29.693  24.060  1.00  0.00    -0.332 N 
ATOM     14  H   UNL A   1      31.487  30.672  24.290  1.00  0.00     0.347 HD
ATOM     15  H   UNL A   1      31.575  29.039  23.320  1.00  0.00     0.347 HD
BRANCH  13  16
ATOM     16  C   UNL A   1      29.808  29.736  23.593  1.00  0.00     0.257 C 
ATOM     17  C   UNL A   1      29.430  28.564  22.683  1.00  0.00     0.071 C 
ENDBRANCH  13  16
ENDBRANCH   8  13
BRANCH  12  18
ATOM     18  N   UNL A   1      32.649  26.647  23.543  1.00  0.00    -0.327 N 
ATOM     19  C   UNL A   1      33.180  27.043  22.314  1.00  0.00     0.200 A 
ATOM     20  C   UNL A   1      31.792  25.547  23.297  1.00  0.00     0.068 A 
ATOM     21  N   UNL A   1      33.547  26.032  21.537  1.00  0.00    -0.237 NA
ATOM     22  C   UNL A   1      32.992  24.934  22.134  1.00  0.00     0.088 A 
ATOM     23  C   UNL A   1      30.896  24.370  24.380  1.00  0.00     0.028 A 
ATOM     24  C   UNL A   1      33.345  23.160  22.042  1.00  0.00     0.030 A 
ATOM     25  C   UNL A   1      31.316  22.600  24.357  1.00  0.00     0.002 A 
ATOM     26  C   UNL A   1      32.544  21.997  23.155  1.00  0.00     0.002 A 
ENDBRANCH  12  18
ENDBRANCH   6   8
ENDBRANCH   5   6
ENDBRANCH   4   5
ENDBRANCH   3   4
ENDBRANCH   2   3
ENDBRANCH   1   2
BRANCH   1  27
ATOM     27  C   UNL A   1      35.682  33.166  31.032  1.00  0.00     0.261 C 
BRANCH  27  28
ATOM     28  O   UNL A   1      37.086  32.867  30.975  1.00  0.00    -0.460 OA
BRANCH  28  29
ATOM     29  C   UNL A   1      37.450  31.799  31.726  1.00  0.00     0.338 C 
ATOM     30  O   UNL A   1      36.885  31.368  32.716  1.00  0.00    -0.246 OA
BRANCH  29  31
ATOM     31  C   UNL A   1      38.519  31.058  31.036  1.00  0.00     0.060 A 
ATOM     32  C   UNL A   1      39.425  30.360  31.845  1.00  0.00     0.016 A 
ATOM     33  C   UNL A   1      38.667  31.076  29.648  1.00  0.00     0.016 A 
ATOM     34  C   UNL A   1      40.511  29.709  31.277  1.00  0.00     0.010 A 
ATOM     35  C   UNL A   1      39.774  30.438  29.078  1.00  0.00     0.010 A 
ATOM     36  C   UNL A   1      40.718  29.787  29.895  1.00  0.00    -0.014 A 
BRANCH  36  37
ATOM     37  C   UNL A   1      42.018  29.341  29.344  1.00  0.00     0.031 A 
ATOM     38  C   UNL A   1      43.149  30.331  29.282  1.00  0.00     0.074 A 
ATOM     39  C   UNL A   1      42.205  28.065  28.963  1.00  0.00     0.049 A 
ATOM     40  N   UNL A   1      44.362  30.173  28.825  1.00  0.00    -0.248 NA
ATOM     41  C   UNL A   1      42.872  31.680  29.804  1.00  0.00     0.031 C 
ATOM     42  C   UNL A   1      41.201  27.004  29.037  1.00  0.00     0.029 A 
ATOM     43  N   UNL A   1      43.310  27.448  28.434  1.00  0.00    -0.354 N 
ATOM     44  C   UNL A   1      44.989  31.404  28.987  1.00  0.00     0.074 A 
ATOM     45  C   UNL A   1      44.013  32.305  29.559  1.00  0.00     0.031 C 
ATOM     46  C   UNL A   1      41.735  25.867  28.560  1.00  0.00     0.029 A 
ATOM     47  C   UNL A   1      43.100  26.130  28.110  1.00  0.00     0.049 A 
ATOM     48  H   UNL A   1      44.170  27.906  28.299  1.00  0.00     0.167 HD
ATOM     49  C   UNL A   1      46.264  31.750  28.688  1.00  0.00     0.031 A 
ATOM     50  C   UNL A   1      43.909  25.244  27.495  1.00  0.00     0.031 A 
ATOM     51  C   UNL A   1      47.222  30.847  28.108  1.00  0.00     0.049 A 
ATOM     52  C   UNL A   1      45.298  25.674  27.097  1.00  0.00     0.074 A 
ATOM     53  C   UNL A   1      48.544  31.092  27.782  1.00  0.00     0.029 A 
ATOM     54  N   UNL A   1      46.960  29.531  27.756  1.00  0.00    -0.354 N 
ATOM     55  N   UNL A   1      45.885  26.834  27.277  1.00  0.00    -0.248 NA
ATOM     56  C   UNL A   1      46.135  24.673  26.422  1.00  0.00     0.031 C 
ATOM     57  C   UNL A   1      49.058  29.948  27.164  1.00  0.00     0.029 A 
ATOM     58  C   UNL A   1      48.083  28.962  27.181  1.00  0.00     0.049 A 
ATOM     59  H   UNL A   1      46.101  29.069  27.894  1.00  0.00     0.167 HD
ATOM     60  C   UNL A   1      47.171  26.692  26.765  1.00  0.00     0.074 A 
ATOM     61  C   UNL A   1      47.279  25.329  26.283  1.00  0.00     0.031 C 
ATOM     62  C   UNL A   1      48.173  27.605  26.702  1.00  0.00     0.031 A 
BRANCH  49  63
ATOM     63  C   UNL A   1      46.676  33.178  28.934  1.00  0.00    -0.014 A 
ATOM     64  C   UNL A   1      46.505  34.175  27.956  1.00  0.00     0.010 A 
ATOM     65  C   UNL A   1      47.220  33.534  30.183  1.00  0.00     0.010 A 
ATOM     66  C   UNL A   1      46.907  35.491  28.209  1.00  0.00     0.020 A 
ATOM     67  C   UNL A   1      47.591  34.854  30.451  1.00  0.00     0.020 A 
ATOM     68  C   UNL A   1      47.448  35.820  29.455  1.00  0.00     0.054 A 
BRANCH  68  69
ATOM     69  S   UNL A   1      47.942  37.538  29.761  1.00  0.00     0.124 S 
ATOM     70  O   UNL A   1      49.235  37.605  29.084  1.00  0.00    -0.237 OA
ATOM     71  O   UNL A   1      46.864  38.296  29.132  1.00  0.00    -0.237 OA
ATOM     72  O   UNL A   1      47.998  37.630  31.218  1.00  0.00    -0.744 OA
ENDBRANCH  68  69
ENDBRANCH  49  63
BRANCH  50  73
ATOM     73  C   UNL A   1      43.412  23.874  27.189  1.00  0.00    -0.014 A 
ATOM     74  C   UNL A   1      42.988  23.530  25.894  1.00  0.00     0.010 A 
ATOM     75  C   UNL A   1      43.369  22.899  28.203  1.00  0.00     0.010 A 
ATOM     76  C   UNL A   1      42.518  22.241  25.622  1.00  0.00     0.020 A 
ATOM     77  C   UNL A   1      42.932  21.600  27.928  1.00  0.00     0.020 A 
ATOM     78  C   UNL A   1      42.499  21.282  26.641  1.00  0.00     0.054 A 
BRANCH  78  79
ATOM     79  S   UNL A   1      41.940  19.602  26.250  1.00  0.00     0.124 S 
ATOM     80  O   UNL A   1      40.493  19.776  26.162  1.00  0.00    -0.237 OA
ATOM     81  O   UNL A   1      42.623  19.331  24.988  1.00  0.00    -0.237 OA
ATOM     82  O   UNL A   1      42.408  18.812  27.387  1.00  0.00    -0.744 OA
ENDBRANCH  78  79
ENDBRANCH  50  73
BRANCH  62  83
ATOM     83  C   UNL A   1      49.493  27.154  26.128  1.00  0.00    -0.014 A 
ATOM     84  C   UNL A   1      50.481  26.561  26.935  1.00  0.00     0.010 A 
ATOM     85  C   UNL A   1      49.719  27.269  24.744  1.00  0.00     0.010 A 
ATOM     86  C   UNL A   1      51.682  26.122  26.371  1.00  0.00     0.020 A 
ATOM     87  C   UNL A   1      50.904  26.801  24.171  1.00  0.00     0.020 A 
ATOM     88  C   UNL A   1      51.886  26.243  24.992  1.00  0.00     0.054 A 
BRANCH  88  89
ATOM     89  S   UNL A   1      53.434  25.623  24.281  1.00  0.00     0.124 S 
ATOM     90  O   UNL A   1      53.235  25.868  22.856  1.00  0.00    -0.237 OA
ATOM     91  O   UNL A   1      54.440  26.460  24.929  1.00  0.00    -0.237 OA
ATOM     92  O   UNL A   1      53.458  24.215  24.673  1.00  0.00    -0.744 OA
ENDBRANCH  88  89
ENDBRANCH  62  83
ENDBRANCH  36  37
ENDBRANCH  29  31
ENDBRANCH  28  29
ENDBRANCH  27  28
ENDBRANCH   1  27
TORSDOF 20
ENDMDL
