MODEL 1
REMARK VINA RESULT:      -8.3      0.000      0.000
REMARK SMILES CC(C)Cc1ccc([C@H](C)C(=O)OCCOCCOC(=O)c2ccc(-c3c4nc(c(-c5ccc(S(=O)(=O)[O-])cc5)c5ccc([nH]5)c(-c5ccc(S(=O)(=O)[O-])cc5)c5nc(c(-c6ccc(S(=O)(=O)[O-])cc6)c6ccc3[nH]6)C=C5)C=C4)cc2)cc1
REMARK SMILES IDX 16 1 15 2 14 3 13 4 11 5 12 6 9 7 10 8 8 9 5 10 6 11 83 12
REMARK SMILES IDX 7 13 82 14 4 15 2 16 1 17 3 18 17 19 18 20 19 21 20 22 21 23
REMARK SMILES IDX 22 24 23 25 81 26 24 27 80 28 25 29 26 30 27 31 74 32 28 33
REMARK SMILES IDX 79 34 73 35 75 36 29 37 78 38 72 39 71 40 30 42 60 43 41 44
REMARK SMILES IDX 59 45 42 46 45 47 58 48 76 49 43 50 44 51 57 53 77 54 46 55
REMARK SMILES IDX 31 56 32 57 40 58 33 59 39 60 34 61 35 62 36 63 37 64 38 65
REMARK SMILES IDX 61 66 62 67 70 68 63 69 69 70 64 71 65 72 66 73 67 74 68 75
REMARK SMILES IDX 47 76 48 77 56 78 49 79 55 80 50 81 51 82 52 83 53 84 54 85
REMARK H PARENT 75 41 45 52
REMARK Flexibility Score: inf
ROOT
ATOM      1  O   UNL A   1      42.632  18.973  24.986  1.00  0.00    -0.374 OA
ENDROOT
BRANCH   1   2
ATOM      2  C   UNL A   1      44.058  19.038  25.005  1.00  0.00     0.202 C 
BRANCH   2   3
ATOM      3  C   UNL A   1      44.675  20.414  25.269  1.00  0.00     0.261 C 
BRANCH   3   4
ATOM      4  O   UNL A   1      43.810  21.473  24.821  1.00  0.00    -0.463 OA
BRANCH   4   5
ATOM      5  C   UNL A   1      44.245  22.745  25.049  1.00  0.00     0.313 C 
ATOM      6  O   UNL A   1      43.533  23.743  25.038  1.00  0.00    -0.252 OA
BRANCH   5   7
ATOM      7  C   UNL A   1      45.749  22.803  25.313  1.00  0.00     0.126 C 
ATOM      8  C   UNL A   1      46.577  23.407  24.177  1.00  0.00     0.025 C 
BRANCH   7   9
ATOM      9  C   UNL A   1      46.015  23.467  26.645  1.00  0.00    -0.034 A 
ATOM     10  C   UNL A   1      46.293  24.934  29.020  1.00  0.00    -0.048 A 
ATOM     11  C   UNL A   1      47.246  25.052  28.003  1.00  0.00     0.004 A 
ATOM     12  C   UNL A   1      45.240  24.025  28.873  1.00  0.00     0.004 A 
ATOM     13  C   UNL A   1      47.107  24.327  26.822  1.00  0.00     0.005 A 
ATOM     14  C   UNL A   1      45.098  23.301  27.692  1.00  0.00     0.005 A 
BRANCH  10  15
ATOM     15  C   UNL A   1      46.326  25.875  30.199  1.00  0.00     0.038 C 
BRANCH  15  16
ATOM     16  C   UNL A   1      45.002  26.653  30.352  1.00  0.00    -0.013 C 
ATOM     17  C   UNL A   1      44.127  26.109  31.486  1.00  0.00     0.008 C 
ATOM     18  C   UNL A   1      45.294  28.134  30.590  1.00  0.00     0.008 C 
ENDBRANCH  15  16
ENDBRANCH  10  15
ENDBRANCH   7   9
ENDBRANCH   5   7
ENDBRANCH   4   5
ENDBRANCH   3   4
ENDBRANCH   2   3
ENDBRANCH   1   2
BRANCH   1  19
ATOM     19  C   UNL A   1      41.951  19.094  26.232  1.00  0.00     0.202 C 
BRANCH  19  20
ATOM     20  C   UNL A   1      40.626  19.867  26.227  1.00  0.00     0.261 C 
BRANCH  20  21
ATOM     21  O   UNL A   1      40.751  21.193  26.772  1.00  0.00    -0.460 OA
BRANCH  21  22
ATOM     22  C   UNL A   1      39.675  21.989  26.565  1.00  0.00     0.338 C 
ATOM     23  O   UNL A   1      38.573  21.642  26.148  1.00  0.00    -0.246 OA
BRANCH  22  24
ATOM     24  C   UNL A   1      39.924  23.351  27.065  1.00  0.00     0.060 A 
ATOM     25  C   UNL A   1      39.606  24.418  26.215  1.00  0.00     0.016 A 
ATOM     26  C   UNL A   1      40.551  23.585  28.291  1.00  0.00     0.016 A 
ATOM     27  C   UNL A   1      39.963  25.719  26.561  1.00  0.00     0.010 A 
ATOM     28  C   UNL A   1      40.918  24.893  28.632  1.00  0.00     0.010 A 
ATOM     29  C   UNL A   1      40.660  25.960  27.751  1.00  0.00    -0.014 A 
BRANCH  29  30
ATOM     30  C   UNL A   1      41.244  27.302  27.997  1.00  0.00     0.031 A 
ATOM     31  C   UNL A   1      42.658  27.575  27.559  1.00  0.00     0.074 A 
ATOM     32  C   UNL A   1      40.518  28.274  28.580  1.00  0.00     0.049 A 
ATOM     33  N   UNL A   1      43.372  28.662  27.701  1.00  0.00    -0.248 NA
ATOM     34  C   UNL A   1      43.362  26.479  26.870  1.00  0.00     0.031 C 
ATOM     35  C   UNL A   1      39.128  28.146  29.016  1.00  0.00     0.029 A 
ATOM     36  N   UNL A   1      40.858  29.561  28.913  1.00  0.00    -0.354 N 
ATOM     37  C   UNL A   1      44.612  28.377  27.138  1.00  0.00     0.074 A 
ATOM     38  C   UNL A   1      44.558  27.011  26.664  1.00  0.00     0.031 C 
ATOM     39  C   UNL A   1      38.740  29.303  29.580  1.00  0.00     0.029 A 
ATOM     40  C   UNL A   1      39.861  30.242  29.569  1.00  0.00     0.049 A 
ATOM     41  H   UNL A   1      41.735  29.959  28.703  1.00  0.00     0.167 HD
ATOM     42  C   UNL A   1      45.696  29.180  27.026  1.00  0.00     0.031 A 
ATOM     43  C   UNL A   1      39.859  31.472  30.122  1.00  0.00     0.031 A 
ATOM     44  C   UNL A   1      45.748  30.540  27.493  1.00  0.00     0.049 A 
ATOM     45  C   UNL A   1      41.093  32.330  30.025  1.00  0.00     0.074 A 
ATOM     46  C   UNL A   1      46.789  31.445  27.386  1.00  0.00     0.029 A 
ATOM     47  N   UNL A   1      44.720  31.187  28.161  1.00  0.00    -0.354 N 
ATOM     48  N   UNL A   1      42.241  32.060  29.449  1.00  0.00    -0.248 NA
ATOM     49  C   UNL A   1      41.031  33.660  30.647  1.00  0.00     0.031 C 
ATOM     50  C   UNL A   1      46.412  32.622  28.039  1.00  0.00     0.029 A 
ATOM     51  C   UNL A   1      45.116  32.469  28.502  1.00  0.00     0.049 A 
ATOM     52  H   UNL A   1      43.840  30.794  28.363  1.00  0.00     0.167 HD
ATOM     53  C   UNL A   1      43.026  33.196  29.618  1.00  0.00     0.074 A 
ATOM     54  C   UNL A   1      42.220  34.160  30.338  1.00  0.00     0.031 C 
ATOM     55  C   UNL A   1      44.300  33.421  29.213  1.00  0.00     0.031 A 
BRANCH  42  56
ATOM     56  C   UNL A   1      46.937  28.601  26.402  1.00  0.00    -0.014 A 
ATOM     57  C   UNL A   1      46.991  28.289  25.034  1.00  0.00     0.010 A 
ATOM     58  C   UNL A   1      48.089  28.431  27.191  1.00  0.00     0.010 A 
ATOM     59  C   UNL A   1      48.170  27.795  24.468  1.00  0.00     0.020 A 
ATOM     60  C   UNL A   1      49.276  27.957  26.626  1.00  0.00     0.020 A 
ATOM     61  C   UNL A   1      49.306  27.632  25.269  1.00  0.00     0.054 A 
BRANCH  61  62
ATOM     62  S   UNL A   1      50.835  27.030  24.501  1.00  0.00     0.124 S 
ATOM     63  O   UNL A   1      51.676  28.225  24.531  1.00  0.00    -0.237 OA
ATOM     64  O   UNL A   1      51.243  25.954  25.400  1.00  0.00    -0.237 OA
ATOM     65  O   UNL A   1      50.411  26.601  23.172  1.00  0.00    -0.744 OA
ENDBRANCH  61  62
ENDBRANCH  42  56
BRANCH  43  66
ATOM     66  C   UNL A   1      38.658  31.953  30.859  1.00  0.00    -0.014 A 
ATOM     67  C   UNL A   1      37.500  32.356  30.172  1.00  0.00     0.010 A 
ATOM     68  C   UNL A   1      38.680  32.024  32.264  1.00  0.00     0.010 A 
ATOM     69  C   UNL A   1      36.393  32.841  30.876  1.00  0.00     0.020 A 
ATOM     70  C   UNL A   1      37.566  32.481  32.972  1.00  0.00     0.020 A 
ATOM     71  C   UNL A   1      36.434  32.902  32.273  1.00  0.00     0.054 A 
BRANCH  71  72
ATOM     72  S   UNL A   1      34.975  33.495  33.173  1.00  0.00     0.124 S 
ATOM     73  O   UNL A   1      35.279  33.090  34.542  1.00  0.00    -0.237 OA
ATOM     74  O   UNL A   1      35.005  34.932  32.915  1.00  0.00    -0.237 OA
ATOM     75  O   UNL A   1      33.870  32.780  32.538  1.00  0.00    -0.744 OA
ENDBRANCH  71  72
ENDBRANCH  43  66
BRANCH  55  76
ATOM     76  C   UNL A   1      44.899  34.771  29.504  1.00  0.00    -0.014 A 
ATOM     77  C   UNL A   1      45.678  34.991  30.652  1.00  0.00     0.010 A 
ATOM     78  C   UNL A   1      44.736  35.815  28.574  1.00  0.00     0.010 A 
ATOM     79  C   UNL A   1      46.264  36.239  30.880  1.00  0.00     0.020 A 
ATOM     80  C   UNL A   1      45.341  37.057  28.786  1.00  0.00     0.020 A 
ATOM     81  C   UNL A   1      46.093  37.265  29.944  1.00  0.00     0.054 A 
BRANCH  81  82
ATOM     82  S   UNL A   1      46.907  38.859  30.234  1.00  0.00     0.124 S 
ATOM     83  O   UNL A   1      46.609  39.101  31.642  1.00  0.00    -0.237 OA
ATOM     84  O   UNL A   1      48.306  38.566  29.928  1.00  0.00    -0.237 OA
ATOM     85  O   UNL A   1      46.247  39.761  29.292  1.00  0.00    -0.744 OA
ENDBRANCH  81  82
ENDBRANCH  55  76
ENDBRANCH  29  30
ENDBRANCH  22  24
ENDBRANCH  21  22
ENDBRANCH  20  21
ENDBRANCH  19  20
ENDBRANCH   1  19
TORSDOF 20
ENDMDL
MODEL 2
REMARK VINA RESULT:      -8.2      5.599      9.155
REMARK SMILES CC(C)Cc1ccc([C@H](C)C(=O)OCCOCCOC(=O)c2ccc(-c3c4nc(c(-c5ccc(S(=O)(=O)[O-])cc5)c5ccc([nH]5)c(-c5ccc(S(=O)(=O)[O-])cc5)c5nc(c(-c6ccc(S(=O)(=O)[O-])cc6)c6ccc3[nH]6)C=C5)C=C4)cc2)cc1
REMARK SMILES IDX 16 1 15 2 14 3 13 4 11 5 12 6 9 7 10 8 8 9 5 10 6 11 83 12
REMARK SMILES IDX 7 13 82 14 4 15 2 16 1 17 3 18 17 19 18 20 19 21 20 22 21 23
REMARK SMILES IDX 22 24 23 25 81 26 24 27 80 28 25 29 26 30 27 31 74 32 28 33
REMARK SMILES IDX 79 34 73 35 75 36 29 37 78 38 72 39 71 40 30 42 60 43 41 44
REMARK SMILES IDX 59 45 42 46 45 47 58 48 76 49 43 50 44 51 57 53 77 54 46 55
REMARK SMILES IDX 31 56 32 57 40 58 33 59 39 60 34 61 35 62 36 63 37 64 38 65
REMARK SMILES IDX 61 66 62 67 70 68 63 69 69 70 64 71 65 72 66 73 67 74 68 75
REMARK SMILES IDX 47 76 48 77 56 78 49 79 55 80 50 81 51 82 52 83 53 84 54 85
REMARK H PARENT 75 41 45 52
REMARK Flexibility Score: inf
ROOT
ATOM      1  O   UNL A   1      38.669  21.838  25.324  1.00  0.00    -0.374 OA
ENDROOT
BRANCH   1   2
ATOM      2  C   UNL A   1      37.435  22.378  25.799  1.00  0.00     0.202 C 
BRANCH   2   3
ATOM      3  C   UNL A   1      37.058  23.770  25.284  1.00  0.00     0.261 C 
BRANCH   3   4
ATOM      4  O   UNL A   1      35.664  23.842  24.933  1.00  0.00    -0.463 OA
BRANCH   4   5
ATOM      5  C   UNL A   1      35.335  23.416  23.681  1.00  0.00     0.313 C 
ATOM      6  O   UNL A   1      36.124  23.302  22.749  1.00  0.00    -0.252 OA
BRANCH   5   7
ATOM      7  C   UNL A   1      33.846  23.101  23.549  1.00  0.00     0.126 C 
ATOM      8  C   UNL A   1      33.189  23.625  22.271  1.00  0.00     0.025 C 
BRANCH   7   9
ATOM      9  C   UNL A   1      33.610  21.622  23.762  1.00  0.00    -0.034 A 
ATOM     10  C   UNL A   1      32.951  18.969  24.390  1.00  0.00    -0.048 A 
ATOM     11  C   UNL A   1      34.101  19.556  24.928  1.00  0.00     0.004 A 
ATOM     12  C   UNL A   1      32.172  19.692  23.480  1.00  0.00     0.004 A 
ATOM     13  C   UNL A   1      34.427  20.874  24.621  1.00  0.00     0.005 A 
ATOM     14  C   UNL A   1      32.495  21.011  23.173  1.00  0.00     0.005 A 
BRANCH  10  15
ATOM     15  C   UNL A   1      32.483  17.626  24.891  1.00  0.00     0.038 C 
BRANCH  15  16
ATOM     16  C   UNL A   1      33.302  16.467  24.283  1.00  0.00    -0.013 C 
ATOM     17  C   UNL A   1      34.011  16.865  22.984  1.00  0.00     0.008 C 
ATOM     18  C   UNL A   1      34.328  15.966  25.299  1.00  0.00     0.008 C 
ENDBRANCH  15  16
ENDBRANCH  10  15
ENDBRANCH   7   9
ENDBRANCH   5   7
ENDBRANCH   4   5
ENDBRANCH   3   4
ENDBRANCH   2   3
ENDBRANCH   1   2
BRANCH   1  19
ATOM     19  C   UNL A   1      39.590  21.348  26.296  1.00  0.00     0.202 C 
BRANCH  19  20
ATOM     20  C   UNL A   1      40.759  22.267  26.669  1.00  0.00     0.261 C 
BRANCH  20  21
ATOM     21  O   UNL A   1      40.356  23.634  26.866  1.00  0.00    -0.460 OA
BRANCH  21  22
ATOM     22  C   UNL A   1      41.380  24.515  26.958  1.00  0.00     0.338 C 
ATOM     23  O   UNL A   1      42.454  24.459  26.365  1.00  0.00    -0.246 OA
BRANCH  22  24
ATOM     24  C   UNL A   1      40.995  25.688  27.761  1.00  0.00     0.060 A 
ATOM     25  C   UNL A   1      41.873  26.779  27.770  1.00  0.00     0.016 A 
ATOM     26  C   UNL A   1      39.858  25.687  28.572  1.00  0.00     0.016 A 
ATOM     27  C   UNL A   1      41.649  27.851  28.630  1.00  0.00     0.010 A 
ATOM     28  C   UNL A   1      39.639  26.762  29.443  1.00  0.00     0.010 A 
ATOM     29  C   UNL A   1      40.554  27.830  29.504  1.00  0.00    -0.014 A 
BRANCH  29  30
ATOM     30  C   UNL A   1      40.455  28.852  30.575  1.00  0.00     0.031 A 
ATOM     31  C   UNL A   1      41.362  28.745  31.772  1.00  0.00     0.074 A 
ATOM     32  C   UNL A   1      39.587  29.875  30.474  1.00  0.00     0.049 A 
ATOM     33  N   UNL A   1      41.423  29.507  32.834  1.00  0.00    -0.248 NA
ATOM     34  C   UNL A   1      42.327  27.632  31.775  1.00  0.00     0.031 C 
ATOM     35  C   UNL A   1      38.682  30.109  29.350  1.00  0.00     0.029 A 
ATOM     36  N   UNL A   1      39.321  30.906  31.341  1.00  0.00    -0.354 N 
ATOM     37  C   UNL A   1      42.417  28.959  33.637  1.00  0.00     0.074 A 
ATOM     38  C   UNL A   1      42.923  27.792  32.948  1.00  0.00     0.031 C 
ATOM     39  C   UNL A   1      37.943  31.203  29.606  1.00  0.00     0.029 A 
ATOM     40  C   UNL A   1      38.304  31.730  30.921  1.00  0.00     0.049 A 
ATOM     41  H   UNL A   1      39.812  31.041  32.184  1.00  0.00     0.167 HD
ATOM     42  C   UNL A   1      42.866  29.389  34.840  1.00  0.00     0.031 A 
ATOM     43  C   UNL A   1      37.712  32.772  31.537  1.00  0.00     0.031 A 
ATOM     44  C   UNL A   1      42.366  30.553  35.522  1.00  0.00     0.049 A 
ATOM     45  C   UNL A   1      38.200  33.204  32.897  1.00  0.00     0.074 A 
ATOM     46  C   UNL A   1      42.789  31.090  36.725  1.00  0.00     0.029 A 
ATOM     47  N   UNL A   1      41.329  31.352  35.068  1.00  0.00    -0.354 N 
ATOM     48  N   UNL A   1      39.172  32.701  33.621  1.00  0.00    -0.248 NA
ATOM     49  C   UNL A   1      37.515  34.346  33.518  1.00  0.00     0.031 C 
ATOM     50  C   UNL A   1      41.971  32.182  37.027  1.00  0.00     0.029 A 
ATOM     51  C   UNL A   1      41.076  32.359  35.984  1.00  0.00     0.049 A 
ATOM     52  H   UNL A   1      40.845  31.224  34.221  1.00  0.00     0.167 HD
ATOM     53  C   UNL A   1      39.230  33.482  34.771  1.00  0.00     0.074 A 
ATOM     54  C   UNL A   1      38.206  34.498  34.641  1.00  0.00     0.031 C 
ATOM     55  C   UNL A   1      40.058  33.368  35.839  1.00  0.00     0.031 A 
BRANCH  42  56
ATOM     56  C   UNL A   1      43.935  28.578  35.520  1.00  0.00    -0.014 A 
ATOM     57  C   UNL A   1      43.612  27.522  36.388  1.00  0.00     0.010 A 
ATOM     58  C   UNL A   1      45.287  28.838  35.228  1.00  0.00     0.010 A 
ATOM     59  C   UNL A   1      44.623  26.754  36.973  1.00  0.00     0.020 A 
ATOM     60  C   UNL A   1      46.300  28.059  35.793  1.00  0.00     0.020 A 
ATOM     61  C   UNL A   1      45.962  27.028  36.671  1.00  0.00     0.054 A 
BRANCH  61  62
ATOM     62  S   UNL A   1      47.253  25.988  37.408  1.00  0.00     0.124 S 
ATOM     63  O   UNL A   1      46.924  26.064  38.830  1.00  0.00    -0.237 OA
ATOM     64  O   UNL A   1      47.020  24.692  36.778  1.00  0.00    -0.237 OA
ATOM     65  O   UNL A   1      48.495  26.651  37.021  1.00  0.00    -0.744 OA
ENDBRANCH  61  62
ENDBRANCH  42  56
BRANCH  43  66
ATOM     66  C   UNL A   1      36.559  33.459  30.894  1.00  0.00    -0.014 A 
ATOM     67  C   UNL A   1      36.652  33.956  29.582  1.00  0.00     0.010 A 
ATOM     68  C   UNL A   1      35.359  33.630  31.608  1.00  0.00     0.010 A 
ATOM     69  C   UNL A   1      35.572  34.632  29.005  1.00  0.00     0.020 A 
ATOM     70  C   UNL A   1      34.268  34.280  31.024  1.00  0.00     0.020 A 
ATOM     71  C   UNL A   1      34.386  34.790  29.731  1.00  0.00     0.054 A 
BRANCH  71  72
ATOM     72  S   UNL A   1      32.982  35.633  28.951  1.00  0.00     0.124 S 
ATOM     73  O   UNL A   1      32.421  34.575  28.116  1.00  0.00    -0.237 OA
ATOM     74  O   UNL A   1      32.172  36.030  30.100  1.00  0.00    -0.237 OA
ATOM     75  O   UNL A   1      33.607  36.738  28.228  1.00  0.00    -0.744 OA
ENDBRANCH  71  72
ENDBRANCH  43  66
BRANCH  55  76
ATOM     76  C   UNL A   1      39.922  34.384  36.941  1.00  0.00    -0.014 A 
ATOM     77  C   UNL A   1      39.153  34.118  38.087  1.00  0.00     0.010 A 
ATOM     78  C   UNL A   1      40.633  35.596  36.857  1.00  0.00     0.010 A 
ATOM     79  C   UNL A   1      39.078  35.056  39.120  1.00  0.00     0.020 A 
ATOM     80  C   UNL A   1      40.580  36.525  37.899  1.00  0.00     0.020 A 
ATOM     81  C   UNL A   1      39.793  36.254  39.020  1.00  0.00     0.054 A 
BRANCH  81  82
ATOM     82  S   UNL A   1      39.724  37.432  40.397  1.00  0.00     0.124 S 
ATOM     83  O   UNL A   1      40.763  38.390  40.030  1.00  0.00    -0.237 OA
ATOM     84  O   UNL A   1      38.353  37.932  40.324  1.00  0.00    -0.237 OA
ATOM     85  O   UNL A   1      40.018  36.612  41.571  1.00  0.00    -0.744 OA
ENDBRANCH  81  82
ENDBRANCH  55  76
ENDBRANCH  29  30
ENDBRANCH  22  24
ENDBRANCH  21  22
ENDBRANCH  20  21
ENDBRANCH  19  20
ENDBRANCH   1  19
TORSDOF 20
ENDMDL
MODEL 3
REMARK VINA RESULT:      -8.1      5.740      8.976
REMARK SMILES CC(C)Cc1ccc([C@H](C)C(=O)OCCOCCOC(=O)c2ccc(-c3c4nc(c(-c5ccc(S(=O)(=O)[O-])cc5)c5ccc([nH]5)c(-c5ccc(S(=O)(=O)[O-])cc5)c5nc(c(-c6ccc(S(=O)(=O)[O-])cc6)c6ccc3[nH]6)C=C5)C=C4)cc2)cc1
REMARK SMILES IDX 16 1 15 2 14 3 13 4 11 5 12 6 9 7 10 8 8 9 5 10 6 11 83 12
REMARK SMILES IDX 7 13 82 14 4 15 2 16 1 17 3 18 17 19 18 20 19 21 20 22 21 23
REMARK SMILES IDX 22 24 23 25 81 26 24 27 80 28 25 29 26 30 27 31 74 32 28 33
REMARK SMILES IDX 79 34 73 35 75 36 29 37 78 38 72 39 71 40 30 42 60 43 41 44
REMARK SMILES IDX 59 45 42 46 45 47 58 48 76 49 43 50 44 51 57 53 77 54 46 55
REMARK SMILES IDX 31 56 32 57 40 58 33 59 39 60 34 61 35 62 36 63 37 64 38 65
REMARK SMILES IDX 61 66 62 67 70 68 63 69 69 70 64 71 65 72 66 73 67 74 68 75
REMARK SMILES IDX 47 76 48 77 56 78 49 79 55 80 50 81 51 82 52 83 53 84 54 85
REMARK H PARENT 75 41 45 52
REMARK Flexibility Score: inf
ROOT
ATOM      1  O   UNL A   1      38.300  21.942  25.743  1.00  0.00    -0.374 OA
ENDROOT
BRANCH   1   2
ATOM      2  C   UNL A   1      37.507  21.310  24.737  1.00  0.00     0.202 C 
BRANCH   2   3
ATOM      3  C   UNL A   1      36.064  20.970  25.120  1.00  0.00     0.261 C 
BRANCH   3   4
ATOM      4  O   UNL A   1      35.362  22.127  25.609  1.00  0.00    -0.463 OA
BRANCH   4   5
ATOM      5  C   UNL A   1      34.227  22.472  24.937  1.00  0.00     0.313 C 
ATOM      6  O   UNL A   1      33.115  22.001  25.150  1.00  0.00    -0.252 OA
BRANCH   5   7
ATOM      7  C   UNL A   1      34.489  23.521  23.858  1.00  0.00     0.126 C 
ATOM      8  C   UNL A   1      33.962  23.159  22.469  1.00  0.00     0.025 C 
BRANCH   7   9
ATOM      9  C   UNL A   1      34.012  24.877  24.328  1.00  0.00    -0.034 A 
ATOM     10  C   UNL A   1      33.434  27.501  25.135  1.00  0.00    -0.048 A 
ATOM     11  C   UNL A   1      33.731  26.520  26.086  1.00  0.00     0.004 A 
ATOM     12  C   UNL A   1      33.356  27.146  23.783  1.00  0.00     0.004 A 
ATOM     13  C   UNL A   1      34.023  25.218  25.687  1.00  0.00     0.005 A 
ATOM     14  C   UNL A   1      33.649  25.845  23.382  1.00  0.00     0.005 A 
BRANCH  10  15
ATOM     15  C   UNL A   1      33.334  28.948  25.546  1.00  0.00     0.038 C 
BRANCH  15  16
ATOM     16  C   UNL A   1      31.928  29.300  26.080  1.00  0.00    -0.013 C 
ATOM     17  C   UNL A   1      31.642  28.668  27.447  1.00  0.00     0.008 C 
ATOM     18  C   UNL A   1      31.771  30.817  26.169  1.00  0.00     0.008 C 
ENDBRANCH  15  16
ENDBRANCH  10  15
ENDBRANCH   7   9
ENDBRANCH   5   7
ENDBRANCH   4   5
ENDBRANCH   3   4
ENDBRANCH   2   3
ENDBRANCH   1   2
BRANCH   1  19
ATOM     19  C   UNL A   1      39.493  21.279  26.154  1.00  0.00     0.202 C 
BRANCH  19  20
ATOM     20  C   UNL A   1      40.562  22.138  26.841  1.00  0.00     0.261 C 
BRANCH  20  21
ATOM     21  O   UNL A   1      40.175  23.517  26.969  1.00  0.00    -0.460 OA
BRANCH  21  22
ATOM     22  C   UNL A   1      41.210  24.387  27.044  1.00  0.00     0.338 C 
ATOM     23  O   UNL A   1      42.279  24.312  26.443  1.00  0.00    -0.246 OA
BRANCH  22  24
ATOM     24  C   UNL A   1      40.845  25.573  27.836  1.00  0.00     0.060 A 
ATOM     25  C   UNL A   1      41.778  26.616  27.904  1.00  0.00     0.016 A 
ATOM     26  C   UNL A   1      39.667  25.628  28.584  1.00  0.00     0.016 A 
ATOM     27  C   UNL A   1      41.565  27.692  28.762  1.00  0.00     0.010 A 
ATOM     28  C   UNL A   1      39.458  26.706  29.453  1.00  0.00     0.010 A 
ATOM     29  C   UNL A   1      40.425  27.723  29.574  1.00  0.00    -0.014 A 
BRANCH  29  30
ATOM     30  C   UNL A   1      40.322  28.741  30.649  1.00  0.00     0.031 A 
ATOM     31  C   UNL A   1      41.202  28.612  31.864  1.00  0.00     0.074 A 
ATOM     32  C   UNL A   1      39.474  29.780  30.536  1.00  0.00     0.049 A 
ATOM     33  N   UNL A   1      41.255  29.368  32.930  1.00  0.00    -0.248 NA
ATOM     34  C   UNL A   1      42.147  27.482  31.880  1.00  0.00     0.031 C 
ATOM     35  C   UNL A   1      38.596  30.036  29.395  1.00  0.00     0.029 A 
ATOM     36  N   UNL A   1      39.208  30.810  31.404  1.00  0.00    -0.354 N 
ATOM     37  C   UNL A   1      42.222  28.798  33.751  1.00  0.00     0.074 A 
ATOM     38  C   UNL A   1      42.722  27.626  33.066  1.00  0.00     0.031 C 
ATOM     39  C   UNL A   1      37.871  31.141  29.643  1.00  0.00     0.029 A 
ATOM     40  C   UNL A   1      38.215  31.654  30.968  1.00  0.00     0.049 A 
ATOM     41  H   UNL A   1      39.684  30.933  32.258  1.00  0.00     0.167 HD
ATOM     42  C   UNL A   1      42.655  29.213  34.965  1.00  0.00     0.031 A 
ATOM     43  C   UNL A   1      37.629  32.704  31.578  1.00  0.00     0.031 A 
ATOM     44  C   UNL A   1      42.162  30.382  35.644  1.00  0.00     0.049 A 
ATOM     45  C   UNL A   1      38.096  33.120  32.949  1.00  0.00     0.074 A 
ATOM     46  C   UNL A   1      42.569  30.905  36.857  1.00  0.00     0.029 A 
ATOM     47  N   UNL A   1      41.148  31.202  35.173  1.00  0.00    -0.354 N 
ATOM     48  N   UNL A   1      39.044  32.596  33.690  1.00  0.00    -0.248 NA
ATOM     49  C   UNL A   1      37.420  34.271  33.563  1.00  0.00     0.031 C 
ATOM     50  C   UNL A   1      41.764  32.010  37.149  1.00  0.00     0.029 A 
ATOM     51  C   UNL A   1      40.894  32.209  36.089  1.00  0.00     0.049 A 
ATOM     52  H   UNL A   1      40.679  31.086  34.315  1.00  0.00     0.167 HD
ATOM     53  C   UNL A   1      39.093  33.370  34.845  1.00  0.00     0.074 A 
ATOM     54  C   UNL A   1      38.090  34.404  34.701  1.00  0.00     0.031 C 
ATOM     55  C   UNL A   1      39.897  33.236  35.929  1.00  0.00     0.031 A 
BRANCH  42  56
ATOM     56  C   UNL A   1      43.696  28.380  35.662  1.00  0.00    -0.014 A 
ATOM     57  C   UNL A   1      45.068  28.604  35.460  1.00  0.00     0.010 A 
ATOM     58  C   UNL A   1      43.289  27.400  36.586  1.00  0.00     0.010 A 
ATOM     59  C   UNL A   1      46.016  27.847  36.154  1.00  0.00     0.020 A 
ATOM     60  C   UNL A   1      44.233  26.656  37.297  1.00  0.00     0.020 A 
ATOM     61  C   UNL A   1      45.592  26.877  37.069  1.00  0.00     0.054 A 
BRANCH  61  62
ATOM     62  S   UNL A   1      46.843  25.938  37.988  1.00  0.00     0.124 S 
ATOM     63  O   UNL A   1      47.041  24.776  37.125  1.00  0.00    -0.237 OA
ATOM     64  O   UNL A   1      47.963  26.872  38.051  1.00  0.00    -0.237 OA
ATOM     65  O   UNL A   1      46.196  25.659  39.267  1.00  0.00    -0.744 OA
ENDBRANCH  61  62
ENDBRANCH  42  56
BRANCH  43  66
ATOM     66  C   UNL A   1      36.501  33.414  30.915  1.00  0.00    -0.014 A 
ATOM     67  C   UNL A   1      36.685  34.083  29.692  1.00  0.00     0.010 A 
ATOM     68  C   UNL A   1      35.232  33.434  31.523  1.00  0.00     0.010 A 
ATOM     69  C   UNL A   1      35.624  34.777  29.100  1.00  0.00     0.020 A 
ATOM     70  C   UNL A   1      34.164  34.103  30.920  1.00  0.00     0.020 A 
ATOM     71  C   UNL A   1      34.370  34.784  29.720  1.00  0.00     0.054 A 
BRANCH  71  72
ATOM     72  S   UNL A   1      32.996  35.654  28.918  1.00  0.00     0.124 S 
ATOM     73  O   UNL A   1      33.696  36.669  28.135  1.00  0.00    -0.237 OA
ATOM     74  O   UNL A   1      32.353  34.592  28.147  1.00  0.00    -0.237 OA
ATOM     75  O   UNL A   1      32.211  36.159  30.042  1.00  0.00    -0.744 OA
ENDBRANCH  71  72
ENDBRANCH  43  66
BRANCH  55  76
ATOM     76  C   UNL A   1      39.756  34.249  37.034  1.00  0.00    -0.014 A 
ATOM     77  C   UNL A   1      38.993  33.974  38.181  1.00  0.00     0.010 A 
ATOM     78  C   UNL A   1      40.458  35.466  36.950  1.00  0.00     0.010 A 
ATOM     79  C   UNL A   1      38.914  34.909  39.217  1.00  0.00     0.020 A 
ATOM     80  C   UNL A   1      40.402  36.392  37.995  1.00  0.00     0.020 A 
ATOM     81  C   UNL A   1      39.620  36.113  39.118  1.00  0.00     0.054 A 
BRANCH  81  82
ATOM     82  S   UNL A   1      39.546  37.287  40.498  1.00  0.00     0.124 S 
ATOM     83  O   UNL A   1      38.889  36.496  41.535  1.00  0.00    -0.237 OA
ATOM     84  O   UNL A   1      40.954  37.593  40.736  1.00  0.00    -0.237 OA
ATOM     85  O   UNL A   1      38.756  38.396  39.966  1.00  0.00    -0.744 OA
ENDBRANCH  81  82
ENDBRANCH  55  76
ENDBRANCH  29  30
ENDBRANCH  22  24
ENDBRANCH  21  22
ENDBRANCH  20  21
ENDBRANCH  19  20
ENDBRANCH   1  19
TORSDOF 20
ENDMDL
