MODEL 1
REMARK VINA RESULT:     -11.1      0.000      0.000
REMARK SMILES O=C(OCCOCCOC(=O)[C@@H]1CCCC[C@@H]1C(=O)Nc1nc(-c2ccc(Cl)c(Cl)c2)cs1)c1ccc(-c2c3nc(c(-c4ccc(S(=O)(=O)[O-])cc4)c4ccc([nH]4)c(-c4ccc(S(=O)(=O)[O-])cc4)c4nc(c(-c5ccc(S(=O)(=O)[O-])cc5)c5ccc2[nH]5)C=C4)C=C3)cc1
REMARK SMILES IDX 6 1 5 2 4 3 3 4 2 5 1 6 34 7 35 8 93 9 36 10 92 11 37 12
REMARK SMILES IDX 38 13 39 14 86 15 40 16 91 17 85 18 87 19 41 20 90 21 84 22
REMARK SMILES IDX 83 23 42 25 72 26 53 27 71 28 54 29 57 30 70 31 88 32 55 33
REMARK SMILES IDX 56 34 69 36 89 37 58 38 43 39 44 40 52 41 45 42 51 43 46 44
REMARK SMILES IDX 47 45 48 46 49 47 50 48 73 49 74 50 82 51 75 52 81 53 76 54
REMARK SMILES IDX 77 55 78 56 79 57 80 58 59 59 60 60 68 61 61 62 67 63 62 64
REMARK SMILES IDX 63 65 64 66 65 67 66 68 7 69 8 70 9 71 10 72 11 73 12 74
REMARK SMILES IDX 13 75 17 76 14 77 16 78 15 79 18 80 19 81 20 82 21 84 22 85
REMARK SMILES IDX 33 86 23 87 32 88 24 89 25 90 31 91 26 92 29 93 27 94 30 95
REMARK SMILES IDX 28 96
REMARK H PARENT 87 24 57 35 20 83
REMARK Flexibility Score: inf
ROOT
ATOM      1  O   UNL A   1      34.991  23.435  24.765  1.00  0.00    -0.374 OA
ENDROOT
BRANCH   1   2
ATOM      2  C   UNL A   1      35.738  22.240  24.560  1.00  0.00     0.202 C 
BRANCH   2   3
ATOM      3  C   UNL A   1      37.195  22.060  25.042  1.00  0.00     0.261 C 
BRANCH   3   4
ATOM      4  O   UNL A   1      37.946  23.186  25.557  1.00  0.00    -0.460 OA
BRANCH   4   5
ATOM      5  C   UNL A   1      39.061  23.141  26.344  1.00  0.00     0.338 C 
ATOM      6  O   UNL A   1      39.619  22.089  26.602  1.00  0.00    -0.246 OA
BRANCH   5   7
ATOM      7  C   UNL A   1      39.539  24.406  26.954  1.00  0.00     0.060 A 
ATOM      8  C   UNL A   1      39.335  24.626  28.301  1.00  0.00     0.016 A 
ATOM      9  C   UNL A   1      40.232  25.374  26.225  1.00  0.00     0.016 A 
ATOM     10  C   UNL A   1      39.542  25.834  28.894  1.00  0.00     0.010 A 
ATOM     11  C   UNL A   1      40.680  26.529  26.883  1.00  0.00     0.010 A 
ATOM     12  C   UNL A   1      40.325  26.751  28.223  1.00  0.00    -0.014 A 
BRANCH  12  13
ATOM     13  C   UNL A   1      40.763  27.894  29.031  1.00  0.00     0.031 A 
ATOM     14  C   UNL A   1      39.789  28.984  29.297  1.00  0.00     0.074 A 
ATOM     15  C   UNL A   1      41.965  27.816  29.639  1.00  0.00     0.049 A 
ATOM     16  N   UNL A   1      39.978  30.108  29.921  1.00  0.00    -0.248 NA
ATOM     17  C   UNL A   1      38.418  28.782  28.798  1.00  0.00     0.031 C 
ATOM     18  C   UNL A   1      42.898  26.679  29.536  1.00  0.00     0.029 A 
ATOM     19  N   UNL A   1      42.592  28.662  30.508  1.00  0.00    -0.354 N 
ATOM     20  C   UNL A   1      38.774  30.789  29.822  1.00  0.00     0.074 A 
ATOM     21  C   UNL A   1      37.850  29.936  29.112  1.00  0.00     0.031 C 
ATOM     22  C   UNL A   1      43.934  26.872  30.361  1.00  0.00     0.029 A 
ATOM     23  C   UNL A   1      43.820  28.203  30.927  1.00  0.00     0.049 A 
ATOM     24  H   UNL A   1      42.203  29.516  30.807  1.00  0.00     0.167 HD
ATOM     25  C   UNL A   1      38.508  32.040  30.255  1.00  0.00     0.031 A 
ATOM     26  C   UNL A   1      44.783  28.830  31.627  1.00  0.00     0.031 A 
ATOM     27  C   UNL A   1      39.496  32.836  30.933  1.00  0.00     0.049 A 
ATOM     28  C   UNL A   1      44.500  30.245  32.028  1.00  0.00     0.074 A 
ATOM     29  C   UNL A   1      39.409  34.145  31.362  1.00  0.00     0.029 A 
ATOM     30  N   UNL A   1      40.766  32.379  31.274  1.00  0.00    -0.354 N 
ATOM     31  N   UNL A   1      43.401  30.938  31.830  1.00  0.00    -0.248 NA
ATOM     32  C   UNL A   1      45.569  30.973  32.711  1.00  0.00     0.031 C 
ATOM     33  C   UNL A   1      40.648  34.494  31.912  1.00  0.00     0.029 A 
ATOM     34  C   UNL A   1      41.482  33.382  31.895  1.00  0.00     0.049 A 
ATOM     35  H   UNL A   1      41.104  31.471  31.100  1.00  0.00     0.167 HD
ATOM     36  C   UNL A   1      43.637  32.189  32.376  1.00  0.00     0.074 A 
ATOM     37  C   UNL A   1      44.985  32.147  32.921  1.00  0.00     0.031 C 
ATOM     38  C   UNL A   1      42.823  33.271  32.424  1.00  0.00     0.031 A 
BRANCH  25  39
ATOM     39  C   UNL A   1      37.179  32.626  29.864  1.00  0.00    -0.014 A 
ATOM     40  C   UNL A   1      36.956  33.205  28.601  1.00  0.00     0.010 A 
ATOM     41  C   UNL A   1      36.152  32.673  30.825  1.00  0.00     0.010 A 
ATOM     42  C   UNL A   1      35.761  33.882  28.335  1.00  0.00     0.020 A 
ATOM     43  C   UNL A   1      34.945  33.321  30.552  1.00  0.00     0.020 A 
ATOM     44  C   UNL A   1      34.769  33.948  29.318  1.00  0.00     0.054 A 
BRANCH  44  45
ATOM     45  S   UNL A   1      33.248  34.873  28.969  1.00  0.00     0.124 S 
ATOM     46  O   UNL A   1      32.594  34.013  27.986  1.00  0.00    -0.237 OA
ATOM     47  O   UNL A   1      32.603  34.935  30.278  1.00  0.00    -0.237 OA
ATOM     48  O   UNL A   1      33.730  36.152  28.453  1.00  0.00    -0.744 OA
ENDBRANCH  44  45
ENDBRANCH  25  39
BRANCH  26  49
ATOM     49  C   UNL A   1      46.089  28.149  31.858  1.00  0.00    -0.014 A 
ATOM     50  C   UNL A   1      46.293  27.314  32.968  1.00  0.00     0.010 A 
ATOM     51  C   UNL A   1      47.114  28.255  30.894  1.00  0.00     0.010 A 
ATOM     52  C   UNL A   1      47.485  26.586  33.099  1.00  0.00     0.020 A 
ATOM     53  C   UNL A   1      48.289  27.506  31.003  1.00  0.00     0.020 A 
ATOM     54  C   UNL A   1      48.468  26.676  32.108  1.00  0.00     0.054 A 
BRANCH  54  55
ATOM     55  S   UNL A   1      49.959  25.649  32.248  1.00  0.00     0.124 S 
ATOM     56  O   UNL A   1      49.610  24.757  33.350  1.00  0.00    -0.237 OA
ATOM     57  O   UNL A   1      50.037  25.026  30.930  1.00  0.00    -0.237 OA
ATOM     58  O   UNL A   1      51.017  26.616  32.536  1.00  0.00    -0.744 OA
ENDBRANCH  54  55
ENDBRANCH  26  49
BRANCH  38  59
ATOM     59  C   UNL A   1      43.349  34.475  33.144  1.00  0.00    -0.014 A 
ATOM     60  C   UNL A   1      43.978  35.521  32.452  1.00  0.00     0.010 A 
ATOM     61  C   UNL A   1      43.093  34.600  34.522  1.00  0.00     0.010 A 
ATOM     62  C   UNL A   1      44.346  36.681  33.131  1.00  0.00     0.020 A 
ATOM     63  C   UNL A   1      43.433  35.769  35.196  1.00  0.00     0.020 A 
ATOM     64  C   UNL A   1      44.059  36.802  34.496  1.00  0.00     0.054 A 
BRANCH  64  65
ATOM     65  S   UNL A   1      44.448  38.362  35.330  1.00  0.00     0.124 S 
ATOM     66  O   UNL A   1      43.992  38.098  36.692  1.00  0.00    -0.237 OA
ATOM     67  O   UNL A   1      45.894  38.463  35.158  1.00  0.00    -0.237 OA
ATOM     68  O   UNL A   1      43.667  39.353  34.592  1.00  0.00    -0.744 OA
ENDBRANCH  64  65
ENDBRANCH  38  59
ENDBRANCH  12  13
ENDBRANCH   5   7
ENDBRANCH   4   5
ENDBRANCH   3   4
ENDBRANCH   2   3
ENDBRANCH   1   2
BRANCH   1  69
ATOM     69  C   UNL A   1      34.495  23.809  26.043  1.00  0.00     0.202 C 
BRANCH  69  70
ATOM     70  C   UNL A   1      33.688  25.100  26.096  1.00  0.00     0.261 C 
BRANCH  70  71
ATOM     71  O   UNL A   1      32.430  24.952  26.773  1.00  0.00    -0.463 OA
BRANCH  71  72
ATOM     72  C   UNL A   1      31.541  25.922  26.490  1.00  0.00     0.309 C 
ATOM     73  O   UNL A   1      30.321  25.760  26.490  1.00  0.00    -0.252 OA
BRANCH  72  74
ATOM     74  C   UNL A   1      32.131  27.259  26.081  1.00  0.00     0.111 C 
ATOM     75  C   UNL A   1      31.585  28.186  27.181  1.00  0.00     0.016 C 
ATOM     76  C   UNL A   1      32.115  27.796  24.613  1.00  0.00     0.093 C 
ATOM     77  C   UNL A   1      31.976  29.630  27.005  1.00  0.00     0.001 C 
ATOM     78  C   UNL A   1      32.264  29.338  24.545  1.00  0.00     0.014 C 
ATOM     79  C   UNL A   1      31.514  30.094  25.640  1.00  0.00     0.001 C 
BRANCH  76  80
ATOM     80  C   UNL A   1      30.939  27.433  23.709  1.00  0.00     0.230 C 
ATOM     81  O   UNL A   1      30.020  28.249  23.556  1.00  0.00    -0.274 OA
ATOM     82  N   UNL A   1      30.928  26.324  22.905  1.00  0.00    -0.302 N 
ATOM     83  H   UNL A   1      30.259  26.366  22.184  1.00  0.00     0.172 HD
BRANCH  82  84
ATOM     84  C   UNL A   1      31.668  25.165  22.904  1.00  0.00     0.189 A 
ATOM     85  N   UNL A   1      31.599  24.072  23.629  1.00  0.00    -0.220 NA
ATOM     86  S   UNL A   1      32.793  25.109  21.604  1.00  0.00    -0.105 S 
ATOM     87  C   UNL A   1      32.321  23.047  22.996  1.00  0.00     0.084 A 
ATOM     88  C   UNL A   1      33.023  23.430  21.873  1.00  0.00     0.097 A 
BRANCH  87  89
ATOM     89  C   UNL A   1      32.180  21.653  23.408  1.00  0.00     0.003 A 
ATOM     90  C   UNL A   1      32.201  21.325  24.770  1.00  0.00     0.012 A 
ATOM     91  C   UNL A   1      32.145  20.619  22.472  1.00  0.00     0.032 A 
ATOM     92  C   UNL A   1      32.358  20.004  25.195  1.00  0.00     0.023 A 
ATOM     93  C   UNL A   1      32.234  19.283  22.896  1.00  0.00     0.060 A 
ATOM     94  C   UNL A   1      32.393  18.978  24.255  1.00  0.00     0.059 A 
ATOM     95  Cl  UNL A   1      32.180  18.052  21.684  1.00  0.00    -0.083 Cl
ATOM     96  Cl  UNL A   1      32.673  17.374  24.829  1.00  0.00    -0.083 Cl
ENDBRANCH  87  89
ENDBRANCH  82  84
ENDBRANCH  76  80
ENDBRANCH  72  74
ENDBRANCH  71  72
ENDBRANCH  70  71
ENDBRANCH  69  70
ENDBRANCH   1  69
TORSDOF 20
ENDMDL
MODEL 2
REMARK VINA RESULT:     -10.8      3.513      8.529
REMARK SMILES O=C(OCCOCCOC(=O)[C@@H]1CCCC[C@@H]1C(=O)Nc1nc(-c2ccc(Cl)c(Cl)c2)cs1)c1ccc(-c2c3nc(c(-c4ccc(S(=O)(=O)[O-])cc4)c4ccc([nH]4)c(-c4ccc(S(=O)(=O)[O-])cc4)c4nc(c(-c5ccc(S(=O)(=O)[O-])cc5)c5ccc2[nH]5)C=C4)C=C3)cc1
REMARK SMILES IDX 6 1 5 2 4 3 3 4 2 5 1 6 34 7 35 8 93 9 36 10 92 11 37 12
REMARK SMILES IDX 38 13 39 14 86 15 40 16 91 17 85 18 87 19 41 20 90 21 84 22
REMARK SMILES IDX 83 23 42 25 72 26 53 27 71 28 54 29 57 30 70 31 88 32 55 33
REMARK SMILES IDX 56 34 69 36 89 37 58 38 43 39 44 40 52 41 45 42 51 43 46 44
REMARK SMILES IDX 47 45 48 46 49 47 50 48 73 49 74 50 82 51 75 52 81 53 76 54
REMARK SMILES IDX 77 55 78 56 79 57 80 58 59 59 60 60 68 61 61 62 67 63 62 64
REMARK SMILES IDX 63 65 64 66 65 67 66 68 7 69 8 70 9 71 10 72 11 73 12 74
REMARK SMILES IDX 13 75 17 76 14 77 16 78 15 79 18 80 19 81 20 82 21 84 22 85
REMARK SMILES IDX 33 86 23 87 32 88 24 89 25 90 31 91 26 92 29 93 27 94 30 95
REMARK SMILES IDX 28 96
REMARK H PARENT 87 24 57 35 20 83
REMARK Flexibility Score: inf
ROOT
ATOM      1  O   UNL A   1      31.426  26.697  27.118  1.00  0.00    -0.374 OA
ENDROOT
BRANCH   1   2
ATOM      2  C   UNL A   1      31.237  28.070  27.443  1.00  0.00     0.202 C 
BRANCH   2   3
ATOM      3  C   UNL A   1      32.314  29.152  27.205  1.00  0.00     0.261 C 
BRANCH   3   4
ATOM      4  O   UNL A   1      33.498  29.211  28.038  1.00  0.00    -0.460 OA
BRANCH   4   5
ATOM      5  C   UNL A   1      34.408  30.227  28.103  1.00  0.00     0.338 C 
ATOM      6  O   UNL A   1      34.094  31.382  27.877  1.00  0.00    -0.246 OA
BRANCH   5   7
ATOM      7  C   UNL A   1      35.823  29.881  28.382  1.00  0.00     0.060 A 
ATOM      8  C   UNL A   1      36.750  29.956  27.362  1.00  0.00     0.016 A 
ATOM      9  C   UNL A   1      36.271  29.521  29.654  1.00  0.00     0.016 A 
ATOM     10  C   UNL A   1      38.012  29.456  27.469  1.00  0.00     0.010 A 
ATOM     11  C   UNL A   1      37.632  29.242  29.843  1.00  0.00     0.010 A 
ATOM     12  C   UNL A   1      38.497  29.209  28.737  1.00  0.00    -0.014 A 
BRANCH  12  13
ATOM     13  C   UNL A   1      39.942  28.970  28.806  1.00  0.00     0.031 A 
ATOM     14  C   UNL A   1      40.806  30.035  29.380  1.00  0.00     0.074 A 
ATOM     15  C   UNL A   1      40.395  27.733  28.513  1.00  0.00     0.049 A 
ATOM     16  N   UNL A   1      42.102  30.067  29.475  1.00  0.00    -0.248 NA
ATOM     17  C   UNL A   1      40.122  31.221  29.923  1.00  0.00     0.031 C 
ATOM     18  C   UNL A   1      39.553  26.597  28.097  1.00  0.00     0.029 A 
ATOM     19  N   UNL A   1      41.648  27.195  28.574  1.00  0.00    -0.354 N 
ATOM     20  C   UNL A   1      42.399  31.309  30.013  1.00  0.00     0.074 A 
ATOM     21  C   UNL A   1      41.147  31.987  30.260  1.00  0.00     0.031 C 
ATOM     22  C   UNL A   1      40.304  25.492  28.010  1.00  0.00     0.029 A 
ATOM     23  C   UNL A   1      41.691  25.868  28.208  1.00  0.00     0.049 A 
ATOM     24  H   UNL A   1      42.443  27.704  28.853  1.00  0.00     0.167 HD
ATOM     25  C   UNL A   1      43.626  31.832  30.226  1.00  0.00     0.031 A 
ATOM     26  C   UNL A   1      42.748  25.069  27.978  1.00  0.00     0.031 A 
ATOM     27  C   UNL A   1      44.827  31.100  29.927  1.00  0.00     0.049 A 
ATOM     28  C   UNL A   1      44.100  25.692  28.142  1.00  0.00     0.074 A 
ATOM     29  C   UNL A   1      46.140  31.516  30.012  1.00  0.00     0.029 A 
ATOM     30  N   UNL A   1      44.845  29.783  29.478  1.00  0.00    -0.354 N 
ATOM     31  N   UNL A   1      44.387  26.912  28.539  1.00  0.00    -0.248 NA
ATOM     32  C   UNL A   1      45.261  24.867  27.811  1.00  0.00     0.031 C 
ATOM     33  C   UNL A   1      46.947  30.467  29.558  1.00  0.00     0.029 A 
ATOM     34  C   UNL A   1      46.145  29.371  29.263  1.00  0.00     0.049 A 
ATOM     35  H   UNL A   1      44.047  29.224  29.334  1.00  0.00     0.167 HD
ATOM     36  C   UNL A   1      45.769  27.004  28.518  1.00  0.00     0.074 A 
ATOM     37  C   UNL A   1      46.256  25.706  28.078  1.00  0.00     0.031 C 
ATOM     38  C   UNL A   1      46.563  28.057  28.830  1.00  0.00     0.031 A 
BRANCH  25  39
ATOM     39  C   UNL A   1      43.685  33.275  30.649  1.00  0.00    -0.014 A 
ATOM     40  C   UNL A   1      43.804  34.325  29.720  1.00  0.00     0.010 A 
ATOM     41  C   UNL A   1      43.710  33.576  32.023  1.00  0.00     0.010 A 
ATOM     42  C   UNL A   1      44.019  35.637  30.158  1.00  0.00     0.020 A 
ATOM     43  C   UNL A   1      43.893  34.889  32.466  1.00  0.00     0.020 A 
ATOM     44  C   UNL A   1      44.077  35.906  31.529  1.00  0.00     0.054 A 
BRANCH  44  45
ATOM     45  S   UNL A   1      44.407  37.605  32.075  1.00  0.00     0.124 S 
ATOM     46  O   UNL A   1      43.832  38.387  30.983  1.00  0.00    -0.237 OA
ATOM     47  O   UNL A   1      43.690  37.678  33.346  1.00  0.00    -0.237 OA
ATOM     48  O   UNL A   1      45.863  37.660  32.179  1.00  0.00    -0.744 OA
ENDBRANCH  44  45
ENDBRANCH  25  39
BRANCH  26  49
ATOM     49  C   UNL A   1      42.531  23.684  27.473  1.00  0.00    -0.014 A 
ATOM     50  C   UNL A   1      42.567  23.391  26.100  1.00  0.00     0.010 A 
ATOM     51  C   UNL A   1      42.388  22.619  28.389  1.00  0.00     0.010 A 
ATOM     52  C   UNL A   1      42.486  22.063  25.656  1.00  0.00     0.020 A 
ATOM     53  C   UNL A   1      42.340  21.293  27.953  1.00  0.00     0.020 A 
ATOM     54  C   UNL A   1      42.386  21.022  26.586  1.00  0.00     0.054 A 
BRANCH  54  55
ATOM     55  S   UNL A   1      42.383  19.306  25.993  1.00  0.00     0.124 S 
ATOM     56  O   UNL A   1      43.285  19.379  24.847  1.00  0.00    -0.237 OA
ATOM     57  O   UNL A   1      42.886  18.572  27.150  1.00  0.00    -0.237 OA
ATOM     58  O   UNL A   1      40.979  19.057  25.669  1.00  0.00    -0.744 OA
ENDBRANCH  54  55
ENDBRANCH  26  49
BRANCH  38  59
ATOM     59  C   UNL A   1      48.042  27.824  28.766  1.00  0.00    -0.014 A 
ATOM     60  C   UNL A   1      48.719  27.151  29.794  1.00  0.00     0.010 A 
ATOM     61  C   UNL A   1      48.729  28.186  27.593  1.00  0.00     0.010 A 
ATOM     62  C   UNL A   1      50.070  26.841  29.650  1.00  0.00     0.020 A 
ATOM     63  C   UNL A   1      50.072  27.852  27.434  1.00  0.00     0.020 A 
ATOM     64  C   UNL A   1      50.733  27.183  28.465  1.00  0.00     0.054 A 
BRANCH  64  65
ATOM     65  S   UNL A   1      52.459  26.671  28.257  1.00  0.00     0.124 S 
ATOM     66  O   UNL A   1      52.334  25.565  27.312  1.00  0.00    -0.237 OA
ATOM     67  O   UNL A   1      53.088  27.880  27.731  1.00  0.00    -0.237 OA
ATOM     68  O   UNL A   1      52.873  26.296  29.607  1.00  0.00    -0.744 OA
ENDBRANCH  64  65
ENDBRANCH  38  59
ENDBRANCH  12  13
ENDBRANCH   5   7
ENDBRANCH   4   5
ENDBRANCH   3   4
ENDBRANCH   2   3
ENDBRANCH   1   2
BRANCH   1  69
ATOM     69  C   UNL A   1      30.384  25.892  26.585  1.00  0.00     0.202 C 
BRANCH  69  70
ATOM     70  C   UNL A   1      30.785  24.499  26.115  1.00  0.00     0.261 C 
BRANCH  70  71
ATOM     71  O   UNL A   1      31.019  23.584  27.196  1.00  0.00    -0.463 OA
BRANCH  71  72
ATOM     72  C   UNL A   1      32.254  23.049  27.200  1.00  0.00     0.309 C 
ATOM     73  O   UNL A   1      33.039  23.135  28.143  1.00  0.00    -0.252 OA
BRANCH  72  74
ATOM     74  C   UNL A   1      32.684  22.370  25.912  1.00  0.00     0.111 C 
ATOM     75  C   UNL A   1      33.394  21.115  26.447  1.00  0.00     0.016 C 
ATOM     76  C   UNL A   1      33.358  23.128  24.722  1.00  0.00     0.093 C 
ATOM     77  C   UNL A   1      33.985  20.248  25.367  1.00  0.00     0.001 C 
ATOM     78  C   UNL A   1      34.169  22.180  23.801  1.00  0.00     0.014 C 
ATOM     79  C   UNL A   1      34.937  21.086  24.540  1.00  0.00     0.001 C 
BRANCH  76  80
ATOM     80  C   UNL A   1      34.265  24.319  25.027  1.00  0.00     0.230 C 
ATOM     81  O   UNL A   1      35.273  24.148  25.725  1.00  0.00    -0.274 OA
ATOM     82  N   UNL A   1      34.128  25.537  24.418  1.00  0.00    -0.302 N 
ATOM     83  H   UNL A   1      34.929  26.105  24.487  1.00  0.00     0.172 HD
BRANCH  82  84
ATOM     84  C   UNL A   1      33.094  26.125  23.727  1.00  0.00     0.189 A 
ATOM     85  N   UNL A   1      32.207  27.033  24.066  1.00  0.00    -0.220 NA
ATOM     86  S   UNL A   1      33.075  25.669  22.068  1.00  0.00    -0.105 S 
ATOM     87  C   UNL A   1      31.616  27.562  22.908  1.00  0.00     0.084 A 
ATOM     88  C   UNL A   1      31.980  26.947  21.728  1.00  0.00     0.097 A 
BRANCH  87  89
ATOM     89  C   UNL A   1      30.819  28.785  22.952  1.00  0.00     0.003 A 
ATOM     90  C   UNL A   1      30.842  29.587  24.101  1.00  0.00     0.012 A 
ATOM     91  C   UNL A   1      29.937  29.115  21.923  1.00  0.00     0.032 A 
ATOM     92  C   UNL A   1      29.894  30.594  24.301  1.00  0.00     0.023 A 
ATOM     93  C   UNL A   1      29.025  30.170  22.091  1.00  0.00     0.060 A 
ATOM     94  C   UNL A   1      28.969  30.876  23.300  1.00  0.00     0.059 A 
ATOM     95  Cl  UNL A   1      27.964  30.529  20.773  1.00  0.00    -0.083 Cl
ATOM     96  Cl  UNL A   1      27.767  32.070  23.633  1.00  0.00    -0.083 Cl
ENDBRANCH  87  89
ENDBRANCH  82  84
ENDBRANCH  76  80
ENDBRANCH  72  74
ENDBRANCH  71  72
ENDBRANCH  70  71
ENDBRANCH  69  70
ENDBRANCH   1  69
TORSDOF 20
ENDMDL
MODEL 3
REMARK VINA RESULT:     -10.7      1.229      8.087
REMARK SMILES O=C(OCCOCCOC(=O)[C@@H]1CCCC[C@@H]1C(=O)Nc1nc(-c2ccc(Cl)c(Cl)c2)cs1)c1ccc(-c2c3nc(c(-c4ccc(S(=O)(=O)[O-])cc4)c4ccc([nH]4)c(-c4ccc(S(=O)(=O)[O-])cc4)c4nc(c(-c5ccc(S(=O)(=O)[O-])cc5)c5ccc2[nH]5)C=C4)C=C3)cc1
REMARK SMILES IDX 6 1 5 2 4 3 3 4 2 5 1 6 34 7 35 8 93 9 36 10 92 11 37 12
REMARK SMILES IDX 38 13 39 14 86 15 40 16 91 17 85 18 87 19 41 20 90 21 84 22
REMARK SMILES IDX 83 23 42 25 72 26 53 27 71 28 54 29 57 30 70 31 88 32 55 33
REMARK SMILES IDX 56 34 69 36 89 37 58 38 43 39 44 40 52 41 45 42 51 43 46 44
REMARK SMILES IDX 47 45 48 46 49 47 50 48 73 49 74 50 82 51 75 52 81 53 76 54
REMARK SMILES IDX 77 55 78 56 79 57 80 58 59 59 60 60 68 61 61 62 67 63 62 64
REMARK SMILES IDX 63 65 64 66 65 67 66 68 7 69 8 70 9 71 10 72 11 73 12 74
REMARK SMILES IDX 13 75 17 76 14 77 16 78 15 79 18 80 19 81 20 82 21 84 22 85
REMARK SMILES IDX 33 86 23 87 32 88 24 89 25 90 31 91 26 92 29 93 27 94 30 95
REMARK SMILES IDX 28 96
REMARK H PARENT 87 24 57 35 20 83
REMARK Flexibility Score: inf
ROOT
ATOM      1  O   UNL A   1      35.189  23.821  24.646  1.00  0.00    -0.374 OA
ENDROOT
BRANCH   1   2
ATOM      2  C   UNL A   1      35.679  22.484  24.656  1.00  0.00     0.202 C 
BRANCH   2   3
ATOM      3  C   UNL A   1      37.114  22.112  25.089  1.00  0.00     0.261 C 
BRANCH   3   4
ATOM      4  O   UNL A   1      38.127  23.137  25.244  1.00  0.00    -0.460 OA
BRANCH   4   5
ATOM      5  C   UNL A   1      39.233  23.087  26.045  1.00  0.00     0.338 C 
ATOM      6  O   UNL A   1      39.867  22.058  26.195  1.00  0.00    -0.246 OA
BRANCH   5   7
ATOM      7  C   UNL A   1      39.604  24.308  26.801  1.00  0.00     0.060 A 
ATOM      8  C   UNL A   1      39.214  24.430  28.119  1.00  0.00     0.016 A 
ATOM      9  C   UNL A   1      40.376  25.329  26.244  1.00  0.00     0.016 A 
ATOM     10  C   UNL A   1      39.321  25.594  28.818  1.00  0.00     0.010 A 
ATOM     11  C   UNL A   1      40.713  26.437  27.036  1.00  0.00     0.010 A 
ATOM     12  C   UNL A   1      40.175  26.560  28.327  1.00  0.00    -0.014 A 
BRANCH  12  13
ATOM     13  C   UNL A   1      40.481  27.645  29.265  1.00  0.00     0.031 A 
ATOM     14  C   UNL A   1      41.793  27.624  29.963  1.00  0.00     0.074 A 
ATOM     15  C   UNL A   1      39.637  28.696  29.315  1.00  0.00     0.049 A 
ATOM     16  N   UNL A   1      42.241  28.433  30.876  1.00  0.00    -0.248 NA
ATOM     17  C   UNL A   1      42.728  26.551  29.582  1.00  0.00     0.031 C 
ATOM     18  C   UNL A   1      38.405  28.836  28.518  1.00  0.00     0.029 A 
ATOM     19  N   UNL A   1      39.703  29.872  30.008  1.00  0.00    -0.354 N 
ATOM     20  C   UNL A   1      43.478  27.925  31.241  1.00  0.00     0.074 A 
ATOM     21  C   UNL A   1      43.728  26.759  30.424  1.00  0.00     0.031 C 
ATOM     22  C   UNL A   1      37.878  30.050  28.718  1.00  0.00     0.029 A 
ATOM     23  C   UNL A   1      38.637  30.709  29.764  1.00  0.00     0.049 A 
ATOM     24  H   UNL A   1      40.439  30.098  30.620  1.00  0.00     0.167 HD
ATOM     25  C   UNL A   1      44.294  28.386  32.214  1.00  0.00     0.031 A 
ATOM     26  C   UNL A   1      38.273  31.846  30.383  1.00  0.00     0.031 A 
ATOM     27  C   UNL A   1      43.959  29.541  33.002  1.00  0.00     0.049 A 
ATOM     28  C   UNL A   1      39.147  32.297  31.513  1.00  0.00     0.074 A 
ATOM     29  C   UNL A   1      44.637  30.086  34.073  1.00  0.00     0.029 A 
ATOM     30  N   UNL A   1      42.829  30.328  32.792  1.00  0.00    -0.354 N 
ATOM     31  N   UNL A   1      40.262  31.749  31.943  1.00  0.00    -0.248 NA
ATOM     32  C   UNL A   1      38.721  33.482  32.257  1.00  0.00     0.031 C 
ATOM     33  C   UNL A   1      43.885  31.169  34.545  1.00  0.00     0.029 A 
ATOM     34  C   UNL A   1      42.778  31.346  33.722  1.00  0.00     0.049 A 
ATOM     35  H   UNL A   1      42.163  30.180  32.082  1.00  0.00     0.167 HD
ATOM     36  C   UNL A   1      40.683  32.529  33.007  1.00  0.00     0.074 A 
ATOM     37  C   UNL A   1      39.703  33.595  33.144  1.00  0.00     0.031 C 
ATOM     38  C   UNL A   1      41.774  32.384  33.797  1.00  0.00     0.031 A 
BRANCH  25  39
ATOM     39  C   UNL A   1      45.500  27.550  32.542  1.00  0.00    -0.014 A 
ATOM     40  C   UNL A   1      45.454  26.501  33.481  1.00  0.00     0.010 A 
ATOM     41  C   UNL A   1      46.734  27.883  31.956  1.00  0.00     0.010 A 
ATOM     42  C   UNL A   1      46.630  25.856  33.878  1.00  0.00     0.020 A 
ATOM     43  C   UNL A   1      47.907  27.220  32.326  1.00  0.00     0.020 A 
ATOM     44  C   UNL A   1      47.851  26.230  33.307  1.00  0.00     0.054 A 
BRANCH  44  45
ATOM     45  S   UNL A   1      49.369  25.414  33.873  1.00  0.00     0.124 S 
ATOM     46  O   UNL A   1      50.375  26.016  33.001  1.00  0.00    -0.237 OA
ATOM     47  O   UNL A   1      49.440  25.806  35.278  1.00  0.00    -0.237 OA
ATOM     48  O   UNL A   1      49.110  23.996  33.637  1.00  0.00    -0.744 OA
ENDBRANCH  44  45
ENDBRANCH  25  39
BRANCH  26  49
ATOM     49  C   UNL A   1      36.997  32.516  30.006  1.00  0.00    -0.014 A 
ATOM     50  C   UNL A   1      35.808  32.279  30.715  1.00  0.00     0.010 A 
ATOM     51  C   UNL A   1      36.992  33.489  28.983  1.00  0.00     0.010 A 
ATOM     52  C   UNL A   1      34.649  33.014  30.423  1.00  0.00     0.020 A 
ATOM     53  C   UNL A   1      35.850  34.246  28.711  1.00  0.00     0.020 A 
ATOM     54  C   UNL A   1      34.682  34.002  29.432  1.00  0.00     0.054 A 
BRANCH  54  55
ATOM     55  S   UNL A   1      33.200  35.008  29.140  1.00  0.00     0.124 S 
ATOM     56  O   UNL A   1      32.491  34.221  28.135  1.00  0.00    -0.237 OA
ATOM     57  O   UNL A   1      32.582  35.051  30.462  1.00  0.00    -0.237 OA
ATOM     58  O   UNL A   1      33.737  36.284  28.670  1.00  0.00    -0.744 OA
ENDBRANCH  54  55
ENDBRANCH  26  49
BRANCH  38  59
ATOM     59  C   UNL A   1      41.993  33.438  34.839  1.00  0.00    -0.014 A 
ATOM     60  C   UNL A   1      41.660  33.214  36.184  1.00  0.00     0.010 A 
ATOM     61  C   UNL A   1      42.655  34.622  34.469  1.00  0.00     0.010 A 
ATOM     62  C   UNL A   1      41.989  34.165  37.149  1.00  0.00     0.020 A 
ATOM     63  C   UNL A   1      43.010  35.561  35.435  1.00  0.00     0.020 A 
ATOM     64  C   UNL A   1      42.673  35.325  36.769  1.00  0.00     0.054 A 
BRANCH  64  65
ATOM     65  S   UNL A   1      43.185  36.493  38.056  1.00  0.00     0.124 S 
ATOM     66  O   UNL A   1      42.036  37.391  38.124  1.00  0.00    -0.237 OA
ATOM     67  O   UNL A   1      43.375  35.625  39.215  1.00  0.00    -0.237 OA
ATOM     68  O   UNL A   1      44.409  37.084  37.519  1.00  0.00    -0.744 OA
ENDBRANCH  64  65
ENDBRANCH  38  59
ENDBRANCH  12  13
ENDBRANCH   5   7
ENDBRANCH   4   5
ENDBRANCH   3   4
ENDBRANCH   2   3
ENDBRANCH   1   2
BRANCH   1  69
ATOM     69  C   UNL A   1      34.691  24.456  25.816  1.00  0.00     0.202 C 
BRANCH  69  70
ATOM     70  C   UNL A   1      33.796  25.668  25.591  1.00  0.00     0.261 C 
BRANCH  70  71
ATOM     71  O   UNL A   1      32.502  25.535  26.200  1.00  0.00    -0.463 OA
BRANCH  71  72
ATOM     72  C   UNL A   1      31.886  26.709  26.432  1.00  0.00     0.309 C 
ATOM     73  O   UNL A   1      31.308  26.987  27.482  1.00  0.00    -0.252 OA
BRANCH  72  74
ATOM     74  C   UNL A   1      31.869  27.687  25.272  1.00  0.00     0.111 C 
ATOM     75  C   UNL A   1      31.518  29.004  25.984  1.00  0.00     0.016 C 
ATOM     76  C   UNL A   1      31.163  27.394  23.908  1.00  0.00     0.093 C 
ATOM     77  C   UNL A   1      31.379  30.178  25.051  1.00  0.00     0.001 C 
ATOM     78  C   UNL A   1      30.821  28.690  23.129  1.00  0.00     0.014 C 
ATOM     79  C   UNL A   1      30.337  29.844  24.004  1.00  0.00     0.001 C 
BRANCH  76  80
ATOM     80  C   UNL A   1      29.899  26.537  23.902  1.00  0.00     0.230 C 
ATOM     81  O   UNL A   1      28.794  27.090  23.981  1.00  0.00    -0.274 OA
ATOM     82  N   UNL A   1      29.907  25.196  23.628  1.00  0.00    -0.302 N 
ATOM     83  H   UNL A   1      29.024  24.839  23.379  1.00  0.00     0.172 HD
BRANCH  82  84
ATOM     84  C   UNL A   1      30.903  24.248  23.630  1.00  0.00     0.189 A 
ATOM     85  N   UNL A   1      31.087  23.159  24.342  1.00  0.00    -0.220 NA
ATOM     86  S   UNL A   1      32.032  24.485  22.354  1.00  0.00    -0.105 S 
ATOM     87  C   UNL A   1      32.044  22.347  23.714  1.00  0.00     0.084 A 
ATOM     88  C   UNL A   1      32.655  22.905  22.610  1.00  0.00     0.097 A 
BRANCH  87  89
ATOM     89  C   UNL A   1      32.235  20.954  24.107  1.00  0.00     0.003 A 
ATOM     90  C   UNL A   1      32.456  20.637  25.454  1.00  0.00     0.012 A 
ATOM     91  C   UNL A   1      32.325  19.937  23.157  1.00  0.00     0.032 A 
ATOM     92  C   UNL A   1      32.923  19.376  25.834  1.00  0.00     0.023 A 
ATOM     93  C   UNL A   1      32.730  18.648  23.542  1.00  0.00     0.060 A 
ATOM     94  C   UNL A   1      33.078  18.381  24.873  1.00  0.00     0.059 A 
ATOM     95  Cl  UNL A   1      32.814  17.434  22.315  1.00  0.00    -0.083 Cl
ATOM     96  Cl  UNL A   1      33.739  16.870  25.384  1.00  0.00    -0.083 Cl
ENDBRANCH  87  89
ENDBRANCH  82  84
ENDBRANCH  76  80
ENDBRANCH  72  74
ENDBRANCH  71  72
ENDBRANCH  70  71
ENDBRANCH  69  70
ENDBRANCH   1  69
TORSDOF 20
ENDMDL
