MODEL 1
REMARK VINA RESULT:     -10.8      0.000      0.000
REMARK SMILES CC[C@H]1CCCCN1S(=O)(=O)c1ccc2oc(C(=O)OCCOCCOC(=O)c3ccc(-c4c5nc(c(-c6ccc(S(=O)(=O)[O-])cc6)c6ccc([nH]6)c(-c6ccc(S(=O)(=O)[O-])cc6)c6nc(c(-c7ccc(S(=O)(=O)[O-])cc7)c7ccc4[nH]7)C=C6)C=C5)cc3)c(C)c2c1
REMARK SMILES IDX 23 1 22 2 21 3 20 4 18 5 19 6 17 7 12 8 13 9 92 10 14 11
REMARK SMILES IDX 91 12 15 13 89 14 16 15 90 16 9 17 10 18 11 19 8 20 3 21
REMARK SMILES IDX 4 22 5 23 7 24 6 25 2 26 1 27 24 28 25 29 26 30 27 31 28 32
REMARK SMILES IDX 29 33 30 34 88 35 31 36 87 37 32 38 33 39 34 40 81 41 35 42
REMARK SMILES IDX 86 43 80 44 82 45 36 46 85 47 79 48 78 49 37 51 67 52 48 53
REMARK SMILES IDX 66 54 49 55 52 56 65 57 83 58 50 59 51 60 64 62 84 63 53 64
REMARK SMILES IDX 38 65 39 66 47 67 40 68 46 69 41 70 42 71 43 72 44 73 45 74
REMARK SMILES IDX 68 75 69 76 77 77 70 78 76 79 71 80 72 81 73 82 74 83 75 84
REMARK SMILES IDX 54 85 55 86 63 87 56 88 62 89 57 90 58 91 59 92 60 93 61 94
REMARK H PARENT 82 50 52 61
REMARK Flexibility Score: inf
ROOT
ATOM      1  O   UNL A   1      37.182  21.772  24.858  1.00  0.00    -0.374 OA
ENDROOT
BRANCH   1   2
ATOM      2  C   UNL A   1      36.113  22.470  25.502  1.00  0.00     0.202 C 
BRANCH   2   3
ATOM      3  C   UNL A   1      34.913  21.591  25.861  1.00  0.00     0.261 C 
BRANCH   3   4
ATOM      4  O   UNL A   1      34.656  20.664  24.794  1.00  0.00    -0.457 OA
BRANCH   4   5
ATOM      5  C   UNL A   1      33.349  20.482  24.462  1.00  0.00     0.374 C 
ATOM      6  O   UNL A   1      32.772  19.401  24.472  1.00  0.00    -0.242 OA
BRANCH   5   7
ATOM      7  C   UNL A   1      32.721  21.759  24.188  1.00  0.00     0.215 A 
ATOM      8  C   UNL A   1      31.100  25.923  23.209  1.00  0.00     0.083 A 
ATOM      9  C   UNL A   1      32.047  25.786  22.186  1.00  0.00     0.025 A 
ATOM     10  C   UNL A   1      30.779  24.841  24.046  1.00  0.00     0.034 A 
ATOM     11  C   UNL A   1      32.761  24.590  22.035  1.00  0.00     0.049 A 
ATOM     12  C   UNL A   1      31.576  23.689  23.991  1.00  0.00     0.025 A 
ATOM     13  C   UNL A   1      32.526  23.602  22.989  1.00  0.00     0.135 A 
ATOM     14  C   UNL A   1      31.691  22.498  24.774  1.00  0.00     0.010 A 
ATOM     15  O   UNL A   1      33.192  22.429  23.085  1.00  0.00    -0.449 OA
ATOM     16  C   UNL A   1      30.898  22.210  26.001  1.00  0.00     0.049 C 
BRANCH   8  17
ATOM     17  S   UNL A   1      30.145  27.416  23.369  1.00  0.00     0.243 S 
ATOM     18  O   UNL A   1      28.828  26.965  23.756  1.00  0.00    -0.207 OA
ATOM     19  O   UNL A   1      30.331  28.179  22.150  1.00  0.00    -0.207 OA
BRANCH  17  20
ATOM     20  N   UNL A   1      30.839  28.338  24.638  1.00  0.00    -0.195 NA
ATOM     21  C   UNL A   1      31.628  27.561  25.661  1.00  0.00     0.073 C 
ATOM     22  C   UNL A   1      31.546  28.351  26.989  1.00  0.00     0.020 C 
ATOM     23  C   UNL A   1      32.093  29.773  26.849  1.00  0.00     0.003 C 
ATOM     24  C   UNL A   1      31.407  29.682  24.392  1.00  0.00     0.103 C 
ATOM     25  C   UNL A   1      31.425  30.497  25.689  1.00  0.00     0.017 C 
BRANCH  21  26
ATOM     26  C   UNL A   1      33.116  27.300  25.326  1.00  0.00     0.017 C 
ATOM     27  C   UNL A   1      33.696  25.945  25.675  1.00  0.00     0.005 C 
ENDBRANCH  21  26
ENDBRANCH  17  20
ENDBRANCH   8  17
ENDBRANCH   5   7
ENDBRANCH   4   5
ENDBRANCH   3   4
ENDBRANCH   2   3
ENDBRANCH   1   2
BRANCH   1  28
ATOM     28  C   UNL A   1      38.405  21.662  25.590  1.00  0.00     0.202 C 
BRANCH  28  29
ATOM     29  C   UNL A   1      38.968  20.243  25.718  1.00  0.00     0.261 C 
BRANCH  29  30
ATOM     30  O   UNL A   1      39.961  20.170  26.758  1.00  0.00    -0.460 OA
BRANCH  30  31
ATOM     31  C   UNL A   1      41.211  19.883  26.320  1.00  0.00     0.338 C 
ATOM     32  O   UNL A   1      41.571  18.869  25.747  1.00  0.00    -0.246 OA
BRANCH  31  33
ATOM     33  C   UNL A   1      42.090  21.060  26.474  1.00  0.00     0.060 A 
ATOM     34  C   UNL A   1      42.526  21.360  27.771  1.00  0.00     0.016 A 
ATOM     35  C   UNL A   1      42.419  21.897  25.404  1.00  0.00     0.016 A 
ATOM     36  C   UNL A   1      43.216  22.543  28.018  1.00  0.00     0.010 A 
ATOM     37  C   UNL A   1      43.113  23.088  25.656  1.00  0.00     0.010 A 
ATOM     38  C   UNL A   1      43.465  23.439  26.972  1.00  0.00    -0.014 A 
BRANCH  38  39
ATOM     39  C   UNL A   1      43.903  24.818  27.301  1.00  0.00     0.031 A 
ATOM     40  C   UNL A   1      45.344  25.193  27.067  1.00  0.00     0.074 A 
ATOM     41  C   UNL A   1      43.025  25.743  27.729  1.00  0.00     0.049 A 
ATOM     42  N   UNL A   1      45.940  26.344  27.240  1.00  0.00    -0.248 NA
ATOM     43  C   UNL A   1      46.230  24.127  26.571  1.00  0.00     0.031 C 
ATOM     44  C   UNL A   1      41.597  25.518  27.952  1.00  0.00     0.029 A 
ATOM     45  N   UNL A   1      43.211  27.067  28.042  1.00  0.00    -0.354 N 
ATOM     46  C   UNL A   1      47.266  26.142  26.879  1.00  0.00     0.074 A 
ATOM     47  C   UNL A   1      47.398  24.749  26.512  1.00  0.00     0.031 C 
ATOM     48  C   UNL A   1      41.034  26.668  28.365  1.00  0.00     0.029 A 
ATOM     49  C   UNL A   1      42.064  27.701  28.456  1.00  0.00     0.049 A 
ATOM     50  H   UNL A   1      44.083  27.518  27.977  1.00  0.00     0.167 HD
ATOM     51  C   UNL A   1      48.284  27.034  26.844  1.00  0.00     0.031 A 
ATOM     52  C   UNL A   1      41.868  28.970  28.866  1.00  0.00     0.031 A 
ATOM     53  C   UNL A   1      48.158  28.417  27.214  1.00  0.00     0.049 A 
ATOM     54  C   UNL A   1      43.026  29.935  28.865  1.00  0.00     0.074 A 
ATOM     55  C   UNL A   1      49.130  29.403  27.211  1.00  0.00     0.029 A 
ATOM     56  N   UNL A   1      46.986  29.013  27.655  1.00  0.00    -0.354 N 
ATOM     57  N   UNL A   1      44.272  29.728  28.507  1.00  0.00    -0.248 NA
ATOM     58  C   UNL A   1      42.746  31.308  29.306  1.00  0.00     0.031 C 
ATOM     59  C   UNL A   1      48.555  30.584  27.693  1.00  0.00     0.029 A 
ATOM     60  C   UNL A   1      47.212  30.348  27.941  1.00  0.00     0.049 A 
ATOM     61  H   UNL A   1      46.120  28.553  27.750  1.00  0.00     0.167 HD
ATOM     62  C   UNL A   1      44.914  30.956  28.645  1.00  0.00     0.074 A 
ATOM     63  C   UNL A   1      43.918  31.898  29.112  1.00  0.00     0.031 C 
ATOM     64  C   UNL A   1      46.209  31.275  28.400  1.00  0.00     0.031 A 
BRANCH  51  65
ATOM     65  C   UNL A   1      49.636  26.526  26.418  1.00  0.00    -0.014 A 
ATOM     66  C   UNL A   1      50.449  25.787  27.299  1.00  0.00     0.010 A 
ATOM     67  C   UNL A   1      50.092  26.771  25.111  1.00  0.00     0.010 A 
ATOM     68  C   UNL A   1      51.708  25.339  26.891  1.00  0.00     0.020 A 
ATOM     69  C   UNL A   1      51.338  26.300  24.690  1.00  0.00     0.020 A 
ATOM     70  C   UNL A   1      52.147  25.603  25.591  1.00  0.00     0.054 A 
BRANCH  70  71
ATOM     71  S   UNL A   1      53.778  24.997  25.081  1.00  0.00     0.124 S 
ATOM     72  O   UNL A   1      53.902  25.559  23.738  1.00  0.00    -0.237 OA
ATOM     73  O   UNL A   1      54.665  25.575  26.087  1.00  0.00    -0.237 OA
ATOM     74  O   UNL A   1      53.642  23.543  25.137  1.00  0.00    -0.744 OA
ENDBRANCH  70  71
ENDBRANCH  51  65
BRANCH  52  75
ATOM     75  C   UNL A   1      40.517  29.406  29.312  1.00  0.00    -0.014 A 
ATOM     76  C   UNL A   1      40.145  29.332  30.666  1.00  0.00     0.010 A 
ATOM     77  C   UNL A   1      39.592  29.900  28.374  1.00  0.00     0.010 A 
ATOM     78  C   UNL A   1      38.867  29.726  31.070  1.00  0.00     0.020 A 
ATOM     79  C   UNL A   1      38.322  30.320  28.779  1.00  0.00     0.020 A 
ATOM     80  C   UNL A   1      37.963  30.219  30.124  1.00  0.00     0.054 A 
BRANCH  80  81
ATOM     81  S   UNL A   1      36.327  30.776  30.677  1.00  0.00     0.124 S 
ATOM     82  O   UNL A   1      36.539  32.210  30.853  1.00  0.00    -0.237 OA
ATOM     83  O   UNL A   1      35.468  30.394  29.560  1.00  0.00    -0.237 OA
ATOM     84  O   UNL A   1      36.109  30.020  31.907  1.00  0.00    -0.744 OA
ENDBRANCH  80  81
ENDBRANCH  52  75
BRANCH  64  85
ATOM     85  C   UNL A   1      46.615  32.714  28.578  1.00  0.00    -0.014 A 
ATOM     86  C   UNL A   1      47.129  33.187  29.798  1.00  0.00     0.010 A 
ATOM     87  C   UNL A   1      46.519  33.597  27.487  1.00  0.00     0.010 A 
ATOM     88  C   UNL A   1      47.500  34.528  29.936  1.00  0.00     0.020 A 
ATOM     89  C   UNL A   1      46.914  34.931  27.612  1.00  0.00     0.020 A 
ATOM     90  C   UNL A   1      47.385  35.393  28.842  1.00  0.00     0.054 A 
BRANCH  90  91
ATOM     91  S   UNL A   1      47.894  37.123  29.035  1.00  0.00     0.124 S 
ATOM     92  O   UNL A   1      49.336  37.041  28.823  1.00  0.00    -0.237 OA
ATOM     93  O   UNL A   1      47.141  37.800  27.982  1.00  0.00    -0.237 OA
ATOM     94  O   UNL A   1      47.482  37.454  30.397  1.00  0.00    -0.744 OA
ENDBRANCH  90  91
ENDBRANCH  64  85
ENDBRANCH  38  39
ENDBRANCH  31  33
ENDBRANCH  30  31
ENDBRANCH  29  30
ENDBRANCH  28  29
ENDBRANCH   1  28
TORSDOF 20
ENDMDL
MODEL 2
REMARK VINA RESULT:     -10.7      2.550      7.881
REMARK SMILES CC[C@H]1CCCCN1S(=O)(=O)c1ccc2oc(C(=O)OCCOCCOC(=O)c3ccc(-c4c5nc(c(-c6ccc(S(=O)(=O)[O-])cc6)c6ccc([nH]6)c(-c6ccc(S(=O)(=O)[O-])cc6)c6nc(c(-c7ccc(S(=O)(=O)[O-])cc7)c7ccc4[nH]7)C=C6)C=C5)cc3)c(C)c2c1
REMARK SMILES IDX 23 1 22 2 21 3 20 4 18 5 19 6 17 7 12 8 13 9 92 10 14 11
REMARK SMILES IDX 91 12 15 13 89 14 16 15 90 16 9 17 10 18 11 19 8 20 3 21
REMARK SMILES IDX 4 22 5 23 7 24 6 25 2 26 1 27 24 28 25 29 26 30 27 31 28 32
REMARK SMILES IDX 29 33 30 34 88 35 31 36 87 37 32 38 33 39 34 40 81 41 35 42
REMARK SMILES IDX 86 43 80 44 82 45 36 46 85 47 79 48 78 49 37 51 67 52 48 53
REMARK SMILES IDX 66 54 49 55 52 56 65 57 83 58 50 59 51 60 64 62 84 63 53 64
REMARK SMILES IDX 38 65 39 66 47 67 40 68 46 69 41 70 42 71 43 72 44 73 45 74
REMARK SMILES IDX 68 75 69 76 77 77 70 78 76 79 71 80 72 81 73 82 74 83 75 84
REMARK SMILES IDX 54 85 55 86 63 87 56 88 62 89 57 90 58 91 59 92 60 93 61 94
REMARK H PARENT 82 50 52 61
REMARK Flexibility Score: inf
ROOT
ATOM      1  O   UNL A   1      32.787  29.637  26.851  1.00  0.00    -0.374 OA
ENDROOT
BRANCH   1   2
ATOM      2  C   UNL A   1      32.818  28.742  25.737  1.00  0.00     0.202 C 
BRANCH   2   3
ATOM      3  C   UNL A   1      32.265  29.334  24.438  1.00  0.00     0.261 C 
BRANCH   3   4
ATOM      4  O   UNL A   1      30.883  28.968  24.291  1.00  0.00    -0.457 OA
BRANCH   4   5
ATOM      5  C   UNL A   1      30.566  28.277  23.162  1.00  0.00     0.374 C 
ATOM      6  O   UNL A   1      30.165  28.788  22.123  1.00  0.00    -0.242 OA
BRANCH   5   7
ATOM      7  C   UNL A   1      30.858  26.869  23.339  1.00  0.00     0.215 A 
ATOM      8  C   UNL A   1      31.842  22.504  24.289  1.00  0.00     0.083 A 
ATOM      9  C   UNL A   1      31.158  22.856  25.459  1.00  0.00     0.025 A 
ATOM     10  C   UNL A   1      31.887  23.374  23.187  1.00  0.00     0.034 A 
ATOM     11  C   UNL A   1      30.580  24.126  25.588  1.00  0.00     0.049 A 
ATOM     12  C   UNL A   1      31.431  24.690  23.352  1.00  0.00     0.025 A 
ATOM     13  C   UNL A   1      30.790  25.014  24.534  1.00  0.00     0.135 A 
ATOM     14  C   UNL A   1      31.478  25.884  22.567  1.00  0.00     0.010 A 
ATOM     15  O   UNL A   1      30.416  26.313  24.516  1.00  0.00    -0.449 OA
ATOM     16  C   UNL A   1      32.144  26.001  21.240  1.00  0.00     0.049 C 
BRANCH   8  17
ATOM     17  S   UNL A   1      32.525  20.872  24.093  1.00  0.00     0.243 S 
ATOM     18  O   UNL A   1      32.231  20.516  22.724  1.00  0.00    -0.207 OA
ATOM     19  O   UNL A   1      32.024  20.061  25.186  1.00  0.00    -0.207 OA
BRANCH  17  20
ATOM     20  N   UNL A   1      34.223  20.994  24.309  1.00  0.00    -0.195 NA
ATOM     21  C   UNL A   1      34.790  22.391  24.290  1.00  0.00     0.073 C 
ATOM     22  C   UNL A   1      36.249  22.279  23.791  1.00  0.00     0.020 C 
ATOM     23  C   UNL A   1      37.094  21.363  24.678  1.00  0.00     0.003 C 
ATOM     24  C   UNL A   1      34.946  20.105  25.246  1.00  0.00     0.103 C 
ATOM     25  C   UNL A   1      36.423  20.008  24.851  1.00  0.00     0.017 C 
BRANCH  21  26
ATOM     26  C   UNL A   1      34.780  23.153  25.637  1.00  0.00     0.017 C 
ATOM     27  C   UNL A   1      35.367  24.549  25.668  1.00  0.00     0.005 C 
ENDBRANCH  21  26
ENDBRANCH  17  20
ENDBRANCH   8  17
ENDBRANCH   5   7
ENDBRANCH   4   5
ENDBRANCH   3   4
ENDBRANCH   2   3
ENDBRANCH   1   2
BRANCH   1  28
ATOM     28  C   UNL A   1      34.023  30.261  27.204  1.00  0.00     0.202 C 
BRANCH  28  29
ATOM     29  C   UNL A   1      35.168  29.304  27.550  1.00  0.00     0.261 C 
BRANCH  29  30
ATOM     30  O   UNL A   1      36.363  30.027  27.898  1.00  0.00    -0.460 OA
BRANCH  30  31
ATOM     31  C   UNL A   1      37.046  29.509  28.947  1.00  0.00     0.338 C 
ATOM     32  O   UNL A   1      36.612  29.287  30.065  1.00  0.00    -0.246 OA
BRANCH  31  33
ATOM     33  C   UNL A   1      38.389  29.070  28.518  1.00  0.00     0.060 A 
ATOM     34  C   UNL A   1      39.212  28.500  29.498  1.00  0.00     0.016 A 
ATOM     35  C   UNL A   1      38.870  29.278  27.223  1.00  0.00     0.016 A 
ATOM     36  C   UNL A   1      40.544  28.217  29.212  1.00  0.00     0.010 A 
ATOM     37  C   UNL A   1      40.212  28.992  26.937  1.00  0.00     0.010 A 
ATOM     38  C   UNL A   1      41.065  28.513  27.947  1.00  0.00    -0.014 A 
BRANCH  38  39
ATOM     39  C   UNL A   1      42.538  28.509  27.762  1.00  0.00     0.031 A 
ATOM     40  C   UNL A   1      43.191  27.277  27.194  1.00  0.00     0.074 A 
ATOM     41  C   UNL A   1      43.273  29.606  28.023  1.00  0.00     0.049 A 
ATOM     42  N   UNL A   1      44.449  27.063  26.906  1.00  0.00    -0.248 NA
ATOM     43  C   UNL A   1      42.308  26.133  26.911  1.00  0.00     0.031 C 
ATOM     44  C   UNL A   1      42.753  30.874  28.533  1.00  0.00     0.029 A 
ATOM     45  N   UNL A   1      44.621  29.826  27.881  1.00  0.00    -0.354 N 
ATOM     46  C   UNL A   1      44.510  25.764  26.414  1.00  0.00     0.074 A 
ATOM     47  C   UNL A   1      43.168  25.225  26.475  1.00  0.00     0.031 C 
ATOM     48  C   UNL A   1      43.773  31.742  28.660  1.00  0.00     0.029 A 
ATOM     49  C   UNL A   1      45.016  31.086  28.261  1.00  0.00     0.049 A 
ATOM     50  H   UNL A   1      45.244  29.145  27.540  1.00  0.00     0.167 HD
ATOM     51  C   UNL A   1      45.580  25.082  25.943  1.00  0.00     0.031 A 
ATOM     52  C   UNL A   1      46.243  31.644  28.289  1.00  0.00     0.031 A 
ATOM     53  C   UNL A   1      46.914  25.613  25.887  1.00  0.00     0.049 A 
ATOM     54  C   UNL A   1      47.428  30.849  27.805  1.00  0.00     0.074 A 
ATOM     55  C   UNL A   1      48.067  25.002  25.424  1.00  0.00     0.029 A 
ATOM     56  N   UNL A   1      47.277  26.883  26.309  1.00  0.00    -0.354 N 
ATOM     57  N   UNL A   1      47.464  29.626  27.330  1.00  0.00    -0.248 NA
ATOM     58  C   UNL A   1      48.736  31.518  27.843  1.00  0.00     0.031 C 
ATOM     59  C   UNL A   1      49.134  25.887  25.608  1.00  0.00     0.029 A 
ATOM     60  C   UNL A   1      48.637  27.070  26.131  1.00  0.00     0.049 A 
ATOM     61  H   UNL A   1      46.658  27.554  26.680  1.00  0.00     0.167 HD
ATOM     62  C   UNL A   1      48.791  29.394  26.979  1.00  0.00     0.074 A 
ATOM     63  C   UNL A   1      49.523  30.605  27.290  1.00  0.00     0.031 C 
ATOM     64  C   UNL A   1      49.351  28.283  26.441  1.00  0.00     0.031 A 
BRANCH  51  65
ATOM     65  C   UNL A   1      45.350  23.667  25.480  1.00  0.00    -0.014 A 
ATOM     66  C   UNL A   1      45.007  23.384  24.145  1.00  0.00     0.010 A 
ATOM     67  C   UNL A   1      45.502  22.604  26.388  1.00  0.00     0.010 A 
ATOM     68  C   UNL A   1      44.781  22.067  23.738  1.00  0.00     0.020 A 
ATOM     69  C   UNL A   1      45.303  21.284  25.978  1.00  0.00     0.020 A 
ATOM     70  C   UNL A   1      44.926  21.025  24.658  1.00  0.00     0.054 A 
BRANCH  70  71
ATOM     71  S   UNL A   1      44.641  19.323  24.101  1.00  0.00     0.124 S 
ATOM     72  O   UNL A   1      43.379  18.997  24.762  1.00  0.00    -0.237 OA
ATOM     73  O   UNL A   1      44.570  19.467  22.650  1.00  0.00    -0.237 OA
ATOM     74  O   UNL A   1      45.808  18.596  24.595  1.00  0.00    -0.744 OA
ENDBRANCH  70  71
ENDBRANCH  51  65
BRANCH  52  75
ATOM     75  C   UNL A   1      46.415  33.033  28.793  1.00  0.00    -0.014 A 
ATOM     76  C   UNL A   1      46.684  33.280  30.151  1.00  0.00     0.010 A 
ATOM     77  C   UNL A   1      46.308  34.122  27.908  1.00  0.00     0.010 A 
ATOM     78  C   UNL A   1      46.825  34.590  30.617  1.00  0.00     0.020 A 
ATOM     79  C   UNL A   1      46.474  35.431  28.366  1.00  0.00     0.020 A 
ATOM     80  C   UNL A   1      46.720  35.658  29.721  1.00  0.00     0.054 A 
BRANCH  80  81
ATOM     81  S   UNL A   1      46.959  37.349  30.336  1.00  0.00     0.124 S 
ATOM     82  O   UNL A   1      48.413  37.433  30.432  1.00  0.00    -0.237 OA
ATOM     83  O   UNL A   1      46.345  38.157  29.286  1.00  0.00    -0.237 OA
ATOM     84  O   UNL A   1      46.245  37.351  31.610  1.00  0.00    -0.744 OA
ENDBRANCH  80  81
ENDBRANCH  52  75
BRANCH  64  85
ATOM     85  C   UNL A   1      50.817  28.338  26.102  1.00  0.00    -0.014 A 
ATOM     86  C   UNL A   1      51.262  28.722  24.825  1.00  0.00     0.010 A 
ATOM     87  C   UNL A   1      51.766  28.042  27.097  1.00  0.00     0.010 A 
ATOM     88  C   UNL A   1      52.630  28.766  24.538  1.00  0.00     0.020 A 
ATOM     89  C   UNL A   1      53.133  28.112  26.823  1.00  0.00     0.020 A 
ATOM     90  C   UNL A   1      53.557  28.456  25.538  1.00  0.00     0.054 A 
BRANCH  90  91
ATOM     91  S   UNL A   1      55.326  28.543  25.151  1.00  0.00     0.124 S 
ATOM     92  O   UNL A   1      55.311  28.901  23.735  1.00  0.00    -0.237 OA
ATOM     93  O   UNL A   1      55.804  29.585  26.057  1.00  0.00    -0.237 OA
ATOM     94  O   UNL A   1      55.812  27.198  25.448  1.00  0.00    -0.744 OA
ENDBRANCH  90  91
ENDBRANCH  64  85
ENDBRANCH  38  39
ENDBRANCH  31  33
ENDBRANCH  30  31
ENDBRANCH  29  30
ENDBRANCH  28  29
ENDBRANCH   1  28
TORSDOF 20
ENDMDL
MODEL 3
REMARK VINA RESULT:     -10.7      2.087      8.975
REMARK SMILES CC[C@H]1CCCCN1S(=O)(=O)c1ccc2oc(C(=O)OCCOCCOC(=O)c3ccc(-c4c5nc(c(-c6ccc(S(=O)(=O)[O-])cc6)c6ccc([nH]6)c(-c6ccc(S(=O)(=O)[O-])cc6)c6nc(c(-c7ccc(S(=O)(=O)[O-])cc7)c7ccc4[nH]7)C=C6)C=C5)cc3)c(C)c2c1
REMARK SMILES IDX 23 1 22 2 21 3 20 4 18 5 19 6 17 7 12 8 13 9 92 10 14 11
REMARK SMILES IDX 91 12 15 13 89 14 16 15 90 16 9 17 10 18 11 19 8 20 3 21
REMARK SMILES IDX 4 22 5 23 7 24 6 25 2 26 1 27 24 28 25 29 26 30 27 31 28 32
REMARK SMILES IDX 29 33 30 34 88 35 31 36 87 37 32 38 33 39 34 40 81 41 35 42
REMARK SMILES IDX 86 43 80 44 82 45 36 46 85 47 79 48 78 49 37 51 67 52 48 53
REMARK SMILES IDX 66 54 49 55 52 56 65 57 83 58 50 59 51 60 64 62 84 63 53 64
REMARK SMILES IDX 38 65 39 66 47 67 40 68 46 69 41 70 42 71 43 72 44 73 45 74
REMARK SMILES IDX 68 75 69 76 77 77 70 78 76 79 71 80 72 81 73 82 74 83 75 84
REMARK SMILES IDX 54 85 55 86 63 87 56 88 62 89 57 90 58 91 59 92 60 93 61 94
REMARK H PARENT 82 50 52 61
REMARK Flexibility Score: inf
ROOT
ATOM      1  O   UNL A   1      34.631  30.114  27.566  1.00  0.00    -0.374 OA
ENDROOT
BRANCH   1   2
ATOM      2  C   UNL A   1      33.609  29.212  27.135  1.00  0.00     0.202 C 
BRANCH   2   3
ATOM      3  C   UNL A   1      32.452  29.881  26.388  1.00  0.00     0.261 C 
BRANCH   3   4
ATOM      4  O   UNL A   1      32.529  29.558  24.989  1.00  0.00    -0.457 OA
BRANCH   4   5
ATOM      5  C   UNL A   1      31.411  29.011  24.441  1.00  0.00     0.374 C 
ATOM      6  O   UNL A   1      30.469  29.654  23.992  1.00  0.00    -0.242 OA
BRANCH   5   7
ATOM      7  C   UNL A   1      31.537  27.568  24.382  1.00  0.00     0.215 A 
ATOM      8  C   UNL A   1      31.915  23.015  24.598  1.00  0.00     0.083 A 
ATOM      9  C   UNL A   1      31.011  23.232  25.646  1.00  0.00     0.025 A 
ATOM     10  C   UNL A   1      32.282  24.059  23.733  1.00  0.00     0.034 A 
ATOM     11  C   UNL A   1      30.526  24.519  25.910  1.00  0.00     0.049 A 
ATOM     12  C   UNL A   1      31.910  25.369  24.066  1.00  0.00     0.025 A 
ATOM     13  C   UNL A   1      31.045  25.550  25.129  1.00  0.00     0.135 A 
ATOM     14  C   UNL A   1      32.235  26.671  23.571  1.00  0.00     0.010 A 
ATOM     15  O   UNL A   1      30.792  26.868  25.300  1.00  0.00    -0.449 OA
ATOM     16  C   UNL A   1      33.195  26.943  22.466  1.00  0.00     0.049 C 
BRANCH   8  17
ATOM     17  S   UNL A   1      32.488  21.374  24.218  1.00  0.00     0.243 S 
ATOM     18  O   UNL A   1      32.423  21.290  22.777  1.00  0.00    -0.207 OA
ATOM     19  O   UNL A   1      31.730  20.451  25.041  1.00  0.00    -0.207 OA
BRANCH  17  20
ATOM     20  N   UNL A   1      34.121  21.265  24.733  1.00  0.00    -0.195 NA
ATOM     21  C   UNL A   1      34.519  22.189  25.856  1.00  0.00     0.073 C 
ATOM     22  C   UNL A   1      36.032  22.469  25.694  1.00  0.00     0.020 C 
ATOM     23  C   UNL A   1      36.863  21.185  25.728  1.00  0.00     0.003 C 
ATOM     24  C   UNL A   1      34.822  19.964  24.798  1.00  0.00     0.103 C 
ATOM     25  C   UNL A   1      36.338  20.175  24.718  1.00  0.00     0.017 C 
BRANCH  21  26
ATOM     26  C   UNL A   1      34.256  21.676  27.292  1.00  0.00     0.017 C 
ATOM     27  C   UNL A   1      33.515  22.588  28.248  1.00  0.00     0.005 C 
ENDBRANCH  21  26
ENDBRANCH  17  20
ENDBRANCH   8  17
ENDBRANCH   5   7
ENDBRANCH   4   5
ENDBRANCH   3   4
ENDBRANCH   2   3
ENDBRANCH   1   2
BRANCH   1  28
ATOM     28  C   UNL A   1      34.223  31.457  27.838  1.00  0.00     0.202 C 
BRANCH  28  29
ATOM     29  C   UNL A   1      35.006  32.170  28.945  1.00  0.00     0.261 C 
BRANCH  29  30
ATOM     30  O   UNL A   1      35.789  31.237  29.712  1.00  0.00    -0.460 OA
BRANCH  30  31
ATOM     31  C   UNL A   1      36.988  31.715  30.122  1.00  0.00     0.338 C 
ATOM     32  O   UNL A   1      37.184  32.670  30.855  1.00  0.00    -0.246 OA
BRANCH  31  33
ATOM     33  C   UNL A   1      38.074  30.809  29.697  1.00  0.00     0.060 A 
ATOM     34  C   UNL A   1      39.085  30.549  30.631  1.00  0.00     0.016 A 
ATOM     35  C   UNL A   1      38.155  30.288  28.403  1.00  0.00     0.016 A 
ATOM     36  C   UNL A   1      40.222  29.844  30.251  1.00  0.00     0.010 A 
ATOM     37  C   UNL A   1      39.301  29.578  28.021  1.00  0.00     0.010 A 
ATOM     38  C   UNL A   1      40.361  29.402  28.929  1.00  0.00    -0.014 A 
BRANCH  38  39
ATOM     39  C   UNL A   1      41.694  28.946  28.464  1.00  0.00     0.031 A 
ATOM     40  C   UNL A   1      42.820  29.946  28.408  1.00  0.00     0.074 A 
ATOM     41  C   UNL A   1      41.923  27.653  28.169  1.00  0.00     0.049 A 
ATOM     42  N   UNL A   1      44.073  29.767  28.077  1.00  0.00    -0.248 NA
ATOM     43  C   UNL A   1      42.489  31.333  28.775  1.00  0.00     0.031 C 
ATOM     44  C   UNL A   1      40.930  26.582  28.228  1.00  0.00     0.029 A 
ATOM     45  N   UNL A   1      43.076  27.024  27.770  1.00  0.00    -0.354 N 
ATOM     46  C   UNL A   1      44.677  31.014  28.192  1.00  0.00     0.074 A 
ATOM     47  C   UNL A   1      43.646  31.949  28.587  1.00  0.00     0.031 C 
ATOM     48  C   UNL A   1      41.518  25.424  27.878  1.00  0.00     0.029 A 
ATOM     49  C   UNL A   1      42.920  25.676  27.552  1.00  0.00     0.049 A 
ATOM     50  H   UNL A   1      43.932  27.494  27.651  1.00  0.00     0.167 HD
ATOM     51  C   UNL A   1      45.973  31.352  27.996  1.00  0.00     0.031 A 
ATOM     52  C   UNL A   1      43.807  24.752  27.131  1.00  0.00     0.031 A 
ATOM     53  C   UNL A   1      46.997  30.426  27.597  1.00  0.00     0.049 A 
ATOM     54  C   UNL A   1      45.234  25.161  26.873  1.00  0.00     0.074 A 
ATOM     55  C   UNL A   1      48.341  30.671  27.376  1.00  0.00     0.029 A 
ATOM     56  N   UNL A   1      46.792  29.076  27.359  1.00  0.00    -0.354 N 
ATOM     57  N   UNL A   1      45.790  26.343  27.000  1.00  0.00    -0.248 NA
ATOM     58  C   UNL A   1      46.157  24.105  26.433  1.00  0.00     0.031 C 
ATOM     59  C   UNL A   1      48.939  29.477  26.959  1.00  0.00     0.029 A 
ATOM     60  C   UNL A   1      47.980  28.476  26.978  1.00  0.00     0.049 A 
ATOM     61  H   UNL A   1      45.927  28.612  27.447  1.00  0.00     0.167 HD
ATOM     62  C   UNL A   1      47.136  26.163  26.691  1.00  0.00     0.074 A 
ATOM     63  C   UNL A   1      47.309  24.760  26.379  1.00  0.00     0.031 C 
ATOM     64  C   UNL A   1      48.138  27.077  26.675  1.00  0.00     0.031 A 
BRANCH  51  65
ATOM     65  C   UNL A   1      46.346  32.799  28.183  1.00  0.00    -0.014 A 
ATOM     66  C   UNL A   1      46.170  33.737  27.149  1.00  0.00     0.010 A 
ATOM     67  C   UNL A   1      46.860  33.232  29.418  1.00  0.00     0.010 A 
ATOM     68  C   UNL A   1      46.538  35.072  27.335  1.00  0.00     0.020 A 
ATOM     69  C   UNL A   1      47.204  34.571  29.617  1.00  0.00     0.020 A 
ATOM     70  C   UNL A   1      47.058  35.480  28.566  1.00  0.00     0.054 A 
BRANCH  70  71
ATOM     71  S   UNL A   1      47.515  37.221  28.788  1.00  0.00     0.124 S 
ATOM     72  O   UNL A   1      46.675  37.881  27.791  1.00  0.00    -0.237 OA
ATOM     73  O   UNL A   1      47.153  37.473  30.180  1.00  0.00    -0.237 OA
ATOM     74  O   UNL A   1      48.949  37.242  28.507  1.00  0.00    -0.744 OA
ENDBRANCH  70  71
ENDBRANCH  51  65
BRANCH  52  75
ATOM     75  C   UNL A   1      43.371  23.344  26.928  1.00  0.00    -0.014 A 
ATOM     76  C   UNL A   1      43.188  22.480  28.022  1.00  0.00     0.010 A 
ATOM     77  C   UNL A   1      43.138  22.860  25.627  1.00  0.00     0.010 A 
ATOM     78  C   UNL A   1      42.797  21.154  27.818  1.00  0.00     0.020 A 
ATOM     79  C   UNL A   1      42.722  21.542  25.422  1.00  0.00     0.020 A 
ATOM     80  C   UNL A   1      42.565  20.693  26.518  1.00  0.00     0.054 A 
BRANCH  80  81
ATOM     81  S   UNL A   1      42.006  18.984  26.278  1.00  0.00     0.124 S 
ATOM     82  O   UNL A   1      40.640  19.176  25.803  1.00  0.00    -0.237 OA
ATOM     83  O   UNL A   1      42.955  18.476  25.291  1.00  0.00    -0.237 OA
ATOM     84  O   UNL A   1      42.130  18.395  27.609  1.00  0.00    -0.744 OA
ENDBRANCH  80  81
ENDBRANCH  52  75
BRANCH  64  85
ATOM     85  C   UNL A   1      49.525  26.581  26.362  1.00  0.00    -0.014 A 
ATOM     86  C   UNL A   1      50.058  26.661  25.064  1.00  0.00     0.010 A 
ATOM     87  C   UNL A   1      50.322  26.065  27.400  1.00  0.00     0.010 A 
ATOM     88  C   UNL A   1      51.350  26.193  24.801  1.00  0.00     0.020 A 
ATOM     89  C   UNL A   1      51.623  25.622  27.148  1.00  0.00     0.020 A 
ATOM     90  C   UNL A   1      52.122  25.673  25.845  1.00  0.00     0.054 A 
BRANCH  90  91
ATOM     91  S   UNL A   1      53.803  25.094  25.487  1.00  0.00     0.124 S 
ATOM     92  O   UNL A   1      54.097  25.773  24.228  1.00  0.00    -0.237 OA
ATOM     93  O   UNL A   1      54.559  25.564  26.645  1.00  0.00    -0.237 OA
ATOM     94  O   UNL A   1      53.658  23.644  25.393  1.00  0.00    -0.744 OA
ENDBRANCH  90  91
ENDBRANCH  64  85
ENDBRANCH  38  39
ENDBRANCH  31  33
ENDBRANCH  30  31
ENDBRANCH  29  30
ENDBRANCH  28  29
ENDBRANCH   1  28
TORSDOF 20
ENDMDL
