MODEL 1
REMARK VINA RESULT:     -11.1      0.000      0.000
REMARK SMILES CC(C)(C)OC(=O)N1C[C@@H](C(=O)OCCOCCOC(=O)c2ccc(-c3c4nc(c(-c5ccc(S(=O)(=O)[O-])cc5)c5ccc([nH]5)c(-c5ccc(S(=O)(=O)[O-])cc5)c5nc(c(-c6ccc(S(=O)(=O)[O-])cc6)c6ccc3[nH]6)C=C5)C=C4)cc2)[C@@]2(C1)C(=O)Nc1ccccc12
REMARK SMILES IDX 16 1 15 2 14 3 13 4 11 5 12 6 10 7 8 8 9 9 83 10 82 11 84 12
REMARK SMILES IDX 92 13 85 14 86 15 87 16 91 17 88 19 90 20 89 21 6 22 7 23
REMARK SMILES IDX 5 24 2 25 1 26 3 27 4 28 17 29 18 30 19 31 20 32 21 33 22 34
REMARK SMILES IDX 23 35 81 36 24 37 80 38 25 39 26 40 27 41 74 42 28 43 79 44
REMARK SMILES IDX 73 45 75 46 29 47 78 48 72 49 71 50 30 52 60 53 41 54 59 55
REMARK SMILES IDX 42 56 45 57 58 58 76 59 43 60 44 61 57 63 77 64 46 65 31 66
REMARK SMILES IDX 32 67 40 68 33 69 39 70 34 71 35 72 36 73 37 74 38 75 61 76
REMARK SMILES IDX 62 77 70 78 63 79 69 80 64 81 65 82 66 83 67 84 68 85 47 86
REMARK SMILES IDX 48 87 56 88 49 89 55 90 50 91 51 92 52 93 53 94 54 95
REMARK H PARENT 86 18 75 51 45 62
REMARK Flexibility Score: inf
ROOT
ATOM      1  O   UNL A   1      34.176  31.500  27.889  1.00  0.00    -0.374 OA
ENDROOT
BRANCH   1   2
ATOM      2  C   UNL A   1      32.902  31.465  27.257  1.00  0.00     0.202 C 
BRANCH   2   3
ATOM      3  C   UNL A   1      32.228  30.096  27.051  1.00  0.00     0.261 C 
BRANCH   3   4
ATOM      4  O   UNL A   1      31.745  29.809  25.722  1.00  0.00    -0.463 OA
BRANCH   4   5
ATOM      5  C   UNL A   1      32.462  28.846  25.094  1.00  0.00     0.312 C 
ATOM      6  O   UNL A   1      33.649  28.958  24.793  1.00  0.00    -0.252 OA
BRANCH   5   7
ATOM      7  C   UNL A   1      31.705  27.607  24.697  1.00  0.00     0.140 C 
ATOM      8  N   UNL A   1      32.878  26.163  23.212  1.00  0.00    -0.306 N 
ATOM      9  C   UNL A   1      32.754  26.491  24.618  1.00  0.00     0.140 C 
ATOM     10  C   UNL A   1      31.938  26.912  22.388  1.00  0.00     0.146 C 
ATOM     11  C   UNL A   1      30.902  27.420  23.389  1.00  0.00     0.109 C 
ATOM     12  C   UNL A   1      29.885  26.278  23.753  1.00  0.00     0.237 C 
ATOM     13  C   UNL A   1      29.928  28.476  22.918  1.00  0.00    -0.006 A 
ATOM     14  O   UNL A   1      30.120  25.114  24.032  1.00  0.00    -0.274 OA
ATOM     15  N   UNL A   1      28.619  26.832  23.793  1.00  0.00    -0.325 N 
ATOM     16  C   UNL A   1      28.622  28.102  23.261  1.00  0.00     0.045 A 
ATOM     17  C   UNL A   1      30.099  29.593  22.125  1.00  0.00     0.007 A 
ATOM     18  H   UNL A   1      27.823  26.379  24.152  1.00  0.00     0.169 HD
ATOM     19  C   UNL A   1      27.494  28.838  22.960  1.00  0.00     0.026 A 
ATOM     20  C   UNL A   1      28.960  30.333  21.758  1.00  0.00     0.000 A 
ATOM     21  C   UNL A   1      27.675  29.981  22.195  1.00  0.00     0.002 A 
BRANCH   8  22
ATOM     22  C   UNL A   1      33.602  25.066  22.821  1.00  0.00     0.410 C 
ATOM     23  O   UNL A   1      33.273  24.376  21.858  1.00  0.00    -0.224 OA
BRANCH  22  24
ATOM     24  O   UNL A   1      34.684  24.847  23.605  1.00  0.00    -0.444 OA
BRANCH  24  25
ATOM     25  C   UNL A   1      34.877  23.568  24.271  1.00  0.00     0.106 C 
ATOM     26  C   UNL A   1      35.954  22.842  23.451  1.00  0.00     0.056 C 
ATOM     27  C   UNL A   1      33.563  22.784  24.192  1.00  0.00     0.056 C 
ATOM     28  C   UNL A   1      35.378  23.665  25.721  1.00  0.00     0.056 C 
ENDBRANCH  24  25
ENDBRANCH  22  24
ENDBRANCH   8  22
ENDBRANCH   5   7
ENDBRANCH   4   5
ENDBRANCH   3   4
ENDBRANCH   2   3
ENDBRANCH   1   2
BRANCH   1  29
ATOM     29  C   UNL A   1      34.679  32.772  28.303  1.00  0.00     0.202 C 
BRANCH  29  30
ATOM     30  C   UNL A   1      35.141  32.873  29.758  1.00  0.00     0.261 C 
BRANCH  30  31
ATOM     31  O   UNL A   1      36.532  32.519  29.866  1.00  0.00    -0.460 OA
BRANCH  31  32
ATOM     32  C   UNL A   1      36.793  31.500  30.713  1.00  0.00     0.338 C 
ATOM     33  O   UNL A   1      36.130  31.152  31.675  1.00  0.00    -0.246 OA
BRANCH  32  34
ATOM     34  C   UNL A   1      37.966  30.760  30.218  1.00  0.00     0.060 A 
ATOM     35  C   UNL A   1      38.930  30.341  31.140  1.00  0.00     0.016 A 
ATOM     36  C   UNL A   1      38.164  30.564  28.850  1.00  0.00     0.016 A 
ATOM     37  C   UNL A   1      40.116  29.764  30.686  1.00  0.00     0.010 A 
ATOM     38  C   UNL A   1      39.341  29.965  28.399  1.00  0.00     0.010 A 
ATOM     39  C   UNL A   1      40.343  29.601  29.311  1.00  0.00    -0.014 A 
BRANCH  39  40
ATOM     40  C   UNL A   1      41.672  29.168  28.815  1.00  0.00     0.031 A 
ATOM     41  C   UNL A   1      42.791  30.172  28.720  1.00  0.00     0.074 A 
ATOM     42  C   UNL A   1      41.883  27.888  28.456  1.00  0.00     0.049 A 
ATOM     43  N   UNL A   1      44.026  29.997  28.325  1.00  0.00    -0.248 NA
ATOM     44  C   UNL A   1      42.477  31.555  29.119  1.00  0.00     0.031 C 
ATOM     45  C   UNL A   1      40.886  26.821  28.505  1.00  0.00     0.029 A 
ATOM     46  N   UNL A   1      43.012  27.275  27.974  1.00  0.00    -0.354 N 
ATOM     47  C   UNL A   1      44.636  31.241  28.428  1.00  0.00     0.074 A 
ATOM     48  C   UNL A   1      43.626  32.171  28.884  1.00  0.00     0.031 C 
ATOM     49  C   UNL A   1      41.450  25.678  28.076  1.00  0.00     0.029 A 
ATOM     50  C   UNL A   1      42.837  25.941  27.696  1.00  0.00     0.049 A 
ATOM     51  H   UNL A   1      43.867  27.746  27.841  1.00  0.00     0.167 HD
ATOM     52  C   UNL A   1      45.925  31.578  28.181  1.00  0.00     0.031 A 
ATOM     53  C   UNL A   1      43.693  25.036  27.183  1.00  0.00     0.031 A 
ATOM     54  C   UNL A   1      46.929  30.658  27.717  1.00  0.00     0.049 A 
ATOM     55  C   UNL A   1      45.101  25.449  26.849  1.00  0.00     0.074 A 
ATOM     56  C   UNL A   1      48.271  30.898  27.480  1.00  0.00     0.029 A 
ATOM     57  N   UNL A   1      46.699  29.327  27.407  1.00  0.00    -0.354 N 
ATOM     58  N   UNL A   1      45.677  26.616  27.012  1.00  0.00    -0.248 NA
ATOM     59  C   UNL A   1      45.974  24.422  26.264  1.00  0.00     0.031 C 
ATOM     60  C   UNL A   1      48.840  29.727  26.970  1.00  0.00     0.029 A 
ATOM     61  C   UNL A   1      47.866  28.742  26.943  1.00  0.00     0.049 A 
ATOM     62  H   UNL A   1      45.835  28.865  27.503  1.00  0.00     0.167 HD
ATOM     63  C   UNL A   1      46.985  26.458  26.565  1.00  0.00     0.074 A 
ATOM     64  C   UNL A   1      47.120  25.080  26.142  1.00  0.00     0.031 C 
ATOM     65  C   UNL A   1      47.985  27.373  26.511  1.00  0.00     0.031 A 
BRANCH  52  66
ATOM     66  C   UNL A   1      46.318  33.016  28.389  1.00  0.00    -0.014 A 
ATOM     67  C   UNL A   1      46.724  33.481  29.653  1.00  0.00     0.010 A 
ATOM     68  C   UNL A   1      46.322  33.904  27.299  1.00  0.00     0.010 A 
ATOM     69  C   UNL A   1      47.089  34.818  29.830  1.00  0.00     0.020 A 
ATOM     70  C   UNL A   1      46.709  35.236  27.467  1.00  0.00     0.020 A 
ATOM     71  C   UNL A   1      47.075  35.689  28.737  1.00  0.00     0.054 A 
BRANCH  71  72
ATOM     72  S   UNL A   1      47.568  37.416  28.992  1.00  0.00     0.124 S 
ATOM     73  O   UNL A   1      46.996  37.699  30.306  1.00  0.00    -0.237 OA
ATOM     74  O   UNL A   1      49.026  37.344  28.945  1.00  0.00    -0.237 OA
ATOM     75  O   UNL A   1      46.946  38.122  27.875  1.00  0.00    -0.744 OA
ENDBRANCH  71  72
ENDBRANCH  52  66
BRANCH  53  76
ATOM     76  C   UNL A   1      43.234  23.642  26.940  1.00  0.00    -0.014 A 
ATOM     77  C   UNL A   1      42.890  23.217  25.645  1.00  0.00     0.010 A 
ATOM     78  C   UNL A   1      43.145  22.730  28.007  1.00  0.00     0.010 A 
ATOM     79  C   UNL A   1      42.457  21.907  25.423  1.00  0.00     0.020 A 
ATOM     80  C   UNL A   1      42.736  21.413  27.786  1.00  0.00     0.020 A 
ATOM     81  C   UNL A   1      42.383  21.012  26.495  1.00  0.00     0.054 A 
BRANCH  81  82
ATOM     82  S   UNL A   1      41.871  19.302  26.176  1.00  0.00     0.124 S 
ATOM     83  O   UNL A   1      42.265  18.633  27.412  1.00  0.00    -0.237 OA
ATOM     84  O   UNL A   1      40.433  19.438  25.960  1.00  0.00    -0.237 OA
ATOM     85  O   UNL A   1      42.640  18.932  24.989  1.00  0.00    -0.744 OA
ENDBRANCH  81  82
ENDBRANCH  53  76
BRANCH  65  86
ATOM     86  C   UNL A   1      49.318  26.919  25.978  1.00  0.00    -0.014 A 
ATOM     87  C   UNL A   1      49.707  27.209  24.659  1.00  0.00     0.010 A 
ATOM     88  C   UNL A   1      50.218  26.248  26.827  1.00  0.00     0.010 A 
ATOM     89  C   UNL A   1      50.965  26.820  24.192  1.00  0.00     0.020 A 
ATOM     90  C   UNL A   1      51.486  25.879  26.370  1.00  0.00     0.020 A 
ATOM     91  C   UNL A   1      51.847  26.158  25.050  1.00  0.00     0.054 A 
BRANCH  91  92
ATOM     92  S   UNL A   1      53.496  25.712  24.435  1.00  0.00     0.124 S 
ATOM     93  O   UNL A   1      53.606  24.317  24.849  1.00  0.00    -0.237 OA
ATOM     94  O   UNL A   1      53.373  25.933  22.997  1.00  0.00    -0.237 OA
ATOM     95  O   UNL A   1      54.386  26.641  25.128  1.00  0.00    -0.744 OA
ENDBRANCH  91  92
ENDBRANCH  65  86
ENDBRANCH  39  40
ENDBRANCH  32  34
ENDBRANCH  31  32
ENDBRANCH  30  31
ENDBRANCH  29  30
ENDBRANCH   1  29
TORSDOF 20
ENDMDL
MODEL 2
REMARK VINA RESULT:     -11.1      2.250      8.870
REMARK SMILES CC(C)(C)OC(=O)N1C[C@@H](C(=O)OCCOCCOC(=O)c2ccc(-c3c4nc(c(-c5ccc(S(=O)(=O)[O-])cc5)c5ccc([nH]5)c(-c5ccc(S(=O)(=O)[O-])cc5)c5nc(c(-c6ccc(S(=O)(=O)[O-])cc6)c6ccc3[nH]6)C=C5)C=C4)cc2)[C@@]2(C1)C(=O)Nc1ccccc12
REMARK SMILES IDX 16 1 15 2 14 3 13 4 11 5 12 6 10 7 8 8 9 9 83 10 82 11 84 12
REMARK SMILES IDX 92 13 85 14 86 15 87 16 91 17 88 19 90 20 89 21 6 22 7 23
REMARK SMILES IDX 5 24 2 25 1 26 3 27 4 28 17 29 18 30 19 31 20 32 21 33 22 34
REMARK SMILES IDX 23 35 81 36 24 37 80 38 25 39 26 40 27 41 74 42 28 43 79 44
REMARK SMILES IDX 73 45 75 46 29 47 78 48 72 49 71 50 30 52 60 53 41 54 59 55
REMARK SMILES IDX 42 56 45 57 58 58 76 59 43 60 44 61 57 63 77 64 46 65 31 66
REMARK SMILES IDX 32 67 40 68 33 69 39 70 34 71 35 72 36 73 37 74 38 75 61 76
REMARK SMILES IDX 62 77 70 78 63 79 69 80 64 81 65 82 66 83 67 84 68 85 47 86
REMARK SMILES IDX 48 87 56 88 49 89 55 90 50 91 51 92 52 93 53 94 54 95
REMARK H PARENT 86 18 75 51 45 62
REMARK Flexibility Score: inf
ROOT
ATOM      1  O   UNL A   1      38.923  22.370  26.453  1.00  0.00    -0.374 OA
ENDROOT
BRANCH   1   2
ATOM      2  C   UNL A   1      38.133  23.551  26.370  1.00  0.00     0.202 C 
BRANCH   2   3
ATOM      3  C   UNL A   1      36.630  23.403  26.076  1.00  0.00     0.261 C 
BRANCH   3   4
ATOM      4  O   UNL A   1      36.111  24.170  24.970  1.00  0.00    -0.463 OA
BRANCH   4   5
ATOM      5  C   UNL A   1      35.548  23.399  24.008  1.00  0.00     0.312 C 
ATOM      6  O   UNL A   1      36.179  22.618  23.297  1.00  0.00    -0.252 OA
BRANCH   5   7
ATOM      7  C   UNL A   1      34.074  23.591  23.779  1.00  0.00     0.140 C 
ATOM      8  N   UNL A   1      32.906  24.568  25.609  1.00  0.00    -0.306 N 
ATOM      9  C   UNL A   1      33.719  24.918  24.460  1.00  0.00     0.140 C 
ATOM     10  C   UNL A   1      32.635  23.139  25.675  1.00  0.00     0.146 C 
ATOM     11  C   UNL A   1      32.954  22.642  24.267  1.00  0.00     0.109 C 
ATOM     12  C   UNL A   1      31.764  22.960  23.291  1.00  0.00     0.237 C 
ATOM     13  C   UNL A   1      33.054  21.148  24.054  1.00  0.00    -0.006 A 
ATOM     14  O   UNL A   1      31.134  23.998  23.177  1.00  0.00    -0.274 OA
ATOM     15  N   UNL A   1      31.574  21.859  22.477  1.00  0.00    -0.325 N 
ATOM     16  C   UNL A   1      32.287  20.776  22.942  1.00  0.00     0.045 A 
ATOM     17  C   UNL A   1      33.618  20.148  24.821  1.00  0.00     0.007 A 
ATOM     18  H   UNL A   1      31.005  21.849  21.675  1.00  0.00     0.169 HD
ATOM     19  C   UNL A   1      32.148  19.481  22.487  1.00  0.00     0.026 A 
ATOM     20  C   UNL A   1      33.447  18.813  24.409  1.00  0.00     0.000 A 
ATOM     21  C   UNL A   1      32.748  18.482  23.239  1.00  0.00     0.002 A 
BRANCH   8  22
ATOM     22  C   UNL A   1      32.266  25.549  26.324  1.00  0.00     0.410 C 
ATOM     23  O   UNL A   1      31.144  25.385  26.796  1.00  0.00    -0.224 OA
BRANCH  22  24
ATOM     24  O   UNL A   1      33.004  26.679  26.437  1.00  0.00    -0.444 OA
BRANCH  24  25
ATOM     25  C   UNL A   1      32.460  27.968  26.036  1.00  0.00     0.106 C 
ATOM     26  C   UNL A   1      31.398  27.648  24.974  1.00  0.00     0.056 C 
ATOM     27  C   UNL A   1      33.587  28.785  25.398  1.00  0.00     0.056 C 
ATOM     28  C   UNL A   1      31.774  28.756  27.162  1.00  0.00     0.056 C 
ENDBRANCH  24  25
ENDBRANCH  22  24
ENDBRANCH   8  22
ENDBRANCH   5   7
ENDBRANCH   4   5
ENDBRANCH   3   4
ENDBRANCH   2   3
ENDBRANCH   1   2
BRANCH   1  29
ATOM     29  C   UNL A   1      38.806  21.415  25.397  1.00  0.00     0.202 C 
BRANCH  29  30
ATOM     30  C   UNL A   1      39.101  19.960  25.768  1.00  0.00     0.261 C 
BRANCH  30  31
ATOM     31  O   UNL A   1      40.118  19.901  26.784  1.00  0.00    -0.460 OA
BRANCH  31  32
ATOM     32  C   UNL A   1      41.363  19.645  26.326  1.00  0.00     0.338 C 
ATOM     33  O   UNL A   1      41.745  18.641  25.749  1.00  0.00    -0.246 OA
BRANCH  32  34
ATOM     34  C   UNL A   1      42.194  20.847  26.513  1.00  0.00     0.060 A 
ATOM     35  C   UNL A   1      42.353  21.354  27.807  1.00  0.00     0.016 A 
ATOM     36  C   UNL A   1      42.733  21.523  25.417  1.00  0.00     0.016 A 
ATOM     37  C   UNL A   1      43.015  22.567  27.997  1.00  0.00     0.010 A 
ATOM     38  C   UNL A   1      43.416  22.725  25.613  1.00  0.00     0.010 A 
ATOM     39  C   UNL A   1      43.523  23.276  26.898  1.00  0.00    -0.014 A 
BRANCH  39  40
ATOM     40  C   UNL A   1      44.056  24.649  27.071  1.00  0.00     0.031 A 
ATOM     41  C   UNL A   1      43.117  25.768  27.438  1.00  0.00     0.074 A 
ATOM     42  C   UNL A   1      45.369  24.898  26.907  1.00  0.00     0.049 A 
ATOM     43  N   UNL A   1      43.380  27.033  27.646  1.00  0.00    -0.248 NA
ATOM     44  C   UNL A   1      41.694  25.417  27.586  1.00  0.00     0.031 C 
ATOM     45  C   UNL A   1      46.381  23.903  26.557  1.00  0.00     0.029 A 
ATOM     46  N   UNL A   1      46.070  26.072  27.013  1.00  0.00    -0.354 N 
ATOM     47  C   UNL A   1      42.162  27.627  27.951  1.00  0.00     0.074 A 
ATOM     48  C   UNL A   1      41.152  26.596  27.860  1.00  0.00     0.031 C 
ATOM     49  C   UNL A   1      47.578  24.509  26.482  1.00  0.00     0.029 A 
ATOM     50  C   UNL A   1      47.412  25.936  26.751  1.00  0.00     0.049 A 
ATOM     51  H   UNL A   1      45.652  26.931  27.254  1.00  0.00     0.167 HD
ATOM     52  C   UNL A   1      41.907  28.914  28.291  1.00  0.00     0.031 A 
ATOM     53  C   UNL A   1      48.394  26.858  26.720  1.00  0.00     0.031 A 
ATOM     54  C   UNL A   1      42.907  29.945  28.371  1.00  0.00     0.049 A 
ATOM     55  C   UNL A   1      48.075  28.295  27.032  1.00  0.00     0.074 A 
ATOM     56  C   UNL A   1      42.749  31.268  28.748  1.00  0.00     0.029 A 
ATOM     57  N   UNL A   1      44.245  29.775  28.057  1.00  0.00    -0.354 N 
ATOM     58  N   UNL A   1      46.928  28.828  27.379  1.00  0.00    -0.248 NA
ATOM     59  C   UNL A   1      49.186  29.256  26.951  1.00  0.00     0.031 C 
ATOM     60  C   UNL A   1      43.983  31.912  28.605  1.00  0.00     0.029 A 
ATOM     61  C   UNL A   1      44.919  30.978  28.193  1.00  0.00     0.049 A 
ATOM     62  H   UNL A   1      44.657  28.925  27.778  1.00  0.00     0.167 HD
ATOM     63  C   UNL A   1      47.182  30.182  27.573  1.00  0.00     0.074 A 
ATOM     64  C   UNL A   1      48.594  30.384  27.323  1.00  0.00     0.031 C 
ATOM     65  C   UNL A   1      46.323  31.169  27.927  1.00  0.00     0.031 A 
BRANCH  52  66
ATOM     66  C   UNL A   1      40.477  29.284  28.583  1.00  0.00    -0.014 A 
ATOM     67  C   UNL A   1      39.529  29.385  27.549  1.00  0.00     0.010 A 
ATOM     68  C   UNL A   1      40.067  29.493  29.911  1.00  0.00     0.010 A 
ATOM     69  C   UNL A   1      38.204  29.726  27.835  1.00  0.00     0.020 A 
ATOM     70  C   UNL A   1      38.738  29.811  30.204  1.00  0.00     0.020 A 
ATOM     71  C   UNL A   1      37.819  29.942  29.162  1.00  0.00     0.054 A 
BRANCH  71  72
ATOM     72  S   UNL A   1      36.090  30.370  29.507  1.00  0.00     0.124 S 
ATOM     73  O   UNL A   1      35.900  29.799  30.838  1.00  0.00    -0.237 OA
ATOM     74  O   UNL A   1      36.102  31.829  29.445  1.00  0.00    -0.237 OA
ATOM     75  O   UNL A   1      35.350  29.710  28.434  1.00  0.00    -0.744 OA
ENDBRANCH  71  72
ENDBRANCH  52  66
BRANCH  53  76
ATOM     76  C   UNL A   1      49.780  26.449  26.366  1.00  0.00    -0.014 A 
ATOM     77  C   UNL A   1      50.654  25.954  27.348  1.00  0.00     0.010 A 
ATOM     78  C   UNL A   1      50.228  26.547  25.036  1.00  0.00     0.010 A 
ATOM     79  C   UNL A   1      51.956  25.575  27.009  1.00  0.00     0.020 A 
ATOM     80  C   UNL A   1      51.520  26.146  24.688  1.00  0.00     0.020 A 
ATOM     81  C   UNL A   1      52.380  25.672  25.681  1.00  0.00     0.054 A 
BRANCH  81  82
ATOM     82  S   UNL A   1      54.055  25.122  25.253  1.00  0.00     0.124 S 
ATOM     83  O   UNL A   1      54.801  25.458  26.462  1.00  0.00    -0.237 OA
ATOM     84  O   UNL A   1      53.864  23.696  25.001  1.00  0.00    -0.237 OA
ATOM     85  O   UNL A   1      54.383  25.918  24.071  1.00  0.00    -0.744 OA
ENDBRANCH  81  82
ENDBRANCH  53  76
BRANCH  65  86
ATOM     86  C   UNL A   1      46.879  32.561  28.071  1.00  0.00    -0.014 A 
ATOM     87  C   UNL A   1      46.885  33.453  26.985  1.00  0.00     0.010 A 
ATOM     88  C   UNL A   1      47.345  33.002  29.324  1.00  0.00     0.010 A 
ATOM     89  C   UNL A   1      47.365  34.756  27.143  1.00  0.00     0.020 A 
ATOM     90  C   UNL A   1      47.802  34.311  29.491  1.00  0.00     0.020 A 
ATOM     91  C   UNL A   1      47.819  35.178  28.396  1.00  0.00     0.054 A 
BRANCH  91  92
ATOM     92  S   UNL A   1      48.385  36.891  28.589  1.00  0.00     0.124 S 
ATOM     93  O   UNL A   1      49.195  36.808  29.801  1.00  0.00    -0.237 OA
ATOM     94  O   UNL A   1      49.126  37.126  27.353  1.00  0.00    -0.237 OA
ATOM     95  O   UNL A   1      47.145  37.653  28.718  1.00  0.00    -0.744 OA
ENDBRANCH  91  92
ENDBRANCH  65  86
ENDBRANCH  39  40
ENDBRANCH  32  34
ENDBRANCH  31  32
ENDBRANCH  30  31
ENDBRANCH  29  30
ENDBRANCH   1  29
TORSDOF 20
ENDMDL
MODEL 3
REMARK VINA RESULT:     -11.1      1.626      2.275
REMARK SMILES CC(C)(C)OC(=O)N1C[C@@H](C(=O)OCCOCCOC(=O)c2ccc(-c3c4nc(c(-c5ccc(S(=O)(=O)[O-])cc5)c5ccc([nH]5)c(-c5ccc(S(=O)(=O)[O-])cc5)c5nc(c(-c6ccc(S(=O)(=O)[O-])cc6)c6ccc3[nH]6)C=C5)C=C4)cc2)[C@@]2(C1)C(=O)Nc1ccccc12
REMARK SMILES IDX 16 1 15 2 14 3 13 4 11 5 12 6 10 7 8 8 9 9 83 10 82 11 84 12
REMARK SMILES IDX 92 13 85 14 86 15 87 16 91 17 88 19 90 20 89 21 6 22 7 23
REMARK SMILES IDX 5 24 2 25 1 26 3 27 4 28 17 29 18 30 19 31 20 32 21 33 22 34
REMARK SMILES IDX 23 35 81 36 24 37 80 38 25 39 26 40 27 41 74 42 28 43 79 44
REMARK SMILES IDX 73 45 75 46 29 47 78 48 72 49 71 50 30 52 60 53 41 54 59 55
REMARK SMILES IDX 42 56 45 57 58 58 76 59 43 60 44 61 57 63 77 64 46 65 31 66
REMARK SMILES IDX 32 67 40 68 33 69 39 70 34 71 35 72 36 73 37 74 38 75 61 76
REMARK SMILES IDX 62 77 70 78 63 79 69 80 64 81 65 82 66 83 67 84 68 85 47 86
REMARK SMILES IDX 48 87 56 88 49 89 55 90 50 91 51 92 52 93 53 94 54 95
REMARK H PARENT 86 18 75 51 45 62
REMARK Flexibility Score: inf
ROOT
ATOM      1  O   UNL A   1      34.426  31.968  27.297  1.00  0.00    -0.374 OA
ENDROOT
BRANCH   1   2
ATOM      2  C   UNL A   1      33.332  31.085  27.519  1.00  0.00     0.202 C 
BRANCH   2   3
ATOM      3  C   UNL A   1      33.235  29.813  26.657  1.00  0.00     0.261 C 
BRANCH   3   4
ATOM      4  O   UNL A   1      31.913  29.417  26.240  1.00  0.00    -0.463 OA
BRANCH   4   5
ATOM      5  C   UNL A   1      31.467  28.306  26.874  1.00  0.00     0.312 C 
ATOM      6  O   UNL A   1      31.358  28.209  28.096  1.00  0.00    -0.252 OA
BRANCH   5   7
ATOM      7  C   UNL A   1      31.163  27.118  26.002  1.00  0.00     0.140 C 
ATOM      8  N   UNL A   1      33.042  26.241  24.832  1.00  0.00    -0.306 N 
ATOM      9  C   UNL A   1      32.382  26.195  26.122  1.00  0.00     0.140 C 
ATOM     10  C   UNL A   1      32.305  27.046  23.867  1.00  0.00     0.146 C 
ATOM     11  C   UNL A   1      30.909  27.159  24.477  1.00  0.00     0.109 C 
ATOM     12  C   UNL A   1      30.088  25.846  24.215  1.00  0.00     0.237 C 
ATOM     13  C   UNL A   1      29.958  28.169  23.875  1.00  0.00    -0.006 A 
ATOM     14  O   UNL A   1      30.448  24.687  24.343  1.00  0.00    -0.274 OA
ATOM     15  N   UNL A   1      28.799  26.210  23.874  1.00  0.00    -0.325 N 
ATOM     16  C   UNL A   1      28.721  27.562  23.625  1.00  0.00     0.045 A 
ATOM     17  C   UNL A   1      30.155  29.459  23.424  1.00  0.00     0.007 A 
ATOM     18  H   UNL A   1      28.040  25.587  23.816  1.00  0.00     0.169 HD
ATOM     19  C   UNL A   1      27.636  28.203  23.061  1.00  0.00     0.026 A 
ATOM     20  C   UNL A   1      29.082  30.118  22.796  1.00  0.00     0.000 A 
ATOM     21  C   UNL A   1      27.827  29.512  22.643  1.00  0.00     0.002 A 
BRANCH   8  22
ATOM     22  C   UNL A   1      34.065  25.372  24.549  1.00  0.00     0.410 C 
ATOM     23  O   UNL A   1      34.995  25.185  25.330  1.00  0.00    -0.224 OA
BRANCH  22  24
ATOM     24  O   UNL A   1      33.925  24.773  23.343  1.00  0.00    -0.444 OA
BRANCH  24  25
ATOM     25  C   UNL A   1      34.047  23.330  23.207  1.00  0.00     0.106 C 
ATOM     26  C   UNL A   1      33.382  22.991  21.865  1.00  0.00     0.056 C 
ATOM     27  C   UNL A   1      33.259  22.674  24.345  1.00  0.00     0.056 C 
ATOM     28  C   UNL A   1      35.491  22.807  23.160  1.00  0.00     0.056 C 
ENDBRANCH  24  25
ENDBRANCH  22  24
ENDBRANCH   8  22
ENDBRANCH   5   7
ENDBRANCH   4   5
ENDBRANCH   3   4
ENDBRANCH   2   3
ENDBRANCH   1   2
BRANCH   1  29
ATOM     29  C   UNL A   1      35.660  31.678  27.956  1.00  0.00     0.202 C 
BRANCH  29  30
ATOM     30  C   UNL A   1      35.575  30.748  29.168  1.00  0.00     0.261 C 
BRANCH  30  31
ATOM     31  O   UNL A   1      36.309  29.536  28.918  1.00  0.00    -0.460 OA
BRANCH  31  32
ATOM     32  C   UNL A   1      37.108  29.138  29.933  1.00  0.00     0.338 C 
ATOM     33  O   UNL A   1      36.794  28.984  31.100  1.00  0.00    -0.246 OA
BRANCH  32  34
ATOM     34  C   UNL A   1      38.428  28.780  29.385  1.00  0.00     0.060 A 
ATOM     35  C   UNL A   1      39.342  28.128  30.218  1.00  0.00     0.016 A 
ATOM     36  C   UNL A   1      38.796  29.165  28.095  1.00  0.00     0.016 A 
ATOM     37  C   UNL A   1      40.645  27.904  29.772  1.00  0.00     0.010 A 
ATOM     38  C   UNL A   1      40.093  28.918  27.642  1.00  0.00     0.010 A 
ATOM     39  C   UNL A   1      41.037  28.326  28.492  1.00  0.00    -0.014 A 
BRANCH  39  40
ATOM     40  C   UNL A   1      42.462  28.263  28.085  1.00  0.00     0.031 A 
ATOM     41  C   UNL A   1      43.342  29.471  28.277  1.00  0.00     0.074 A 
ATOM     42  C   UNL A   1      42.972  27.137  27.553  1.00  0.00     0.049 A 
ATOM     43  N   UNL A   1      44.611  29.620  27.999  1.00  0.00    -0.248 NA
ATOM     44  C   UNL A   1      42.707  30.669  28.853  1.00  0.00     0.031 C 
ATOM     45  C   UNL A   1      42.228  25.900  27.320  1.00  0.00     0.029 A 
ATOM     46  N   UNL A   1      44.239  26.858  27.109  1.00  0.00    -0.354 N 
ATOM     47  C   UNL A   1      44.928  30.922  28.366  1.00  0.00     0.074 A 
ATOM     48  C   UNL A   1      43.710  31.535  28.849  1.00  0.00     0.031 C 
ATOM     49  C   UNL A   1      43.056  24.989  26.780  1.00  0.00     0.029 A 
ATOM     50  C   UNL A   1      44.378  25.588  26.605  1.00  0.00     0.049 A 
ATOM     51  H   UNL A   1      44.980  27.506  27.149  1.00  0.00     0.167 HD
ATOM     52  C   UNL A   1      46.129  31.549  28.321  1.00  0.00     0.031 A 
ATOM     53  C   UNL A   1      45.446  24.979  26.053  1.00  0.00     0.031 A 
ATOM     54  C   UNL A   1      47.340  30.946  27.832  1.00  0.00     0.049 A 
ATOM     55  C   UNL A   1      46.752  25.718  25.948  1.00  0.00     0.074 A 
ATOM     56  C   UNL A   1      48.613  31.489  27.787  1.00  0.00     0.029 A 
ATOM     57  N   UNL A   1      47.428  29.674  27.291  1.00  0.00    -0.354 N 
ATOM     58  N   UNL A   1      47.049  26.928  26.358  1.00  0.00    -0.248 NA
ATOM     59  C   UNL A   1      47.869  25.008  25.308  1.00  0.00     0.031 C 
ATOM     60  C   UNL A   1      49.459  30.565  27.165  1.00  0.00     0.029 A 
ATOM     61  C   UNL A   1      48.725  29.427  26.872  1.00  0.00     0.049 A 
ATOM     62  H   UNL A   1      46.680  29.039  27.214  1.00  0.00     0.167 HD
ATOM     63  C   UNL A   1      48.390  27.118  26.040  1.00  0.00     0.074 A 
ATOM     64  C   UNL A   1      48.851  25.893  25.421  1.00  0.00     0.031 C 
ATOM     65  C   UNL A   1      49.170  28.208  26.244  1.00  0.00     0.031 A 
BRANCH  52  66
ATOM     66  C   UNL A   1      46.185  32.976  28.798  1.00  0.00    -0.014 A 
ATOM     67  C   UNL A   1      45.956  34.045  27.914  1.00  0.00     0.010 A 
ATOM     68  C   UNL A   1      46.429  33.249  30.156  1.00  0.00     0.010 A 
ATOM     69  C   UNL A   1      46.008  35.364  28.372  1.00  0.00     0.020 A 
ATOM     70  C   UNL A   1      46.459  34.566  30.623  1.00  0.00     0.020 A 
ATOM     71  C   UNL A   1      46.265  35.616  29.723  1.00  0.00     0.054 A 
BRANCH  71  72
ATOM     72  S   UNL A   1      46.313  37.337  30.294  1.00  0.00     0.124 S 
ATOM     73  O   UNL A   1      46.307  38.072  29.032  1.00  0.00    -0.237 OA
ATOM     74  O   UNL A   1      45.093  37.446  31.089  1.00  0.00    -0.237 OA
ATOM     75  O   UNL A   1      47.557  37.415  31.055  1.00  0.00    -0.744 OA
ENDBRANCH  71  72
ENDBRANCH  52  66
BRANCH  53  76
ATOM     76  C   UNL A   1      45.319  23.587  25.541  1.00  0.00    -0.014 A 
ATOM     77  C   UNL A   1      45.477  22.489  26.404  1.00  0.00     0.010 A 
ATOM     78  C   UNL A   1      45.032  23.357  24.183  1.00  0.00     0.010 A 
ATOM     79  C   UNL A   1      45.361  21.185  25.916  1.00  0.00     0.020 A 
ATOM     80  C   UNL A   1      44.889  22.055  23.697  1.00  0.00     0.020 A 
ATOM     81  C   UNL A   1      45.066  20.976  24.565  1.00  0.00     0.054 A 
BRANCH  81  82
ATOM     82  S   UNL A   1      44.864  19.276  23.965  1.00  0.00     0.124 S 
ATOM     83  O   UNL A   1      44.299  19.491  22.637  1.00  0.00    -0.237 OA
ATOM     84  O   UNL A   1      46.233  18.766  23.997  1.00  0.00    -0.237 OA
ATOM     85  O   UNL A   1      43.960  18.675  24.943  1.00  0.00    -0.744 OA
ENDBRANCH  81  82
ENDBRANCH  53  76
BRANCH  65  86
ATOM     86  C   UNL A   1      50.605  28.133  25.798  1.00  0.00    -0.014 A 
ATOM     87  C   UNL A   1      51.614  27.703  26.677  1.00  0.00     0.010 A 
ATOM     88  C   UNL A   1      50.940  28.435  24.465  1.00  0.00     0.010 A 
ATOM     89  C   UNL A   1      52.937  27.595  26.237  1.00  0.00     0.020 A 
ATOM     90  C   UNL A   1      52.257  28.305  24.015  1.00  0.00     0.020 A 
ATOM     91  C   UNL A   1      53.250  27.896  24.909  1.00  0.00     0.054 A 
BRANCH  91  92
ATOM     92  S   UNL A   1      54.964  27.695  24.348  1.00  0.00     0.124 S 
ATOM     93  O   UNL A   1      55.305  26.380  24.881  1.00  0.00    -0.237 OA
ATOM     94  O   UNL A   1      54.837  27.771  22.895  1.00  0.00    -0.237 OA
ATOM     95  O   UNL A   1      55.664  28.819  24.965  1.00  0.00    -0.744 OA
ENDBRANCH  91  92
ENDBRANCH  65  86
ENDBRANCH  39  40
ENDBRANCH  32  34
ENDBRANCH  31  32
ENDBRANCH  30  31
ENDBRANCH  29  30
ENDBRANCH   1  29
TORSDOF 20
ENDMDL
