MODEL 1
REMARK VINA RESULT:     -10.6      0.000      0.000
REMARK SMILES CS(=O)(=O)Nc1ccc(-c2cc(Cl)cc3c2O[C@@H](C(F)(F)F)C(C(=O)OCCOCCOC(=O)c2ccc(-c4c5nc(c(-c6ccc(S(=O)(=O)[O-])cc6)c6ccc([nH]6)c(-c6ccc(S(=O)(=O)[O-])cc6)c6nc(c(-c7ccc(S(=O)(=O)[O-])cc7)c7ccc4[nH]7)C=C6)C=C5)cc2)=C3)cc1
REMARK SMILES IDX 29 1 28 2 27 3 26 4 24 5 25 6 23 7 10 8 11 9 16 10 12 11
REMARK SMILES IDX 15 12 17 13 13 14 14 15 95 16 18 17 9 18 6 19 7 20 97 21
REMARK SMILES IDX 8 22 96 23 5 24 2 26 1 27 3 28 4 29 19 30 20 31 21 32 22 33
REMARK SMILES IDX 30 34 31 35 32 36 33 37 34 38 35 39 36 40 94 41 37 42 93 43
REMARK SMILES IDX 38 44 39 45 40 46 87 47 41 48 92 49 86 50 88 51 42 52 91 53
REMARK SMILES IDX 85 54 84 55 43 57 73 58 54 59 72 60 55 61 58 62 71 63 89 64
REMARK SMILES IDX 56 65 57 66 70 68 90 69 59 70 44 71 45 72 53 73 46 74 52 75
REMARK SMILES IDX 47 76 48 77 49 78 50 79 51 80 74 81 75 82 83 83 76 84 82 85
REMARK SMILES IDX 77 86 78 87 79 88 80 89 81 90 60 91 61 92 69 93 62 94 68 95
REMARK SMILES IDX 63 96 64 97 65 98 66 99 67 100
REMARK H PARENT 5 25 88 56 58 67
REMARK Flexibility Score: inf
ROOT
ATOM      1  O   UNL A   1      33.295  31.671  28.089  1.00  0.00    -0.374 OA
ENDROOT
BRANCH   1   2
ATOM      2  C   UNL A   1      33.038  32.951  27.527  1.00  0.00     0.202 C 
BRANCH   2   3
ATOM      3  C   UNL A   1      33.318  34.200  28.380  1.00  0.00     0.261 C 
BRANCH   3   4
ATOM      4  O   UNL A   1      33.763  33.890  29.711  1.00  0.00    -0.460 OA
BRANCH   4   5
ATOM      5  C   UNL A   1      33.934  34.942  30.534  1.00  0.00     0.338 C 
ATOM      6  O   UNL A   1      33.874  36.117  30.199  1.00  0.00    -0.246 OA
BRANCH   5   7
ATOM      7  C   UNL A   1      34.032  34.546  31.960  1.00  0.00     0.087 C 
ATOM      8  C   UNL A   1      37.883  34.166  33.476  1.00  0.00     0.026 A 
ATOM      9  C   UNL A   1      38.677  33.953  32.322  1.00  0.00     0.033 A 
ATOM     10  C   UNL A   1      36.492  34.199  33.237  1.00  0.00     0.135 A 
ATOM     11  C   UNL A   1      38.127  33.459  31.140  1.00  0.00     0.042 A 
ATOM     12  C   UNL A   1      35.968  33.460  32.159  1.00  0.00     0.019 A 
ATOM     13  O   UNL A   1      35.744  35.326  33.648  1.00  0.00    -0.475 OA
ATOM     14  Cl  UNL A   1      39.141  33.168  29.786  1.00  0.00    -0.084 Cl
ATOM     15  C   UNL A   1      36.787  33.113  31.090  1.00  0.00     0.032 A 
ATOM     16  C   UNL A   1      34.504  33.292  32.056  1.00  0.00     0.027 C 
ATOM     17  C   UNL A   1      34.331  35.414  33.163  1.00  0.00     0.316 C 
BRANCH   8  18
ATOM     18  C   UNL A   1      38.543  33.655  34.744  1.00  0.00    -0.014 A 
ATOM     19  C   UNL A   1      38.779  32.803  37.491  1.00  0.00     0.048 A 
ATOM     20  C   UNL A   1      38.493  31.896  36.467  1.00  0.00     0.027 A 
ATOM     21  C   UNL A   1      39.058  34.118  37.126  1.00  0.00     0.027 A 
ATOM     22  C   UNL A   1      38.410  32.304  35.122  1.00  0.00     0.011 A 
ATOM     23  C   UNL A   1      38.948  34.536  35.772  1.00  0.00     0.011 A 
BRANCH  19  24
ATOM     24  N   UNL A   1      38.523  32.351  38.823  1.00  0.00    -0.284 N 
ATOM     25  H   UNL A   1      39.255  31.862  39.263  1.00  0.00     0.180 HD
BRANCH  24  26
ATOM     26  S   UNL A   1      37.135  32.555  39.717  1.00  0.00     0.229 S 
ATOM     27  C   UNL A   1      37.088  31.113  40.766  1.00  0.00     0.183 C 
ATOM     28  O   UNL A   1      35.979  32.556  38.851  1.00  0.00    -0.207 OA
ATOM     29  O   UNL A   1      37.416  33.686  40.582  1.00  0.00    -0.207 OA
ENDBRANCH  24  26
ENDBRANCH  19  24
ENDBRANCH   8  18
BRANCH  17  30
ATOM     30  C   UNL A   1      33.683  36.817  33.140  1.00  0.00     0.430 C 
ATOM     31  F   UNL A   1      33.660  37.314  34.409  1.00  0.00    -0.167 F 
ATOM     32  F   UNL A   1      34.407  37.691  32.404  1.00  0.00    -0.167 F 
ATOM     33  F   UNL A   1      32.420  36.861  32.682  1.00  0.00    -0.167 F 
ENDBRANCH  17  30
ENDBRANCH   5   7
ENDBRANCH   4   5
ENDBRANCH   3   4
ENDBRANCH   2   3
ENDBRANCH   1   2
BRANCH   1  34
ATOM     34  C   UNL A   1      34.327  30.876  27.510  1.00  0.00     0.202 C 
BRANCH  34  35
ATOM     35  C   UNL A   1      35.711  30.861  28.166  1.00  0.00     0.261 C 
BRANCH  35  36
ATOM     36  O   UNL A   1      36.258  29.546  28.338  1.00  0.00    -0.460 OA
BRANCH  36  37
ATOM     37  C   UNL A   1      37.117  29.426  29.378  1.00  0.00     0.338 C 
ATOM     38  O   UNL A   1      36.854  29.517  30.572  1.00  0.00    -0.246 OA
BRANCH  37  39
ATOM     39  C   UNL A   1      38.435  28.999  28.892  1.00  0.00     0.060 A 
ATOM     40  C   UNL A   1      39.301  28.373  29.799  1.00  0.00     0.016 A 
ATOM     41  C   UNL A   1      38.853  29.302  27.595  1.00  0.00     0.016 A 
ATOM     42  C   UNL A   1      40.608  28.082  29.420  1.00  0.00     0.010 A 
ATOM     43  C   UNL A   1      40.167  29.012  27.220  1.00  0.00     0.010 A 
ATOM     44  C   UNL A   1      41.060  28.435  28.141  1.00  0.00    -0.014 A 
BRANCH  44  45
ATOM     45  C   UNL A   1      42.500  28.323  27.812  1.00  0.00     0.031 A 
ATOM     46  C   UNL A   1      43.407  29.488  28.095  1.00  0.00     0.074 A 
ATOM     47  C   UNL A   1      42.993  27.187  27.289  1.00  0.00     0.049 A 
ATOM     48  N   UNL A   1      44.691  29.612  27.877  1.00  0.00    -0.248 NA
ATOM     49  C   UNL A   1      42.781  30.672  28.704  1.00  0.00     0.031 C 
ATOM     50  C   UNL A   1      42.219  25.975  27.022  1.00  0.00     0.029 A 
ATOM     51  N   UNL A   1      44.266  26.870  26.892  1.00  0.00    -0.354 N 
ATOM     52  C   UNL A   1      45.025  30.890  28.309  1.00  0.00     0.074 A 
ATOM     53  C   UNL A   1      43.802  31.514  28.766  1.00  0.00     0.031 C 
ATOM     54  C   UNL A   1      43.040  25.039  26.517  1.00  0.00     0.029 A 
ATOM     55  C   UNL A   1      44.383  25.599  26.388  1.00  0.00     0.049 A 
ATOM     56  H   UNL A   1      45.024  27.495  26.963  1.00  0.00     0.167 HD
ATOM     57  C   UNL A   1      46.241  31.489  28.329  1.00  0.00     0.031 A 
ATOM     58  C   UNL A   1      45.451  24.963  25.870  1.00  0.00     0.031 A 
ATOM     59  C   UNL A   1      47.447  30.870  27.842  1.00  0.00     0.049 A 
ATOM     60  C   UNL A   1      46.774  25.681  25.811  1.00  0.00     0.074 A 
ATOM     61  C   UNL A   1      48.733  31.381  27.822  1.00  0.00     0.029 A 
ATOM     62  N   UNL A   1      47.512  29.605  27.273  1.00  0.00    -0.354 N 
ATOM     63  N   UNL A   1      47.082  26.882  26.241  1.00  0.00    -0.248 NA
ATOM     64  C   UNL A   1      47.893  24.952  25.199  1.00  0.00     0.031 C 
ATOM     65  C   UNL A   1      49.561  30.453  27.180  1.00  0.00     0.029 A 
ATOM     66  C   UNL A   1      48.808  29.332  26.867  1.00  0.00     0.049 A 
ATOM     67  H   UNL A   1      46.749  28.991  27.174  1.00  0.00     0.167 HD
ATOM     68  C   UNL A   1      48.440  27.040  25.983  1.00  0.00     0.074 A 
ATOM     69  C   UNL A   1      48.893  25.808  25.368  1.00  0.00     0.031 C 
ATOM     70  C   UNL A   1      49.242  28.105  26.242  1.00  0.00     0.031 A 
BRANCH  57  71
ATOM     71  C   UNL A   1      46.302  32.906  28.842  1.00  0.00    -0.014 A 
ATOM     72  C   UNL A   1      46.391  34.003  27.964  1.00  0.00     0.010 A 
ATOM     73  C   UNL A   1      46.293  33.145  30.228  1.00  0.00     0.010 A 
ATOM     74  C   UNL A   1      46.545  35.301  28.464  1.00  0.00     0.020 A 
ATOM     75  C   UNL A   1      46.410  34.444  30.732  1.00  0.00     0.020 A 
ATOM     76  C   UNL A   1      46.566  35.510  29.846  1.00  0.00     0.054 A 
BRANCH  76  77
ATOM     77  S   UNL A   1      46.804  37.197  30.467  1.00  0.00     0.124 S 
ATOM     78  O   UNL A   1      45.996  37.185  31.686  1.00  0.00    -0.237 OA
ATOM     79  O   UNL A   1      48.248  37.264  30.674  1.00  0.00    -0.237 OA
ATOM     80  O   UNL A   1      46.290  38.040  29.390  1.00  0.00    -0.744 OA
ENDBRANCH  76  77
ENDBRANCH  57  71
BRANCH  58  81
ATOM     81  C   UNL A   1      45.315  23.561  25.390  1.00  0.00    -0.014 A 
ATOM     82  C   UNL A   1      45.636  22.488  26.238  1.00  0.00     0.010 A 
ATOM     83  C   UNL A   1      44.829  23.289  24.097  1.00  0.00     0.010 A 
ATOM     84  C   UNL A   1      45.471  21.170  25.806  1.00  0.00     0.020 A 
ATOM     85  C   UNL A   1      44.638  21.973  23.671  1.00  0.00     0.020 A 
ATOM     86  C   UNL A   1      44.964  20.919  24.528  1.00  0.00     0.054 A 
BRANCH  86  87
ATOM     87  S   UNL A   1      44.684  19.199  24.023  1.00  0.00     0.124 S 
ATOM     88  O   UNL A   1      44.626  19.313  22.569  1.00  0.00    -0.237 OA
ATOM     89  O   UNL A   1      45.862  18.522  24.559  1.00  0.00    -0.237 OA
ATOM     90  O   UNL A   1      43.424  18.852  24.675  1.00  0.00    -0.744 OA
ENDBRANCH  86  87
ENDBRANCH  58  81
BRANCH  70  91
ATOM     91  C   UNL A   1      50.702  27.974  25.889  1.00  0.00    -0.014 A 
ATOM     92  C   UNL A   1      51.190  28.350  24.626  1.00  0.00     0.010 A 
ATOM     93  C   UNL A   1      51.607  27.506  26.860  1.00  0.00     0.010 A 
ATOM     94  C   UNL A   1      52.550  28.225  24.327  1.00  0.00     0.020 A 
ATOM     95  C   UNL A   1      52.972  27.411  26.577  1.00  0.00     0.020 A 
ATOM     96  C   UNL A   1      53.433  27.757  25.306  1.00  0.00     0.054 A 
BRANCH  96  97
ATOM     97  S   UNL A   1      55.198  27.640  24.906  1.00  0.00     0.124 S 
ATOM     98  O   UNL A   1      55.754  27.086  26.137  1.00  0.00    -0.237 OA
ATOM     99  O   UNL A   1      55.205  26.743  23.752  1.00  0.00    -0.237 OA
ATOM    100  O   UNL A   1      55.580  29.021  24.617  1.00  0.00    -0.744 OA
ENDBRANCH  96  97
ENDBRANCH  70  91
ENDBRANCH  44  45
ENDBRANCH  37  39
ENDBRANCH  36  37
ENDBRANCH  35  36
ENDBRANCH  34  35
ENDBRANCH   1  34
TORSDOF 21
ENDMDL
MODEL 2
REMARK VINA RESULT:     -10.2      5.779      9.498
REMARK SMILES CS(=O)(=O)Nc1ccc(-c2cc(Cl)cc3c2O[C@@H](C(F)(F)F)C(C(=O)OCCOCCOC(=O)c2ccc(-c4c5nc(c(-c6ccc(S(=O)(=O)[O-])cc6)c6ccc([nH]6)c(-c6ccc(S(=O)(=O)[O-])cc6)c6nc(c(-c7ccc(S(=O)(=O)[O-])cc7)c7ccc4[nH]7)C=C6)C=C5)cc2)=C3)cc1
REMARK SMILES IDX 29 1 28 2 27 3 26 4 24 5 25 6 23 7 10 8 11 9 16 10 12 11
REMARK SMILES IDX 15 12 17 13 13 14 14 15 95 16 18 17 9 18 6 19 7 20 97 21
REMARK SMILES IDX 8 22 96 23 5 24 2 26 1 27 3 28 4 29 19 30 20 31 21 32 22 33
REMARK SMILES IDX 30 34 31 35 32 36 33 37 34 38 35 39 36 40 94 41 37 42 93 43
REMARK SMILES IDX 38 44 39 45 40 46 87 47 41 48 92 49 86 50 88 51 42 52 91 53
REMARK SMILES IDX 85 54 84 55 43 57 73 58 54 59 72 60 55 61 58 62 71 63 89 64
REMARK SMILES IDX 56 65 57 66 70 68 90 69 59 70 44 71 45 72 53 73 46 74 52 75
REMARK SMILES IDX 47 76 48 77 49 78 50 79 51 80 74 81 75 82 83 83 76 84 82 85
REMARK SMILES IDX 77 86 78 87 79 88 80 89 81 90 60 91 61 92 69 93 62 94 68 95
REMARK SMILES IDX 63 96 64 97 65 98 66 99 67 100
REMARK H PARENT 5 25 88 56 58 67
REMARK Flexibility Score: inf
ROOT
ATOM      1  O   UNL A   1      33.879  30.173  26.924  1.00  0.00    -0.374 OA
ENDROOT
BRANCH   1   2
ATOM      2  C   UNL A   1      33.012  29.285  26.231  1.00  0.00     0.202 C 
BRANCH   2   3
ATOM      3  C   UNL A   1      33.173  29.136  24.709  1.00  0.00     0.261 C 
BRANCH   3   4
ATOM      4  O   UNL A   1      33.053  27.778  24.255  1.00  0.00    -0.460 OA
BRANCH   4   5
ATOM      5  C   UNL A   1      33.044  27.602  22.920  1.00  0.00     0.338 C 
ATOM      6  O   UNL A   1      33.804  28.147  22.131  1.00  0.00    -0.246 OA
BRANCH   5   7
ATOM      7  C   UNL A   1      32.119  26.525  22.488  1.00  0.00     0.087 C 
ATOM      8  C   UNL A   1      32.684  22.820  24.283  1.00  0.00     0.026 A 
ATOM      9  C   UNL A   1      34.029  22.863  24.724  1.00  0.00     0.033 A 
ATOM     10  C   UNL A   1      32.279  23.932  23.513  1.00  0.00     0.135 A 
ATOM     11  C   UNL A   1      34.957  23.732  24.149  1.00  0.00     0.042 A 
ATOM     12  C   UNL A   1      33.241  24.617  22.746  1.00  0.00     0.019 A 
ATOM     13  O   UNL A   1      31.149  24.680  23.918  1.00  0.00    -0.475 OA
ATOM     14  Cl  UNL A   1      36.588  23.709  24.684  1.00  0.00    -0.084 Cl
ATOM     15  C   UNL A   1      34.586  24.538  23.086  1.00  0.00     0.032 A 
ATOM     16  C   UNL A   1      32.784  25.616  21.757  1.00  0.00     0.027 C 
ATOM     17  C   UNL A   1      30.907  25.976  23.210  1.00  0.00     0.316 C 
BRANCH   8  18
ATOM     18  C   UNL A   1      32.169  21.402  24.112  1.00  0.00    -0.014 A 
ATOM     19  C   UNL A   1      32.256  18.546  23.707  1.00  0.00     0.048 A 
ATOM     20  C   UNL A   1      32.285  19.102  24.988  1.00  0.00     0.027 A 
ATOM     21  C   UNL A   1      32.070  19.412  22.633  1.00  0.00     0.027 A 
ATOM     22  C   UNL A   1      32.209  20.494  25.189  1.00  0.00     0.011 A 
ATOM     23  C   UNL A   1      32.022  20.819  22.833  1.00  0.00     0.011 A 
BRANCH  19  24
ATOM     24  N   UNL A   1      32.658  17.177  23.605  1.00  0.00    -0.284 N 
ATOM     25  H   UNL A   1      31.953  16.535  23.360  1.00  0.00     0.180 HD
BRANCH  24  26
ATOM     26  S   UNL A   1      34.176  16.541  23.852  1.00  0.00     0.229 S 
ATOM     27  C   UNL A   1      35.146  17.945  24.372  1.00  0.00     0.183 C 
ATOM     28  O   UNL A   1      34.708  16.024  22.613  1.00  0.00    -0.207 OA
ATOM     29  O   UNL A   1      34.032  15.686  25.015  1.00  0.00    -0.207 OA
ENDBRANCH  24  26
ENDBRANCH  19  24
ENDBRANCH   8  18
BRANCH  17  30
ATOM     30  C   UNL A   1      30.046  27.028  23.945  1.00  0.00     0.430 C 
ATOM     31  F   UNL A   1      28.743  26.628  23.920  1.00  0.00    -0.167 F 
ATOM     32  F   UNL A   1      30.386  27.129  25.251  1.00  0.00    -0.167 F 
ATOM     33  F   UNL A   1      30.083  28.268  23.427  1.00  0.00    -0.167 F 
ENDBRANCH  17  30
ENDBRANCH   5   7
ENDBRANCH   4   5
ENDBRANCH   3   4
ENDBRANCH   2   3
ENDBRANCH   1   2
BRANCH   1  34
ATOM     34  C   UNL A   1      33.314  31.339  27.519  1.00  0.00     0.202 C 
BRANCH  34  35
ATOM     35  C   UNL A   1      34.129  32.115  28.557  1.00  0.00     0.261 C 
BRANCH  35  36
ATOM     36  O   UNL A   1      34.845  31.277  29.477  1.00  0.00    -0.460 OA
BRANCH  36  37
ATOM     37  C   UNL A   1      35.481  31.947  30.468  1.00  0.00     0.338 C 
ATOM     38  O   UNL A   1      34.967  32.565  31.394  1.00  0.00    -0.246 OA
BRANCH  37  39
ATOM     39  C   UNL A   1      36.926  31.705  30.389  1.00  0.00     0.060 A 
ATOM     40  C   UNL A   1      37.617  32.197  29.273  1.00  0.00     0.016 A 
ATOM     41  C   UNL A   1      37.575  30.920  31.343  1.00  0.00     0.016 A 
ATOM     42  C   UNL A   1      38.956  31.868  29.087  1.00  0.00     0.010 A 
ATOM     43  C   UNL A   1      38.918  30.588  31.151  1.00  0.00     0.010 A 
ATOM     44  C   UNL A   1      39.604  31.031  30.005  1.00  0.00    -0.014 A 
BRANCH  44  45
ATOM     45  C   UNL A   1      40.956  30.509  29.699  1.00  0.00     0.031 A 
ATOM     46  C   UNL A   1      42.145  31.414  29.867  1.00  0.00     0.074 A 
ATOM     47  C   UNL A   1      41.120  29.236  29.298  1.00  0.00     0.049 A 
ATOM     48  N   UNL A   1      43.410  31.171  29.646  1.00  0.00    -0.248 NA
ATOM     49  C   UNL A   1      41.867  32.777  30.347  1.00  0.00     0.031 C 
ATOM     50  C   UNL A   1      40.049  28.252  29.152  1.00  0.00     0.029 A 
ATOM     51  N   UNL A   1      42.256  28.555  28.945  1.00  0.00    -0.354 N 
ATOM     52  C   UNL A   1      44.080  32.351  29.946  1.00  0.00     0.074 A 
ATOM     53  C   UNL A   1      43.074  33.320  30.329  1.00  0.00     0.031 C 
ATOM     54  C   UNL A   1      40.581  27.086  28.752  1.00  0.00     0.029 A 
ATOM     55  C   UNL A   1      42.022  27.253  28.574  1.00  0.00     0.049 A 
ATOM     56  H   UNL A   1      43.153  28.960  28.957  1.00  0.00     0.167 HD
ATOM     57  C   UNL A   1      45.411  32.605  29.913  1.00  0.00     0.031 A 
ATOM     58  C   UNL A   1      42.873  26.309  28.131  1.00  0.00     0.031 A 
ATOM     59  C   UNL A   1      46.400  31.643  29.500  1.00  0.00     0.049 A 
ATOM     60  C   UNL A   1      44.337  26.641  28.008  1.00  0.00     0.074 A 
ATOM     61  C   UNL A   1      47.774  31.791  29.436  1.00  0.00     0.029 A 
ATOM     62  N   UNL A   1      46.116  30.355  29.065  1.00  0.00    -0.354 N 
ATOM     63  N   UNL A   1      44.961  27.754  28.315  1.00  0.00    -0.248 NA
ATOM     64  C   UNL A   1      45.211  25.584  27.482  1.00  0.00     0.031 C 
ATOM     65  C   UNL A   1      48.315  30.616  28.898  1.00  0.00     0.029 A 
ATOM     66  C   UNL A   1      47.286  29.709  28.698  1.00  0.00     0.049 A 
ATOM     67  H   UNL A   1      45.216  29.959  29.024  1.00  0.00     0.167 HD
ATOM     68  C   UNL A   1      46.306  27.520  28.051  1.00  0.00     0.074 A 
ATOM     69  C   UNL A   1      46.404  26.157  27.568  1.00  0.00     0.031 C 
ATOM     70  C   UNL A   1      47.366  28.355  28.204  1.00  0.00     0.031 A 
BRANCH  57  71
ATOM     71  C   UNL A   1      45.855  34.000  30.278  1.00  0.00    -0.014 A 
ATOM     72  C   UNL A   1      46.064  34.377  31.619  1.00  0.00     0.010 A 
ATOM     73  C   UNL A   1      46.043  34.958  29.266  1.00  0.00     0.010 A 
ATOM     74  C   UNL A   1      46.380  35.701  31.942  1.00  0.00     0.020 A 
ATOM     75  C   UNL A   1      46.395  36.274  29.582  1.00  0.00     0.020 A 
ATOM     76  C   UNL A   1      46.531  36.643  30.920  1.00  0.00     0.054 A 
BRANCH  76  77
ATOM     77  S   UNL A   1      46.905  38.361  31.368  1.00  0.00     0.124 S 
ATOM     78  O   UNL A   1      46.891  39.021  30.064  1.00  0.00    -0.237 OA
ATOM     79  O   UNL A   1      45.801  38.709  32.258  1.00  0.00    -0.237 OA
ATOM     80  O   UNL A   1      48.215  38.276  32.007  1.00  0.00    -0.744 OA
ENDBRANCH  76  77
ENDBRANCH  57  71
BRANCH  58  81
ATOM     81  C   UNL A   1      42.361  24.952  27.797  1.00  0.00    -0.014 A 
ATOM     82  C   UNL A   1      41.885  24.674  26.504  1.00  0.00     0.010 A 
ATOM     83  C   UNL A   1      42.382  23.921  28.754  1.00  0.00     0.010 A 
ATOM     84  C   UNL A   1      41.441  23.392  26.174  1.00  0.00     0.020 A 
ATOM     85  C   UNL A   1      41.964  22.630  28.420  1.00  0.00     0.020 A 
ATOM     86  C   UNL A   1      41.492  22.374  27.131  1.00  0.00     0.054 A 
BRANCH  86  87
ATOM     87  S   UNL A   1      40.985  20.699  26.651  1.00  0.00     0.124 S 
ATOM     88  O   UNL A   1      42.050  20.310  25.732  1.00  0.00    -0.237 OA
ATOM     89  O   UNL A   1      40.967  19.999  27.933  1.00  0.00    -0.237 OA
ATOM     90  O   UNL A   1      39.674  20.900  26.040  1.00  0.00    -0.744 OA
ENDBRANCH  86  87
ENDBRANCH  58  81
BRANCH  70  91
ATOM     91  C   UNL A   1      48.732  27.806  27.877  1.00  0.00    -0.014 A 
ATOM     92  C   UNL A   1      49.484  27.091  28.827  1.00  0.00     0.010 A 
ATOM     93  C   UNL A   1      49.250  27.972  26.579  1.00  0.00     0.010 A 
ATOM     94  C   UNL A   1      50.745  26.586  28.495  1.00  0.00     0.020 A 
ATOM     95  C   UNL A   1      50.495  27.439  26.234  1.00  0.00     0.020 A 
ATOM     96  C   UNL A   1      51.242  26.763  27.199  1.00  0.00     0.054 A 
BRANCH  96  97
ATOM     97  S   UNL A   1      52.863  26.064  26.784  1.00  0.00     0.124 S 
ATOM     98  O   UNL A   1      52.513  24.708  26.372  1.00  0.00    -0.237 OA
ATOM     99  O   UNL A   1      53.327  26.947  25.717  1.00  0.00    -0.237 OA
ATOM    100  O   UNL A   1      53.613  26.160  28.034  1.00  0.00    -0.744 OA
ENDBRANCH  96  97
ENDBRANCH  70  91
ENDBRANCH  44  45
ENDBRANCH  37  39
ENDBRANCH  36  37
ENDBRANCH  35  36
ENDBRANCH  34  35
ENDBRANCH   1  34
TORSDOF 21
ENDMDL
MODEL 3
REMARK VINA RESULT:     -10.2      0.454      7.749
REMARK SMILES CS(=O)(=O)Nc1ccc(-c2cc(Cl)cc3c2O[C@@H](C(F)(F)F)C(C(=O)OCCOCCOC(=O)c2ccc(-c4c5nc(c(-c6ccc(S(=O)(=O)[O-])cc6)c6ccc([nH]6)c(-c6ccc(S(=O)(=O)[O-])cc6)c6nc(c(-c7ccc(S(=O)(=O)[O-])cc7)c7ccc4[nH]7)C=C6)C=C5)cc2)=C3)cc1
REMARK SMILES IDX 29 1 28 2 27 3 26 4 24 5 25 6 23 7 10 8 11 9 16 10 12 11
REMARK SMILES IDX 15 12 17 13 13 14 14 15 95 16 18 17 9 18 6 19 7 20 97 21
REMARK SMILES IDX 8 22 96 23 5 24 2 26 1 27 3 28 4 29 19 30 20 31 21 32 22 33
REMARK SMILES IDX 30 34 31 35 32 36 33 37 34 38 35 39 36 40 94 41 37 42 93 43
REMARK SMILES IDX 38 44 39 45 40 46 87 47 41 48 92 49 86 50 88 51 42 52 91 53
REMARK SMILES IDX 85 54 84 55 43 57 73 58 54 59 72 60 55 61 58 62 71 63 89 64
REMARK SMILES IDX 56 65 57 66 70 68 90 69 59 70 44 71 45 72 53 73 46 74 52 75
REMARK SMILES IDX 47 76 48 77 49 78 50 79 51 80 74 81 75 82 83 83 76 84 82 85
REMARK SMILES IDX 77 86 78 87 79 88 80 89 81 90 60 91 61 92 69 93 62 94 68 95
REMARK SMILES IDX 63 96 64 97 65 98 66 99 67 100
REMARK H PARENT 5 25 88 56 58 67
REMARK Flexibility Score: inf
ROOT
ATOM      1  O   UNL A   1      33.282  31.745  28.176  1.00  0.00    -0.374 OA
ENDROOT
BRANCH   1   2
ATOM      2  C   UNL A   1      33.005  32.987  27.543  1.00  0.00     0.202 C 
BRANCH   2   3
ATOM      3  C   UNL A   1      33.200  34.283  28.349  1.00  0.00     0.261 C 
BRANCH   3   4
ATOM      4  O   UNL A   1      33.894  34.082  29.591  1.00  0.00    -0.460 OA
BRANCH   4   5
ATOM      5  C   UNL A   1      33.825  35.095  30.475  1.00  0.00     0.338 C 
ATOM      6  O   UNL A   1      33.552  36.255  30.199  1.00  0.00    -0.246 OA
BRANCH   5   7
ATOM      7  C   UNL A   1      33.941  34.638  31.882  1.00  0.00     0.087 C 
ATOM      8  C   UNL A   1      37.811  34.202  33.333  1.00  0.00     0.026 A 
ATOM      9  C   UNL A   1      38.591  34.039  32.162  1.00  0.00     0.033 A 
ATOM     10  C   UNL A   1      36.417  34.241  33.112  1.00  0.00     0.135 A 
ATOM     11  C   UNL A   1      38.027  33.595  30.966  1.00  0.00     0.042 A 
ATOM     12  C   UNL A   1      35.881  33.548  32.010  1.00  0.00     0.019 A 
ATOM     13  O   UNL A   1      35.673  35.349  33.580  1.00  0.00    -0.475 OA
ATOM     14  Cl  UNL A   1      39.025  33.364  29.588  1.00  0.00    -0.084 Cl
ATOM     15  C   UNL A   1      36.687  33.249  30.918  1.00  0.00     0.032 A 
ATOM     16  C   UNL A   1      34.416  33.382  31.918  1.00  0.00     0.027 C 
ATOM     17  C   UNL A   1      34.254  35.454  33.117  1.00  0.00     0.316 C 
BRANCH   8  18
ATOM     18  C   UNL A   1      38.488  33.638  34.570  1.00  0.00    -0.014 A 
ATOM     19  C   UNL A   1      38.752  32.637  37.263  1.00  0.00     0.048 A 
ATOM     20  C   UNL A   1      38.491  31.783  36.190  1.00  0.00     0.027 A 
ATOM     21  C   UNL A   1      38.993  33.978  36.974  1.00  0.00     0.027 A 
ATOM     22  C   UNL A   1      38.394  32.264  34.870  1.00  0.00     0.011 A 
ATOM     23  C   UNL A   1      38.869  34.470  35.646  1.00  0.00     0.011 A 
BRANCH  19  24
ATOM     24  N   UNL A   1      38.511  32.103  38.568  1.00  0.00    -0.284 N 
ATOM     25  H   UNL A   1      39.173  31.455  38.900  1.00  0.00     0.180 HD
BRANCH  24  26
ATOM     26  S   UNL A   1      37.244  32.447  39.590  1.00  0.00     0.229 S 
ATOM     27  C   UNL A   1      37.424  31.258  40.907  1.00  0.00     0.183 C 
ATOM     28  O   UNL A   1      35.985  32.228  38.915  1.00  0.00    -0.207 OA
ATOM     29  O   UNL A   1      37.568  33.743  40.156  1.00  0.00    -0.207 OA
ENDBRANCH  24  26
ENDBRANCH  19  24
ENDBRANCH   8  18
BRANCH  17  30
ATOM     30  C   UNL A   1      33.603  36.856  33.162  1.00  0.00     0.430 C 
ATOM     31  F   UNL A   1      33.620  37.310  34.447  1.00  0.00    -0.167 F 
ATOM     32  F   UNL A   1      34.303  37.756  32.433  1.00  0.00    -0.167 F 
ATOM     33  F   UNL A   1      32.326  36.912  32.745  1.00  0.00    -0.167 F 
ENDBRANCH  17  30
ENDBRANCH   5   7
ENDBRANCH   4   5
ENDBRANCH   3   4
ENDBRANCH   2   3
ENDBRANCH   1   2
BRANCH   1  34
ATOM     34  C   UNL A   1      34.173  30.842  27.526  1.00  0.00     0.202 C 
BRANCH  34  35
ATOM     35  C   UNL A   1      35.650  30.833  27.931  1.00  0.00     0.261 C 
BRANCH  35  36
ATOM     36  O   UNL A   1      36.219  29.519  28.020  1.00  0.00    -0.460 OA
BRANCH  36  37
ATOM     37  C   UNL A   1      36.984  29.311  29.119  1.00  0.00     0.338 C 
ATOM     38  O   UNL A   1      36.608  29.258  30.285  1.00  0.00    -0.246 OA
BRANCH  37  39
ATOM     39  C   UNL A   1      38.359  28.986  28.719  1.00  0.00     0.060 A 
ATOM     40  C   UNL A   1      39.243  28.532  29.706  1.00  0.00     0.016 A 
ATOM     41  C   UNL A   1      38.800  29.222  27.416  1.00  0.00     0.016 A 
ATOM     42  C   UNL A   1      40.588  28.349  29.400  1.00  0.00     0.010 A 
ATOM     43  C   UNL A   1      40.152  29.042  27.113  1.00  0.00     0.010 A 
ATOM     44  C   UNL A   1      41.057  28.640  28.112  1.00  0.00    -0.014 A 
BRANCH  44  45
ATOM     45  C   UNL A   1      42.514  28.653  27.845  1.00  0.00     0.031 A 
ATOM     46  C   UNL A   1      43.164  27.421  27.276  1.00  0.00     0.074 A 
ATOM     47  C   UNL A   1      43.241  29.758  28.085  1.00  0.00     0.049 A 
ATOM     48  N   UNL A   1      44.419  27.209  26.978  1.00  0.00    -0.248 NA
ATOM     49  C   UNL A   1      42.278  26.277  27.011  1.00  0.00     0.031 C 
ATOM     50  C   UNL A   1      42.711  31.025  28.584  1.00  0.00     0.029 A 
ATOM     51  N   UNL A   1      44.584  29.988  27.937  1.00  0.00    -0.354 N 
ATOM     52  C   UNL A   1      44.479  25.904  26.503  1.00  0.00     0.074 A 
ATOM     53  C   UNL A   1      43.139  25.363  26.589  1.00  0.00     0.031 C 
ATOM     54  C   UNL A   1      43.718  31.908  28.687  1.00  0.00     0.029 A 
ATOM     55  C   UNL A   1      44.967  31.255  28.302  1.00  0.00     0.049 A 
ATOM     56  H   UNL A   1      45.213  29.309  27.600  1.00  0.00     0.167 HD
ATOM     57  C   UNL A   1      45.549  25.220  26.032  1.00  0.00     0.031 A 
ATOM     58  C   UNL A   1      46.190  31.819  28.332  1.00  0.00     0.031 A 
ATOM     59  C   UNL A   1      46.885  25.757  25.980  1.00  0.00     0.049 A 
ATOM     60  C   UNL A   1      47.382  31.009  27.897  1.00  0.00     0.074 A 
ATOM     61  C   UNL A   1      48.040  25.155  25.515  1.00  0.00     0.029 A 
ATOM     62  N   UNL A   1      47.245  27.022  26.425  1.00  0.00    -0.354 N 
ATOM     63  N   UNL A   1      47.423  29.783  27.430  1.00  0.00    -0.248 NA
ATOM     64  C   UNL A   1      48.694  31.664  27.989  1.00  0.00     0.031 C 
ATOM     65  C   UNL A   1      49.110  26.030  25.742  1.00  0.00     0.029 A 
ATOM     66  C   UNL A   1      48.610  27.207  26.278  1.00  0.00     0.049 A 
ATOM     67  H   UNL A   1      46.621  27.691  26.790  1.00  0.00     0.167 HD
ATOM     68  C   UNL A   1      48.759  29.532  27.140  1.00  0.00     0.074 A 
ATOM     69  C   UNL A   1      49.492  30.736  27.477  1.00  0.00     0.031 C 
ATOM     70  C   UNL A   1      49.328  28.408  26.632  1.00  0.00     0.031 A 
BRANCH  57  71
ATOM     71  C   UNL A   1      45.317  23.794  25.595  1.00  0.00    -0.014 A 
ATOM     72  C   UNL A   1      45.407  22.722  26.503  1.00  0.00     0.010 A 
ATOM     73  C   UNL A   1      45.026  23.519  24.247  1.00  0.00     0.010 A 
ATOM     74  C   UNL A   1      45.285  21.402  26.057  1.00  0.00     0.020 A 
ATOM     75  C   UNL A   1      44.867  22.203  23.803  1.00  0.00     0.020 A 
ATOM     76  C   UNL A   1      45.028  21.152  24.706  1.00  0.00     0.054 A 
BRANCH  76  77
ATOM     77  S   UNL A   1      44.910  19.430  24.147  1.00  0.00     0.124 S 
ATOM     78  O   UNL A   1      46.307  19.002  24.198  1.00  0.00    -0.237 OA
ATOM     79  O   UNL A   1      44.033  18.827  25.147  1.00  0.00    -0.237 OA
ATOM     80  O   UNL A   1      44.341  19.538  22.806  1.00  0.00    -0.744 OA
ENDBRANCH  76  77
ENDBRANCH  57  71
BRANCH  58  81
ATOM     81  C   UNL A   1      46.339  33.234  28.769  1.00  0.00    -0.014 A 
ATOM     82  C   UNL A   1      46.219  34.279  27.837  1.00  0.00     0.010 A 
ATOM     83  C   UNL A   1      46.563  33.547  30.122  1.00  0.00     0.010 A 
ATOM     84  C   UNL A   1      46.318  35.610  28.249  1.00  0.00     0.020 A 
ATOM     85  C   UNL A   1      46.636  34.878  30.543  1.00  0.00     0.020 A 
ATOM     86  C   UNL A   1      46.517  35.902  29.602  1.00  0.00     0.054 A 
BRANCH  86  87
ATOM     87  S   UNL A   1      46.560  37.640  30.120  1.00  0.00     0.124 S 
ATOM     88  O   UNL A   1      45.910  38.310  28.998  1.00  0.00    -0.237 OA
ATOM     89  O   UNL A   1      45.800  37.613  31.367  1.00  0.00    -0.237 OA
ATOM     90  O   UNL A   1      47.986  37.917  30.273  1.00  0.00    -0.744 OA
ENDBRANCH  86  87
ENDBRANCH  58  81
BRANCH  70  91
ATOM     91  C   UNL A   1      50.814  28.439  26.377  1.00  0.00    -0.014 A 
ATOM     92  C   UNL A   1      51.736  28.008  27.348  1.00  0.00     0.010 A 
ATOM     93  C   UNL A   1      51.291  28.867  25.124  1.00  0.00     0.010 A 
ATOM     94  C   UNL A   1      53.109  28.041  27.083  1.00  0.00     0.020 A 
ATOM     95  C   UNL A   1      52.660  28.869  24.843  1.00  0.00     0.020 A 
ATOM     96  C   UNL A   1      53.561  28.470  25.831  1.00  0.00     0.054 A 
BRANCH  96  97
ATOM     97  S   UNL A   1      55.345  28.466  25.500  1.00  0.00     0.124 S 
ATOM     98  O   UNL A   1      55.695  27.069  25.739  1.00  0.00    -0.237 OA
ATOM     99  O   UNL A   1      55.412  28.902  24.107  1.00  0.00    -0.237 OA
ATOM    100  O   UNL A   1      55.880  29.417  26.471  1.00  0.00    -0.744 OA
ENDBRANCH  96  97
ENDBRANCH  70  91
ENDBRANCH  44  45
ENDBRANCH  37  39
ENDBRANCH  36  37
ENDBRANCH  35  36
ENDBRANCH  34  35
ENDBRANCH   1  34
TORSDOF 21
ENDMDL
