MODEL 1
REMARK VINA RESULT:     -11.1      0.000      0.000
REMARK SMILES C[C@H](C(=O)OCCOCCOC(=O)c1ccc(-c2c3nc(c(-c4ccc(S(=O)(=O)[O-])cc4)c4ccc([nH]4)c(-c4ccc(S(=O)(=O)[O-])cc4)c4nc(c(-c5ccc(S(=O)(=O)[O-])cc5)c5ccc2[nH]5)C=C4)C=C3)cc1)c1ccc2c3cc(Cl)ccc3n(C(=O)c3cocn3)c2c1
REMARK SMILES IDX 8 1 7 2 6 3 5 4 3 5 4 6 2 7 1 8 74 9 75 10 94 11 76 12 93 13
REMARK SMILES IDX 77 14 85 15 78 16 84 17 79 18 83 19 80 20 82 21 81 22 86 23
REMARK SMILES IDX 87 24 88 25 89 26 92 27 90 28 91 29 9 30 10 31 11 32 12 33
REMARK SMILES IDX 13 34 14 35 15 36 73 37 16 38 72 39 17 40 18 41 19 42 66 43
REMARK SMILES IDX 20 44 71 45 65 46 67 47 21 48 70 49 64 50 63 51 22 53 52 54
REMARK SMILES IDX 33 55 51 56 34 57 37 58 50 59 68 60 35 61 36 62 49 64 69 65
REMARK SMILES IDX 38 66 23 67 24 68 32 69 25 70 31 71 26 72 27 73 28 74 29 75
REMARK SMILES IDX 30 76 53 77 54 78 62 79 55 80 61 81 56 82 57 83 58 84 59 85
REMARK SMILES IDX 60 86 39 87 40 88 48 89 41 90 47 91 42 92 43 93 44 94 45 95
REMARK SMILES IDX 46 96
REMARK H PARENT 67 52 37 63
REMARK Flexibility Score: inf
ROOT
ATOM      1  O   UNL A   1      36.837  22.672  26.119  1.00  0.00    -0.374 OA
ENDROOT
BRANCH   1   2
ATOM      2  C   UNL A   1      35.883  21.641  25.877  1.00  0.00     0.202 C 
BRANCH   2   3
ATOM      3  C   UNL A   1      35.104  21.665  24.558  1.00  0.00     0.261 C 
BRANCH   3   4
ATOM      4  O   UNL A   1      33.705  21.424  24.771  1.00  0.00    -0.463 OA
BRANCH   4   5
ATOM      5  C   UNL A   1      32.866  22.357  24.246  1.00  0.00     0.313 C 
ATOM      6  O   UNL A   1      31.648  22.370  24.397  1.00  0.00    -0.252 OA
BRANCH   5   7
ATOM      7  C   UNL A   1      33.616  23.445  23.473  1.00  0.00     0.126 C 
ATOM      8  C   UNL A   1      33.185  23.635  22.018  1.00  0.00     0.025 C 
BRANCH   7   9
ATOM      9  C   UNL A   1      33.563  24.769  24.202  1.00  0.00    -0.032 A 
ATOM     10  C   UNL A   1      34.432  25.045  25.259  1.00  0.00     0.005 A 
ATOM     11  C   UNL A   1      32.627  25.729  23.801  1.00  0.00     0.032 A 
ATOM     12  C   UNL A   1      34.402  26.290  25.895  1.00  0.00     0.011 A 
ATOM     13  C   UNL A   1      32.517  26.913  24.532  1.00  0.00     0.058 A 
ATOM     14  C   UNL A   1      33.434  27.245  25.515  1.00  0.00     0.008 A 
ATOM     15  N   UNL A   1      31.545  27.912  24.458  1.00  0.00    -0.274 N 
ATOM     16  C   UNL A   1      33.142  28.577  25.908  1.00  0.00     0.009 A 
ATOM     17  C   UNL A   1      31.947  28.968  25.280  1.00  0.00     0.057 A 
ATOM     18  C   UNL A   1      33.795  29.465  26.788  1.00  0.00     0.031 A 
ATOM     19  C   UNL A   1      31.332  30.189  25.614  1.00  0.00     0.029 A 
ATOM     20  C   UNL A   1      33.214  30.698  27.064  1.00  0.00     0.041 A 
ATOM     21  C   UNL A   1      31.991  31.046  26.506  1.00  0.00     0.023 A 
ATOM     22  Cl  UNL A   1      34.013  31.783  28.135  1.00  0.00    -0.084 Cl
BRANCH  15  23
ATOM     23  C   UNL A   1      30.333  27.738  23.740  1.00  0.00     0.284 C 
ATOM     24  O   UNL A   1      29.854  26.605  23.792  1.00  0.00    -0.266 OA
BRANCH  23  25
ATOM     25  C   UNL A   1      29.677  28.750  22.923  1.00  0.00     0.167 A 
ATOM     26  C   UNL A   1      30.205  29.577  21.957  1.00  0.00     0.231 A 
ATOM     27  N   UNL A   1      28.295  28.903  22.923  1.00  0.00    -0.211 NA
ATOM     28  O   UNL A   1      29.180  30.243  21.353  1.00  0.00    -0.451 OA
ATOM     29  C   UNL A   1      28.063  29.763  21.962  1.00  0.00     0.308 A 
ENDBRANCH  23  25
ENDBRANCH  15  23
ENDBRANCH   7   9
ENDBRANCH   5   7
ENDBRANCH   4   5
ENDBRANCH   3   4
ENDBRANCH   2   3
ENDBRANCH   1   2
BRANCH   1  30
ATOM     30  C   UNL A   1      38.197  22.470  25.754  1.00  0.00     0.202 C 
BRANCH  30  31
ATOM     31  C   UNL A   1      39.293  23.245  26.496  1.00  0.00     0.261 C 
BRANCH  31  32
ATOM     32  O   UNL A   1      38.890  24.556  26.923  1.00  0.00    -0.460 OA
BRANCH  32  33
ATOM     33  C   UNL A   1      39.891  25.465  26.943  1.00  0.00     0.338 C 
ATOM     34  O   UNL A   1      40.780  25.599  26.104  1.00  0.00    -0.246 OA
BRANCH  33  35
ATOM     35  C   UNL A   1      39.702  26.432  28.033  1.00  0.00     0.060 A 
ATOM     36  C   UNL A   1      40.430  27.627  27.963  1.00  0.00     0.016 A 
ATOM     37  C   UNL A   1      38.930  26.135  29.159  1.00  0.00     0.016 A 
ATOM     38  C   UNL A   1      40.445  28.499  29.046  1.00  0.00     0.010 A 
ATOM     39  C   UNL A   1      38.953  27.011  30.251  1.00  0.00     0.010 A 
ATOM     40  C   UNL A   1      39.747  28.172  30.216  1.00  0.00    -0.014 A 
BRANCH  40  41
ATOM     41  C   UNL A   1      39.997  28.966  31.445  1.00  0.00     0.031 A 
ATOM     42  C   UNL A   1      39.045  30.077  31.800  1.00  0.00     0.074 A 
ATOM     43  C   UNL A   1      41.016  28.658  32.268  1.00  0.00     0.049 A 
ATOM     44  N   UNL A   1      39.066  30.886  32.828  1.00  0.00    -0.248 NA
ATOM     45  C   UNL A   1      37.919  30.303  30.879  1.00  0.00     0.031 C 
ATOM     46  C   UNL A   1      41.971  27.571  32.060  1.00  0.00     0.029 A 
ATOM     47  N   UNL A   1      41.410  29.235  33.449  1.00  0.00    -0.354 N 
ATOM     48  C   UNL A   1      37.962  31.719  32.674  1.00  0.00     0.074 A 
ATOM     49  C   UNL A   1      37.313  31.339  31.439  1.00  0.00     0.031 C 
ATOM     50  C   UNL A   1      42.846  27.561  33.080  1.00  0.00     0.029 A 
ATOM     51  C   UNL A   1      42.534  28.659  33.993  1.00  0.00     0.049 A 
ATOM     52  H   UNL A   1      40.934  29.988  33.866  1.00  0.00     0.167 HD
ATOM     53  C   UNL A   1      37.524  32.707  33.493  1.00  0.00     0.031 A 
ATOM     54  C   UNL A   1      43.241  28.993  35.090  1.00  0.00     0.031 A 
ATOM     55  C   UNL A   1      38.178  33.091  34.715  1.00  0.00     0.049 A 
ATOM     56  C   UNL A   1      42.780  30.147  35.943  1.00  0.00     0.074 A 
ATOM     57  C   UNL A   1      37.809  34.075  35.615  1.00  0.00     0.029 A 
ATOM     58  N   UNL A   1      39.340  32.515  35.206  1.00  0.00    -0.354 N 
ATOM     59  N   UNL A   1      41.727  30.915  35.793  1.00  0.00    -0.248 NA
ATOM     60  C   UNL A   1      43.598  30.471  37.120  1.00  0.00     0.031 C 
ATOM     61  C   UNL A   1      38.780  34.133  36.621  1.00  0.00     0.029 A 
ATOM     62  C   UNL A   1      39.717  33.141  36.382  1.00  0.00     0.049 A 
ATOM     63  H   UNL A   1      39.825  31.771  34.782  1.00  0.00     0.167 HD
ATOM     64  C   UNL A   1      41.743  31.796  36.869  1.00  0.00     0.074 A 
ATOM     65  C   UNL A   1      42.900  31.455  37.671  1.00  0.00     0.031 C 
ATOM     66  C   UNL A   1      40.874  32.794  37.169  1.00  0.00     0.031 A 
BRANCH  53  67
ATOM     67  C   UNL A   1      36.293  33.465  33.070  1.00  0.00    -0.014 A 
ATOM     68  C   UNL A   1      36.380  34.605  32.251  1.00  0.00     0.010 A 
ATOM     69  C   UNL A   1      35.024  33.007  33.470  1.00  0.00     0.010 A 
ATOM     70  C   UNL A   1      35.225  35.294  31.871  1.00  0.00     0.020 A 
ATOM     71  C   UNL A   1      33.864  33.676  33.069  1.00  0.00     0.020 A 
ATOM     72  C   UNL A   1      33.974  34.826  32.286  1.00  0.00     0.054 A 
BRANCH  72  73
ATOM     73  S   UNL A   1      32.490  35.730  31.762  1.00  0.00     0.124 S 
ATOM     74  O   UNL A   1      32.336  35.280  30.381  1.00  0.00    -0.237 OA
ATOM     75  O   UNL A   1      31.476  35.249  32.696  1.00  0.00    -0.237 OA
ATOM     76  O   UNL A   1      32.865  37.132  31.921  1.00  0.00    -0.744 OA
ENDBRANCH  72  73
ENDBRANCH  53  67
BRANCH  54  77
ATOM     77  C   UNL A   1      44.480  28.240  35.429  1.00  0.00    -0.014 A 
ATOM     78  C   UNL A   1      44.434  27.106  36.257  1.00  0.00     0.010 A 
ATOM     79  C   UNL A   1      45.721  28.660  34.913  1.00  0.00     0.010 A 
ATOM     80  C   UNL A   1      45.607  26.412  36.573  1.00  0.00     0.020 A 
ATOM     81  C   UNL A   1      46.890  27.953  35.203  1.00  0.00     0.020 A 
ATOM     82  C   UNL A   1      46.827  26.839  36.040  1.00  0.00     0.054 A 
BRANCH  82  83
ATOM     83  S   UNL A   1      48.329  25.891  36.415  1.00  0.00     0.124 S 
ATOM     84  O   UNL A   1      49.238  26.932  36.880  1.00  0.00    -0.237 OA
ATOM     85  O   UNL A   1      47.863  24.953  37.433  1.00  0.00    -0.237 OA
ATOM     86  O   UNL A   1      48.676  25.281  35.132  1.00  0.00    -0.744 OA
ENDBRANCH  82  83
ENDBRANCH  54  77
BRANCH  66  87
ATOM     87  C   UNL A   1      41.119  33.573  38.436  1.00  0.00    -0.014 A 
ATOM     88  C   UNL A   1      41.962  34.699  38.452  1.00  0.00     0.010 A 
ATOM     89  C   UNL A   1      40.448  33.204  39.616  1.00  0.00     0.010 A 
ATOM     90  C   UNL A   1      42.153  35.422  39.632  1.00  0.00     0.020 A 
ATOM     91  C   UNL A   1      40.613  33.942  40.792  1.00  0.00     0.020 A 
ATOM     92  C   UNL A   1      41.477  35.039  40.796  1.00  0.00     0.054 A 
BRANCH  92  93
ATOM     93  S   UNL A   1      41.709  36.019  42.304  1.00  0.00     0.124 S 
ATOM     94  O   UNL A   1      42.227  37.277  41.771  1.00  0.00    -0.237 OA
ATOM     95  O   UNL A   1      40.358  36.080  42.858  1.00  0.00    -0.237 OA
ATOM     96  O   UNL A   1      42.661  35.234  43.085  1.00  0.00    -0.744 OA
ENDBRANCH  92  93
ENDBRANCH  66  87
ENDBRANCH  40  41
ENDBRANCH  33  35
ENDBRANCH  32  33
ENDBRANCH  31  32
ENDBRANCH  30  31
ENDBRANCH   1  30
TORSDOF 20
ENDMDL
MODEL 2
REMARK VINA RESULT:     -11.1      3.337      9.571
REMARK SMILES C[C@H](C(=O)OCCOCCOC(=O)c1ccc(-c2c3nc(c(-c4ccc(S(=O)(=O)[O-])cc4)c4ccc([nH]4)c(-c4ccc(S(=O)(=O)[O-])cc4)c4nc(c(-c5ccc(S(=O)(=O)[O-])cc5)c5ccc2[nH]5)C=C4)C=C3)cc1)c1ccc2c3cc(Cl)ccc3n(C(=O)c3cocn3)c2c1
REMARK SMILES IDX 8 1 7 2 6 3 5 4 3 5 4 6 2 7 1 8 74 9 75 10 94 11 76 12 93 13
REMARK SMILES IDX 77 14 85 15 78 16 84 17 79 18 83 19 80 20 82 21 81 22 86 23
REMARK SMILES IDX 87 24 88 25 89 26 92 27 90 28 91 29 9 30 10 31 11 32 12 33
REMARK SMILES IDX 13 34 14 35 15 36 73 37 16 38 72 39 17 40 18 41 19 42 66 43
REMARK SMILES IDX 20 44 71 45 65 46 67 47 21 48 70 49 64 50 63 51 22 53 52 54
REMARK SMILES IDX 33 55 51 56 34 57 37 58 50 59 68 60 35 61 36 62 49 64 69 65
REMARK SMILES IDX 38 66 23 67 24 68 32 69 25 70 31 71 26 72 27 73 28 74 29 75
REMARK SMILES IDX 30 76 53 77 54 78 62 79 55 80 61 81 56 82 57 83 58 84 59 85
REMARK SMILES IDX 60 86 39 87 40 88 48 89 41 90 47 91 42 92 43 93 44 94 45 95
REMARK SMILES IDX 46 96
REMARK H PARENT 67 52 37 63
REMARK Flexibility Score: inf
ROOT
ATOM      1  O   UNL A   1      31.025  29.719  24.764  1.00  0.00    -0.374 OA
ENDROOT
BRANCH   1   2
ATOM      2  C   UNL A   1      31.201  28.967  23.566  1.00  0.00     0.202 C 
BRANCH   2   3
ATOM      3  C   UNL A   1      30.094  27.994  23.148  1.00  0.00     0.261 C 
BRANCH   3   4
ATOM      4  O   UNL A   1      29.858  27.001  24.158  1.00  0.00    -0.463 OA
BRANCH   4   5
ATOM      5  C   UNL A   1      30.664  25.907  24.102  1.00  0.00     0.313 C 
ATOM      6  O   UNL A   1      31.086  25.399  23.068  1.00  0.00    -0.252 OA
BRANCH   5   7
ATOM      7  C   UNL A   1      31.045  25.394  25.493  1.00  0.00     0.126 C 
ATOM      8  C   UNL A   1      30.031  24.456  26.149  1.00  0.00     0.025 C 
BRANCH   7   9
ATOM      9  C   UNL A   1      32.412  24.746  25.482  1.00  0.00    -0.032 A 
ATOM     10  C   UNL A   1      33.570  25.503  25.667  1.00  0.00     0.005 A 
ATOM     11  C   UNL A   1      32.506  23.363  25.285  1.00  0.00     0.032 A 
ATOM     12  C   UNL A   1      34.824  24.884  25.698  1.00  0.00     0.011 A 
ATOM     13  C   UNL A   1      33.771  22.780  25.183  1.00  0.00     0.058 A 
ATOM     14  C   UNL A   1      34.923  23.496  25.464  1.00  0.00     0.008 A 
ATOM     15  N   UNL A   1      34.120  21.486  24.794  1.00  0.00    -0.274 N 
ATOM     16  C   UNL A   1      35.992  22.561  25.453  1.00  0.00     0.009 A 
ATOM     17  C   UNL A   1      35.494  21.329  24.996  1.00  0.00     0.057 A 
ATOM     18  C   UNL A   1      37.361  22.693  25.765  1.00  0.00     0.031 A 
ATOM     19  C   UNL A   1      36.369  20.260  24.733  1.00  0.00     0.029 A 
ATOM     20  C   UNL A   1      38.211  21.610  25.563  1.00  0.00     0.041 A 
ATOM     21  C   UNL A   1      37.729  20.420  25.032  1.00  0.00     0.023 A 
ATOM     22  Cl  UNL A   1      39.881  21.769  25.947  1.00  0.00    -0.084 Cl
BRANCH  15  23
ATOM     23  C   UNL A   1      33.190  20.600  24.190  1.00  0.00     0.284 C 
ATOM     24  O   UNL A   1      32.448  21.113  23.352  1.00  0.00    -0.266 OA
BRANCH  23  25
ATOM     25  C   UNL A   1      33.014  19.194  24.530  1.00  0.00     0.167 A 
ATOM     26  C   UNL A   1      33.406  18.068  23.843  1.00  0.00     0.231 A 
ATOM     27  N   UNL A   1      32.519  18.802  25.769  1.00  0.00    -0.211 NA
ATOM     28  O   UNL A   1      33.168  16.979  24.628  1.00  0.00    -0.451 OA
ATOM     29  C   UNL A   1      32.666  17.499  25.780  1.00  0.00     0.308 A 
ENDBRANCH  23  25
ENDBRANCH  15  23
ENDBRANCH   7   9
ENDBRANCH   5   7
ENDBRANCH   4   5
ENDBRANCH   3   4
ENDBRANCH   2   3
ENDBRANCH   1   2
BRANCH   1  30
ATOM     30  C   UNL A   1      31.742  29.348  25.936  1.00  0.00     0.202 C 
BRANCH  30  31
ATOM     31  C   UNL A   1      32.363  30.445  26.810  1.00  0.00     0.261 C 
BRANCH  31  32
ATOM     32  O   UNL A   1      33.790  30.346  26.943  1.00  0.00    -0.460 OA
BRANCH  32  33
ATOM     33  C   UNL A   1      34.341  31.294  27.733  1.00  0.00     0.338 C 
ATOM     34  O   UNL A   1      33.775  32.278  28.205  1.00  0.00    -0.246 OA
BRANCH  33  35
ATOM     35  C   UNL A   1      35.706  30.921  28.129  1.00  0.00     0.060 A 
ATOM     36  C   UNL A   1      35.922  29.592  28.513  1.00  0.00     0.016 A 
ATOM     37  C   UNL A   1      36.727  31.869  28.243  1.00  0.00     0.016 A 
ATOM     38  C   UNL A   1      37.137  29.217  29.076  1.00  0.00     0.010 A 
ATOM     39  C   UNL A   1      37.946  31.490  28.817  1.00  0.00     0.010 A 
ATOM     40  C   UNL A   1      38.138  30.175  29.279  1.00  0.00    -0.014 A 
BRANCH  40  41
ATOM     41  C   UNL A   1      39.306  29.824  30.124  1.00  0.00     0.031 A 
ATOM     42  C   UNL A   1      40.222  28.715  29.678  1.00  0.00     0.074 A 
ATOM     43  C   UNL A   1      39.586  30.526  31.237  1.00  0.00     0.049 A 
ATOM     44  N   UNL A   1      41.301  28.252  30.254  1.00  0.00    -0.248 NA
ATOM     45  C   UNL A   1      39.878  28.043  28.414  1.00  0.00     0.031 C 
ATOM     46  C   UNL A   1      38.807  31.655  31.742  1.00  0.00     0.029 A 
ATOM     47  N   UNL A   1      40.610  30.390  32.140  1.00  0.00    -0.354 N 
ATOM     48  C   UNL A   1      41.763  27.233  29.427  1.00  0.00     0.074 A 
ATOM     49  C   UNL A   1      40.828  27.124  28.328  1.00  0.00     0.031 C 
ATOM     50  C   UNL A   1      39.380  32.109  32.870  1.00  0.00     0.029 A 
ATOM     51  C   UNL A   1      40.544  31.283  33.184  1.00  0.00     0.049 A 
ATOM     52  H   UNL A   1      41.323  29.719  32.049  1.00  0.00     0.167 HD
ATOM     53  C   UNL A   1      42.869  26.462  29.566  1.00  0.00     0.031 A 
ATOM     54  C   UNL A   1      41.322  31.405  34.277  1.00  0.00     0.031 A 
ATOM     55  C   UNL A   1      43.790  26.565  30.666  1.00  0.00     0.049 A 
ATOM     56  C   UNL A   1      42.502  30.485  34.452  1.00  0.00     0.074 A 
ATOM     57  C   UNL A   1      44.942  25.833  30.894  1.00  0.00     0.029 A 
ATOM     58  N   UNL A   1      43.662  27.449  31.727  1.00  0.00    -0.354 N 
ATOM     59  N   UNL A   1      42.933  29.536  33.654  1.00  0.00    -0.248 NA
ATOM     60  C   UNL A   1      43.307  30.659  35.669  1.00  0.00     0.031 C 
ATOM     61  C   UNL A   1      45.479  26.235  32.122  1.00  0.00     0.029 A 
ATOM     62  C   UNL A   1      44.698  27.262  32.626  1.00  0.00     0.049 A 
ATOM     63  H   UNL A   1      42.940  28.112  31.826  1.00  0.00     0.167 HD
ATOM     64  C   UNL A   1      44.073  29.019  34.261  1.00  0.00     0.074 A 
ATOM     65  C   UNL A   1      44.273  29.770  35.483  1.00  0.00     0.031 C 
ATOM     66  C   UNL A   1      44.884  28.016  33.841  1.00  0.00     0.031 A 
BRANCH  53  67
ATOM     67  C   UNL A   1      43.123  25.414  28.514  1.00  0.00    -0.014 A 
ATOM     68  C   UNL A   1      44.013  25.646  27.450  1.00  0.00     0.010 A 
ATOM     69  C   UNL A   1      42.486  24.163  28.613  1.00  0.00     0.010 A 
ATOM     70  C   UNL A   1      44.232  24.659  26.484  1.00  0.00     0.020 A 
ATOM     71  C   UNL A   1      42.724  23.164  27.665  1.00  0.00     0.020 A 
ATOM     72  C   UNL A   1      43.584  23.425  26.596  1.00  0.00     0.054 A 
BRANCH  72  73
ATOM     73  S   UNL A   1      43.903  22.157  25.339  1.00  0.00     0.124 S 
ATOM     74  O   UNL A   1      45.360  22.193  25.238  1.00  0.00    -0.237 OA
ATOM     75  O   UNL A   1      43.345  20.953  25.950  1.00  0.00    -0.237 OA
ATOM     76  O   UNL A   1      43.186  22.646  24.164  1.00  0.00    -0.744 OA
ENDBRANCH  72  73
ENDBRANCH  53  67
BRANCH  54  77
ATOM     77  C   UNL A   1      40.991  32.427  35.310  1.00  0.00    -0.014 A 
ATOM     78  C   UNL A   1      41.409  33.760  35.170  1.00  0.00     0.010 A 
ATOM     79  C   UNL A   1      40.244  32.060  36.445  1.00  0.00     0.010 A 
ATOM     80  C   UNL A   1      41.097  34.707  36.151  1.00  0.00     0.020 A 
ATOM     81  C   UNL A   1      39.905  33.008  37.413  1.00  0.00     0.020 A 
ATOM     82  C   UNL A   1      40.343  34.325  37.265  1.00  0.00     0.054 A 
BRANCH  82  83
ATOM     83  S   UNL A   1      39.899  35.581  38.497  1.00  0.00     0.124 S 
ATOM     84  O   UNL A   1      38.660  35.042  39.049  1.00  0.00    -0.237 OA
ATOM     85  O   UNL A   1      41.052  35.565  39.393  1.00  0.00    -0.237 OA
ATOM     86  O   UNL A   1      39.754  36.800  37.705  1.00  0.00    -0.744 OA
ENDBRANCH  82  83
ENDBRANCH  54  77
BRANCH  66  87
ATOM     87  C   UNL A   1      46.084  27.688  34.691  1.00  0.00    -0.014 A 
ATOM     88  C   UNL A   1      46.019  26.719  35.708  1.00  0.00     0.010 A 
ATOM     89  C   UNL A   1      47.313  28.321  34.428  1.00  0.00     0.010 A 
ATOM     90  C   UNL A   1      47.152  26.413  36.466  1.00  0.00     0.020 A 
ATOM     91  C   UNL A   1      48.456  27.996  35.164  1.00  0.00     0.020 A 
ATOM     92  C   UNL A   1      48.364  27.054  36.189  1.00  0.00     0.054 A 
BRANCH  92  93
ATOM     93  S   UNL A   1      49.830  26.608  37.159  1.00  0.00     0.124 S 
ATOM     94  O   UNL A   1      50.106  27.848  37.880  1.00  0.00    -0.237 OA
ATOM     95  O   UNL A   1      49.347  25.499  37.979  1.00  0.00    -0.237 OA
ATOM     96  O   UNL A   1      50.818  26.243  36.147  1.00  0.00    -0.744 OA
ENDBRANCH  92  93
ENDBRANCH  66  87
ENDBRANCH  40  41
ENDBRANCH  33  35
ENDBRANCH  32  33
ENDBRANCH  31  32
ENDBRANCH  30  31
ENDBRANCH   1  30
TORSDOF 20
ENDMDL
MODEL 3
REMARK VINA RESULT:     -11.1      3.580      8.609
REMARK SMILES C[C@H](C(=O)OCCOCCOC(=O)c1ccc(-c2c3nc(c(-c4ccc(S(=O)(=O)[O-])cc4)c4ccc([nH]4)c(-c4ccc(S(=O)(=O)[O-])cc4)c4nc(c(-c5ccc(S(=O)(=O)[O-])cc5)c5ccc2[nH]5)C=C4)C=C3)cc1)c1ccc2c3cc(Cl)ccc3n(C(=O)c3cocn3)c2c1
REMARK SMILES IDX 8 1 7 2 6 3 5 4 3 5 4 6 2 7 1 8 74 9 75 10 94 11 76 12 93 13
REMARK SMILES IDX 77 14 85 15 78 16 84 17 79 18 83 19 80 20 82 21 81 22 86 23
REMARK SMILES IDX 87 24 88 25 89 26 92 27 90 28 91 29 9 30 10 31 11 32 12 33
REMARK SMILES IDX 13 34 14 35 15 36 73 37 16 38 72 39 17 40 18 41 19 42 66 43
REMARK SMILES IDX 20 44 71 45 65 46 67 47 21 48 70 49 64 50 63 51 22 53 52 54
REMARK SMILES IDX 33 55 51 56 34 57 37 58 50 59 68 60 35 61 36 62 49 64 69 65
REMARK SMILES IDX 38 66 23 67 24 68 32 69 25 70 31 71 26 72 27 73 28 74 29 75
REMARK SMILES IDX 30 76 53 77 54 78 62 79 55 80 61 81 56 82 57 83 58 84 59 85
REMARK SMILES IDX 60 86 39 87 40 88 48 89 41 90 47 91 42 92 43 93 44 94 45 95
REMARK SMILES IDX 46 96
REMARK H PARENT 67 52 37 63
REMARK Flexibility Score: inf
ROOT
ATOM      1  O   UNL A   1      31.593  29.704  24.841  1.00  0.00    -0.374 OA
ENDROOT
BRANCH   1   2
ATOM      2  C   UNL A   1      31.882  28.601  23.986  1.00  0.00     0.202 C 
BRANCH   2   3
ATOM      3  C   UNL A   1      30.867  27.457  23.904  1.00  0.00     0.261 C 
BRANCH   3   4
ATOM      4  O   UNL A   1      30.873  26.662  25.099  1.00  0.00    -0.463 OA
BRANCH   4   5
ATOM      5  C   UNL A   1      30.625  25.337  24.920  1.00  0.00     0.313 C 
ATOM      6  O   UNL A   1      30.189  24.838  23.888  1.00  0.00    -0.252 OA
BRANCH   5   7
ATOM      7  C   UNL A   1      31.005  24.503  26.147  1.00  0.00     0.126 C 
ATOM      8  C   UNL A   1      30.028  23.385  26.511  1.00  0.00     0.025 C 
BRANCH   7   9
ATOM      9  C   UNL A   1      32.403  23.942  26.016  1.00  0.00    -0.032 A 
ATOM     10  C   UNL A   1      33.525  24.747  26.224  1.00  0.00     0.005 A 
ATOM     11  C   UNL A   1      32.564  22.592  25.684  1.00  0.00     0.032 A 
ATOM     12  C   UNL A   1      34.811  24.203  26.143  1.00  0.00     0.011 A 
ATOM     13  C   UNL A   1      33.853  22.097  25.474  1.00  0.00     0.058 A 
ATOM     14  C   UNL A   1      34.976  22.851  25.773  1.00  0.00     0.008 A 
ATOM     15  N   UNL A   1      34.254  20.869  24.948  1.00  0.00    -0.274 N 
ATOM     16  C   UNL A   1      36.093  21.987  25.628  1.00  0.00     0.009 A 
ATOM     17  C   UNL A   1      35.643  20.776  25.076  1.00  0.00     0.057 A 
ATOM     18  C   UNL A   1      37.466  22.171  25.893  1.00  0.00     0.031 A 
ATOM     19  C   UNL A   1      36.563  19.789  24.675  1.00  0.00     0.029 A 
ATOM     20  C   UNL A   1      38.364  21.164  25.552  1.00  0.00     0.041 A 
ATOM     21  C   UNL A   1      37.924  20.002  24.931  1.00  0.00     0.023 A 
ATOM     22  Cl  UNL A   1      40.040  21.386  25.879  1.00  0.00    -0.084 Cl
BRANCH  15  23
ATOM     23  C   UNL A   1      33.347  19.988  24.302  1.00  0.00     0.284 C 
ATOM     24  O   UNL A   1      32.635  20.510  23.445  1.00  0.00    -0.266 OA
BRANCH  23  25
ATOM     25  C   UNL A   1      33.161  18.579  24.620  1.00  0.00     0.167 A 
ATOM     26  C   UNL A   1      33.649  17.461  23.981  1.00  0.00     0.231 A 
ATOM     27  N   UNL A   1      32.539  18.174  25.796  1.00  0.00    -0.211 NA
ATOM     28  O   UNL A   1      33.345  16.366  24.734  1.00  0.00    -0.451 OA
ATOM     29  C   UNL A   1      32.708  16.874  25.822  1.00  0.00     0.308 A 
ENDBRANCH  23  25
ENDBRANCH  15  23
ENDBRANCH   7   9
ENDBRANCH   5   7
ENDBRANCH   4   5
ENDBRANCH   3   4
ENDBRANCH   2   3
ENDBRANCH   1   2
BRANCH   1  30
ATOM     30  C   UNL A   1      31.743  29.559  26.249  1.00  0.00     0.202 C 
BRANCH  30  31
ATOM     31  C   UNL A   1      32.416  30.682  27.049  1.00  0.00     0.261 C 
BRANCH  31  32
ATOM     32  O   UNL A   1      33.831  30.786  26.828  1.00  0.00    -0.460 OA
BRANCH  32  33
ATOM     33  C   UNL A   1      34.470  31.598  27.699  1.00  0.00     0.338 C 
ATOM     34  O   UNL A   1      33.999  32.581  28.269  1.00  0.00    -0.246 OA
BRANCH  33  35
ATOM     35  C   UNL A   1      35.797  31.066  28.040  1.00  0.00     0.060 A 
ATOM     36  C   UNL A   1      35.905  29.680  28.216  1.00  0.00     0.016 A 
ATOM     37  C   UNL A   1      36.883  31.904  28.306  1.00  0.00     0.016 A 
ATOM     38  C   UNL A   1      37.079  29.131  28.721  1.00  0.00     0.010 A 
ATOM     39  C   UNL A   1      38.060  31.349  28.822  1.00  0.00     0.010 A 
ATOM     40  C   UNL A   1      38.145  29.967  29.076  1.00  0.00    -0.014 A 
BRANCH  40  41
ATOM     41  C   UNL A   1      39.268  29.402  29.864  1.00  0.00     0.031 A 
ATOM     42  C   UNL A   1      39.440  29.828  31.298  1.00  0.00     0.074 A 
ATOM     43  C   UNL A   1      40.082  28.472  29.332  1.00  0.00     0.049 A 
ATOM     44  N   UNL A   1      40.341  29.454  32.169  1.00  0.00    -0.248 NA
ATOM     45  C   UNL A   1      38.465  30.800  31.819  1.00  0.00     0.031 C 
ATOM     46  C   UNL A   1      39.983  27.939  27.974  1.00  0.00     0.029 A 
ATOM     47  N   UNL A   1      41.152  27.809  29.879  1.00  0.00    -0.354 N 
ATOM     48  C   UNL A   1      40.045  30.147  33.339  1.00  0.00     0.074 A 
ATOM     49  C   UNL A   1      38.903  30.988  33.055  1.00  0.00     0.031 C 
ATOM     50  C   UNL A   1      40.957  27.031  27.791  1.00  0.00     0.029 A 
ATOM     51  C   UNL A   1      41.767  26.944  29.005  1.00  0.00     0.049 A 
ATOM     52  H   UNL A   1      41.450  27.940  30.807  1.00  0.00     0.167 HD
ATOM     53  C   UNL A   1      40.664  30.083  34.543  1.00  0.00     0.031 A 
ATOM     54  C   UNL A   1      42.869  26.184  29.161  1.00  0.00     0.031 A 
ATOM     55  C   UNL A   1      41.807  29.254  34.818  1.00  0.00     0.049 A 
ATOM     56  C   UNL A   1      43.589  26.189  30.484  1.00  0.00     0.074 A 
ATOM     57  C   UNL A   1      42.502  29.116  36.007  1.00  0.00     0.029 A 
ATOM     58  N   UNL A   1      42.429  28.429  33.894  1.00  0.00    -0.354 N 
ATOM     59  N   UNL A   1      43.289  26.838  31.584  1.00  0.00    -0.248 NA
ATOM     60  C   UNL A   1      44.791  25.350  30.590  1.00  0.00     0.031 C 
ATOM     61  C   UNL A   1      43.579  28.251  35.785  1.00  0.00     0.029 A 
ATOM     62  C   UNL A   1      43.516  27.800  34.477  1.00  0.00     0.049 A 
ATOM     63  H   UNL A   1      42.140  28.308  32.960  1.00  0.00     0.167 HD
ATOM     64  C   UNL A   1      44.249  26.466  32.519  1.00  0.00     0.074 A 
ATOM     65  C   UNL A   1      45.130  25.523  31.860  1.00  0.00     0.031 C 
ATOM     66  C   UNL A   1      44.387  26.865  33.808  1.00  0.00     0.031 A 
BRANCH  53  67
ATOM     67  C   UNL A   1      40.134  30.962  35.644  1.00  0.00    -0.014 A 
ATOM     68  C   UNL A   1      40.922  31.982  36.210  1.00  0.00     0.010 A 
ATOM     69  C   UNL A   1      38.813  30.789  36.096  1.00  0.00     0.010 A 
ATOM     70  C   UNL A   1      40.410  32.785  37.233  1.00  0.00     0.020 A 
ATOM     71  C   UNL A   1      38.287  31.611  37.098  1.00  0.00     0.020 A 
ATOM     72  C   UNL A   1      39.096  32.592  37.672  1.00  0.00     0.054 A 
BRANCH  72  73
ATOM     73  S   UNL A   1      38.452  33.664  38.987  1.00  0.00     0.124 S 
ATOM     74  O   UNL A   1      38.717  34.995  38.447  1.00  0.00    -0.237 OA
ATOM     75  O   UNL A   1      37.045  33.280  39.053  1.00  0.00    -0.237 OA
ATOM     76  O   UNL A   1      39.250  33.297  40.155  1.00  0.00    -0.744 OA
ENDBRANCH  72  73
ENDBRANCH  53  67
BRANCH  54  77
ATOM     77  C   UNL A   1      43.376  25.374  28.018  1.00  0.00    -0.014 A 
ATOM     78  C   UNL A   1      44.233  25.936  27.057  1.00  0.00     0.010 A 
ATOM     79  C   UNL A   1      42.999  24.024  27.893  1.00  0.00     0.010 A 
ATOM     80  C   UNL A   1      44.695  25.166  25.985  1.00  0.00     0.020 A 
ATOM     81  C   UNL A   1      43.482  23.244  26.840  1.00  0.00     0.020 A 
ATOM     82  C   UNL A   1      44.320  23.823  25.885  1.00  0.00     0.054 A 
BRANCH  82  83
ATOM     83  S   UNL A   1      44.977  22.825  24.520  1.00  0.00     0.124 S 
ATOM     84  O   UNL A   1      45.901  23.756  23.880  1.00  0.00    -0.237 OA
ATOM     85  O   UNL A   1      45.593  21.700  25.219  1.00  0.00    -0.237 OA
ATOM     86  O   UNL A   1      43.788  22.487  23.741  1.00  0.00    -0.744 OA
ENDBRANCH  82  83
ENDBRANCH  54  77
BRANCH  66  87
ATOM     87  C   UNL A   1      45.512  26.261  34.609  1.00  0.00    -0.014 A 
ATOM     88  C   UNL A   1      46.842  26.680  34.433  1.00  0.00     0.010 A 
ATOM     89  C   UNL A   1      45.222  25.298  35.593  1.00  0.00     0.010 A 
ATOM     90  C   UNL A   1      47.866  26.123  35.205  1.00  0.00     0.020 A 
ATOM     91  C   UNL A   1      46.238  24.762  36.388  1.00  0.00     0.020 A 
ATOM     92  C   UNL A   1      47.557  25.167  36.179  1.00  0.00     0.054 A 
BRANCH  92  93
ATOM     93  S   UNL A   1      48.898  24.493  37.196  1.00  0.00     0.124 S 
ATOM     94  O   UNL A   1      49.932  24.226  36.199  1.00  0.00    -0.237 OA
ATOM     95  O   UNL A   1      49.183  25.589  38.119  1.00  0.00    -0.237 OA
ATOM     96  O   UNL A   1      48.305  23.308  37.811  1.00  0.00    -0.744 OA
ENDBRANCH  92  93
ENDBRANCH  66  87
ENDBRANCH  40  41
ENDBRANCH  33  35
ENDBRANCH  32  33
ENDBRANCH  31  32
ENDBRANCH  30  31
ENDBRANCH   1  30
TORSDOF 20
ENDMDL
