MODEL 1
REMARK VINA RESULT:      -9.4      0.000      0.000
REMARK SMILES CC(C)C[C@H](NC(=O)[C@H](Cc1ccccc1)NC(=O)CNC(=O)C[NH3+])C(=O)OCCOCCOC(=O)c1ccc(-c2c3nc(c(-c4ccc(S(=O)(=O)[O-])cc4)c4ccc([nH]4)c(-c4ccc(S(=O)(=O)[O-])cc4)c4nc(c(-c5ccc(S(=O)(=O)[O-])cc5)c5ccc2[nH]5)C=C4)C=C3)cc1
REMARK SMILES IDX 29 1 28 2 26 3 27 4 5 5 4 6 2 7 1 8 3 9 6 10 7 11 8 13 9 14
REMARK SMILES IDX 17 15 18 16 19 18 20 19 21 20 22 21 23 23 24 24 25 25 10 29
REMARK SMILES IDX 11 30 12 31 16 32 13 33 15 34 14 35 30 36 31 37 32 38 33 39
REMARK SMILES IDX 34 40 35 41 36 42 37 43 38 44 96 45 39 46 95 47 40 48 41 49
REMARK SMILES IDX 42 50 89 51 43 52 94 53 88 54 90 55 44 56 93 57 87 58 86 59
REMARK SMILES IDX 45 61 75 62 56 63 74 64 57 65 60 66 73 67 91 68 58 69 59 70
REMARK SMILES IDX 72 72 92 73 61 74 46 75 47 76 55 77 48 78 54 79 49 80 50 81
REMARK SMILES IDX 51 82 52 83 53 84 76 85 77 86 85 87 78 88 84 89 79 90 80 91
REMARK SMILES IDX 81 92 82 93 83 94 62 95 63 96 71 97 64 98 70 99 65 100
REMARK SMILES IDX 66 101 67 102 68 103 69 104
REMARK H PARENT 6 12 17 17 21 22 25 26 25 27 25 28 90 60 60 71
REMARK Flexibility Score: inf
ROOT
ATOM      1  C   UNL A   1      34.901  23.827  25.682  1.00  0.00     0.261 C 
ENDROOT
BRANCH   1   2
ATOM      2  O   UNL A   1      34.342  25.146  25.686  1.00  0.00    -0.462 OA
BRANCH   2   3
ATOM      3  C   UNL A   1      33.125  25.281  26.291  1.00  0.00     0.328 C 
ATOM      4  O   UNL A   1      32.505  24.392  26.859  1.00  0.00    -0.250 OA
BRANCH   3   5
ATOM      5  C   UNL A   1      32.564  26.678  26.037  1.00  0.00     0.192 C 
BRANCH   5   6
ATOM      6  C   UNL A   1      33.406  27.732  26.789  1.00  0.00     0.040 C 
BRANCH   6   7
ATOM      7  C   UNL A   1      33.635  29.185  26.266  1.00  0.00    -0.015 C 
ATOM      8  C   UNL A   1      32.824  29.584  25.029  1.00  0.00     0.007 C 
ATOM      9  C   UNL A   1      33.234  30.220  27.338  1.00  0.00     0.007 C 
ENDBRANCH   6   7
ENDBRANCH   5   6
BRANCH   5  10
ATOM     10  N   UNL A   1      31.094  26.653  26.323  1.00  0.00    -0.341 N 
ATOM     11  C   UNL A   1      30.104  25.795  25.905  1.00  0.00     0.243 C 
ATOM     12  H   UNL A   1      30.781  27.378  26.912  1.00  0.00     0.164 HD
ATOM     13  O   UNL A   1      29.339  25.348  26.762  1.00  0.00    -0.273 OA
BRANCH  11  14
ATOM     14  C   UNL A   1      29.888  25.551  24.400  1.00  0.00     0.175 C 
BRANCH  14  15
ATOM     15  N   UNL A   1      30.005  24.166  23.999  1.00  0.00    -0.342 N 
ATOM     16  C   UNL A   1      31.045  23.562  23.357  1.00  0.00     0.240 C 
ATOM     17  H   UNL A   1      29.238  23.588  24.215  1.00  0.00     0.164 HD
ATOM     18  O   UNL A   1      30.990  22.334  23.240  1.00  0.00    -0.273 OA
BRANCH  16  19
ATOM     19  C   UNL A   1      32.345  24.326  22.976  1.00  0.00     0.216 C 
BRANCH  19  20
ATOM     20  N   UNL A   1      32.546  24.760  21.596  1.00  0.00    -0.342 N 
ATOM     21  C   UNL A   1      33.032  25.868  20.971  1.00  0.00     0.275 C 
ATOM     22  H   UNL A   1      32.253  24.076  20.951  1.00  0.00     0.164 HD
ATOM     23  O   UNL A   1      33.016  25.826  19.735  1.00  0.00    -0.268 OA
BRANCH  21  24
ATOM     24  C   UNL A   1      33.497  27.149  21.679  1.00  0.00     0.360 C 
BRANCH  24  25
ATOM     25  N   UNL A   1      34.009  26.900  23.035  1.00  0.00    -0.350 N 
ATOM     26  H   UNL A   1      33.614  27.584  23.680  1.00  0.00     0.344 HD
ATOM     27  H   UNL A   1      35.026  26.980  23.035  1.00  0.00     0.344 HD
ATOM     28  H   UNL A   1      33.743  25.960  23.332  1.00  0.00     0.344 HD
ENDBRANCH  24  25
ENDBRANCH  21  24
ENDBRANCH  19  20
ENDBRANCH  16  19
ENDBRANCH  14  15
BRANCH  14  29
ATOM     29  C   UNL A   1      28.646  26.299  23.851  1.00  0.00     0.070 C 
BRANCH  29  30
ATOM     30  C   UNL A   1      28.862  27.674  23.274  1.00  0.00    -0.045 A 
ATOM     31  C   UNL A   1      30.135  28.087  22.871  1.00  0.00     0.004 A 
ATOM     32  C   UNL A   1      27.772  28.540  23.086  1.00  0.00     0.004 A 
ATOM     33  C   UNL A   1      30.314  29.344  22.290  1.00  0.00     0.000 A 
ATOM     34  C   UNL A   1      27.954  29.798  22.512  1.00  0.00     0.000 A 
ATOM     35  C   UNL A   1      29.227  30.198  22.113  1.00  0.00     0.000 A 
ENDBRANCH  29  30
ENDBRANCH  14  29
ENDBRANCH  11  14
ENDBRANCH   5  10
ENDBRANCH   3   5
ENDBRANCH   2   3
ENDBRANCH   1   2
BRANCH   1  36
ATOM     36  C   UNL A   1      35.602  23.478  24.373  1.00  0.00     0.202 C 
BRANCH  36  37
ATOM     37  O   UNL A   1      36.936  22.991  24.476  1.00  0.00    -0.374 OA
BRANCH  37  38
ATOM     38  C   UNL A   1      37.577  23.051  25.747  1.00  0.00     0.202 C 
BRANCH  38  39
ATOM     39  C   UNL A   1      38.960  23.708  25.807  1.00  0.00     0.261 C 
BRANCH  39  40
ATOM     40  O   UNL A   1      38.958  24.928  26.569  1.00  0.00    -0.460 OA
BRANCH  40  41
ATOM     41  C   UNL A   1      40.119  25.629  26.493  1.00  0.00     0.338 C 
ATOM     42  O   UNL A   1      40.785  25.835  25.495  1.00  0.00    -0.246 OA
BRANCH  41  43
ATOM     43  C   UNL A   1      40.408  26.294  27.777  1.00  0.00     0.060 A 
ATOM     44  C   UNL A   1      39.543  26.026  28.847  1.00  0.00     0.016 A 
ATOM     45  C   UNL A   1      41.419  27.248  27.901  1.00  0.00     0.016 A 
ATOM     46  C   UNL A   1      39.639  26.763  30.021  1.00  0.00     0.010 A 
ATOM     47  C   UNL A   1      41.508  27.996  29.080  1.00  0.00     0.010 A 
ATOM     48  C   UNL A   1      40.588  27.788  30.125  1.00  0.00    -0.014 A 
BRANCH  48  49
ATOM     49  C   UNL A   1      40.502  28.741  31.257  1.00  0.00     0.031 A 
ATOM     50  C   UNL A   1      39.476  29.841  31.204  1.00  0.00     0.074 A 
ATOM     51  C   UNL A   1      41.293  28.599  32.336  1.00  0.00     0.049 A 
ATOM     52  N   UNL A   1      39.235  30.791  32.071  1.00  0.00    -0.248 NA
ATOM     53  C   UNL A   1      38.603  29.875  30.017  1.00  0.00     0.031 C 
ATOM     54  C   UNL A   1      42.287  27.543  32.522  1.00  0.00     0.029 A 
ATOM     55  N   UNL A   1      41.382  29.351  33.479  1.00  0.00    -0.354 N 
ATOM     56  C   UNL A   1      38.193  31.538  31.533  1.00  0.00     0.074 A 
ATOM     57  C   UNL A   1      37.861  30.948  30.256  1.00  0.00     0.031 C 
ATOM     58  C   UNL A   1      42.893  27.719  33.709  1.00  0.00     0.029 A 
ATOM     59  C   UNL A   1      42.355  28.918  34.348  1.00  0.00     0.049 A 
ATOM     60  H   UNL A   1      40.804  30.128  33.660  1.00  0.00     0.167 HD
ATOM     61  C   UNL A   1      37.567  32.618  32.059  1.00  0.00     0.031 A 
ATOM     62  C   UNL A   1      42.778  29.444  35.514  1.00  0.00     0.031 A 
ATOM     63  C   UNL A   1      37.906  33.207  33.327  1.00  0.00     0.049 A 
ATOM     64  C   UNL A   1      42.115  30.690  36.043  1.00  0.00     0.074 A 
ATOM     65  C   UNL A   1      37.324  34.294  33.955  1.00  0.00     0.029 A 
ATOM     66  N   UNL A   1      38.923  32.762  34.159  1.00  0.00    -0.354 N 
ATOM     67  N   UNL A   1      41.117  31.372  35.533  1.00  0.00    -0.248 NA
ATOM     68  C   UNL A   1      42.630  31.230  37.309  1.00  0.00     0.031 C 
ATOM     69  C   UNL A   1      38.023  34.540  35.140  1.00  0.00     0.029 A 
ATOM     70  C   UNL A   1      39.003  33.569  35.281  1.00  0.00     0.049 A 
ATOM     71  H   UNL A   1      39.502  31.987  33.979  1.00  0.00     0.167 HD
ATOM     72  C   UNL A   1      40.869  32.407  36.429  1.00  0.00     0.074 A 
ATOM     73  C   UNL A   1      41.810  32.251  37.519  1.00  0.00     0.031 C 
ATOM     74  C   UNL A   1      39.945  33.397  36.357  1.00  0.00     0.031 A 
BRANCH  61  75
ATOM     75  C   UNL A   1      36.472  33.258  31.248  1.00  0.00    -0.014 A 
ATOM     76  C   UNL A   1      35.131  33.215  31.669  1.00  0.00     0.010 A 
ATOM     77  C   UNL A   1      36.800  33.963  30.075  1.00  0.00     0.010 A 
ATOM     78  C   UNL A   1      34.134  33.844  30.917  1.00  0.00     0.020 A 
ATOM     79  C   UNL A   1      35.809  34.614  29.335  1.00  0.00     0.020 A 
ATOM     80  C   UNL A   1      34.480  34.540  29.755  1.00  0.00     0.054 A 
BRANCH  80  81
ATOM     81  S   UNL A   1      33.171  35.382  28.821  1.00  0.00     0.124 S 
ATOM     82  O   UNL A   1      33.944  36.270  27.956  1.00  0.00    -0.237 OA
ATOM     83  O   UNL A   1      32.500  34.275  28.144  1.00  0.00    -0.237 OA
ATOM     84  O   UNL A   1      32.381  36.049  29.852  1.00  0.00    -0.744 OA
ENDBRANCH  80  81
ENDBRANCH  61  75
BRANCH  62  85
ATOM     85  C   UNL A   1      43.908  28.813  36.249  1.00  0.00    -0.014 A 
ATOM     86  C   UNL A   1      45.222  29.288  36.098  1.00  0.00     0.010 A 
ATOM     87  C   UNL A   1      43.671  27.719  37.102  1.00  0.00     0.010 A 
ATOM     88  C   UNL A   1      46.281  28.667  36.769  1.00  0.00     0.020 A 
ATOM     89  C   UNL A   1      44.721  27.114  37.797  1.00  0.00     0.020 A 
ATOM     90  C   UNL A   1      46.023  27.585  37.616  1.00  0.00     0.054 A 
BRANCH  90  91
ATOM     91  S   UNL A   1      47.405  26.823  38.511  1.00  0.00     0.124 S 
ATOM     92  O   UNL A   1      48.230  26.315  37.420  1.00  0.00    -0.237 OA
ATOM     93  O   UNL A   1      47.961  27.951  39.254  1.00  0.00    -0.237 OA
ATOM     94  O   UNL A   1      46.758  25.804  39.335  1.00  0.00    -0.744 OA
ENDBRANCH  90  91
ENDBRANCH  62  85
BRANCH  74  95
ATOM     95  C   UNL A   1      39.878  34.368  37.505  1.00  0.00    -0.014 A 
ATOM     96  C   UNL A   1      39.109  34.095  38.650  1.00  0.00     0.010 A 
ATOM     97  C   UNL A   1      40.644  35.549  37.460  1.00  0.00     0.010 A 
ATOM     98  C   UNL A   1      39.081  34.999  39.715  1.00  0.00     0.020 A 
ATOM     99  C   UNL A   1      40.641  36.442  38.534  1.00  0.00     0.020 A 
ATOM    100  C   UNL A   1      39.846  36.168  39.649  1.00  0.00     0.054 A 
BRANCH 100 101
ATOM    101  S   UNL A   1      39.825  37.308  41.060  1.00  0.00     0.124 S 
ATOM    102  O   UNL A   1      38.942  38.367  40.582  1.00  0.00    -0.237 OA
ATOM    103  O   UNL A   1      39.286  36.478  42.136  1.00  0.00    -0.237 OA
ATOM    104  O   UNL A   1      41.226  37.689  41.220  1.00  0.00    -0.744 OA
ENDBRANCH 100 101
ENDBRANCH  74  95
ENDBRANCH  48  49
ENDBRANCH  41  43
ENDBRANCH  40  41
ENDBRANCH  39  40
ENDBRANCH  38  39
ENDBRANCH  37  38
ENDBRANCH  36  37
ENDBRANCH   1  36
TORSDOF 28
ENDMDL
MODEL 2
REMARK VINA RESULT:      -7.0     11.191     16.166
REMARK SMILES CC(C)C[C@H](NC(=O)[C@H](Cc1ccccc1)NC(=O)CNC(=O)C[NH3+])C(=O)OCCOCCOC(=O)c1ccc(-c2c3nc(c(-c4ccc(S(=O)(=O)[O-])cc4)c4ccc([nH]4)c(-c4ccc(S(=O)(=O)[O-])cc4)c4nc(c(-c5ccc(S(=O)(=O)[O-])cc5)c5ccc2[nH]5)C=C4)C=C3)cc1
REMARK SMILES IDX 29 1 28 2 26 3 27 4 5 5 4 6 2 7 1 8 3 9 6 10 7 11 8 13 9 14
REMARK SMILES IDX 17 15 18 16 19 18 20 19 21 20 22 21 23 23 24 24 25 25 10 29
REMARK SMILES IDX 11 30 12 31 16 32 13 33 15 34 14 35 30 36 31 37 32 38 33 39
REMARK SMILES IDX 34 40 35 41 36 42 37 43 38 44 96 45 39 46 95 47 40 48 41 49
REMARK SMILES IDX 42 50 89 51 43 52 94 53 88 54 90 55 44 56 93 57 87 58 86 59
REMARK SMILES IDX 45 61 75 62 56 63 74 64 57 65 60 66 73 67 91 68 58 69 59 70
REMARK SMILES IDX 72 72 92 73 61 74 46 75 47 76 55 77 48 78 54 79 49 80 50 81
REMARK SMILES IDX 51 82 52 83 53 84 76 85 77 86 85 87 78 88 84 89 79 90 80 91
REMARK SMILES IDX 81 92 82 93 83 94 62 95 63 96 71 97 64 98 70 99 65 100
REMARK SMILES IDX 66 101 67 102 68 103 69 104
REMARK H PARENT 6 12 17 17 21 22 25 26 25 27 25 28 90 60 60 71
REMARK Flexibility Score: inf
ROOT
ATOM      1  C   UNL A   1      46.559  43.775  26.130  1.00  0.00     0.261 C 
ENDROOT
BRANCH   1   2
ATOM      2  O   UNL A   1      46.044  44.895  25.400  1.00  0.00    -0.462 OA
BRANCH   2   3
ATOM      3  C   UNL A   1      45.518  44.619  24.169  1.00  0.00     0.328 C 
ATOM      4  O   UNL A   1      44.427  44.988  23.757  1.00  0.00    -0.250 OA
BRANCH   3   5
ATOM      5  C   UNL A   1      46.428  43.653  23.414  1.00  0.00     0.192 C 
BRANCH   5   6
ATOM      6  C   UNL A   1      47.465  44.441  22.583  1.00  0.00     0.040 C 
BRANCH   6   7
ATOM      7  C   UNL A   1      48.920  43.940  22.323  1.00  0.00    -0.015 C 
ATOM      8  C   UNL A   1      49.342  43.854  20.852  1.00  0.00     0.007 C 
ATOM      9  C   UNL A   1      49.949  44.896  22.962  1.00  0.00     0.007 C 
ENDBRANCH   6   7
ENDBRANCH   5   6
BRANCH   5  10
ATOM     10  N   UNL A   1      45.566  42.675  22.675  1.00  0.00    -0.341 N 
ATOM     11  C   UNL A   1      45.378  42.471  21.329  1.00  0.00     0.243 C 
ATOM     12  H   UNL A   1      45.043  42.075  23.255  1.00  0.00     0.164 HD
ATOM     13  O   UNL A   1      45.446  41.313  20.913  1.00  0.00    -0.273 OA
BRANCH  11  14
ATOM     14  C   UNL A   1      44.941  43.644  20.431  1.00  0.00     0.175 C 
BRANCH  14  15
ATOM     15  N   UNL A   1      45.897  43.996  19.405  1.00  0.00    -0.342 N 
ATOM     16  C   UNL A   1      46.370  45.234  19.085  1.00  0.00     0.240 C 
ATOM     17  H   UNL A   1      46.251  43.249  18.870  1.00  0.00     0.164 HD
ATOM     18  O   UNL A   1      47.292  45.285  18.265  1.00  0.00    -0.273 OA
BRANCH  16  19
ATOM     19  C   UNL A   1      45.938  46.514  19.856  1.00  0.00     0.216 C 
BRANCH  19  20
ATOM     20  N   UNL A   1      46.915  47.575  20.092  1.00  0.00    -0.342 N 
ATOM     21  C   UNL A   1      47.093  48.862  19.683  1.00  0.00     0.275 C 
ATOM     22  H   UNL A   1      47.629  47.285  20.705  1.00  0.00     0.164 HD
ATOM     23  O   UNL A   1      48.097  49.424  20.133  1.00  0.00    -0.268 OA
BRANCH  21  24
ATOM     24  C   UNL A   1      46.206  49.595  18.666  1.00  0.00     0.360 C 
BRANCH  24  25
ATOM     25  N   UNL A   1      45.033  50.233  19.284  1.00  0.00    -0.350 N 
ATOM     26  H   UNL A   1      44.646  50.926  18.644  1.00  0.00     0.344 HD
ATOM     27  H   UNL A   1      45.312  50.690  20.152  1.00  0.00     0.344 HD
ATOM     28  H   UNL A   1      44.327  49.524  19.485  1.00  0.00     0.344 HD
ENDBRANCH  24  25
ENDBRANCH  21  24
ENDBRANCH  19  20
ENDBRANCH  16  19
ENDBRANCH  14  15
BRANCH  14  29
ATOM     29  C   UNL A   1      43.473  43.508  19.952  1.00  0.00     0.070 C 
BRANCH  29  30
ATOM     30  C   UNL A   1      43.083  44.235  18.691  1.00  0.00    -0.045 A 
ATOM     31  C   UNL A   1      43.369  43.689  17.436  1.00  0.00     0.004 A 
ATOM     32  C   UNL A   1      42.380  45.448  18.763  1.00  0.00     0.004 A 
ATOM     33  C   UNL A   1      42.958  44.347  16.275  1.00  0.00     0.000 A 
ATOM     34  C   UNL A   1      41.976  46.107  17.603  1.00  0.00     0.000 A 
ATOM     35  C   UNL A   1      42.265  45.554  16.358  1.00  0.00     0.000 A 
ENDBRANCH  29  30
ENDBRANCH  14  29
ENDBRANCH  11  14
ENDBRANCH   5  10
ENDBRANCH   3   5
ENDBRANCH   2   3
ENDBRANCH   1   2
BRANCH   1  36
ATOM     36  C   UNL A   1      45.488  42.750  26.486  1.00  0.00     0.202 C 
BRANCH  36  37
ATOM     37  O   UNL A   1      45.588  41.478  25.855  1.00  0.00    -0.374 OA
BRANCH  37  38
ATOM     38  C   UNL A   1      44.449  40.622  25.884  1.00  0.00     0.202 C 
BRANCH  38  39
ATOM     39  C   UNL A   1      43.386  40.901  26.951  1.00  0.00     0.261 C 
BRANCH  39  40
ATOM     40  O   UNL A   1      43.184  39.783  27.833  1.00  0.00    -0.460 OA
BRANCH  40  41
ATOM     41  C   UNL A   1      42.480  38.762  27.280  1.00  0.00     0.338 C 
ATOM     42  O   UNL A   1      41.566  38.853  26.480  1.00  0.00    -0.246 OA
BRANCH  41  43
ATOM     43  C   UNL A   1      43.083  37.464  27.635  1.00  0.00     0.060 A 
ATOM     44  C   UNL A   1      42.542  36.320  27.032  1.00  0.00     0.016 A 
ATOM     45  C   UNL A   1      44.064  37.353  28.621  1.00  0.00     0.016 A 
ATOM     46  C   UNL A   1      42.929  35.057  27.465  1.00  0.00     0.010 A 
ATOM     47  C   UNL A   1      44.444  36.081  29.062  1.00  0.00     0.010 A 
ATOM     48  C   UNL A   1      43.843  34.930  28.518  1.00  0.00    -0.014 A 
BRANCH  48  49
ATOM     49  C   UNL A   1      44.036  33.605  29.153  1.00  0.00     0.031 A 
ATOM     50  C   UNL A   1      43.187  33.237  30.340  1.00  0.00     0.074 A 
ATOM     51  C   UNL A   1      44.920  32.725  28.649  1.00  0.00     0.049 A 
ATOM     52  N   UNL A   1      43.196  32.142  31.057  1.00  0.00    -0.248 NA
ATOM     53  C   UNL A   1      42.193  34.233  30.777  1.00  0.00     0.031 C 
ATOM     54  C   UNL A   1      45.760  32.950  27.473  1.00  0.00     0.029 A 
ATOM     55  N   UNL A   1      45.257  31.463  29.067  1.00  0.00    -0.354 N 
ATOM     56  C   UNL A   1      42.221  32.321  32.032  1.00  0.00     0.074 A 
ATOM     57  C   UNL A   1      41.654  33.635  31.830  1.00  0.00     0.031 C 
ATOM     58  C   UNL A   1      46.524  31.863  27.269  1.00  0.00     0.029 A 
ATOM     59  C   UNL A   1      46.251  30.882  28.317  1.00  0.00     0.049 A 
ATOM     60  H   UNL A   1      44.828  31.016  29.832  1.00  0.00     0.167 HD
ATOM     61  C   UNL A   1      41.831  31.463  33.005  1.00  0.00     0.031 A 
ATOM     62  C   UNL A   1      46.885  29.703  28.474  1.00  0.00     0.031 A 
ATOM     63  C   UNL A   1      42.403  30.159  33.205  1.00  0.00     0.049 A 
ATOM     64  C   UNL A   1      46.483  28.798  29.610  1.00  0.00     0.074 A 
ATOM     65  C   UNL A   1      42.069  29.208  34.154  1.00  0.00     0.029 A 
ATOM     66  N   UNL A   1      43.434  29.622  32.449  1.00  0.00    -0.354 N 
ATOM     67  N   UNL A   1      45.544  28.971  30.511  1.00  0.00    -0.248 NA
ATOM     68  C   UNL A   1      47.221  27.534  29.745  1.00  0.00     0.031 C 
ATOM     69  C   UNL A   1      42.934  28.120  34.007  1.00  0.00     0.029 A 
ATOM     70  C   UNL A   1      43.767  28.367  32.926  1.00  0.00     0.049 A 
ATOM     71  H   UNL A   1      43.865  30.068  31.684  1.00  0.00     0.167 HD
ATOM     72  C   UNL A   1      45.563  27.828  31.303  1.00  0.00     0.074 A 
ATOM     73  C   UNL A   1      46.594  26.964  30.765  1.00  0.00     0.031 C 
ATOM     74  C   UNL A   1      44.795  27.520  32.377  1.00  0.00     0.031 A 
BRANCH  61  75
ATOM     75  C   UNL A   1      40.754  31.921  33.953  1.00  0.00    -0.014 A 
ATOM     76  C   UNL A   1      39.396  31.668  33.692  1.00  0.00     0.010 A 
ATOM     77  C   UNL A   1      41.115  32.564  35.152  1.00  0.00     0.010 A 
ATOM     78  C   UNL A   1      38.414  32.074  34.602  1.00  0.00     0.020 A 
ATOM     79  C   UNL A   1      40.137  32.949  36.075  1.00  0.00     0.020 A 
ATOM     80  C   UNL A   1      38.792  32.711  35.788  1.00  0.00     0.054 A 
BRANCH  80  81
ATOM     81  S   UNL A   1      37.501  33.190  36.970  1.00  0.00     0.124 S 
ATOM     82  O   UNL A   1      36.462  33.710  36.085  1.00  0.00    -0.237 OA
ATOM     83  O   UNL A   1      37.188  31.925  37.631  1.00  0.00    -0.237 OA
ATOM     84  O   UNL A   1      38.155  34.186  37.815  1.00  0.00    -0.744 OA
ENDBRANCH  80  81
ENDBRANCH  61  75
BRANCH  62  85
ATOM     85  C   UNL A   1      47.987  29.322  27.551  1.00  0.00    -0.014 A 
ATOM     86  C   UNL A   1      47.791  28.349  26.556  1.00  0.00     0.010 A 
ATOM     87  C   UNL A   1      49.250  29.930  27.670  1.00  0.00     0.010 A 
ATOM     88  C   UNL A   1      48.843  27.975  25.713  1.00  0.00     0.020 A 
ATOM     89  C   UNL A   1      50.296  29.581  26.812  1.00  0.00     0.020 A 
ATOM     90  C   UNL A   1      50.090  28.595  25.846  1.00  0.00     0.054 A 
BRANCH  90  91
ATOM     91  S   UNL A   1      51.428  28.127  24.713  1.00  0.00     0.124 S 
ATOM     92  O   UNL A   1      52.523  27.852  25.636  1.00  0.00    -0.237 OA
ATOM     93  O   UNL A   1      50.868  26.965  24.028  1.00  0.00    -0.237 OA
ATOM     94  O   UNL A   1      51.595  29.313  23.875  1.00  0.00    -0.744 OA
ENDBRANCH  90  91
ENDBRANCH  62  85
BRANCH  74  95
ATOM     95  C   UNL A   1      45.012  26.177  33.022  1.00  0.00    -0.014 A 
ATOM     96  C   UNL A   1      44.336  25.031  32.570  1.00  0.00     0.010 A 
ATOM     97  C   UNL A   1      45.952  26.052  34.063  1.00  0.00     0.010 A 
ATOM     98  C   UNL A   1      44.570  23.789  33.167  1.00  0.00     0.020 A 
ATOM     99  C   UNL A   1      46.211  24.808  34.644  1.00  0.00     0.020 A 
ATOM    100  C   UNL A   1      45.506  23.687  34.202  1.00  0.00     0.054 A 
BRANCH 100 101
ATOM    101  S   UNL A   1      45.823  22.058  34.935  1.00  0.00     0.124 S 
ATOM    102  O   UNL A   1      46.114  22.402  36.324  1.00  0.00    -0.237 OA
ATOM    103  O   UNL A   1      44.562  21.354  34.712  1.00  0.00    -0.237 OA
ATOM    104  O   UNL A   1      46.957  21.548  34.168  1.00  0.00    -0.744 OA
ENDBRANCH 100 101
ENDBRANCH  74  95
ENDBRANCH  48  49
ENDBRANCH  41  43
ENDBRANCH  40  41
ENDBRANCH  39  40
ENDBRANCH  38  39
ENDBRANCH  37  38
ENDBRANCH  36  37
ENDBRANCH   1  36
TORSDOF 28
ENDMDL
MODEL 3
REMARK VINA RESULT:      -7.0      6.145      8.171
REMARK SMILES CC(C)C[C@H](NC(=O)[C@H](Cc1ccccc1)NC(=O)CNC(=O)C[NH3+])C(=O)OCCOCCOC(=O)c1ccc(-c2c3nc(c(-c4ccc(S(=O)(=O)[O-])cc4)c4ccc([nH]4)c(-c4ccc(S(=O)(=O)[O-])cc4)c4nc(c(-c5ccc(S(=O)(=O)[O-])cc5)c5ccc2[nH]5)C=C4)C=C3)cc1
REMARK SMILES IDX 29 1 28 2 26 3 27 4 5 5 4 6 2 7 1 8 3 9 6 10 7 11 8 13 9 14
REMARK SMILES IDX 17 15 18 16 19 18 20 19 21 20 22 21 23 23 24 24 25 25 10 29
REMARK SMILES IDX 11 30 12 31 16 32 13 33 15 34 14 35 30 36 31 37 32 38 33 39
REMARK SMILES IDX 34 40 35 41 36 42 37 43 38 44 96 45 39 46 95 47 40 48 41 49
REMARK SMILES IDX 42 50 89 51 43 52 94 53 88 54 90 55 44 56 93 57 87 58 86 59
REMARK SMILES IDX 45 61 75 62 56 63 74 64 57 65 60 66 73 67 91 68 58 69 59 70
REMARK SMILES IDX 72 72 92 73 61 74 46 75 47 76 55 77 48 78 54 79 49 80 50 81
REMARK SMILES IDX 51 82 52 83 53 84 76 85 77 86 85 87 78 88 84 89 79 90 80 91
REMARK SMILES IDX 81 92 82 93 83 94 62 95 63 96 71 97 64 98 70 99 65 100
REMARK SMILES IDX 66 101 67 102 68 103 69 104
REMARK H PARENT 6 12 17 17 21 22 25 26 25 27 25 28 90 60 60 71
REMARK Flexibility Score: inf
ROOT
ATOM      1  C   UNL A   1      35.574  24.132  26.020  1.00  0.00     0.261 C 
ENDROOT
BRANCH   1   2
ATOM      2  O   UNL A   1      34.696  25.213  25.683  1.00  0.00    -0.462 OA
BRANCH   2   3
ATOM      3  C   UNL A   1      33.481  25.215  26.307  1.00  0.00     0.328 C 
ATOM      4  O   UNL A   1      32.986  24.277  26.916  1.00  0.00    -0.250 OA
BRANCH   3   5
ATOM      5  C   UNL A   1      32.746  26.523  26.020  1.00  0.00     0.192 C 
BRANCH   5   6
ATOM      6  C   UNL A   1      33.482  27.703  26.692  1.00  0.00     0.040 C 
BRANCH   6   7
ATOM      7  C   UNL A   1      32.904  29.152  26.760  1.00  0.00    -0.015 C 
ATOM      8  C   UNL A   1      33.854  30.223  27.306  1.00  0.00     0.007 C 
ATOM      9  C   UNL A   1      32.528  29.656  25.350  1.00  0.00     0.007 C 
ENDBRANCH   6   7
ENDBRANCH   5   6
BRANCH   5  10
ATOM     10  N   UNL A   1      31.301  26.336  26.368  1.00  0.00    -0.341 N 
ATOM     11  C   UNL A   1      30.323  25.560  25.792  1.00  0.00     0.243 C 
ATOM     12  H   UNL A   1      30.998  26.860  27.145  1.00  0.00     0.164 HD
ATOM     13  O   UNL A   1      29.638  24.858  26.538  1.00  0.00    -0.273 OA
BRANCH  11  14
ATOM     14  C   UNL A   1      30.016  25.707  24.290  1.00  0.00     0.175 C 
BRANCH  14  15
ATOM     15  N   UNL A   1      30.061  24.467  23.548  1.00  0.00    -0.342 N 
ATOM     16  C   UNL A   1      31.159  23.756  23.164  1.00  0.00     0.240 C 
ATOM     17  H   UNL A   1      29.190  24.088  23.287  1.00  0.00     0.164 HD
ATOM     18  O   UNL A   1      30.958  22.647  22.660  1.00  0.00    -0.273 OA
BRANCH  16  19
ATOM     19  C   UNL A   1      32.606  24.198  23.526  1.00  0.00     0.216 C 
BRANCH  19  20
ATOM     20  N   UNL A   1      33.186  25.367  22.870  1.00  0.00    -0.342 N 
ATOM     21  C   UNL A   1      32.939  26.090  21.742  1.00  0.00     0.275 C 
ATOM     22  H   UNL A   1      33.955  25.724  23.371  1.00  0.00     0.164 HD
ATOM     23  O   UNL A   1      33.706  27.039  21.546  1.00  0.00    -0.268 OA
BRANCH  21  24
ATOM     24  C   UNL A   1      31.864  25.756  20.698  1.00  0.00     0.360 C 
BRANCH  24  25
ATOM     25  N   UNL A   1      32.427  25.448  19.374  1.00  0.00    -0.350 N 
ATOM     26  H   UNL A   1      31.674  25.197  18.734  1.00  0.00     0.344 HD
ATOM     27  H   UNL A   1      33.079  24.668  19.454  1.00  0.00     0.344 HD
ATOM     28  H   UNL A   1      32.920  26.267  19.015  1.00  0.00     0.344 HD
ENDBRANCH  24  25
ENDBRANCH  21  24
ENDBRANCH  19  20
ENDBRANCH  16  19
ENDBRANCH  14  15
BRANCH  14  29
ATOM     29  C   UNL A   1      28.774  26.595  24.024  1.00  0.00     0.070 C 
BRANCH  29  30
ATOM     30  C   UNL A   1      28.981  27.865  23.239  1.00  0.00    -0.045 A 
ATOM     31  C   UNL A   1      27.900  28.690  22.919  1.00  0.00     0.004 A 
ATOM     32  C   UNL A   1      30.276  28.259  22.863  1.00  0.00     0.004 A 
ATOM     33  C   UNL A   1      28.110  29.889  22.235  1.00  0.00     0.000 A 
ATOM     34  C   UNL A   1      30.483  29.454  22.175  1.00  0.00     0.000 A 
ATOM     35  C   UNL A   1      29.399  30.270  21.863  1.00  0.00     0.000 A 
ENDBRANCH  29  30
ENDBRANCH  14  29
ENDBRANCH  11  14
ENDBRANCH   5  10
ENDBRANCH   3   5
ENDBRANCH   2   3
ENDBRANCH   1   2
BRANCH   1  36
ATOM     36  C   UNL A   1      36.553  23.786  24.903  1.00  0.00     0.202 C 
BRANCH  36  37
ATOM     37  O   UNL A   1      37.909  23.583  25.284  1.00  0.00    -0.374 OA
BRANCH  37  38
ATOM     38  C   UNL A   1      38.363  24.182  26.495  1.00  0.00     0.202 C 
BRANCH  38  39
ATOM     39  C   UNL A   1      39.836  23.985  26.868  1.00  0.00     0.261 C 
BRANCH  39  40
ATOM     40  O   UNL A   1      40.459  25.204  27.311  1.00  0.00    -0.460 OA
BRANCH  40  41
ATOM     41  C   UNL A   1      41.354  25.720  26.430  1.00  0.00     0.338 C 
ATOM     42  O   UNL A   1      41.146  26.020  25.268  1.00  0.00    -0.246 OA
BRANCH  41  43
ATOM     43  C   UNL A   1      42.616  26.060  27.112  1.00  0.00     0.060 A 
ATOM     44  C   UNL A   1      42.562  26.269  28.496  1.00  0.00     0.016 A 
ATOM     45  C   UNL A   1      43.797  26.291  26.403  1.00  0.00     0.016 A 
ATOM     46  C   UNL A   1      43.667  26.780  29.167  1.00  0.00     0.010 A 
ATOM     47  C   UNL A   1      44.904  26.814  27.079  1.00  0.00     0.010 A 
ATOM     48  C   UNL A   1      44.827  27.104  28.453  1.00  0.00    -0.014 A 
BRANCH  48  49
ATOM     49  C   UNL A   1      45.888  27.897  29.119  1.00  0.00     0.031 A 
ATOM     50  C   UNL A   1      45.785  29.400  29.112  1.00  0.00     0.074 A 
ATOM     51  C   UNL A   1      46.900  27.288  29.761  1.00  0.00     0.049 A 
ATOM     52  N   UNL A   1      46.601  30.288  29.617  1.00  0.00    -0.248 NA
ATOM     53  C   UNL A   1      44.602  29.979  28.449  1.00  0.00     0.031 C 
ATOM     54  C   UNL A   1      47.076  25.841  29.879  1.00  0.00     0.029 A 
ATOM     55  N   UNL A   1      47.972  27.815  30.435  1.00  0.00    -0.354 N 
ATOM     56  C   UNL A   1      46.039  31.526  29.327  1.00  0.00     0.074 A 
ATOM     57  C   UNL A   1      44.825  31.278  28.582  1.00  0.00     0.031 C 
ATOM     58  C   UNL A   1      48.198  25.595  30.578  1.00  0.00     0.029 A 
ATOM     59  C   UNL A   1      48.834  26.864  30.925  1.00  0.00     0.049 A 
ATOM     60  H   UNL A   1      48.111  28.782  30.555  1.00  0.00     0.167 HD
ATOM     61  C   UNL A   1      46.494  32.759  29.655  1.00  0.00     0.031 A 
ATOM     62  C   UNL A   1      50.015  27.003  31.561  1.00  0.00     0.031 A 
ATOM     63  C   UNL A   1      47.707  33.001  30.389  1.00  0.00     0.049 A 
ATOM     64  C   UNL A   1      50.536  28.387  31.849  1.00  0.00     0.074 A 
ATOM     65  C   UNL A   1      48.248  34.212  30.783  1.00  0.00     0.029 A 
ATOM     66  N   UNL A   1      48.572  32.013  30.835  1.00  0.00    -0.354 N 
ATOM     67  N   UNL A   1      49.983  29.548  31.587  1.00  0.00    -0.248 NA
ATOM     68  C   UNL A   1      51.837  28.479  32.527  1.00  0.00     0.031 C 
ATOM     69  C   UNL A   1      49.468  33.960  31.419  1.00  0.00     0.029 A 
ATOM     70  C   UNL A   1      49.656  32.587  31.475  1.00  0.00     0.049 A 
ATOM     71  H   UNL A   1      48.435  31.046  30.714  1.00  0.00     0.167 HD
ATOM     72  C   UNL A   1      50.856  30.506  32.090  1.00  0.00     0.074 A 
ATOM     73  C   UNL A   1      51.965  29.789  32.686  1.00  0.00     0.031 C 
ATOM     74  C   UNL A   1      50.750  31.858  32.064  1.00  0.00     0.031 A 
BRANCH  61  75
ATOM     75  C   UNL A   1      45.694  33.948  29.191  1.00  0.00    -0.014 A 
ATOM     76  C   UNL A   1      45.904  34.519  27.923  1.00  0.00     0.010 A 
ATOM     77  C   UNL A   1      44.677  34.463  30.016  1.00  0.00     0.010 A 
ATOM     78  C   UNL A   1      45.128  35.602  27.499  1.00  0.00     0.020 A 
ATOM     79  C   UNL A   1      43.883  35.530  29.584  1.00  0.00     0.020 A 
ATOM     80  C   UNL A   1      44.122  36.100  28.333  1.00  0.00     0.054 A 
BRANCH  80  81
ATOM     81  S   UNL A   1      43.103  37.480  27.741  1.00  0.00     0.124 S 
ATOM     82  O   UNL A   1      42.003  37.475  28.701  1.00  0.00    -0.237 OA
ATOM     83  O   UNL A   1      44.016  38.616  27.839  1.00  0.00    -0.237 OA
ATOM     84  O   UNL A   1      42.744  37.089  26.380  1.00  0.00    -0.744 OA
ENDBRANCH  80  81
ENDBRANCH  61  75
BRANCH  62  85
ATOM     85  C   UNL A   1      50.801  25.798  31.942  1.00  0.00    -0.014 A 
ATOM     86  C   UNL A   1      50.240  24.797  32.754  1.00  0.00     0.010 A 
ATOM     87  C   UNL A   1      52.129  25.653  31.498  1.00  0.00     0.010 A 
ATOM     88  C   UNL A   1      50.999  23.684  33.132  1.00  0.00     0.020 A 
ATOM     89  C   UNL A   1      52.881  24.529  31.850  1.00  0.00     0.020 A 
ATOM     90  C   UNL A   1      52.315  23.557  32.676  1.00  0.00     0.054 A 
BRANCH  90  91
ATOM     91  S   UNL A   1      53.266  22.084  33.143  1.00  0.00     0.124 S 
ATOM     92  O   UNL A   1      52.676  21.059  32.289  1.00  0.00    -0.237 OA
ATOM     93  O   UNL A   1      54.634  22.475  32.813  1.00  0.00    -0.237 OA
ATOM     94  O   UNL A   1      52.995  21.942  34.572  1.00  0.00    -0.744 OA
ENDBRANCH  90  91
ENDBRANCH  62  85
BRANCH  74  95
ATOM     95  C   UNL A   1      51.842  32.652  32.729  1.00  0.00    -0.014 A 
ATOM     96  C   UNL A   1      51.784  32.970  34.098  1.00  0.00     0.010 A 
ATOM     97  C   UNL A   1      52.971  33.039  31.983  1.00  0.00     0.010 A 
ATOM     98  C   UNL A   1      52.820  33.688  34.701  1.00  0.00     0.020 A 
ATOM     99  C   UNL A   1      54.022  33.732  32.589  1.00  0.00     0.020 A 
ATOM    100  C   UNL A   1      53.933  34.065  33.941  1.00  0.00     0.054 A 
BRANCH 100 101
ATOM    101  S   UNL A   1      55.283  34.962  34.755  1.00  0.00     0.124 S 
ATOM    102  O   UNL A   1      54.676  35.336  36.028  1.00  0.00    -0.237 OA
ATOM    103  O   UNL A   1      56.338  33.952  34.833  1.00  0.00    -0.237 OA
ATOM    104  O   UNL A   1      55.560  36.072  33.846  1.00  0.00    -0.744 OA
ENDBRANCH 100 101
ENDBRANCH  74  95
ENDBRANCH  48  49
ENDBRANCH  41  43
ENDBRANCH  40  41
ENDBRANCH  39  40
ENDBRANCH  38  39
ENDBRANCH  37  38
ENDBRANCH  36  37
ENDBRANCH   1  36
TORSDOF 28
ENDMDL
