MODEL 1
REMARK VINA RESULT:     -11.0      0.000      0.000
REMARK SMILES C[C@@H]1C[C@@H](C)CN(C(=O)CCn2cc(C(=O)OCCOCCOC(=O)c3ccc(-c4c5nc(c(-c6ccc(S(=O)(=O)[O-])cc6)c6ccc([nH]6)c(-c6ccc(S(=O)(=O)[O-])cc6)c6nc(c(-c7ccc(S(=O)(=O)[O-])cc7)c7ccc4[nH]7)C=C6)C=C5)cc3)cn2)C1
REMARK SMILES IDX 20 1 19 2 18 3 17 4 15 5 16 6 14 7 12 8 13 9 87 10 86 11
REMARK SMILES IDX 11 12 10 13 8 14 1 15 2 16 3 17 88 18 4 19 7 20 6 21 5 22
REMARK SMILES IDX 9 23 21 24 22 25 23 26 24 27 25 28 26 29 27 30 85 31 28 32
REMARK SMILES IDX 84 33 29 34 30 35 31 36 78 37 32 38 83 39 77 40 79 41 33 42
REMARK SMILES IDX 82 43 76 44 75 45 34 47 64 48 45 49 63 50 46 51 49 52 62 53
REMARK SMILES IDX 80 54 47 55 48 56 61 58 81 59 50 60 35 61 36 62 44 63 37 64
REMARK SMILES IDX 43 65 38 66 39 67 40 68 41 69 42 70 65 71 66 72 74 73 67 74
REMARK SMILES IDX 73 75 68 76 69 77 70 78 71 79 72 80 51 81 52 82 60 83 53 84
REMARK SMILES IDX 59 85 54 86 55 87 56 88 57 89 58 90
REMARK H PARENT 79 46 49 57
REMARK Flexibility Score: inf
ROOT
ATOM      1  O   UNL A   1      35.785  21.670  24.717  1.00  0.00    -0.374 OA
ENDROOT
BRANCH   1   2
ATOM      2  C   UNL A   1      35.361  20.316  24.886  1.00  0.00     0.202 C 
BRANCH   2   3
ATOM      3  C   UNL A   1      33.845  20.154  25.135  1.00  0.00     0.261 C 
BRANCH   3   4
ATOM      4  O   UNL A   1      33.334  21.196  26.001  1.00  0.00    -0.460 OA
BRANCH   4   5
ATOM      5  C   UNL A   1      32.261  21.961  25.635  1.00  0.00     0.341 C 
ATOM      6  O   UNL A   1      31.101  21.574  25.638  1.00  0.00    -0.246 OA
BRANCH   5   7
ATOM      7  C   UNL A   1      32.689  23.298  25.217  1.00  0.00     0.098 A 
ATOM      8  N   UNL A   1      33.289  24.947  23.854  1.00  0.00    -0.271 N 
ATOM      9  C   UNL A   1      32.293  24.025  24.102  1.00  0.00     0.124 A 
ATOM     10  N   UNL A   1      34.058  25.120  24.955  1.00  0.00    -0.181 NA
ATOM     11  C   UNL A   1      33.690  24.121  25.773  1.00  0.00     0.150 A 
BRANCH   8  12
ATOM     12  C   UNL A   1      33.529  25.743  22.638  1.00  0.00     0.154 C 
BRANCH  12  13
ATOM     13  C   UNL A   1      32.690  27.035  22.375  1.00  0.00     0.124 C 
BRANCH  13  14
ATOM     14  C   UNL A   1      33.144  28.285  23.182  1.00  0.00     0.224 C 
ATOM     15  C   UNL A   1      34.025  28.108  26.504  1.00  0.00     0.009 C 
ATOM     16  C   UNL A   1      32.635  28.756  26.371  1.00  0.00     0.006 C 
ATOM     17  C   UNL A   1      31.438  27.731  26.362  1.00  0.00     0.010 C 
ATOM     18  C   UNL A   1      32.632  29.716  25.152  1.00  0.00     0.122 C 
ATOM     19  C   UNL A   1      30.957  27.336  24.947  1.00  0.00     0.006 C 
ATOM     20  N   UNL A   1      32.205  28.992  23.953  1.00  0.00    -0.342 N 
ATOM     21  C   UNL A   1      30.836  28.556  24.066  1.00  0.00     0.122 C 
ATOM     22  C   UNL A   1      29.806  26.395  24.711  1.00  0.00     0.009 C 
ATOM     23  O   UNL A   1      34.336  28.600  23.178  1.00  0.00    -0.275 OA
ENDBRANCH  13  14
ENDBRANCH  12  13
ENDBRANCH   8  12
ENDBRANCH   5   7
ENDBRANCH   4   5
ENDBRANCH   3   4
ENDBRANCH   2   3
ENDBRANCH   1   2
BRANCH   1  24
ATOM     24  C   UNL A   1      37.147  21.877  24.352  1.00  0.00     0.202 C 
BRANCH  24  25
ATOM     25  C   UNL A   1      38.197  21.478  25.388  1.00  0.00     0.261 C 
BRANCH  25  26
ATOM     26  O   UNL A   1      38.535  22.515  26.302  1.00  0.00    -0.460 OA
BRANCH  26  27
ATOM     27  C   UNL A   1      39.755  22.456  26.872  1.00  0.00     0.338 C 
ATOM     28  O   UNL A   1      40.255  21.503  27.456  1.00  0.00    -0.246 OA
BRANCH  27  29
ATOM     29  C   UNL A   1      40.264  23.837  26.921  1.00  0.00     0.060 A 
ATOM     30  C   UNL A   1      41.468  24.021  27.597  1.00  0.00     0.016 A 
ATOM     31  C   UNL A   1      39.411  24.918  26.640  1.00  0.00     0.016 A 
ATOM     32  C   UNL A   1      41.675  25.227  28.227  1.00  0.00     0.010 A 
ATOM     33  C   UNL A   1      39.612  26.119  27.274  1.00  0.00     0.010 A 
ATOM     34  C   UNL A   1      40.689  26.218  28.144  1.00  0.00    -0.014 A 
BRANCH  34  35
ATOM     35  C   UNL A   1      40.881  27.427  28.910  1.00  0.00     0.031 A 
ATOM     36  C   UNL A   1      41.993  28.236  28.374  1.00  0.00     0.074 A 
ATOM     37  C   UNL A   1      40.087  27.786  29.936  1.00  0.00     0.049 A 
ATOM     38  N   UNL A   1      43.175  28.354  28.878  1.00  0.00    -0.248 NA
ATOM     39  C   UNL A   1      41.866  28.758  27.001  1.00  0.00     0.031 C 
ATOM     40  C   UNL A   1      38.823  27.193  30.373  1.00  0.00     0.029 A 
ATOM     41  N   UNL A   1      40.209  28.858  30.758  1.00  0.00    -0.354 N 
ATOM     42  C   UNL A   1      43.865  29.175  27.999  1.00  0.00     0.074 A 
ATOM     43  C   UNL A   1      43.109  29.178  26.773  1.00  0.00     0.031 C 
ATOM     44  C   UNL A   1      38.180  28.071  31.181  1.00  0.00     0.029 A 
ATOM     45  C   UNL A   1      39.037  29.225  31.406  1.00  0.00     0.049 A 
ATOM     46  H   UNL A   1      41.060  29.338  30.886  1.00  0.00     0.167 HD
ATOM     47  C   UNL A   1      44.829  30.026  28.441  1.00  0.00     0.031 A 
ATOM     48  C   UNL A   1      38.780  30.438  31.968  1.00  0.00     0.031 A 
ATOM     49  C   UNL A   1      45.256  29.697  29.777  1.00  0.00     0.049 A 
ATOM     50  C   UNL A   1      40.100  31.089  32.207  1.00  0.00     0.074 A 
ATOM     51  C   UNL A   1      45.796  28.569  30.364  1.00  0.00     0.029 A 
ATOM     52  N   UNL A   1      44.733  30.452  30.804  1.00  0.00    -0.354 N 
ATOM     53  N   UNL A   1      40.972  30.628  33.063  1.00  0.00    -0.248 NA
ATOM     54  C   UNL A   1      40.658  31.914  31.141  1.00  0.00     0.031 C 
ATOM     55  C   UNL A   1      45.143  28.467  31.626  1.00  0.00     0.029 A 
ATOM     56  C   UNL A   1      44.319  29.583  31.782  1.00  0.00     0.049 A 
ATOM     57  H   UNL A   1      44.669  31.433  30.831  1.00  0.00     0.167 HD
ATOM     58  C   UNL A   1      42.195  30.718  32.412  1.00  0.00     0.074 A 
ATOM     59  C   UNL A   1      41.949  31.586  31.258  1.00  0.00     0.031 C 
ATOM     60  C   UNL A   1      43.214  29.847  32.681  1.00  0.00     0.031 A 
BRANCH  47  61
ATOM     61  C   UNL A   1      45.042  31.389  27.838  1.00  0.00    -0.014 A 
ATOM     62  C   UNL A   1      46.358  31.824  27.598  1.00  0.00     0.010 A 
ATOM     63  C   UNL A   1      44.020  32.359  27.757  1.00  0.00     0.010 A 
ATOM     64  C   UNL A   1      46.638  33.174  27.352  1.00  0.00     0.020 A 
ATOM     65  C   UNL A   1      44.282  33.696  27.467  1.00  0.00     0.020 A 
ATOM     66  C   UNL A   1      45.596  34.101  27.299  1.00  0.00     0.054 A 
BRANCH  66  67
ATOM     67  S   UNL A   1      45.974  35.852  27.068  1.00  0.00     0.124 S 
ATOM     68  O   UNL A   1      46.256  35.911  25.638  1.00  0.00    -0.237 OA
ATOM     69  O   UNL A   1      44.736  36.492  27.501  1.00  0.00    -0.237 OA
ATOM     70  O   UNL A   1      47.123  36.071  27.946  1.00  0.00    -0.744 OA
ENDBRANCH  66  67
ENDBRANCH  47  61
BRANCH  48  71
ATOM     71  C   UNL A   1      37.502  31.206  31.870  1.00  0.00    -0.014 A 
ATOM     72  C   UNL A   1      36.716  31.485  33.007  1.00  0.00     0.010 A 
ATOM     73  C   UNL A   1      37.188  31.911  30.688  1.00  0.00     0.010 A 
ATOM     74  C   UNL A   1      35.721  32.484  32.980  1.00  0.00     0.020 A 
ATOM     75  C   UNL A   1      36.197  32.895  30.649  1.00  0.00     0.020 A 
ATOM     76  C   UNL A   1      35.486  33.203  31.805  1.00  0.00     0.054 A 
BRANCH  76  77
ATOM     77  S   UNL A   1      34.369  34.637  31.817  1.00  0.00     0.124 S 
ATOM     78  O   UNL A   1      35.142  35.629  32.559  1.00  0.00    -0.237 OA
ATOM     79  O   UNL A   1      34.186  34.910  30.395  1.00  0.00    -0.237 OA
ATOM     80  O   UNL A   1      33.178  34.137  32.505  1.00  0.00    -0.744 OA
ENDBRANCH  76  77
ENDBRANCH  48  71
BRANCH  60  81
ATOM     81  C   UNL A   1      43.102  28.930  33.879  1.00  0.00    -0.014 A 
ATOM     82  C   UNL A   1      43.282  29.341  35.215  1.00  0.00     0.010 A 
ATOM     83  C   UNL A   1      42.624  27.630  33.640  1.00  0.00     0.010 A 
ATOM     84  C   UNL A   1      43.019  28.459  36.278  1.00  0.00     0.020 A 
ATOM     85  C   UNL A   1      42.342  26.756  34.691  1.00  0.00     0.020 A 
ATOM     86  C   UNL A   1      42.553  27.169  36.005  1.00  0.00     0.054 A 
BRANCH  86  87
ATOM     87  S   UNL A   1      42.197  26.033  37.375  1.00  0.00     0.124 S 
ATOM     88  O   UNL A   1      43.158  26.451  38.392  1.00  0.00    -0.237 OA
ATOM     89  O   UNL A   1      40.795  26.318  37.677  1.00  0.00    -0.237 OA
ATOM     90  O   UNL A   1      42.440  24.709  36.802  1.00  0.00    -0.744 OA
ENDBRANCH  86  87
ENDBRANCH  60  81
ENDBRANCH  34  35
ENDBRANCH  27  29
ENDBRANCH  26  27
ENDBRANCH  25  26
ENDBRANCH  24  25
ENDBRANCH   1  24
TORSDOF 20
ENDMDL
MODEL 2
REMARK VINA RESULT:     -10.8      2.871      4.308
REMARK SMILES C[C@@H]1C[C@@H](C)CN(C(=O)CCn2cc(C(=O)OCCOCCOC(=O)c3ccc(-c4c5nc(c(-c6ccc(S(=O)(=O)[O-])cc6)c6ccc([nH]6)c(-c6ccc(S(=O)(=O)[O-])cc6)c6nc(c(-c7ccc(S(=O)(=O)[O-])cc7)c7ccc4[nH]7)C=C6)C=C5)cc3)cn2)C1
REMARK SMILES IDX 20 1 19 2 18 3 17 4 15 5 16 6 14 7 12 8 13 9 87 10 86 11
REMARK SMILES IDX 11 12 10 13 8 14 1 15 2 16 3 17 88 18 4 19 7 20 6 21 5 22
REMARK SMILES IDX 9 23 21 24 22 25 23 26 24 27 25 28 26 29 27 30 85 31 28 32
REMARK SMILES IDX 84 33 29 34 30 35 31 36 78 37 32 38 83 39 77 40 79 41 33 42
REMARK SMILES IDX 82 43 76 44 75 45 34 47 64 48 45 49 63 50 46 51 49 52 62 53
REMARK SMILES IDX 80 54 47 55 48 56 61 58 81 59 50 60 35 61 36 62 44 63 37 64
REMARK SMILES IDX 43 65 38 66 39 67 40 68 41 69 42 70 65 71 66 72 74 73 67 74
REMARK SMILES IDX 73 75 68 76 69 77 70 78 71 79 72 80 51 81 52 82 60 83 53 84
REMARK SMILES IDX 59 85 54 86 55 87 56 88 57 89 58 90
REMARK H PARENT 79 46 49 57
REMARK Flexibility Score: inf
ROOT
ATOM      1  O   UNL A   1      41.505  18.971  26.087  1.00  0.00    -0.374 OA
ENDROOT
BRANCH   1   2
ATOM      2  C   UNL A   1      41.139  20.068  26.927  1.00  0.00     0.202 C 
BRANCH   2   3
ATOM      3  C   UNL A   1      40.692  21.331  26.159  1.00  0.00     0.261 C 
BRANCH   3   4
ATOM      4  O   UNL A   1      39.324  21.689  26.474  1.00  0.00    -0.460 OA
BRANCH   4   5
ATOM      5  C   UNL A   1      38.286  21.301  25.672  1.00  0.00     0.341 C 
ATOM      6  O   UNL A   1      38.265  20.269  25.016  1.00  0.00    -0.246 OA
BRANCH   5   7
ATOM      7  C   UNL A   1      37.214  22.298  25.685  1.00  0.00     0.098 A 
ATOM      8  N   UNL A   1      35.393  23.388  25.025  1.00  0.00    -0.271 N 
ATOM      9  C   UNL A   1      35.876  22.137  25.347  1.00  0.00     0.124 A 
ATOM     10  N   UNL A   1      36.202  24.351  25.529  1.00  0.00    -0.181 NA
ATOM     11  C   UNL A   1      37.298  23.686  25.925  1.00  0.00     0.150 A 
BRANCH   8  12
ATOM     12  C   UNL A   1      34.154  23.745  24.313  1.00  0.00     0.154 C 
BRANCH  12  13
ATOM     13  C   UNL A   1      33.795  25.248  24.080  1.00  0.00     0.124 C 
BRANCH  13  14
ATOM     14  C   UNL A   1      32.668  25.800  24.997  1.00  0.00     0.224 C 
ATOM     15  C   UNL A   1      29.748  27.116  23.737  1.00  0.00     0.009 C 
ATOM     16  C   UNL A   1      30.653  28.255  24.241  1.00  0.00     0.006 C 
ATOM     17  C   UNL A   1      31.671  28.799  23.169  1.00  0.00     0.010 C 
ATOM     18  C   UNL A   1      31.331  27.820  25.568  1.00  0.00     0.122 C 
ATOM     19  C   UNL A   1      33.080  28.168  23.258  1.00  0.00     0.006 C 
ATOM     20  N   UNL A   1      32.614  27.177  25.280  1.00  0.00    -0.342 N 
ATOM     21  C   UNL A   1      33.545  28.107  24.693  1.00  0.00     0.122 C 
ATOM     22  C   UNL A   1      34.212  28.568  22.350  1.00  0.00     0.009 C 
ATOM     23  O   UNL A   1      31.802  25.028  25.415  1.00  0.00    -0.275 OA
ENDBRANCH  13  14
ENDBRANCH  12  13
ENDBRANCH   8  12
ENDBRANCH   5   7
ENDBRANCH   4   5
ENDBRANCH   3   4
ENDBRANCH   2   3
ENDBRANCH   1   2
BRANCH   1  24
ATOM     24  C   UNL A   1      42.849  18.508  26.182  1.00  0.00     0.202 C 
BRANCH  24  25
ATOM     25  C   UNL A   1      43.767  18.836  25.006  1.00  0.00     0.261 C 
BRANCH  25  26
ATOM     26  O   UNL A   1      43.854  20.224  24.706  1.00  0.00    -0.460 OA
BRANCH  26  27
ATOM     27  C   UNL A   1      45.057  20.692  24.315  1.00  0.00     0.338 C 
ATOM     28  O   UNL A   1      46.069  20.041  24.093  1.00  0.00    -0.246 OA
BRANCH  27  29
ATOM     29  C   UNL A   1      45.015  22.154  24.485  1.00  0.00     0.060 A 
ATOM     30  C   UNL A   1      46.074  22.718  25.194  1.00  0.00     0.016 A 
ATOM     31  C   UNL A   1      43.817  22.858  24.280  1.00  0.00     0.016 A 
ATOM     32  C   UNL A   1      45.826  23.858  25.925  1.00  0.00     0.010 A 
ATOM     33  C   UNL A   1      43.565  23.991  25.014  1.00  0.00     0.010 A 
ATOM     34  C   UNL A   1      44.539  24.412  25.907  1.00  0.00    -0.014 A 
BRANCH  34  35
ATOM     35  C   UNL A   1      44.278  25.539  26.772  1.00  0.00     0.031 A 
ATOM     36  C   UNL A   1      45.269  26.615  26.574  1.00  0.00     0.074 A 
ATOM     37  C   UNL A   1      43.217  25.606  27.597  1.00  0.00     0.049 A 
ATOM     38  N   UNL A   1      46.251  26.914  27.355  1.00  0.00    -0.248 NA
ATOM     39  C   UNL A   1      45.335  27.254  25.248  1.00  0.00     0.031 C 
ATOM     40  C   UNL A   1      42.055  24.721  27.676  1.00  0.00     0.029 A 
ATOM     41  N   UNL A   1      42.907  26.578  28.491  1.00  0.00    -0.354 N 
ATOM     42  C   UNL A   1      46.915  27.954  26.724  1.00  0.00     0.074 A 
ATOM     43  C   UNL A   1      46.469  27.944  25.354  1.00  0.00     0.031 C 
ATOM     44  C   UNL A   1      41.067  25.349  28.360  1.00  0.00     0.029 A 
ATOM     45  C   UNL A   1      41.569  26.621  28.858  1.00  0.00     0.049 A 
ATOM     46  H   UNL A   1      43.577  27.204  28.851  1.00  0.00     0.167 HD
ATOM     47  C   UNL A   1      47.539  28.928  27.439  1.00  0.00     0.031 A 
ATOM     48  C   UNL A   1      40.925  27.682  29.418  1.00  0.00     0.031 A 
ATOM     49  C   UNL A   1      47.722  28.541  28.815  1.00  0.00     0.049 A 
ATOM     50  C   UNL A   1      41.978  28.557  30.010  1.00  0.00     0.074 A 
ATOM     51  C   UNL A   1      48.359  27.487  29.442  1.00  0.00     0.029 A 
ATOM     52  N   UNL A   1      46.827  29.049  29.732  1.00  0.00    -0.354 N 
ATOM     53  N   UNL A   1      42.719  28.189  31.020  1.00  0.00    -0.248 NA
ATOM     54  C   UNL A   1      42.557  29.596  29.166  1.00  0.00     0.031 C 
ATOM     55  C   UNL A   1      47.483  27.109  30.499  1.00  0.00     0.029 A 
ATOM     56  C   UNL A   1      46.414  28.007  30.522  1.00  0.00     0.049 A 
ATOM     57  H   UNL A   1      46.539  29.987  29.805  1.00  0.00     0.167 HD
ATOM     58  C   UNL A   1      44.003  28.602  30.691  1.00  0.00     0.074 A 
ATOM     59  C   UNL A   1      43.829  29.528  29.571  1.00  0.00     0.031 C 
ATOM     60  C   UNL A   1      45.107  27.933  31.143  1.00  0.00     0.031 A 
BRANCH  47  61
ATOM     61  C   UNL A   1      47.566  30.366  26.994  1.00  0.00    -0.014 A 
ATOM     62  C   UNL A   1      48.759  31.096  27.141  1.00  0.00     0.010 A 
ATOM     63  C   UNL A   1      46.396  31.098  26.698  1.00  0.00     0.010 A 
ATOM     64  C   UNL A   1      48.764  32.494  27.058  1.00  0.00     0.020 A 
ATOM     65  C   UNL A   1      46.398  32.484  26.565  1.00  0.00     0.020 A 
ATOM     66  C   UNL A   1      47.579  33.177  26.779  1.00  0.00     0.054 A 
BRANCH  66  67
ATOM     67  S   UNL A   1      47.578  34.983  26.759  1.00  0.00     0.124 S 
ATOM     68  O   UNL A   1      47.997  35.267  25.390  1.00  0.00    -0.237 OA
ATOM     69  O   UNL A   1      46.186  35.291  27.076  1.00  0.00    -0.237 OA
ATOM     70  O   UNL A   1      48.542  35.337  27.799  1.00  0.00    -0.744 OA
ENDBRANCH  66  67
ENDBRANCH  47  61
BRANCH  48  71
ATOM     71  C   UNL A   1      39.561  28.177  29.063  1.00  0.00    -0.014 A 
ATOM     72  C   UNL A   1      38.518  28.219  30.011  1.00  0.00     0.010 A 
ATOM     73  C   UNL A   1      39.355  28.876  27.854  1.00  0.00     0.010 A 
ATOM     74  C   UNL A   1      37.361  28.994  29.791  1.00  0.00     0.020 A 
ATOM     75  C   UNL A   1      38.206  29.638  27.623  1.00  0.00     0.020 A 
ATOM     76  C   UNL A   1      37.225  29.722  28.605  1.00  0.00     0.054 A 
BRANCH  76  77
ATOM     77  S   UNL A   1      35.850  30.895  28.405  1.00  0.00     0.124 S 
ATOM     78  O   UNL A   1      36.499  32.028  27.753  1.00  0.00    -0.237 OA
ATOM     79  O   UNL A   1      34.908  30.143  27.581  1.00  0.00    -0.237 OA
ATOM     80  O   UNL A   1      35.406  31.139  29.778  1.00  0.00    -0.744 OA
ENDBRANCH  76  77
ENDBRANCH  48  71
BRANCH  60  81
ATOM     81  C   UNL A   1      44.942  26.881  32.217  1.00  0.00    -0.014 A 
ATOM     82  C   UNL A   1      45.016  27.138  33.601  1.00  0.00     0.010 A 
ATOM     83  C   UNL A   1      44.523  25.606  31.797  1.00  0.00     0.010 A 
ATOM     84  C   UNL A   1      44.710  26.132  34.534  1.00  0.00     0.020 A 
ATOM     85  C   UNL A   1      44.198  24.609  32.717  1.00  0.00     0.020 A 
ATOM     86  C   UNL A   1      44.305  24.872  34.082  1.00  0.00     0.054 A 
BRANCH  86  87
ATOM     87  S   UNL A   1      43.892  23.575  35.284  1.00  0.00     0.124 S 
ATOM     88  O   UNL A   1      44.341  22.362  34.607  1.00  0.00    -0.237 OA
ATOM     89  O   UNL A   1      44.666  23.965  36.461  1.00  0.00    -0.237 OA
ATOM     90  O   UNL A   1      42.442  23.695  35.440  1.00  0.00    -0.744 OA
ENDBRANCH  86  87
ENDBRANCH  60  81
ENDBRANCH  34  35
ENDBRANCH  27  29
ENDBRANCH  26  27
ENDBRANCH  25  26
ENDBRANCH  24  25
ENDBRANCH   1  24
TORSDOF 20
ENDMDL
MODEL 3
REMARK VINA RESULT:     -10.8      2.553      9.647
REMARK SMILES C[C@@H]1C[C@@H](C)CN(C(=O)CCn2cc(C(=O)OCCOCCOC(=O)c3ccc(-c4c5nc(c(-c6ccc(S(=O)(=O)[O-])cc6)c6ccc([nH]6)c(-c6ccc(S(=O)(=O)[O-])cc6)c6nc(c(-c7ccc(S(=O)(=O)[O-])cc7)c7ccc4[nH]7)C=C6)C=C5)cc3)cn2)C1
REMARK SMILES IDX 20 1 19 2 18 3 17 4 15 5 16 6 14 7 12 8 13 9 87 10 86 11
REMARK SMILES IDX 11 12 10 13 8 14 1 15 2 16 3 17 88 18 4 19 7 20 6 21 5 22
REMARK SMILES IDX 9 23 21 24 22 25 23 26 24 27 25 28 26 29 27 30 85 31 28 32
REMARK SMILES IDX 84 33 29 34 30 35 31 36 78 37 32 38 83 39 77 40 79 41 33 42
REMARK SMILES IDX 82 43 76 44 75 45 34 47 64 48 45 49 63 50 46 51 49 52 62 53
REMARK SMILES IDX 80 54 47 55 48 56 61 58 81 59 50 60 35 61 36 62 44 63 37 64
REMARK SMILES IDX 43 65 38 66 39 67 40 68 41 69 42 70 65 71 66 72 74 73 67 74
REMARK SMILES IDX 73 75 68 76 69 77 70 78 71 79 72 80 51 81 52 82 60 83 53 84
REMARK SMILES IDX 59 85 54 86 55 87 56 88 57 89 58 90
REMARK H PARENT 79 46 49 57
REMARK Flexibility Score: inf
ROOT
ATOM      1  O   UNL A   1      33.690  35.784  30.233  1.00  0.00    -0.374 OA
ENDROOT
BRANCH   1   2
ATOM      2  C   UNL A   1      32.968  35.440  29.048  1.00  0.00     0.202 C 
BRANCH   2   3
ATOM      3  C   UNL A   1      33.762  34.561  28.056  1.00  0.00     0.261 C 
BRANCH   3   4
ATOM      4  O   UNL A   1      34.053  33.258  28.617  1.00  0.00    -0.460 OA
BRANCH   4   5
ATOM      5  C   UNL A   1      35.113  32.515  28.174  1.00  0.00     0.341 C 
ATOM      6  O   UNL A   1      36.275  32.894  28.180  1.00  0.00    -0.246 OA
BRANCH   5   7
ATOM      7  C   UNL A   1      34.666  31.214  27.670  1.00  0.00     0.098 A 
ATOM      8  N   UNL A   1      33.306  29.500  27.287  1.00  0.00    -0.271 N 
ATOM      9  C   UNL A   1      33.426  30.866  27.148  1.00  0.00     0.124 A 
ATOM     10  N   UNL A   1      34.523  28.933  27.470  1.00  0.00    -0.181 NA
ATOM     11  C   UNL A   1      35.338  29.975  27.700  1.00  0.00     0.150 A 
BRANCH   8  12
ATOM     12  C   UNL A   1      32.096  28.664  27.190  1.00  0.00     0.154 C 
BRANCH  12  13
ATOM     13  C   UNL A   1      31.874  27.758  25.936  1.00  0.00     0.124 C 
BRANCH  13  14
ATOM     14  C   UNL A   1      32.333  26.282  26.107  1.00  0.00     0.224 C 
ATOM     15  C   UNL A   1      33.041  24.251  23.420  1.00  0.00     0.009 C 
ATOM     16  C   UNL A   1      31.684  23.852  24.027  1.00  0.00     0.006 C 
ATOM     17  C   UNL A   1      30.452  24.641  23.443  1.00  0.00     0.010 C 
ATOM     18  C   UNL A   1      31.777  23.915  25.575  1.00  0.00     0.122 C 
ATOM     19  C   UNL A   1      30.027  25.864  24.289  1.00  0.00     0.006 C 
ATOM     20  N   UNL A   1      31.384  25.247  26.040  1.00  0.00    -0.342 N 
ATOM     21  C   UNL A   1      29.995  25.510  25.756  1.00  0.00     0.122 C 
ATOM     22  C   UNL A   1      28.855  26.737  23.928  1.00  0.00     0.009 C 
ATOM     23  O   UNL A   1      33.535  26.039  26.241  1.00  0.00    -0.275 OA
ENDBRANCH  13  14
ENDBRANCH  12  13
ENDBRANCH   8  12
ENDBRANCH   5   7
ENDBRANCH   4   5
ENDBRANCH   3   4
ENDBRANCH   2   3
ENDBRANCH   1   2
BRANCH   1  24
ATOM     24  C   UNL A   1      32.967  35.744  31.460  1.00  0.00     0.202 C 
BRANCH  24  25
ATOM     25  C   UNL A   1      33.505  34.804  32.537  1.00  0.00     0.261 C 
BRANCH  25  26
ATOM     26  O   UNL A   1      34.030  33.582  32.033  1.00  0.00    -0.460 OA
BRANCH  26  27
ATOM     27  C   UNL A   1      34.995  32.983  32.760  1.00  0.00     0.338 C 
ATOM     28  O   UNL A   1      35.159  33.049  33.971  1.00  0.00    -0.246 OA
BRANCH  27  29
ATOM     29  C   UNL A   1      35.987  32.469  31.801  1.00  0.00     0.060 A 
ATOM     30  C   UNL A   1      35.886  31.117  31.482  1.00  0.00     0.016 A 
ATOM     31  C   UNL A   1      37.160  33.197  31.536  1.00  0.00     0.016 A 
ATOM     32  C   UNL A   1      37.043  30.443  31.161  1.00  0.00     0.010 A 
ATOM     33  C   UNL A   1      38.316  32.525  31.224  1.00  0.00     0.010 A 
ATOM     34  C   UNL A   1      38.257  31.141  31.146  1.00  0.00    -0.014 A 
BRANCH  34  35
ATOM     35  C   UNL A   1      39.467  30.385  30.921  1.00  0.00     0.031 A 
ATOM     36  C   UNL A   1      40.205  30.156  32.179  1.00  0.00     0.074 A 
ATOM     37  C   UNL A   1      39.820  29.898  29.717  1.00  0.00     0.049 A 
ATOM     38  N   UNL A   1      41.278  30.759  32.564  1.00  0.00    -0.248 NA
ATOM     39  C   UNL A   1      39.541  29.368  33.233  1.00  0.00     0.031 C 
ATOM     40  C   UNL A   1      39.041  29.848  28.479  1.00  0.00     0.029 A 
ATOM     41  N   UNL A   1      40.954  29.233  29.378  1.00  0.00    -0.354 N 
ATOM     42  C   UNL A   1      41.559  30.236  33.818  1.00  0.00     0.074 A 
ATOM     43  C   UNL A   1      40.349  29.595  34.267  1.00  0.00     0.031 C 
ATOM     44  C   UNL A   1      39.614  28.957  27.634  1.00  0.00     0.029 A 
ATOM     45  C   UNL A   1      40.851  28.469  28.223  1.00  0.00     0.049 A 
ATOM     46  H   UNL A   1      41.781  29.287  29.909  1.00  0.00     0.167 HD
ATOM     47  C   UNL A   1      42.840  30.102  34.253  1.00  0.00     0.031 A 
ATOM     48  C   UNL A   1      41.670  27.441  27.869  1.00  0.00     0.031 A 
ATOM     49  C   UNL A   1      43.757  30.872  33.451  1.00  0.00     0.049 A 
ATOM     50  C   UNL A   1      42.933  27.612  28.644  1.00  0.00     0.074 A 
ATOM     51  C   UNL A   1      43.865  32.212  33.133  1.00  0.00     0.029 A 
ATOM     52  N   UNL A   1      44.474  30.191  32.493  1.00  0.00    -0.354 N 
ATOM     53  N   UNL A   1      43.746  28.617  28.458  1.00  0.00    -0.248 NA
ATOM     54  C   UNL A   1      43.021  26.980  29.955  1.00  0.00     0.031 C 
ATOM     55  C   UNL A   1      44.213  32.231  31.752  1.00  0.00     0.029 A 
ATOM     56  C   UNL A   1      44.393  30.913  31.329  1.00  0.00     0.049 A 
ATOM     57  H   UNL A   1      44.955  29.342  32.619  1.00  0.00     0.167 HD
ATOM     58  C   UNL A   1      44.110  29.023  29.735  1.00  0.00     0.074 A 
ATOM     59  C   UNL A   1      43.690  27.931  30.616  1.00  0.00     0.031 C 
ATOM     60  C   UNL A   1      44.435  30.323  30.007  1.00  0.00     0.031 A 
BRANCH  47  61
ATOM     61  C   UNL A   1      43.288  28.941  35.102  1.00  0.00    -0.014 A 
ATOM     62  C   UNL A   1      43.981  29.206  36.297  1.00  0.00     0.010 A 
ATOM     63  C   UNL A   1      43.298  27.609  34.634  1.00  0.00     0.010 A 
ATOM     64  C   UNL A   1      44.698  28.197  36.953  1.00  0.00     0.020 A 
ATOM     65  C   UNL A   1      43.968  26.589  35.304  1.00  0.00     0.020 A 
ATOM     66  C   UNL A   1      44.693  26.898  36.444  1.00  0.00     0.054 A 
BRANCH  66  67
ATOM     67  S   UNL A   1      45.690  25.624  37.247  1.00  0.00     0.124 S 
ATOM     68  O   UNL A   1      46.974  26.301  37.398  1.00  0.00    -0.237 OA
ATOM     69  O   UNL A   1      44.946  25.386  38.481  1.00  0.00    -0.237 OA
ATOM     70  O   UNL A   1      45.669  24.520  36.290  1.00  0.00    -0.744 OA
ENDBRANCH  66  67
ENDBRANCH  47  61
BRANCH  48  71
ATOM     71  C   UNL A   1      41.246  26.132  27.286  1.00  0.00    -0.014 A 
ATOM     72  C   UNL A   1      42.049  25.440  26.357  1.00  0.00     0.010 A 
ATOM     73  C   UNL A   1      40.168  25.420  27.855  1.00  0.00     0.010 A 
ATOM     74  C   UNL A   1      41.833  24.074  26.078  1.00  0.00     0.020 A 
ATOM     75  C   UNL A   1      39.939  24.069  27.576  1.00  0.00     0.020 A 
ATOM     76  C   UNL A   1      40.792  23.390  26.712  1.00  0.00     0.054 A 
BRANCH  76  77
ATOM     77  S   UNL A   1      40.640  21.587  26.534  1.00  0.00     0.124 S 
ATOM     78  O   UNL A   1      40.688  21.131  27.920  1.00  0.00    -0.237 OA
ATOM     79  O   UNL A   1      39.353  21.441  25.862  1.00  0.00    -0.237 OA
ATOM     80  O   UNL A   1      41.802  21.225  25.721  1.00  0.00    -0.744 OA
ENDBRANCH  76  77
ENDBRANCH  48  71
BRANCH  60  81
ATOM     81  C   UNL A   1      44.646  31.284  28.858  1.00  0.00    -0.014 A 
ATOM     82  C   UNL A   1      43.684  32.211  28.408  1.00  0.00     0.010 A 
ATOM     83  C   UNL A   1      45.945  31.361  28.327  1.00  0.00     0.010 A 
ATOM     84  C   UNL A   1      44.011  33.165  27.429  1.00  0.00     0.020 A 
ATOM     85  C   UNL A   1      46.282  32.319  27.370  1.00  0.00     0.020 A 
ATOM     86  C   UNL A   1      45.310  33.209  26.915  1.00  0.00     0.054 A 
BRANCH  86  87
ATOM     87  S   UNL A   1      45.741  34.450  25.663  1.00  0.00     0.124 S 
ATOM     88  O   UNL A   1      44.945  34.031  24.513  1.00  0.00    -0.237 OA
ATOM     89  O   UNL A   1      45.328  35.703  26.293  1.00  0.00    -0.237 OA
ATOM     90  O   UNL A   1      47.187  34.295  25.502  1.00  0.00    -0.744 OA
ENDBRANCH  86  87
ENDBRANCH  60  81
ENDBRANCH  34  35
ENDBRANCH  27  29
ENDBRANCH  26  27
ENDBRANCH  25  26
ENDBRANCH  24  25
ENDBRANCH   1  24
TORSDOF 20
ENDMDL
