MODEL 1
REMARK VINA RESULT:     -10.9      0.000      0.000
REMARK SMILES Nc1c(N2CCCC2)ncnc1N1CCC(C(=O)OCCOCCOC(=O)c2ccc(-c3c4nc(c(-c5ccc(S(=O)(=O)[O-])cc5)c5ccc([nH]5)c(-c5ccc(S(=O)(=O)[O-])cc5)c5nc(c(-c6ccc(S(=O)(=O)[O-])cc6)c6ccc3[nH]6)C=C5)C=C4)cc2)CC1
REMARK SMILES IDX 23 1 22 2 21 3 20 4 19 5 17 6 18 7 16 8 13 9 14 10 89 11
REMARK SMILES IDX 15 12 88 13 12 14 2 15 3 16 9 17 11 18 10 19 1 20 4 23 5 24
REMARK SMILES IDX 8 25 6 26 7 27 24 28 25 29 26 30 27 31 28 32 29 33 87 34
REMARK SMILES IDX 30 35 86 36 31 37 32 38 33 39 80 40 34 41 85 42 79 43 81 44
REMARK SMILES IDX 35 45 84 46 78 47 77 48 36 50 66 51 47 52 65 53 48 54 51 55
REMARK SMILES IDX 64 56 82 57 49 58 50 59 63 61 83 62 52 63 37 64 38 65 46 66
REMARK SMILES IDX 39 67 45 68 40 69 41 70 42 71 43 72 44 73 67 74 68 75 76 76
REMARK SMILES IDX 69 77 75 78 70 79 71 80 72 81 73 82 74 83 53 84 54 85 62 86
REMARK SMILES IDX 55 87 61 88 56 89 57 90 58 91 59 92 60 93
REMARK H PARENT 1 21 1 22 81 49 51 60
REMARK Flexibility Score: inf
ROOT
ATOM      1  C   UNL A   1      34.275  32.302  28.256  1.00  0.00     0.202 C 
ENDROOT
BRANCH   1   2
ATOM      2  O   UNL A   1      34.295  30.898  28.001  1.00  0.00    -0.374 OA
BRANCH   2   3
ATOM      3  C   UNL A   1      33.442  30.400  26.972  1.00  0.00     0.202 C 
BRANCH   3   4
ATOM      4  C   UNL A   1      33.855  29.085  26.307  1.00  0.00     0.261 C 
BRANCH   4   5
ATOM      5  O   UNL A   1      33.158  27.963  26.873  1.00  0.00    -0.463 OA
BRANCH   5   6
ATOM      6  C   UNL A   1      32.457  27.210  25.991  1.00  0.00     0.309 C 
ATOM      7  O   UNL A   1      31.795  27.646  25.055  1.00  0.00    -0.252 OA
BRANCH   6   8
ATOM      8  C   UNL A   1      32.554  25.731  26.267  1.00  0.00     0.103 C 
ATOM      9  N   UNL A   1      32.725  22.915  25.947  1.00  0.00    -0.355 N 
ATOM     10  C   UNL A   1      31.540  23.467  26.589  1.00  0.00     0.119 C 
ATOM     11  C   UNL A   1      33.939  23.722  25.829  1.00  0.00     0.119 C 
ATOM     12  C   UNL A   1      31.271  24.904  26.144  1.00  0.00     0.037 C 
ATOM     13  C   UNL A   1      33.621  25.132  25.361  1.00  0.00     0.037 C 
BRANCH   9  14
ATOM     14  C   UNL A   1      32.568  21.859  25.047  1.00  0.00     0.157 A 
ATOM     15  C   UNL A   1      32.938  20.558  25.431  1.00  0.00     0.118 A 
ATOM     16  C   UNL A   1      32.884  19.566  24.440  1.00  0.00     0.157 A 
ATOM     17  N   UNL A   1      32.515  19.848  23.181  1.00  0.00    -0.217 NA
ATOM     18  N   UNL A   1      32.121  22.133  23.810  1.00  0.00    -0.217 NA
ATOM     19  C   UNL A   1      32.132  21.112  22.941  1.00  0.00     0.226 A 
BRANCH  15  20
ATOM     20  N   UNL A   1      33.299  20.256  26.759  1.00  0.00    -0.393 N 
ATOM     21  H   UNL A   1      34.184  20.516  27.100  1.00  0.00     0.156 HD
ATOM     22  H   UNL A   1      32.664  19.783  27.346  1.00  0.00     0.156 HD
ENDBRANCH  15  20
BRANCH  16  23
ATOM     23  N   UNL A   1      33.284  18.281  24.740  1.00  0.00    -0.355 N 
ATOM     24  C   UNL A   1      32.405  17.314  25.364  1.00  0.00     0.118 C 
ATOM     25  C   UNL A   1      34.349  17.631  23.999  1.00  0.00     0.118 C 
ATOM     26  C   UNL A   1      33.407  16.239  25.764  1.00  0.00     0.023 C 
ATOM     27  C   UNL A   1      34.368  16.206  24.575  1.00  0.00     0.023 C 
ENDBRANCH  16  23
ENDBRANCH   9  14
ENDBRANCH   6   8
ENDBRANCH   5   6
ENDBRANCH   4   5
ENDBRANCH   3   4
ENDBRANCH   2   3
ENDBRANCH   1   2
BRANCH   1  28
ATOM     28  C   UNL A   1      34.819  32.774  29.611  1.00  0.00     0.261 C 
BRANCH  28  29
ATOM     29  O   UNL A   1      36.226  32.511  29.765  1.00  0.00    -0.460 OA
BRANCH  29  30
ATOM     30  C   UNL A   1      36.520  31.518  30.638  1.00  0.00     0.338 C 
ATOM     31  O   UNL A   1      35.875  31.190  31.628  1.00  0.00    -0.246 OA
BRANCH  30  32
ATOM     32  C   UNL A   1      37.651  30.715  30.141  1.00  0.00     0.060 A 
ATOM     33  C   UNL A   1      38.574  30.249  31.088  1.00  0.00     0.016 A 
ATOM     34  C   UNL A   1      37.864  30.506  28.778  1.00  0.00     0.016 A 
ATOM     35  C   UNL A   1      39.741  29.615  30.671  1.00  0.00     0.010 A 
ATOM     36  C   UNL A   1      39.045  29.880  28.361  1.00  0.00     0.010 A 
ATOM     37  C   UNL A   1      40.004  29.469  29.303  1.00  0.00    -0.014 A 
BRANCH  37  38
ATOM     38  C   UNL A   1      41.356  29.038  28.876  1.00  0.00     0.031 A 
ATOM     39  C   UNL A   1      42.483  30.035  28.905  1.00  0.00     0.074 A 
ATOM     40  C   UNL A   1      41.594  27.762  28.521  1.00  0.00     0.049 A 
ATOM     41  N   UNL A   1      43.747  29.863  28.616  1.00  0.00    -0.248 NA
ATOM     42  C   UNL A   1      42.138  31.403  29.321  1.00  0.00     0.031 C 
ATOM     43  C   UNL A   1      40.597  26.695  28.499  1.00  0.00     0.029 A 
ATOM     44  N   UNL A   1      42.755  27.152  28.119  1.00  0.00    -0.354 N 
ATOM     45  C   UNL A   1      44.349  31.100  28.810  1.00  0.00     0.074 A 
ATOM     46  C   UNL A   1      43.306  32.020  29.213  1.00  0.00     0.031 C 
ATOM     47  C   UNL A   1      41.191  25.556  28.105  1.00  0.00     0.029 A 
ATOM     48  C   UNL A   1      42.601  25.821  27.822  1.00  0.00     0.049 A 
ATOM     49  H   UNL A   1      43.617  27.624  28.051  1.00  0.00     0.167 HD
ATOM     50  C   UNL A   1      45.652  31.442  28.670  1.00  0.00     0.031 A 
ATOM     51  C   UNL A   1      43.491  24.919  27.362  1.00  0.00     0.031 A 
ATOM     52  C   UNL A   1      46.683  30.532  28.249  1.00  0.00     0.049 A 
ATOM     53  C   UNL A   1      44.919  25.334  27.137  1.00  0.00     0.074 A 
ATOM     54  C   UNL A   1      48.036  30.778  28.097  1.00  0.00     0.029 A 
ATOM     55  N   UNL A   1      46.473  29.208  27.893  1.00  0.00    -0.354 N 
ATOM     56  N   UNL A   1      45.480  26.501  27.354  1.00  0.00    -0.248 NA
ATOM     57  C   UNL A   1      45.836  24.313  26.609  1.00  0.00     0.031 C 
ATOM     58  C   UNL A   1      48.635  29.618  27.591  1.00  0.00     0.029 A 
ATOM     59  C   UNL A   1      47.665  28.633  27.484  1.00  0.00     0.049 A 
ATOM     60  H   UNL A   1      45.606  28.745  27.926  1.00  0.00     0.167 HD
ATOM     61  C   UNL A   1      46.817  26.352  26.999  1.00  0.00     0.074 A 
ATOM     62  C   UNL A   1      46.983  24.978  26.568  1.00  0.00     0.031 C 
ATOM     63  C   UNL A   1      47.815  27.271  27.033  1.00  0.00     0.031 A 
BRANCH  50  64
ATOM     64  C   UNL A   1      46.018  32.878  28.934  1.00  0.00    -0.014 A 
ATOM     65  C   UNL A   1      46.431  33.305  30.209  1.00  0.00     0.010 A 
ATOM     66  C   UNL A   1      45.950  33.814  27.887  1.00  0.00     0.010 A 
ATOM     67  C   UNL A   1      46.719  34.652  30.445  1.00  0.00     0.020 A 
ATOM     68  C   UNL A   1      46.261  35.158  28.112  1.00  0.00     0.020 A 
ATOM     69  C   UNL A   1      46.624  35.572  29.396  1.00  0.00     0.054 A 
BRANCH  69  70
ATOM     70  S   UNL A   1      46.990  37.317  29.730  1.00  0.00     0.124 S 
ATOM     71  O   UNL A   1      45.758  37.971  29.294  1.00  0.00    -0.237 OA
ATOM     72  O   UNL A   1      47.227  37.323  31.171  1.00  0.00    -0.237 OA
ATOM     73  O   UNL A   1      48.165  37.590  28.907  1.00  0.00    -0.744 OA
ENDBRANCH  69  70
ENDBRANCH  50  64
BRANCH  51  74
ATOM     74  C   UNL A   1      43.034  23.531  27.085  1.00  0.00    -0.014 A 
ATOM     75  C   UNL A   1      42.690  23.138  25.780  1.00  0.00     0.010 A 
ATOM     76  C   UNL A   1      43.023  22.573  28.116  1.00  0.00     0.010 A 
ATOM     77  C   UNL A   1      42.365  21.806  25.508  1.00  0.00     0.020 A 
ATOM     78  C   UNL A   1      42.719  21.236  27.843  1.00  0.00     0.020 A 
ATOM     79  C   UNL A   1      42.397  20.860  26.538  1.00  0.00     0.054 A 
BRANCH  79  80
ATOM     80  S   UNL A   1      42.092  19.117  26.133  1.00  0.00     0.124 S 
ATOM     81  O   UNL A   1      42.442  18.447  27.381  1.00  0.00    -0.237 OA
ATOM     82  O   UNL A   1      40.671  19.120  25.792  1.00  0.00    -0.237 OA
ATOM     83  O   UNL A   1      42.992  18.864  25.010  1.00  0.00    -0.744 OA
ENDBRANCH  79  80
ENDBRANCH  51  74
BRANCH  63  84
ATOM     84  C   UNL A   1      49.184  26.832  26.586  1.00  0.00    -0.014 A 
ATOM     85  C   UNL A   1      50.040  26.136  27.457  1.00  0.00     0.010 A 
ATOM     86  C   UNL A   1      49.585  27.043  25.254  1.00  0.00     0.010 A 
ATOM     87  C   UNL A   1      51.281  25.675  27.009  1.00  0.00     0.020 A 
ATOM     88  C   UNL A   1      50.816  26.562  24.795  1.00  0.00     0.020 A 
ATOM     89  C   UNL A   1      51.660  25.888  25.679  1.00  0.00     0.054 A 
BRANCH  89  90
ATOM     90  S   UNL A   1      53.251  25.228  25.109  1.00  0.00     0.124 S 
ATOM     91  O   UNL A   1      53.257  25.620  23.703  1.00  0.00    -0.237 OA
ATOM     92  O   UNL A   1      54.211  25.927  25.961  1.00  0.00    -0.237 OA
ATOM     93  O   UNL A   1      53.139  23.792  25.356  1.00  0.00    -0.744 OA
ENDBRANCH  89  90
ENDBRANCH  63  84
ENDBRANCH  37  38
ENDBRANCH  30  32
ENDBRANCH  29  30
ENDBRANCH  28  29
ENDBRANCH   1  28
TORSDOF 20
ENDMDL
MODEL 2
REMARK VINA RESULT:     -10.6      6.665     12.544
REMARK SMILES Nc1c(N2CCCC2)ncnc1N1CCC(C(=O)OCCOCCOC(=O)c2ccc(-c3c4nc(c(-c5ccc(S(=O)(=O)[O-])cc5)c5ccc([nH]5)c(-c5ccc(S(=O)(=O)[O-])cc5)c5nc(c(-c6ccc(S(=O)(=O)[O-])cc6)c6ccc3[nH]6)C=C5)C=C4)cc2)CC1
REMARK SMILES IDX 23 1 22 2 21 3 20 4 19 5 17 6 18 7 16 8 13 9 14 10 89 11
REMARK SMILES IDX 15 12 88 13 12 14 2 15 3 16 9 17 11 18 10 19 1 20 4 23 5 24
REMARK SMILES IDX 8 25 6 26 7 27 24 28 25 29 26 30 27 31 28 32 29 33 87 34
REMARK SMILES IDX 30 35 86 36 31 37 32 38 33 39 80 40 34 41 85 42 79 43 81 44
REMARK SMILES IDX 35 45 84 46 78 47 77 48 36 50 66 51 47 52 65 53 48 54 51 55
REMARK SMILES IDX 64 56 82 57 49 58 50 59 63 61 83 62 52 63 37 64 38 65 46 66
REMARK SMILES IDX 39 67 45 68 40 69 41 70 42 71 43 72 44 73 67 74 68 75 76 76
REMARK SMILES IDX 69 77 75 78 70 79 71 80 72 81 73 82 74 83 53 84 54 85 62 86
REMARK SMILES IDX 55 87 61 88 56 89 57 90 58 91 59 92 60 93
REMARK H PARENT 1 21 1 22 81 49 51 60
REMARK Flexibility Score: inf
ROOT
ATOM      1  C   UNL A   1      39.768  21.988  26.617  1.00  0.00     0.202 C 
ENDROOT
BRANCH   1   2
ATOM      2  O   UNL A   1      38.767  21.780  25.623  1.00  0.00    -0.374 OA
BRANCH   2   3
ATOM      3  C   UNL A   1      37.634  22.647  25.631  1.00  0.00     0.202 C 
BRANCH   3   4
ATOM      4  C   UNL A   1      36.281  22.023  25.287  1.00  0.00     0.261 C 
BRANCH   4   5
ATOM      5  O   UNL A   1      35.329  23.016  24.871  1.00  0.00    -0.463 OA
BRANCH   5   6
ATOM      6  C   UNL A   1      34.668  23.642  25.873  1.00  0.00     0.309 C 
ATOM      7  O   UNL A   1      34.526  23.206  27.011  1.00  0.00    -0.252 OA
BRANCH   6   8
ATOM      8  C   UNL A   1      34.089  24.972  25.461  1.00  0.00     0.103 C 
ATOM      9  N   UNL A   1      32.298  27.017  24.641  1.00  0.00    -0.355 N 
ATOM     10  C   UNL A   1      33.375  26.638  23.737  1.00  0.00     0.119 C 
ATOM     11  C   UNL A   1      32.364  26.651  26.055  1.00  0.00     0.119 C 
ATOM     12  C   UNL A   1      33.831  25.198  23.969  1.00  0.00     0.037 C 
ATOM     13  C   UNL A   1      32.796  25.205  26.231  1.00  0.00     0.037 C 
BRANCH   9  14
ATOM     14  C   UNL A   1      31.036  27.278  24.105  1.00  0.00     0.157 A 
ATOM     15  C   UNL A   1      30.723  28.576  23.663  1.00  0.00     0.118 A 
ATOM     16  C   UNL A   1      29.399  28.807  23.262  1.00  0.00     0.157 A 
ATOM     17  N   UNL A   1      28.469  27.840  23.315  1.00  0.00    -0.217 NA
ATOM     18  N   UNL A   1      30.131  26.285  24.085  1.00  0.00    -0.217 NA
ATOM     19  C   UNL A   1      28.892  26.626  23.703  1.00  0.00     0.226 A 
BRANCH  15  20
ATOM     20  N   UNL A   1      31.705  29.583  23.581  1.00  0.00    -0.393 N 
ATOM     21  H   UNL A   1      31.641  30.382  24.153  1.00  0.00     0.156 HD
ATOM     22  H   UNL A   1      32.456  29.488  22.950  1.00  0.00     0.156 HD
ENDBRANCH  15  20
BRANCH  16  23
ATOM     23  N   UNL A   1      29.016  30.071  22.867  1.00  0.00    -0.355 N 
ATOM     24  C   UNL A   1      28.920  30.461  21.476  1.00  0.00     0.118 C 
ATOM     25  C   UNL A   1      28.179  30.903  23.712  1.00  0.00     0.118 C 
ATOM     26  C   UNL A   1      28.806  31.973  21.614  1.00  0.00     0.023 C 
ATOM     27  C   UNL A   1      27.908  32.140  22.841  1.00  0.00     0.023 C 
ENDBRANCH  16  23
ENDBRANCH   9  14
ENDBRANCH   6   8
ENDBRANCH   5   6
ENDBRANCH   4   5
ENDBRANCH   3   4
ENDBRANCH   2   3
ENDBRANCH   1   2
BRANCH   1  28
ATOM     28  C   UNL A   1      40.566  23.297  26.543  1.00  0.00     0.261 C 
BRANCH  28  29
ATOM     29  O   UNL A   1      39.993  24.341  27.352  1.00  0.00    -0.460 OA
BRANCH  29  30
ATOM     30  C   UNL A   1      40.346  25.595  26.986  1.00  0.00     0.338 C 
ATOM     31  O   UNL A   1      40.739  25.959  25.882  1.00  0.00    -0.246 OA
BRANCH  30  32
ATOM     32  C   UNL A   1      40.012  26.556  28.052  1.00  0.00     0.060 A 
ATOM     33  C   UNL A   1      40.680  27.788  28.039  1.00  0.00     0.016 A 
ATOM     34  C   UNL A   1      39.146  26.227  29.095  1.00  0.00     0.016 A 
ATOM     35  C   UNL A   1      40.523  28.677  29.099  1.00  0.00     0.010 A 
ATOM     36  C   UNL A   1      39.000  27.118  30.166  1.00  0.00     0.010 A 
ATOM     37  C   UNL A   1      39.718  28.326  30.189  1.00  0.00    -0.014 A 
BRANCH  37  38
ATOM     38  C   UNL A   1      39.770  29.157  31.416  1.00  0.00     0.031 A 
ATOM     39  C   UNL A   1      40.900  28.951  32.389  1.00  0.00     0.074 A 
ATOM     40  C   UNL A   1      38.860  30.122  31.635  1.00  0.00     0.049 A 
ATOM     41  N   UNL A   1      41.164  29.591  33.498  1.00  0.00    -0.248 NA
ATOM     42  C   UNL A   1      41.860  27.884  32.063  1.00  0.00     0.031 C 
ATOM     43  C   UNL A   1      37.750  30.450  30.744  1.00  0.00     0.029 A 
ATOM     44  N   UNL A   1      38.735  31.008  32.676  1.00  0.00    -0.354 N 
ATOM     45  C   UNL A   1      42.316  29.005  34.006  1.00  0.00     0.074 A 
ATOM     46  C   UNL A   1      42.684  27.939  33.099  1.00  0.00     0.031 C 
ATOM     47  C   UNL A   1      37.054  31.470  31.276  1.00  0.00     0.029 A 
ATOM     48  C   UNL A   1      37.655  31.846  32.556  1.00  0.00     0.049 A 
ATOM     49  H   UNL A   1      39.361  31.040  33.435  1.00  0.00     0.167 HD
ATOM     50  C   UNL A   1      43.010  29.327  35.124  1.00  0.00     0.031 A 
ATOM     51  C   UNL A   1      37.193  32.802  33.387  1.00  0.00     0.031 A 
ATOM     52  C   UNL A   1      42.631  30.373  36.036  1.00  0.00     0.049 A 
ATOM     53  C   UNL A   1      37.932  33.094  34.664  1.00  0.00     0.074 A 
ATOM     54  C   UNL A   1      43.280  30.789  37.184  1.00  0.00     0.029 A 
ATOM     55  N   UNL A   1      41.492  31.155  35.913  1.00  0.00    -0.354 N 
ATOM     56  N   UNL A   1      39.038  32.552  35.116  1.00  0.00    -0.248 NA
ATOM     57  C   UNL A   1      37.365  34.128  35.542  1.00  0.00     0.031 C 
ATOM     58  C   UNL A   1      42.502  31.783  37.789  1.00  0.00     0.029 A 
ATOM     59  C   UNL A   1      41.398  32.026  36.985  1.00  0.00     0.049 A 
ATOM     60  H   UNL A   1      40.846  31.100  35.172  1.00  0.00     0.167 HD
ATOM     61  C   UNL A   1      39.305  33.185  36.326  1.00  0.00     0.074 A 
ATOM     62  C   UNL A   1      38.253  34.161  36.527  1.00  0.00     0.031 C 
ATOM     63  C   UNL A   1      40.333  32.977  37.188  1.00  0.00     0.031 A 
BRANCH  50  64
ATOM     64  C   UNL A   1      44.226  28.498  35.439  1.00  0.00    -0.014 A 
ATOM     65  C   UNL A   1      45.513  28.905  35.041  1.00  0.00     0.010 A 
ATOM     66  C   UNL A   1      44.079  27.294  36.150  1.00  0.00     0.010 A 
ATOM     67  C   UNL A   1      46.623  28.097  35.301  1.00  0.00     0.020 A 
ATOM     68  C   UNL A   1      45.190  26.494  36.435  1.00  0.00     0.020 A 
ATOM     69  C   UNL A   1      46.452  26.891  35.989  1.00  0.00     0.054 A 
BRANCH  69  70
ATOM     70  S   UNL A   1      47.907  25.854  36.303  1.00  0.00     0.124 S 
ATOM     71  O   UNL A   1      47.410  24.526  35.950  1.00  0.00    -0.237 OA
ATOM     72  O   UNL A   1      48.902  26.414  35.392  1.00  0.00    -0.237 OA
ATOM     73  O   UNL A   1      48.180  26.059  37.723  1.00  0.00    -0.744 OA
ENDBRANCH  69  70
ENDBRANCH  50  64
BRANCH  51  74
ATOM     74  C   UNL A   1      35.958  33.544  33.019  1.00  0.00    -0.014 A 
ATOM     75  C   UNL A   1      34.697  33.083  33.434  1.00  0.00     0.010 A 
ATOM     76  C   UNL A   1      36.048  34.762  32.321  1.00  0.00     0.010 A 
ATOM     77  C   UNL A   1      33.550  33.840  33.177  1.00  0.00     0.020 A 
ATOM     78  C   UNL A   1      34.906  35.532  32.081  1.00  0.00     0.020 A 
ATOM     79  C   UNL A   1      33.663  35.067  32.515  1.00  0.00     0.054 A 
BRANCH  79  80
ATOM     80  S   UNL A   1      32.177  36.087  32.305  1.00  0.00     0.124 S 
ATOM     81  O   UNL A   1      32.346  37.093  33.348  1.00  0.00    -0.237 OA
ATOM     82  O   UNL A   1      32.320  36.568  30.933  1.00  0.00    -0.237 OA
ATOM     83  O   UNL A   1      31.081  35.143  32.514  1.00  0.00    -0.744 OA
ENDBRANCH  79  80
ENDBRANCH  51  74
BRANCH  63  84
ATOM     84  C   UNL A   1      40.375  33.814  38.438  1.00  0.00    -0.014 A 
ATOM     85  C   UNL A   1      39.792  33.359  39.634  1.00  0.00     0.010 A 
ATOM     86  C   UNL A   1      41.081  35.032  38.440  1.00  0.00     0.010 A 
ATOM     87  C   UNL A   1      39.898  34.116  40.805  1.00  0.00     0.020 A 
ATOM     88  C   UNL A   1      41.210  35.780  39.615  1.00  0.00     0.020 A 
ATOM     89  C   UNL A   1      40.609  35.320  40.789  1.00  0.00     0.054 A 
BRANCH  89  90
ATOM     90  S   UNL A   1      40.780  36.253  42.335  1.00  0.00     0.124 S 
ATOM     91  O   UNL A   1      39.651  37.175  42.262  1.00  0.00    -0.237 OA
ATOM     92  O   UNL A   1      40.673  35.208  43.352  1.00  0.00    -0.237 OA
ATOM     93  O   UNL A   1      42.099  36.871  42.224  1.00  0.00    -0.744 OA
ENDBRANCH  89  90
ENDBRANCH  63  84
ENDBRANCH  37  38
ENDBRANCH  30  32
ENDBRANCH  29  30
ENDBRANCH  28  29
ENDBRANCH   1  28
TORSDOF 20
ENDMDL
MODEL 3
REMARK VINA RESULT:     -10.4      1.273      8.170
REMARK SMILES Nc1c(N2CCCC2)ncnc1N1CCC(C(=O)OCCOCCOC(=O)c2ccc(-c3c4nc(c(-c5ccc(S(=O)(=O)[O-])cc5)c5ccc([nH]5)c(-c5ccc(S(=O)(=O)[O-])cc5)c5nc(c(-c6ccc(S(=O)(=O)[O-])cc6)c6ccc3[nH]6)C=C5)C=C4)cc2)CC1
REMARK SMILES IDX 23 1 22 2 21 3 20 4 19 5 17 6 18 7 16 8 13 9 14 10 89 11
REMARK SMILES IDX 15 12 88 13 12 14 2 15 3 16 9 17 11 18 10 19 1 20 4 23 5 24
REMARK SMILES IDX 8 25 6 26 7 27 24 28 25 29 26 30 27 31 28 32 29 33 87 34
REMARK SMILES IDX 30 35 86 36 31 37 32 38 33 39 80 40 34 41 85 42 79 43 81 44
REMARK SMILES IDX 35 45 84 46 78 47 77 48 36 50 66 51 47 52 65 53 48 54 51 55
REMARK SMILES IDX 64 56 82 57 49 58 50 59 63 61 83 62 52 63 37 64 38 65 46 66
REMARK SMILES IDX 39 67 45 68 40 69 41 70 42 71 43 72 44 73 67 74 68 75 76 76
REMARK SMILES IDX 69 77 75 78 70 79 71 80 72 81 73 82 74 83 53 84 54 85 62 86
REMARK SMILES IDX 55 87 61 88 56 89 57 90 58 91 59 92 60 93
REMARK H PARENT 1 21 1 22 81 49 51 60
REMARK Flexibility Score: inf
ROOT
ATOM      1  C   UNL A   1      34.113  31.584  27.955  1.00  0.00     0.202 C 
ENDROOT
BRANCH   1   2
ATOM      2  O   UNL A   1      33.428  30.388  27.589  1.00  0.00    -0.374 OA
BRANCH   2   3
ATOM      3  C   UNL A   1      32.474  30.468  26.531  1.00  0.00     0.202 C 
BRANCH   3   4
ATOM      4  C   UNL A   1      31.982  29.145  25.941  1.00  0.00     0.261 C 
BRANCH   4   5
ATOM      5  O   UNL A   1      32.977  28.114  26.046  1.00  0.00    -0.463 OA
BRANCH   5   6
ATOM      6  C   UNL A   1      33.472  27.662  24.869  1.00  0.00     0.309 C 
ATOM      7  O   UNL A   1      34.130  28.326  24.074  1.00  0.00    -0.252 OA
BRANCH   6   8
ATOM      8  C   UNL A   1      33.129  26.219  24.597  1.00  0.00     0.103 C 
ATOM      9  N   UNL A   1      33.227  23.385  24.457  1.00  0.00    -0.355 N 
ATOM     10  C   UNL A   1      33.240  24.139  23.211  1.00  0.00     0.119 C 
ATOM     11  C   UNL A   1      32.788  24.024  25.697  1.00  0.00     0.119 C 
ATOM     12  C   UNL A   1      33.811  25.544  23.404  1.00  0.00     0.037 C 
ATOM     13  C   UNL A   1      33.403  25.405  25.853  1.00  0.00     0.037 C 
BRANCH   9  14
ATOM     14  C   UNL A   1      34.055  22.267  24.570  1.00  0.00     0.157 A 
ATOM     15  C   UNL A   1      33.504  20.979  24.453  1.00  0.00     0.118 A 
ATOM     16  C   UNL A   1      34.360  19.897  24.710  1.00  0.00     0.157 A 
ATOM     17  N   UNL A   1      35.640  20.084  25.071  1.00  0.00    -0.217 NA
ATOM     18  N   UNL A   1      35.355  22.459  24.851  1.00  0.00    -0.217 NA
ATOM     19  C   UNL A   1      36.072  21.354  25.100  1.00  0.00     0.226 A 
BRANCH  15  20
ATOM     20  N   UNL A   1      32.168  20.782  24.048  1.00  0.00    -0.393 N 
ATOM     21  H   UNL A   1      31.930  20.836  23.095  1.00  0.00     0.156 HD
ATOM     22  H   UNL A   1      31.473  20.591  24.720  1.00  0.00     0.156 HD
ENDBRANCH  15  20
BRANCH  16  23
ATOM     23  N   UNL A   1      33.866  18.611  24.663  1.00  0.00    -0.355 N 
ATOM     24  C   UNL A   1      34.612  17.508  24.095  1.00  0.00     0.118 C 
ATOM     25  C   UNL A   1      32.876  18.148  25.618  1.00  0.00     0.118 C 
ATOM     26  C   UNL A   1      33.519  16.453  23.990  1.00  0.00     0.023 C 
ATOM     27  C   UNL A   1      32.718  16.658  25.276  1.00  0.00     0.023 C 
ENDBRANCH  16  23
ENDBRANCH   9  14
ENDBRANCH   6   8
ENDBRANCH   5   6
ENDBRANCH   4   5
ENDBRANCH   3   4
ENDBRANCH   2   3
ENDBRANCH   1   2
BRANCH   1  28
ATOM     28  C   UNL A   1      35.336  31.438  28.871  1.00  0.00     0.261 C 
BRANCH  28  29
ATOM     29  O   UNL A   1      35.934  30.131  28.790  1.00  0.00    -0.460 OA
BRANCH  29  30
ATOM     30  C   UNL A   1      36.673  29.782  29.870  1.00  0.00     0.338 C 
ATOM     31  O   UNL A   1      36.259  29.322  30.929  1.00  0.00    -0.246 OA
BRANCH  30  32
ATOM     32  C   UNL A   1      38.110  29.840  29.553  1.00  0.00     0.060 A 
ATOM     33  C   UNL A   1      38.478  29.704  28.207  1.00  0.00     0.016 A 
ATOM     34  C   UNL A   1      39.082  29.924  30.551  1.00  0.00     0.016 A 
ATOM     35  C   UNL A   1      39.822  29.600  27.859  1.00  0.00     0.010 A 
ATOM     36  C   UNL A   1      40.432  29.806  30.199  1.00  0.00     0.010 A 
ATOM     37  C   UNL A   1      40.803  29.604  28.858  1.00  0.00    -0.014 A 
BRANCH  37  38
ATOM     38  C   UNL A   1      42.192  29.229  28.500  1.00  0.00     0.031 A 
ATOM     39  C   UNL A   1      42.483  27.808  28.098  1.00  0.00     0.074 A 
ATOM     40  C   UNL A   1      43.170  30.151  28.475  1.00  0.00     0.049 A 
ATOM     41  N   UNL A   1      43.611  27.274  27.708  1.00  0.00    -0.248 NA
ATOM     42  C   UNL A   1      41.351  26.869  28.138  1.00  0.00     0.031 C 
ATOM     43  C   UNL A   1      43.002  31.566  28.796  1.00  0.00     0.029 A 
ATOM     44  N   UNL A   1      44.500  30.029  28.157  1.00  0.00    -0.354 N 
ATOM     45  C   UNL A   1      43.328  25.937  27.459  1.00  0.00     0.074 A 
ATOM     46  C   UNL A   1      41.929  25.735  27.771  1.00  0.00     0.031 C 
ATOM     47  C   UNL A   1      44.187  32.185  28.656  1.00  0.00     0.029 A 
ATOM     48  C   UNL A   1      45.199  31.205  28.263  1.00  0.00     0.049 A 
ATOM     49  H   UNL A   1      44.912  29.179  27.878  1.00  0.00     0.167 HD
ATOM     50  C   UNL A   1      44.155  24.964  27.007  1.00  0.00     0.031 A 
ATOM     51  C   UNL A   1      46.509  31.464  28.077  1.00  0.00     0.031 A 
ATOM     52  C   UNL A   1      45.550  25.161  26.718  1.00  0.00     0.049 A 
ATOM     53  C   UNL A   1      47.431  30.353  27.650  1.00  0.00     0.074 A 
ATOM     54  C   UNL A   1      46.466  24.243  26.237  1.00  0.00     0.029 A 
ATOM     55  N   UNL A   1      46.235  26.352  26.903  1.00  0.00    -0.354 N 
ATOM     56  N   UNL A   1      47.142  29.100  27.389  1.00  0.00    -0.248 NA
ATOM     57  C   UNL A   1      48.852  30.691  27.489  1.00  0.00     0.031 C 
ATOM     58  C   UNL A   1      47.720  24.863  26.187  1.00  0.00     0.029 A 
ATOM     59  C   UNL A   1      47.572  26.184  26.581  1.00  0.00     0.049 A 
ATOM     60  H   UNL A   1      45.832  27.194  27.215  1.00  0.00     0.167 HD
ATOM     61  C   UNL A   1      48.343  28.502  27.023  1.00  0.00     0.074 A 
ATOM     62  C   UNL A   1      49.359  29.534  27.082  1.00  0.00     0.031 C 
ATOM     63  C   UNL A   1      48.580  27.213  26.667  1.00  0.00     0.031 A 
BRANCH  50  64
ATOM     64  C   UNL A   1      43.571  23.586  26.845  1.00  0.00    -0.014 A 
ATOM     65  C   UNL A   1      43.024  22.890  27.939  1.00  0.00     0.010 A 
ATOM     66  C   UNL A   1      43.566  22.980  25.576  1.00  0.00     0.010 A 
ATOM     67  C   UNL A   1      42.531  21.593  27.776  1.00  0.00     0.020 A 
ATOM     68  C   UNL A   1      43.051  21.692  25.404  1.00  0.00     0.020 A 
ATOM     69  C   UNL A   1      42.555  20.998  26.510  1.00  0.00     0.054 A 
BRANCH  69  70
ATOM     70  S   UNL A   1      41.921  19.309  26.328  1.00  0.00     0.124 S 
ATOM     71  O   UNL A   1      42.406  18.673  27.552  1.00  0.00    -0.237 OA
ATOM     72  O   UNL A   1      40.477  19.515  26.258  1.00  0.00    -0.237 OA
ATOM     73  O   UNL A   1      42.541  18.836  25.094  1.00  0.00    -0.744 OA
ENDBRANCH  69  70
ENDBRANCH  50  64
BRANCH  51  74
ATOM     74  C   UNL A   1      47.012  32.845  28.301  1.00  0.00    -0.014 A 
ATOM     75  C   UNL A   1      47.503  33.231  29.560  1.00  0.00     0.010 A 
ATOM     76  C   UNL A   1      47.077  33.754  27.230  1.00  0.00     0.010 A 
ATOM     77  C   UNL A   1      48.072  34.496  29.737  1.00  0.00     0.020 A 
ATOM     78  C   UNL A   1      47.665  35.012  27.397  1.00  0.00     0.020 A 
ATOM     79  C   UNL A   1      48.164  35.373  28.651  1.00  0.00     0.054 A 
BRANCH  79  80
ATOM     80  S   UNL A   1      49.018  36.958  28.877  1.00  0.00     0.124 S 
ATOM     81  O   UNL A   1      48.831  37.205  30.303  1.00  0.00    -0.237 OA
ATOM     82  O   UNL A   1      50.382  36.639  28.463  1.00  0.00    -0.237 OA
ATOM     83  O   UNL A   1      48.301  37.865  27.983  1.00  0.00    -0.744 OA
ENDBRANCH  79  80
ENDBRANCH  51  74
BRANCH  63  84
ATOM     84  C   UNL A   1      49.994  26.834  26.316  1.00  0.00    -0.014 A 
ATOM     85  C   UNL A   1      50.839  26.236  27.267  1.00  0.00     0.010 A 
ATOM     86  C   UNL A   1      50.455  26.999  24.997  1.00  0.00     0.010 A 
ATOM     87  C   UNL A   1      52.127  25.827  26.910  1.00  0.00     0.020 A 
ATOM     88  C   UNL A   1      51.733  26.569  24.630  1.00  0.00     0.020 A 
ATOM     89  C   UNL A   1      52.565  25.993  25.592  1.00  0.00     0.054 A 
BRANCH  89  90
ATOM     90  S   UNL A   1      54.219  25.400  25.141  1.00  0.00     0.124 S 
ATOM     91  O   UNL A   1      54.509  26.183  23.944  1.00  0.00    -0.237 OA
ATOM     92  O   UNL A   1      55.013  25.739  26.321  1.00  0.00    -0.237 OA
ATOM     93  O   UNL A   1      54.027  23.969  24.919  1.00  0.00    -0.744 OA
ENDBRANCH  89  90
ENDBRANCH  63  84
ENDBRANCH  37  38
ENDBRANCH  30  32
ENDBRANCH  29  30
ENDBRANCH  28  29
ENDBRANCH   1  28
TORSDOF 20
ENDMDL
