MODEL 1
REMARK VINA RESULT:     -11.1      0.000      0.000
REMARK SMILES CC1(C)S[C@H](c2ccc(-c3ccccc3)o2)[NH2+][C@H]1C(=O)OCCOCCOC(=O)c1ccc(-c2c3nc(c(-c4ccc(S(=O)(=O)[O-])cc4)c4ccc([nH]4)c(-c4ccc(S(=O)(=O)[O-])cc4)c4nc(c(-c5ccc(S(=O)(=O)[O-])cc5)c5ccc2[nH]5)C=C4)C=C3)cc1
REMARK SMILES IDX 25 1 24 2 23 3 22 4 21 5 19 6 20 7 18 8 1 9 2 10 3 11 4 12
REMARK SMILES IDX 5 13 17 14 6 17 7 18 16 19 8 20 9 21 10 22 11 23 15 24 12 25
REMARK SMILES IDX 14 26 13 27 26 28 27 29 28 30 29 31 30 32 31 33 89 34 32 35
REMARK SMILES IDX 88 36 33 37 34 38 35 39 82 40 36 41 87 42 81 43 83 44 37 45
REMARK SMILES IDX 86 46 80 47 79 48 38 50 68 51 49 52 67 53 50 54 53 55 66 56
REMARK SMILES IDX 84 57 51 58 52 59 65 61 85 62 54 63 39 64 40 65 48 66 41 67
REMARK SMILES IDX 47 68 42 69 43 70 44 71 45 72 46 73 69 74 70 75 78 76 71 77
REMARK SMILES IDX 77 78 72 79 73 80 74 81 75 82 76 83 55 84 56 85 64 86 57 87
REMARK SMILES IDX 63 88 58 89 59 90 60 91 61 92 62 93
REMARK H PARENT 17 15 17 16 83 49 53 60
REMARK Flexibility Score: inf
ROOT
ATOM      1  C   UNL A   1      40.022  22.569  26.969  1.00  0.00     0.202 C 
ENDROOT
BRANCH   1   2
ATOM      2  O   UNL A   1      39.496  21.899  25.828  1.00  0.00    -0.374 OA
BRANCH   2   3
ATOM      3  C   UNL A   1      38.072  21.852  25.720  1.00  0.00     0.202 C 
BRANCH   3   4
ATOM      4  C   UNL A   1      37.357  23.187  25.474  1.00  0.00     0.261 C 
BRANCH   4   5
ATOM      5  O   UNL A   1      35.946  23.018  25.218  1.00  0.00    -0.459 OA
BRANCH   5   6
ATOM      6  C   UNL A   1      35.521  23.362  23.971  1.00  0.00     0.366 C 
ATOM      7  O   UNL A   1      36.204  23.264  22.957  1.00  0.00    -0.245 OA
BRANCH   6   8
ATOM      8  C   UNL A   1      34.076  23.878  23.955  1.00  0.00     0.310 C 
ATOM      9  C   UNL A   1      32.954  21.496  24.016  1.00  0.00     0.030 C 
ATOM     10  C   UNL A   1      32.958  22.924  23.458  1.00  0.00     0.079 C 
ATOM     11  C   UNL A   1      32.828  22.928  21.931  1.00  0.00     0.030 C 
ATOM     12  S   UNL A   1      31.436  23.715  24.131  1.00  0.00    -0.078 SA
ATOM     13  C   UNL A   1      32.342  24.901  25.171  1.00  0.00     0.311 C 
ATOM     14  N   UNL A   1      33.709  24.390  25.300  1.00  0.00    -0.316 N 
ATOM     15  H   UNL A   1      33.744  23.638  25.988  1.00  0.00     0.348 HD
ATOM     16  H   UNL A   1      34.353  25.115  25.615  1.00  0.00     0.348 HD
BRANCH  13  17
ATOM     17  C   UNL A   1      32.229  26.285  24.593  1.00  0.00     0.172 A 
ATOM     18  C   UNL A   1      33.196  27.163  24.135  1.00  0.00     0.054 A 
ATOM     19  O   UNL A   1      30.990  26.859  24.446  1.00  0.00    -0.454 OA
ATOM     20  C   UNL A   1      32.519  28.308  23.665  1.00  0.00     0.051 A 
ATOM     21  C   UNL A   1      31.175  28.080  23.866  1.00  0.00     0.134 A 
BRANCH  21  22
ATOM     22  C   UNL A   1      29.990  28.855  23.541  1.00  0.00     0.017 A 
ATOM     23  C   UNL A   1      28.825  28.244  23.062  1.00  0.00     0.012 A 
ATOM     24  C   UNL A   1      29.983  30.236  23.784  1.00  0.00     0.012 A 
ATOM     25  C   UNL A   1      27.665  29.000  22.861  1.00  0.00     0.001 A 
ATOM     26  C   UNL A   1      28.829  30.992  23.570  1.00  0.00     0.001 A 
ATOM     27  C   UNL A   1      27.666  30.372  23.119  1.00  0.00     0.000 A 
ENDBRANCH  21  22
ENDBRANCH  13  17
ENDBRANCH   6   8
ENDBRANCH   5   6
ENDBRANCH   4   5
ENDBRANCH   3   4
ENDBRANCH   2   3
ENDBRANCH   1   2
BRANCH   1  28
ATOM     28  C   UNL A   1      40.816  23.854  26.707  1.00  0.00     0.261 C 
BRANCH  28  29
ATOM     29  O   UNL A   1      39.945  24.982  26.512  1.00  0.00    -0.460 OA
BRANCH  29  30
ATOM     30  C   UNL A   1      40.587  26.172  26.460  1.00  0.00     0.338 C 
ATOM     31  O   UNL A   1      41.255  26.603  25.531  1.00  0.00    -0.246 OA
BRANCH  30  32
ATOM     32  C   UNL A   1      40.219  27.002  27.624  1.00  0.00     0.060 A 
ATOM     33  C   UNL A   1      40.736  28.302  27.663  1.00  0.00     0.016 A 
ATOM     34  C   UNL A   1      39.436  26.518  28.677  1.00  0.00     0.016 A 
ATOM     35  C   UNL A   1      40.545  29.095  28.789  1.00  0.00     0.010 A 
ATOM     36  C   UNL A   1      39.244  27.318  29.809  1.00  0.00     0.010 A 
ATOM     37  C   UNL A   1      39.841  28.590  29.889  1.00  0.00    -0.014 A 
BRANCH  37  38
ATOM     38  C   UNL A   1      39.886  29.333  31.173  1.00  0.00     0.031 A 
ATOM     39  C   UNL A   1      41.015  29.059  32.131  1.00  0.00     0.074 A 
ATOM     40  C   UNL A   1      38.979  30.287  31.448  1.00  0.00     0.049 A 
ATOM     41  N   UNL A   1      41.273  29.615  33.287  1.00  0.00    -0.248 NA
ATOM     42  C   UNL A   1      41.982  28.021  31.736  1.00  0.00     0.031 C 
ATOM     43  C   UNL A   1      37.868  30.673  30.578  1.00  0.00     0.029 A 
ATOM     44  N   UNL A   1      38.857  31.112  32.537  1.00  0.00    -0.354 N 
ATOM     45  C   UNL A   1      42.424  28.992  33.758  1.00  0.00     0.074 A 
ATOM     46  C   UNL A   1      42.793  27.990  32.783  1.00  0.00     0.031 C 
ATOM     47  C   UNL A   1      37.179  31.666  31.167  1.00  0.00     0.029 A 
ATOM     48  C   UNL A   1      37.780  31.963  32.465  1.00  0.00     0.049 A 
ATOM     49  H   UNL A   1      39.482  31.098  33.297  1.00  0.00     0.167 HD
ATOM     50  C   UNL A   1      43.118  29.238  34.895  1.00  0.00     0.031 A 
ATOM     51  C   UNL A   1      37.323  32.869  33.352  1.00  0.00     0.031 A 
ATOM     52  C   UNL A   1      42.741  30.230  35.868  1.00  0.00     0.049 A 
ATOM     53  C   UNL A   1      38.073  33.078  34.643  1.00  0.00     0.074 A 
ATOM     54  C   UNL A   1      43.386  30.568  37.045  1.00  0.00     0.029 A 
ATOM     55  N   UNL A   1      41.617  31.038  35.781  1.00  0.00    -0.354 N 
ATOM     56  N   UNL A   1      39.174  32.499  35.060  1.00  0.00    -0.248 NA
ATOM     57  C   UNL A   1      37.524  34.073  35.575  1.00  0.00     0.031 C 
ATOM     58  C   UNL A   1      42.616  31.534  37.702  1.00  0.00     0.029 A 
ATOM     59  C   UNL A   1      41.532  31.852  36.898  1.00  0.00     0.049 A 
ATOM     60  H   UNL A   1      40.975  31.033  35.035  1.00  0.00     0.167 HD
ATOM     61  C   UNL A   1      39.466  33.081  36.290  1.00  0.00     0.074 A 
ATOM     62  C   UNL A   1      38.434  34.068  36.538  1.00  0.00     0.031 C 
ATOM     63  C   UNL A   1      40.496  32.826  37.136  1.00  0.00     0.031 A 
BRANCH  50  64
ATOM     64  C   UNL A   1      44.336  28.393  35.167  1.00  0.00    -0.014 A 
ATOM     65  C   UNL A   1      45.617  28.792  34.742  1.00  0.00     0.010 A 
ATOM     66  C   UNL A   1      44.202  27.195  35.893  1.00  0.00     0.010 A 
ATOM     67  C   UNL A   1      46.732  27.992  35.005  1.00  0.00     0.020 A 
ATOM     68  C   UNL A   1      45.319  26.406  36.185  1.00  0.00     0.020 A 
ATOM     69  C   UNL A   1      46.575  26.803  35.725  1.00  0.00     0.054 A 
BRANCH  69  70
ATOM     70  S   UNL A   1      48.043  25.796  36.072  1.00  0.00     0.124 S 
ATOM     71  O   UNL A   1      48.350  25.245  34.754  1.00  0.00    -0.237 OA
ATOM     72  O   UNL A   1      48.995  26.782  36.577  1.00  0.00    -0.237 OA
ATOM     73  O   UNL A   1      47.575  24.825  37.057  1.00  0.00    -0.744 OA
ENDBRANCH  69  70
ENDBRANCH  50  64
BRANCH  51  74
ATOM     74  C   UNL A   1      36.082  33.638  33.056  1.00  0.00    -0.014 A 
ATOM     75  C   UNL A   1      34.812  33.081  33.287  1.00  0.00     0.010 A 
ATOM     76  C   UNL A   1      36.168  34.944  32.537  1.00  0.00     0.010 A 
ATOM     77  C   UNL A   1      33.654  33.806  32.991  1.00  0.00     0.020 A 
ATOM     78  C   UNL A   1      35.015  35.684  32.269  1.00  0.00     0.020 A 
ATOM     79  C   UNL A   1      33.764  35.106  32.487  1.00  0.00     0.054 A 
BRANCH  79  80
ATOM     80  S   UNL A   1      32.248  36.049  32.159  1.00  0.00     0.124 S 
ATOM     81  O   UNL A   1      32.470  37.262  32.938  1.00  0.00    -0.237 OA
ATOM     82  O   UNL A   1      32.287  36.210  30.708  1.00  0.00    -0.237 OA
ATOM     83  O   UNL A   1      31.187  35.172  32.652  1.00  0.00    -0.744 OA
ENDBRANCH  79  80
ENDBRANCH  51  74
BRANCH  63  84
ATOM     84  C   UNL A   1      40.582  33.651  38.394  1.00  0.00    -0.014 A 
ATOM     85  C   UNL A   1      41.301  34.860  38.431  1.00  0.00     0.010 A 
ATOM     86  C   UNL A   1      39.894  33.230  39.547  1.00  0.00     0.010 A 
ATOM     87  C   UNL A   1      41.365  35.609  39.610  1.00  0.00     0.020 A 
ATOM     88  C   UNL A   1      39.927  33.992  40.717  1.00  0.00     0.020 A 
ATOM     89  C   UNL A   1      40.678  35.168  40.747  1.00  0.00     0.054 A 
BRANCH  89  90
ATOM     90  S   UNL A   1      40.754  36.171  42.255  1.00  0.00     0.124 S 
ATOM     91  O   UNL A   1      41.698  35.416  43.075  1.00  0.00    -0.237 OA
ATOM     92  O   UNL A   1      41.241  37.457  41.760  1.00  0.00    -0.237 OA
ATOM     93  O   UNL A   1      39.376  36.177  42.738  1.00  0.00    -0.744 OA
ENDBRANCH  89  90
ENDBRANCH  63  84
ENDBRANCH  37  38
ENDBRANCH  30  32
ENDBRANCH  29  30
ENDBRANCH  28  29
ENDBRANCH   1  28
TORSDOF 19
ENDMDL
MODEL 2
REMARK VINA RESULT:     -11.1      6.853     12.795
REMARK SMILES CC1(C)S[C@H](c2ccc(-c3ccccc3)o2)[NH2+][C@H]1C(=O)OCCOCCOC(=O)c1ccc(-c2c3nc(c(-c4ccc(S(=O)(=O)[O-])cc4)c4ccc([nH]4)c(-c4ccc(S(=O)(=O)[O-])cc4)c4nc(c(-c5ccc(S(=O)(=O)[O-])cc5)c5ccc2[nH]5)C=C4)C=C3)cc1
REMARK SMILES IDX 25 1 24 2 23 3 22 4 21 5 19 6 20 7 18 8 1 9 2 10 3 11 4 12
REMARK SMILES IDX 5 13 17 14 6 17 7 18 16 19 8 20 9 21 10 22 11 23 15 24 12 25
REMARK SMILES IDX 14 26 13 27 26 28 27 29 28 30 29 31 30 32 31 33 89 34 32 35
REMARK SMILES IDX 88 36 33 37 34 38 35 39 82 40 36 41 87 42 81 43 83 44 37 45
REMARK SMILES IDX 86 46 80 47 79 48 38 50 68 51 49 52 67 53 50 54 53 55 66 56
REMARK SMILES IDX 84 57 51 58 52 59 65 61 85 62 54 63 39 64 40 65 48 66 41 67
REMARK SMILES IDX 47 68 42 69 43 70 44 71 45 72 46 73 69 74 70 75 78 76 71 77
REMARK SMILES IDX 77 78 72 79 73 80 74 81 75 82 76 83 55 84 56 85 64 86 57 87
REMARK SMILES IDX 63 88 58 89 59 90 60 91 61 92 62 93
REMARK H PARENT 17 15 17 16 83 49 53 60
REMARK Flexibility Score: inf
ROOT
ATOM      1  C   UNL A   1      34.166  31.158  27.895  1.00  0.00     0.202 C 
ENDROOT
BRANCH   1   2
ATOM      2  O   UNL A   1      33.665  29.932  27.372  1.00  0.00    -0.374 OA
BRANCH   2   3
ATOM      3  C   UNL A   1      32.368  29.981  26.772  1.00  0.00     0.202 C 
BRANCH   3   4
ATOM      4  C   UNL A   1      31.962  28.775  25.914  1.00  0.00     0.261 C 
BRANCH   4   5
ATOM      5  O   UNL A   1      32.278  27.516  26.548  1.00  0.00    -0.459 OA
BRANCH   5   6
ATOM      6  C   UNL A   1      31.501  26.457  26.191  1.00  0.00     0.366 C 
ATOM      7  O   UNL A   1      30.326  26.323  26.515  1.00  0.00    -0.245 OA
BRANCH   6   8
ATOM      8  C   UNL A   1      32.245  25.438  25.319  1.00  0.00     0.310 C 
ATOM      9  C   UNL A   1      32.056  26.824  23.088  1.00  0.00     0.030 C 
ATOM     10  C   UNL A   1      32.002  25.461  23.787  1.00  0.00     0.079 C 
ATOM     11  C   UNL A   1      30.748  24.677  23.386  1.00  0.00     0.030 C 
ATOM     12  S   UNL A   1      33.453  24.525  23.142  1.00  0.00    -0.078 SA
ATOM     13  C   UNL A   1      34.320  24.491  24.741  1.00  0.00     0.311 C 
ATOM     14  N   UNL A   1      33.706  25.527  25.576  1.00  0.00    -0.316 N 
ATOM     15  H   UNL A   1      34.057  26.448  25.314  1.00  0.00     0.348 HD
ATOM     16  H   UNL A   1      33.923  25.392  26.563  1.00  0.00     0.348 HD
BRANCH  13  17
ATOM     17  C   UNL A   1      34.285  23.102  25.317  1.00  0.00     0.172 A 
ATOM     18  C   UNL A   1      34.410  22.653  26.620  1.00  0.00     0.054 A 
ATOM     19  O   UNL A   1      34.091  22.027  24.483  1.00  0.00    -0.454 OA
ATOM     20  C   UNL A   1      34.259  21.250  26.585  1.00  0.00     0.051 A 
ATOM     21  C   UNL A   1      34.060  20.910  25.265  1.00  0.00     0.134 A 
BRANCH  21  22
ATOM     22  C   UNL A   1      33.791  19.641  24.609  1.00  0.00     0.017 A 
ATOM     23  C   UNL A   1      32.629  19.438  23.858  1.00  0.00     0.012 A 
ATOM     24  C   UNL A   1      34.752  18.621  24.664  1.00  0.00     0.012 A 
ATOM     25  C   UNL A   1      32.448  18.245  23.149  1.00  0.00     0.001 A 
ATOM     26  C   UNL A   1      34.565  17.426  23.968  1.00  0.00     0.001 A 
ATOM     27  C   UNL A   1      33.417  17.242  23.200  1.00  0.00     0.000 A 
ENDBRANCH  21  22
ENDBRANCH  13  17
ENDBRANCH   6   8
ENDBRANCH   5   6
ENDBRANCH   4   5
ENDBRANCH   3   4
ENDBRANCH   2   3
ENDBRANCH   1   2
BRANCH   1  28
ATOM     28  C   UNL A   1      35.473  31.081  28.694  1.00  0.00     0.261 C 
BRANCH  28  29
ATOM     29  O   UNL A   1      36.075  29.779  28.597  1.00  0.00    -0.460 OA
BRANCH  29  30
ATOM     30  C   UNL A   1      36.960  29.506  29.585  1.00  0.00     0.338 C 
ATOM     31  O   UNL A   1      36.728  29.467  30.785  1.00  0.00    -0.246 OA
BRANCH  30  32
ATOM     32  C   UNL A   1      38.244  29.060  29.010  1.00  0.00     0.060 A 
ATOM     33  C   UNL A   1      39.150  28.449  29.885  1.00  0.00     0.016 A 
ATOM     34  C   UNL A   1      38.585  29.273  27.671  1.00  0.00     0.016 A 
ATOM     35  C   UNL A   1      40.430  28.124  29.449  1.00  0.00     0.010 A 
ATOM     36  C   UNL A   1      39.873  28.944  27.234  1.00  0.00     0.010 A 
ATOM     37  C   UNL A   1      40.816  28.416  28.135  1.00  0.00    -0.014 A 
BRANCH  37  38
ATOM     38  C   UNL A   1      42.252  28.323  27.772  1.00  0.00     0.031 A 
ATOM     39  C   UNL A   1      43.142  29.513  28.018  1.00  0.00     0.074 A 
ATOM     40  C   UNL A   1      42.769  27.176  27.299  1.00  0.00     0.049 A 
ATOM     41  N   UNL A   1      44.427  29.641  27.813  1.00  0.00    -0.248 NA
ATOM     42  C   UNL A   1      42.499  30.717  28.568  1.00  0.00     0.031 C 
ATOM     43  C   UNL A   1      42.016  25.944  27.062  1.00  0.00     0.029 A 
ATOM     44  N   UNL A   1      44.055  26.858  26.942  1.00  0.00    -0.354 N 
ATOM     45  C   UNL A   1      44.745  30.939  28.202  1.00  0.00     0.074 A 
ATOM     46  C   UNL A   1      43.512  31.570  28.618  1.00  0.00     0.031 C 
ATOM     47  C   UNL A   1      42.858  25.000  26.604  1.00  0.00     0.029 A 
ATOM     48  C   UNL A   1      44.198  25.570  26.485  1.00  0.00     0.049 A 
ATOM     49  H   UNL A   1      44.805  27.492  27.009  1.00  0.00     0.167 HD
ATOM     50  C   UNL A   1      45.955  31.547  28.220  1.00  0.00     0.031 A 
ATOM     51  C   UNL A   1      45.284  24.927  26.012  1.00  0.00     0.031 A 
ATOM     52  C   UNL A   1      47.178  30.919  27.795  1.00  0.00     0.049 A 
ATOM     53  C   UNL A   1      46.608  25.648  25.977  1.00  0.00     0.074 A 
ATOM     54  C   UNL A   1      48.458  31.444  27.790  1.00  0.00     0.029 A 
ATOM     55  N   UNL A   1      47.272  29.629  27.293  1.00  0.00    -0.354 N 
ATOM     56  N   UNL A   1      46.895  26.865  26.374  1.00  0.00    -0.248 NA
ATOM     57  C   UNL A   1      47.755  24.900  25.444  1.00  0.00     0.031 C 
ATOM     58  C   UNL A   1      49.316  30.495  27.224  1.00  0.00     0.029 A 
ATOM     59  C   UNL A   1      48.583  29.351  26.946  1.00  0.00     0.049 A 
ATOM     60  H   UNL A   1      46.519  29.003  27.199  1.00  0.00     0.167 HD
ATOM     61  C   UNL A   1      48.262  27.019  26.165  1.00  0.00     0.074 A 
ATOM     62  C   UNL A   1      48.744  25.764  25.624  1.00  0.00     0.031 C 
ATOM     63  C   UNL A   1      49.049  28.099  26.402  1.00  0.00     0.031 A 
BRANCH  50  64
ATOM     64  C   UNL A   1      46.008  32.981  28.681  1.00  0.00    -0.014 A 
ATOM     65  C   UNL A   1      46.175  33.311  30.039  1.00  0.00     0.010 A 
ATOM     66  C   UNL A   1      45.927  34.019  27.733  1.00  0.00     0.010 A 
ATOM     67  C   UNL A   1      46.221  34.648  30.443  1.00  0.00     0.020 A 
ATOM     68  C   UNL A   1      46.004  35.357  28.130  1.00  0.00     0.020 A 
ATOM     69  C   UNL A   1      46.134  35.663  29.485  1.00  0.00     0.054 A 
BRANCH  69  70
ATOM     70  S   UNL A   1      46.221  37.389  30.035  1.00  0.00     0.124 S 
ATOM     71  O   UNL A   1      46.042  37.254  31.479  1.00  0.00    -0.237 OA
ATOM     72  O   UNL A   1      47.556  37.795  29.604  1.00  0.00    -0.237 OA
ATOM     73  O   UNL A   1      45.118  38.036  29.331  1.00  0.00    -0.744 OA
ENDBRANCH  69  70
ENDBRANCH  50  64
BRANCH  51  74
ATOM     74  C   UNL A   1      45.163  23.527  25.518  1.00  0.00    -0.014 A 
ATOM     75  C   UNL A   1      45.393  22.436  26.374  1.00  0.00     0.010 A 
ATOM     76  C   UNL A   1      44.813  23.280  24.177  1.00  0.00     0.010 A 
ATOM     77  C   UNL A   1      45.292  21.126  25.895  1.00  0.00     0.020 A 
ATOM     78  C   UNL A   1      44.679  21.973  23.703  1.00  0.00     0.020 A 
ATOM     79  C   UNL A   1      44.931  20.903  24.563  1.00  0.00     0.054 A 
BRANCH  79  80
ATOM     80  S   UNL A   1      44.753  19.194  23.978  1.00  0.00     0.124 S 
ATOM     81  O   UNL A   1      44.540  19.384  22.547  1.00  0.00    -0.237 OA
ATOM     82  O   UNL A   1      46.032  18.599  24.356  1.00  0.00    -0.237 OA
ATOM     83  O   UNL A   1      43.599  18.697  24.724  1.00  0.00    -0.744 OA
ENDBRANCH  79  80
ENDBRANCH  51  74
BRANCH  63  84
ATOM     84  C   UNL A   1      50.522  27.962  26.116  1.00  0.00    -0.014 A 
ATOM     85  C   UNL A   1      51.419  27.486  27.089  1.00  0.00     0.010 A 
ATOM     86  C   UNL A   1      51.009  28.274  24.832  1.00  0.00     0.010 A 
ATOM     87  C   UNL A   1      52.781  27.366  26.797  1.00  0.00     0.020 A 
ATOM     88  C   UNL A   1      52.363  28.124  24.526  1.00  0.00     0.020 A 
ATOM     89  C   UNL A   1      53.245  27.688  25.517  1.00  0.00     0.054 A 
BRANCH  89  90
ATOM     90  S   UNL A   1      55.011  27.498  25.156  1.00  0.00     0.124 S 
ATOM     91  O   UNL A   1      55.535  27.034  26.437  1.00  0.00    -0.237 OA
ATOM     92  O   UNL A   1      55.013  26.508  24.081  1.00  0.00    -0.237 OA
ATOM     93  O   UNL A   1      55.431  28.840  24.760  1.00  0.00    -0.744 OA
ENDBRANCH  89  90
ENDBRANCH  63  84
ENDBRANCH  37  38
ENDBRANCH  30  32
ENDBRANCH  29  30
ENDBRANCH  28  29
ENDBRANCH   1  28
TORSDOF 19
ENDMDL
MODEL 3
REMARK VINA RESULT:     -11.0      4.633     10.730
REMARK SMILES CC1(C)S[C@H](c2ccc(-c3ccccc3)o2)[NH2+][C@H]1C(=O)OCCOCCOC(=O)c1ccc(-c2c3nc(c(-c4ccc(S(=O)(=O)[O-])cc4)c4ccc([nH]4)c(-c4ccc(S(=O)(=O)[O-])cc4)c4nc(c(-c5ccc(S(=O)(=O)[O-])cc5)c5ccc2[nH]5)C=C4)C=C3)cc1
REMARK SMILES IDX 25 1 24 2 23 3 22 4 21 5 19 6 20 7 18 8 1 9 2 10 3 11 4 12
REMARK SMILES IDX 5 13 17 14 6 17 7 18 16 19 8 20 9 21 10 22 11 23 15 24 12 25
REMARK SMILES IDX 14 26 13 27 26 28 27 29 28 30 29 31 30 32 31 33 89 34 32 35
REMARK SMILES IDX 88 36 33 37 34 38 35 39 82 40 36 41 87 42 81 43 83 44 37 45
REMARK SMILES IDX 86 46 80 47 79 48 38 50 68 51 49 52 67 53 50 54 53 55 66 56
REMARK SMILES IDX 84 57 51 58 52 59 65 61 85 62 54 63 39 64 40 65 48 66 41 67
REMARK SMILES IDX 47 68 42 69 43 70 44 71 45 72 46 73 69 74 70 75 78 76 71 77
REMARK SMILES IDX 77 78 72 79 73 80 74 81 75 82 76 83 55 84 56 85 64 86 57 87
REMARK SMILES IDX 63 88 58 89 59 90 60 91 61 92 62 93
REMARK H PARENT 17 15 17 16 83 49 53 60
REMARK Flexibility Score: inf
ROOT
ATOM      1  C   UNL A   1      32.400  29.911  25.630  1.00  0.00     0.202 C 
ENDROOT
BRANCH   1   2
ATOM      2  O   UNL A   1      33.423  28.972  25.314  1.00  0.00    -0.374 OA
BRANCH   2   3
ATOM      3  C   UNL A   1      33.339  28.350  24.029  1.00  0.00     0.202 C 
BRANCH   3   4
ATOM      4  C   UNL A   1      31.966  28.373  23.344  1.00  0.00     0.261 C 
BRANCH   4   5
ATOM      5  O   UNL A   1      31.183  27.196  23.639  1.00  0.00    -0.459 OA
BRANCH   5   6
ATOM      6  C   UNL A   1      31.655  26.023  23.135  1.00  0.00     0.366 C 
ATOM      7  O   UNL A   1      32.017  25.867  21.973  1.00  0.00    -0.245 OA
BRANCH   6   8
ATOM      8  C   UNL A   1      31.706  24.901  24.180  1.00  0.00     0.310 C 
ATOM      9  C   UNL A   1      29.860  25.933  25.750  1.00  0.00     0.030 C 
ATOM     10  C   UNL A   1      31.204  25.208  25.615  1.00  0.00     0.079 C 
ATOM     11  C   UNL A   1      32.284  25.869  26.478  1.00  0.00     0.030 C 
ATOM     12  S   UNL A   1      30.920  23.522  26.304  1.00  0.00    -0.078 SA
ATOM     13  C   UNL A   1      31.137  22.679  24.706  1.00  0.00     0.311 C 
ATOM     14  N   UNL A   1      30.993  23.702  23.667  1.00  0.00    -0.316 N 
ATOM     15  H   UNL A   1      30.007  23.915  23.512  1.00  0.00     0.348 HD
ATOM     16  H   UNL A   1      31.376  23.390  22.776  1.00  0.00     0.348 HD
BRANCH  13  17
ATOM     17  C   UNL A   1      32.443  21.932  24.690  1.00  0.00     0.172 A 
ATOM     18  C   UNL A   1      32.748  20.641  24.295  1.00  0.00     0.054 A 
ATOM     19  O   UNL A   1      33.588  22.560  25.115  1.00  0.00    -0.454 OA
ATOM     20  C   UNL A   1      34.141  20.483  24.461  1.00  0.00     0.051 A 
ATOM     21  C   UNL A   1      34.616  21.677  24.956  1.00  0.00     0.134 A 
BRANCH  21  22
ATOM     22  C   UNL A   1      35.955  22.144  25.273  1.00  0.00     0.017 A 
ATOM     23  C   UNL A   1      36.187  23.443  25.738  1.00  0.00     0.012 A 
ATOM     24  C   UNL A   1      37.032  21.251  25.187  1.00  0.00     0.012 A 
ATOM     25  C   UNL A   1      37.470  23.829  26.139  1.00  0.00     0.001 A 
ATOM     26  C   UNL A   1      38.315  21.640  25.574  1.00  0.00     0.001 A 
ATOM     27  C   UNL A   1      38.532  22.927  26.061  1.00  0.00     0.000 A 
ENDBRANCH  21  22
ENDBRANCH  13  17
ENDBRANCH   6   8
ENDBRANCH   5   6
ENDBRANCH   4   5
ENDBRANCH   3   4
ENDBRANCH   2   3
ENDBRANCH   1   2
BRANCH   1  28
ATOM     28  C   UNL A   1      32.607  30.754  26.894  1.00  0.00     0.261 C 
BRANCH  28  29
ATOM     29  O   UNL A   1      33.546  30.137  27.792  1.00  0.00    -0.460 OA
BRANCH  29  30
ATOM     30  C   UNL A   1      34.517  30.970  28.233  1.00  0.00     0.338 C 
ATOM     31  O   UNL A   1      34.368  32.103  28.670  1.00  0.00    -0.246 OA
BRANCH  30  32
ATOM     32  C   UNL A   1      35.808  30.257  28.301  1.00  0.00     0.060 A 
ATOM     33  C   UNL A   1      36.148  29.681  29.531  1.00  0.00     0.016 A 
ATOM     34  C   UNL A   1      36.690  30.191  27.219  1.00  0.00     0.016 A 
ATOM     35  C   UNL A   1      37.403  29.110  29.710  1.00  0.00     0.010 A 
ATOM     36  C   UNL A   1      37.953  29.616  27.402  1.00  0.00     0.010 A 
ATOM     37  C   UNL A   1      38.332  29.119  28.663  1.00  0.00    -0.014 A 
BRANCH  37  38
ATOM     38  C   UNL A   1      39.743  28.765  28.952  1.00  0.00     0.031 A 
ATOM     39  C   UNL A   1      40.615  29.772  29.656  1.00  0.00     0.074 A 
ATOM     40  C   UNL A   1      40.220  27.543  28.659  1.00  0.00     0.049 A 
ATOM     41  N   UNL A   1      41.861  29.663  30.041  1.00  0.00    -0.248 NA
ATOM     42  C   UNL A   1      40.003  31.074  29.969  1.00  0.00     0.031 C 
ATOM     43  C   UNL A   1      39.459  26.470  28.019  1.00  0.00     0.029 A 
ATOM     44  N   UNL A   1      41.461  26.995  28.871  1.00  0.00    -0.354 N 
ATOM     45  C   UNL A   1      42.182  30.881  30.632  1.00  0.00     0.074 A 
ATOM     46  C   UNL A   1      41.014  31.726  30.522  1.00  0.00     0.031 C 
ATOM     47  C   UNL A   1      40.249  25.389  27.897  1.00  0.00     0.029 A 
ATOM     48  C   UNL A   1      41.578  25.703  28.418  1.00  0.00     0.049 A 
ATOM     49  H   UNL A   1      42.196  27.482  29.308  1.00  0.00     0.167 HD
ATOM     50  C   UNL A   1      43.341  31.257  31.223  1.00  0.00     0.031 A 
ATOM     51  C   UNL A   1      42.639  24.873  28.413  1.00  0.00     0.031 A 
ATOM     52  C   UNL A   1      44.505  30.416  31.321  1.00  0.00     0.049 A 
ATOM     53  C   UNL A   1      43.940  25.339  29.015  1.00  0.00     0.074 A 
ATOM     54  C   UNL A   1      45.723  30.698  31.915  1.00  0.00     0.029 A 
ATOM     55  N   UNL A   1      44.598  29.131  30.807  1.00  0.00    -0.354 N 
ATOM     56  N   UNL A   1      44.218  26.483  29.594  1.00  0.00    -0.248 NA
ATOM     57  C   UNL A   1      45.065  24.395  28.974  1.00  0.00     0.031 C 
ATOM     58  C   UNL A   1      46.574  29.608  31.702  1.00  0.00     0.029 A 
ATOM     59  C   UNL A   1      45.862  28.618  31.042  1.00  0.00     0.049 A 
ATOM     60  H   UNL A   1      43.872  28.654  30.345  1.00  0.00     0.167 HD
ATOM     61  C   UNL A   1      45.541  26.385  30.012  1.00  0.00     0.074 A 
ATOM     62  C   UNL A   1      46.000  25.063  29.634  1.00  0.00     0.031 C 
ATOM     63  C   UNL A   1      46.308  27.303  30.655  1.00  0.00     0.031 A 
BRANCH  50  64
ATOM     64  C   UNL A   1      43.420  32.657  31.777  1.00  0.00    -0.014 A 
ATOM     65  C   UNL A   1      43.074  32.941  33.111  1.00  0.00     0.010 A 
ATOM     66  C   UNL A   1      43.884  33.703  30.956  1.00  0.00     0.010 A 
ATOM     67  C   UNL A   1      43.154  34.247  33.602  1.00  0.00     0.020 A 
ATOM     68  C   UNL A   1      43.995  35.005  31.453  1.00  0.00     0.020 A 
ATOM     69  C   UNL A   1      43.614  35.271  32.768  1.00  0.00     0.054 A 
BRANCH  69  70
ATOM     70  S   UNL A   1      43.731  36.952  33.439  1.00  0.00     0.124 S 
ATOM     71  O   UNL A   1      42.508  37.046  34.233  1.00  0.00    -0.237 OA
ATOM     72  O   UNL A   1      44.974  36.905  34.205  1.00  0.00    -0.237 OA
ATOM     73  O   UNL A   1      43.766  37.800  32.251  1.00  0.00    -0.744 OA
ENDBRANCH  69  70
ENDBRANCH  50  64
BRANCH  51  74
ATOM     74  C   UNL A   1      42.521  23.519  27.803  1.00  0.00    -0.014 A 
ATOM     75  C   UNL A   1      42.840  23.304  26.451  1.00  0.00     0.010 A 
ATOM     76  C   UNL A   1      42.083  22.431  28.582  1.00  0.00     0.010 A 
ATOM     77  C   UNL A   1      42.710  22.032  25.886  1.00  0.00     0.020 A 
ATOM     78  C   UNL A   1      41.982  21.152  28.029  1.00  0.00     0.020 A 
ATOM     79  C   UNL A   1      42.286  20.963  26.681  1.00  0.00     0.054 A 
BRANCH  79  80
ATOM     80  S   UNL A   1      42.175  19.310  25.939  1.00  0.00     0.124 S 
ATOM     81  O   UNL A   1      42.728  18.466  26.993  1.00  0.00    -0.237 OA
ATOM     82  O   UNL A   1      40.741  19.170  25.700  1.00  0.00    -0.237 OA
ATOM     83  O   UNL A   1      42.992  19.422  24.732  1.00  0.00    -0.744 OA
ENDBRANCH  79  80
ENDBRANCH  51  74
BRANCH  63  84
ATOM     84  C   UNL A   1      47.712  26.898  31.025  1.00  0.00    -0.014 A 
ATOM     85  C   UNL A   1      48.790  27.096  30.145  1.00  0.00     0.010 A 
ATOM     86  C   UNL A   1      47.961  26.350  32.298  1.00  0.00     0.010 A 
ATOM     87  C   UNL A   1      50.083  26.714  30.513  1.00  0.00     0.020 A 
ATOM     88  C   UNL A   1      49.256  25.997  32.683  1.00  0.00     0.020 A 
ATOM     89  C   UNL A   1      50.307  26.164  31.780  1.00  0.00     0.054 A 
BRANCH  89  90
ATOM     90  S   UNL A   1      51.998  25.702  32.244  1.00  0.00     0.124 S 
ATOM     91  O   UNL A   1      52.771  26.197  31.109  1.00  0.00    -0.237 OA
ATOM     92  O   UNL A   1      52.194  26.423  33.500  1.00  0.00    -0.237 OA
ATOM     93  O   UNL A   1      51.938  24.248  32.369  1.00  0.00    -0.744 OA
ENDBRANCH  89  90
ENDBRANCH  63  84
ENDBRANCH  37  38
ENDBRANCH  30  32
ENDBRANCH  29  30
ENDBRANCH  28  29
ENDBRANCH   1  28
TORSDOF 19
ENDMDL
