MODEL 1
REMARK VINA RESULT:     -10.4      0.000      0.000
REMARK SMILES Cc1nc(N2CCN(c3ccccc3)CC2)nc(OCC(=O)OCCOCCOC(=O)c2ccc(-c3c4nc(c(-c5ccc(S(=O)(=O)[O-])cc5)c5ccc([nH]5)c(-c5ccc(S(=O)(=O)[O-])cc5)c5nc(c(-c6ccc(S(=O)(=O)[O-])cc6)c6ccc3[nH]6)C=C5)C=C4)cc2)c1C
REMARK SMILES IDX 25 1 24 2 23 3 21 4 22 5 20 6 19 7 18 8 1 9 2 10 3 11 92 12
REMARK SMILES IDX 4 13 93 14 17 15 5 16 6 17 16 18 7 19 15 20 8 21 9 22 10 23
REMARK SMILES IDX 14 24 11 25 13 26 12 27 26 28 27 29 28 30 29 31 30 32 31 33
REMARK SMILES IDX 32 34 33 35 91 36 34 37 90 38 35 39 36 40 37 41 84 42 38 43
REMARK SMILES IDX 89 44 83 45 85 46 39 47 88 48 82 49 81 50 40 52 70 53 51 54
REMARK SMILES IDX 69 55 52 56 55 57 68 58 86 59 53 60 54 61 67 63 87 64 56 65
REMARK SMILES IDX 41 66 42 67 50 68 43 69 49 70 44 71 45 72 46 73 47 74 48 75
REMARK SMILES IDX 71 76 72 77 80 78 73 79 79 80 74 81 75 82 76 83 77 84 78 85
REMARK SMILES IDX 57 86 58 87 66 88 59 89 65 90 60 91 61 92 62 93 63 94 64 95
REMARK H PARENT 85 51 55 62
REMARK Flexibility Score: inf
ROOT
ATOM      1  C   UNL A   1      34.647  33.908  28.260  1.00  0.00     0.202 C 
ENDROOT
BRANCH   1   2
ATOM      2  C   UNL A   1      34.937  32.472  27.799  1.00  0.00     0.261 C 
BRANCH   2   3
ATOM      3  O   UNL A   1      33.788  31.588  27.801  1.00  0.00    -0.461 OA
BRANCH   3   4
ATOM      4  C   UNL A   1      34.023  30.330  27.335  1.00  0.00     0.344 C 
ATOM      5  O   UNL A   1      35.129  29.798  27.291  1.00  0.00    -0.248 OA
BRANCH   4   6
ATOM      6  C   UNL A   1      32.781  29.609  26.796  1.00  0.00     0.353 C 
BRANCH   6   7
ATOM      7  O   UNL A   1      31.809  30.153  25.953  1.00  0.00    -0.465 OA
BRANCH   7   8
ATOM      8  C   UNL A   1      31.124  29.506  24.986  1.00  0.00     0.221 A 
ATOM      9  C   UNL A   1      29.295  29.498  21.712  1.00  0.00     0.067 C 
ATOM     10  C   UNL A   1      29.955  29.090  23.003  1.00  0.00     0.050 A 
ATOM     11  N   UNL A   1      30.394  27.808  22.995  1.00  0.00    -0.218 NA
ATOM     12  C   UNL A   1      30.223  29.985  24.050  1.00  0.00     0.033 A 
ATOM     13  C   UNL A   1      31.107  27.395  24.039  1.00  0.00     0.229 A 
ATOM     14  C   UNL A   1      29.581  31.332  24.110  1.00  0.00     0.052 C 
ATOM     15  N   UNL A   1      31.487  28.214  25.016  1.00  0.00    -0.177 NA
BRANCH  13  16
ATOM     16  N   UNL A   1      31.533  26.102  24.138  1.00  0.00    -0.337 N 
ATOM     17  C   UNL A   1      30.794  25.125  24.932  1.00  0.00     0.141 C 
ATOM     18  C   UNL A   1      32.975  25.891  24.022  1.00  0.00     0.141 C 
ATOM     19  C   UNL A   1      31.074  23.697  24.378  1.00  0.00     0.138 C 
ATOM     20  C   UNL A   1      33.264  24.473  23.491  1.00  0.00     0.138 C 
ATOM     21  N   UNL A   1      32.528  23.477  24.291  1.00  0.00    -0.368 N 
BRANCH  21  22
ATOM     22  C   UNL A   1      33.081  22.223  24.439  1.00  0.00     0.037 A 
ATOM     23  C   UNL A   1      34.428  22.012  24.743  1.00  0.00     0.026 A 
ATOM     24  C   UNL A   1      32.262  21.097  24.265  1.00  0.00     0.026 A 
ATOM     25  C   UNL A   1      34.942  20.714  24.866  1.00  0.00     0.002 A 
ATOM     26  C   UNL A   1      32.770  19.802  24.367  1.00  0.00     0.002 A 
ATOM     27  C   UNL A   1      34.115  19.611  24.670  1.00  0.00     0.000 A 
ENDBRANCH  21  22
ENDBRANCH  13  16
ENDBRANCH   7   8
ENDBRANCH   6   7
ENDBRANCH   4   6
ENDBRANCH   3   4
ENDBRANCH   2   3
ENDBRANCH   1   2
BRANCH   1  28
ATOM     28  O   UNL A   1      35.247  34.371  29.468  1.00  0.00    -0.374 OA
BRANCH  28  29
ATOM     29  C   UNL A   1      34.808  33.783  30.683  1.00  0.00     0.202 C 
BRANCH  29  30
ATOM     30  C   UNL A   1      35.825  33.033  31.543  1.00  0.00     0.261 C 
BRANCH  30  31
ATOM     31  O   UNL A   1      36.479  31.957  30.895  1.00  0.00    -0.460 OA
BRANCH  31  32
ATOM     32  C   UNL A   1      37.110  31.114  31.736  1.00  0.00     0.338 C 
ATOM     33  O   UNL A   1      36.764  30.732  32.841  1.00  0.00    -0.246 OA
BRANCH  32  34
ATOM     34  C   UNL A   1      38.254  30.595  30.994  1.00  0.00     0.060 A 
ATOM     35  C   UNL A   1      39.246  29.938  31.722  1.00  0.00     0.016 A 
ATOM     36  C   UNL A   1      38.309  30.718  29.604  1.00  0.00     0.016 A 
ATOM     37  C   UNL A   1      40.339  29.422  31.049  1.00  0.00     0.010 A 
ATOM     38  C   UNL A   1      39.411  30.203  28.930  1.00  0.00     0.010 A 
ATOM     39  C   UNL A   1      40.439  29.586  29.659  1.00  0.00    -0.014 A 
BRANCH  39  40
ATOM     40  C   UNL A   1      41.717  29.236  29.018  1.00  0.00     0.031 A 
ATOM     41  C   UNL A   1      42.817  30.254  29.039  1.00  0.00     0.074 A 
ATOM     42  C   UNL A   1      41.908  27.991  28.552  1.00  0.00     0.049 A 
ATOM     43  N   UNL A   1      44.068  30.116  28.694  1.00  0.00    -0.248 NA
ATOM     44  C   UNL A   1      42.470  31.601  29.527  1.00  0.00     0.031 C 
ATOM     45  C   UNL A   1      40.895  26.934  28.538  1.00  0.00     0.029 A 
ATOM     46  N   UNL A   1      43.029  27.392  28.043  1.00  0.00    -0.354 N 
ATOM     47  C   UNL A   1      44.660  31.347  28.941  1.00  0.00     0.074 A 
ATOM     48  C   UNL A   1      43.625  32.239  29.412  1.00  0.00     0.031 C 
ATOM     49  C   UNL A   1      41.455  25.801  28.079  1.00  0.00     0.029 A 
ATOM     50  C   UNL A   1      42.853  26.063  27.746  1.00  0.00     0.049 A 
ATOM     51  H   UNL A   1      43.878  27.869  27.904  1.00  0.00     0.167 HD
ATOM     52  C   UNL A   1      45.959  31.692  28.810  1.00  0.00     0.031 A 
ATOM     53  C   UNL A   1      43.732  25.159  27.271  1.00  0.00     0.031 A 
ATOM     54  C   UNL A   1      46.967  30.790  28.324  1.00  0.00     0.049 A 
ATOM     55  C   UNL A   1      45.155  25.596  27.043  1.00  0.00     0.074 A 
ATOM     56  C   UNL A   1      48.315  31.031  28.137  1.00  0.00     0.029 A 
ATOM     57  N   UNL A   1      46.731  29.478  27.942  1.00  0.00    -0.354 N 
ATOM     58  N   UNL A   1      45.711  26.755  27.309  1.00  0.00    -0.248 NA
ATOM     59  C   UNL A   1      46.071  24.609  26.457  1.00  0.00     0.031 C 
ATOM     60  C   UNL A   1      48.882  29.881  27.582  1.00  0.00     0.029 A 
ATOM     61  C   UNL A   1      47.903  28.903  27.490  1.00  0.00     0.049 A 
ATOM     62  H   UNL A   1      45.859  29.023  27.988  1.00  0.00     0.167 HD
ATOM     63  C   UNL A   1      47.045  26.631  26.944  1.00  0.00     0.074 A 
ATOM     64  C   UNL A   1      47.216  25.278  26.450  1.00  0.00     0.031 C 
ATOM     65  C   UNL A   1      48.040  27.550  27.009  1.00  0.00     0.031 A 
BRANCH  52  66
ATOM     66  C   UNL A   1      46.355  33.095  29.179  1.00  0.00    -0.014 A 
ATOM     67  C   UNL A   1      46.747  33.414  30.491  1.00  0.00     0.010 A 
ATOM     68  C   UNL A   1      46.384  34.095  28.192  1.00  0.00     0.010 A 
ATOM     69  C   UNL A   1      47.137  34.716  30.815  1.00  0.00     0.020 A 
ATOM     70  C   UNL A   1      46.801  35.392  28.505  1.00  0.00     0.020 A 
ATOM     71  C   UNL A   1      47.166  35.696  29.818  1.00  0.00     0.054 A 
BRANCH  71  72
ATOM     72  S   UNL A   1      47.718  37.365  30.261  1.00  0.00     0.124 S 
ATOM     73  O   UNL A   1      48.376  37.802  29.032  1.00  0.00    -0.237 OA
ATOM     74  O   UNL A   1      46.462  38.041  30.575  1.00  0.00    -0.237 OA
ATOM     75  O   UNL A   1      48.608  37.148  31.399  1.00  0.00    -0.744 OA
ENDBRANCH  71  72
ENDBRANCH  52  66
BRANCH  53  76
ATOM     76  C   UNL A   1      43.288  23.766  26.997  1.00  0.00    -0.014 A 
ATOM     77  C   UNL A   1      42.933  23.364  25.698  1.00  0.00     0.010 A 
ATOM     78  C   UNL A   1      43.251  22.818  28.038  1.00  0.00     0.010 A 
ATOM     79  C   UNL A   1      42.543  22.044  25.446  1.00  0.00     0.020 A 
ATOM     80  C   UNL A   1      42.889  21.491  27.785  1.00  0.00     0.020 A 
ATOM     81  C   UNL A   1      42.530  21.115  26.491  1.00  0.00     0.054 A 
BRANCH  81  82
ATOM     82  S   UNL A   1      42.071  19.398  26.126  1.00  0.00     0.124 S 
ATOM     83  O   UNL A   1      42.897  19.102  24.961  1.00  0.00    -0.237 OA
ATOM     84  O   UNL A   1      42.441  18.708  27.359  1.00  0.00    -0.237 OA
ATOM     85  O   UNL A   1      40.634  19.472  25.871  1.00  0.00    -0.744 OA
ENDBRANCH  81  82
ENDBRANCH  53  76
BRANCH  65  86
ATOM     86  C   UNL A   1      49.411  27.138  26.551  1.00  0.00    -0.014 A 
ATOM     87  C   UNL A   1      50.346  26.617  27.462  1.00  0.00     0.010 A 
ATOM     88  C   UNL A   1      49.708  27.130  25.175  1.00  0.00     0.010 A 
ATOM     89  C   UNL A   1      51.553  26.087  27.002  1.00  0.00     0.020 A 
ATOM     90  C   UNL A   1      50.902  26.574  24.711  1.00  0.00     0.020 A 
ATOM     91  C   UNL A   1      51.816  26.054  25.628  1.00  0.00     0.054 A 
BRANCH  91  92
ATOM     92  S   UNL A   1      53.340  25.257  25.058  1.00  0.00     0.124 S 
ATOM     93  O   UNL A   1      53.360  25.613  23.641  1.00  0.00    -0.237 OA
ATOM     94  O   UNL A   1      54.362  25.900  25.882  1.00  0.00    -0.237 OA
ATOM     95  O   UNL A   1      53.120  23.841  25.340  1.00  0.00    -0.744 OA
ENDBRANCH  91  92
ENDBRANCH  65  86
ENDBRANCH  39  40
ENDBRANCH  32  34
ENDBRANCH  31  32
ENDBRANCH  30  31
ENDBRANCH  29  30
ENDBRANCH  28  29
ENDBRANCH   1  28
TORSDOF 21
ENDMDL
MODEL 2
REMARK VINA RESULT:     -10.1      2.217      9.476
REMARK SMILES Cc1nc(N2CCN(c3ccccc3)CC2)nc(OCC(=O)OCCOCCOC(=O)c2ccc(-c3c4nc(c(-c5ccc(S(=O)(=O)[O-])cc5)c5ccc([nH]5)c(-c5ccc(S(=O)(=O)[O-])cc5)c5nc(c(-c6ccc(S(=O)(=O)[O-])cc6)c6ccc3[nH]6)C=C5)C=C4)cc2)c1C
REMARK SMILES IDX 25 1 24 2 23 3 21 4 22 5 20 6 19 7 18 8 1 9 2 10 3 11 92 12
REMARK SMILES IDX 4 13 93 14 17 15 5 16 6 17 16 18 7 19 15 20 8 21 9 22 10 23
REMARK SMILES IDX 14 24 11 25 13 26 12 27 26 28 27 29 28 30 29 31 30 32 31 33
REMARK SMILES IDX 32 34 33 35 91 36 34 37 90 38 35 39 36 40 37 41 84 42 38 43
REMARK SMILES IDX 89 44 83 45 85 46 39 47 88 48 82 49 81 50 40 52 70 53 51 54
REMARK SMILES IDX 69 55 52 56 55 57 68 58 86 59 53 60 54 61 67 63 87 64 56 65
REMARK SMILES IDX 41 66 42 67 50 68 43 69 49 70 44 71 45 72 46 73 47 74 48 75
REMARK SMILES IDX 71 76 72 77 80 78 73 79 79 80 74 81 75 82 76 83 77 84 78 85
REMARK SMILES IDX 57 86 58 87 66 88 59 89 65 90 60 91 61 92 62 93 63 94 64 95
REMARK H PARENT 85 51 55 62
REMARK Flexibility Score: inf
ROOT
ATOM      1  C   UNL A   1      37.175  22.473  25.589  1.00  0.00     0.202 C 
ENDROOT
BRANCH   1   2
ATOM      2  C   UNL A   1      36.636  23.407  24.495  1.00  0.00     0.261 C 
BRANCH   2   3
ATOM      3  O   UNL A   1      35.804  22.762  23.499  1.00  0.00    -0.461 OA
BRANCH   3   4
ATOM      4  C   UNL A   1      34.570  23.311  23.330  1.00  0.00     0.344 C 
ATOM      5  O   UNL A   1      34.220  23.948  22.340  1.00  0.00    -0.248 OA
BRANCH   4   6
ATOM      6  C   UNL A   1      33.622  23.128  24.522  1.00  0.00     0.353 C 
BRANCH   6   7
ATOM      7  O   UNL A   1      33.119  24.141  25.342  1.00  0.00    -0.465 OA
BRANCH   7   8
ATOM      8  C   UNL A   1      32.292  25.143  24.973  1.00  0.00     0.221 A 
ATOM      9  C   UNL A   1      28.917  26.381  23.904  1.00  0.00     0.067 C 
ATOM     10  C   UNL A   1      30.362  26.292  24.321  1.00  0.00     0.050 A 
ATOM     11  N   UNL A   1      30.814  27.422  24.918  1.00  0.00    -0.218 NA
ATOM     12  C   UNL A   1      31.119  25.114  24.237  1.00  0.00     0.033 A 
ATOM     13  C   UNL A   1      32.037  27.395  25.440  1.00  0.00     0.229 A 
ATOM     14  C   UNL A   1      30.663  23.948  23.424  1.00  0.00     0.052 C 
ATOM     15  N   UNL A   1      32.771  26.286  25.490  1.00  0.00    -0.177 NA
BRANCH  13  16
ATOM     16  N   UNL A   1      32.591  28.508  26.003  1.00  0.00    -0.337 N 
ATOM     17  C   UNL A   1      32.225  29.845  25.545  1.00  0.00     0.141 C 
ATOM     18  C   UNL A   1      33.942  28.350  26.539  1.00  0.00     0.141 C 
ATOM     19  C   UNL A   1      32.453  30.863  26.701  1.00  0.00     0.138 C 
ATOM     20  C   UNL A   1      34.186  29.367  27.672  1.00  0.00     0.138 C 
ATOM     21  N   UNL A   1      33.826  30.722  27.219  1.00  0.00    -0.368 N 
BRANCH  21  22
ATOM     22  C   UNL A   1      34.513  31.791  27.753  1.00  0.00     0.037 A 
ATOM     23  C   UNL A   1      35.902  31.817  27.890  1.00  0.00     0.026 A 
ATOM     24  C   UNL A   1      33.787  32.908  28.195  1.00  0.00     0.026 A 
ATOM     25  C   UNL A   1      36.548  32.925  28.455  1.00  0.00     0.002 A 
ATOM     26  C   UNL A   1      34.421  34.006  28.776  1.00  0.00     0.002 A 
ATOM     27  C   UNL A   1      35.807  34.015  28.906  1.00  0.00     0.000 A 
ENDBRANCH  21  22
ENDBRANCH  13  16
ENDBRANCH   7   8
ENDBRANCH   6   7
ENDBRANCH   4   6
ENDBRANCH   3   4
ENDBRANCH   2   3
ENDBRANCH   1   2
BRANCH   1  28
ATOM     28  O   UNL A   1      38.149  21.493  25.232  1.00  0.00    -0.374 OA
BRANCH  28  29
ATOM     29  C   UNL A   1      39.276  21.353  26.082  1.00  0.00     0.202 C 
BRANCH  29  30
ATOM     30  C   UNL A   1      40.013  20.014  26.107  1.00  0.00     0.261 C 
BRANCH  30  31
ATOM     31  O   UNL A   1      41.268  20.034  26.761  1.00  0.00    -0.460 OA
BRANCH  31  32
ATOM     32  C   UNL A   1      42.318  20.174  25.927  1.00  0.00     0.338 C 
ATOM     33  O   UNL A   1      42.656  19.464  24.996  1.00  0.00    -0.246 OA
BRANCH  32  34
ATOM     34  C   UNL A   1      42.916  21.464  26.252  1.00  0.00     0.060 A 
ATOM     35  C   UNL A   1      43.413  21.634  27.544  1.00  0.00     0.016 A 
ATOM     36  C   UNL A   1      43.021  22.460  25.278  1.00  0.00     0.016 A 
ATOM     37  C   UNL A   1      43.998  22.840  27.883  1.00  0.00     0.010 A 
ATOM     38  C   UNL A   1      43.605  23.674  25.622  1.00  0.00     0.010 A 
ATOM     39  C   UNL A   1      44.062  23.872  26.934  1.00  0.00    -0.014 A 
BRANCH  39  40
ATOM     40  C   UNL A   1      44.471  25.207  27.400  1.00  0.00     0.031 A 
ATOM     41  C   UNL A   1      45.842  25.691  27.036  1.00  0.00     0.074 A 
ATOM     42  C   UNL A   1      43.578  25.997  28.019  1.00  0.00     0.049 A 
ATOM     43  N   UNL A   1      46.357  26.880  27.185  1.00  0.00    -0.248 NA
ATOM     44  C   UNL A   1      46.748  24.715  26.405  1.00  0.00     0.031 C 
ATOM     45  C   UNL A   1      42.211  25.608  28.369  1.00  0.00     0.029 A 
ATOM     46  N   UNL A   1      43.672  27.302  28.422  1.00  0.00    -0.354 N 
ATOM     47  C   UNL A   1      47.637  26.801  26.651  1.00  0.00     0.074 A 
ATOM     48  C   UNL A   1      47.844  25.436  26.223  1.00  0.00     0.031 C 
ATOM     49  C   UNL A   1      41.580  26.668  28.901  1.00  0.00     0.029 A 
ATOM     50  C   UNL A   1      42.505  27.797  28.951  1.00  0.00     0.049 A 
ATOM     51  H   UNL A   1      44.497  27.833  28.340  1.00  0.00     0.167 HD
ATOM     52  C   UNL A   1      48.546  27.789  26.507  1.00  0.00     0.031 A 
ATOM     53  C   UNL A   1      42.219  29.030  29.410  1.00  0.00     0.031 A 
ATOM     54  C   UNL A   1      48.321  29.135  26.955  1.00  0.00     0.049 A 
ATOM     55  C   UNL A   1      43.285  30.091  29.326  1.00  0.00     0.074 A 
ATOM     56  C   UNL A   1      49.174  30.220  26.874  1.00  0.00     0.029 A 
ATOM     57  N   UNL A   1      47.161  29.577  27.574  1.00  0.00    -0.354 N 
ATOM     58  N   UNL A   1      44.481  30.012  28.791  1.00  0.00    -0.248 NA
ATOM     59  C   UNL A   1      42.966  31.405  29.900  1.00  0.00     0.031 C 
ATOM     60  C   UNL A   1      48.552  31.302  27.502  1.00  0.00     0.029 A 
ATOM     61  C   UNL A   1      47.286  30.911  27.910  1.00  0.00     0.049 A 
ATOM     62  H   UNL A   1      46.366  29.022  27.746  1.00  0.00     0.167 HD
ATOM     63  C   UNL A   1      45.050  31.270  28.943  1.00  0.00     0.074 A 
ATOM     64  C   UNL A   1      44.061  32.095  29.610  1.00  0.00     0.031 C 
ATOM     65  C   UNL A   1      46.278  31.705  28.568  1.00  0.00     0.031 A 
BRANCH  52  66
ATOM     66  C   UNL A   1      49.860  27.447  25.860  1.00  0.00    -0.014 A 
ATOM     67  C   UNL A   1      50.970  27.065  26.634  1.00  0.00     0.010 A 
ATOM     68  C   UNL A   1      49.972  27.460  24.459  1.00  0.00     0.010 A 
ATOM     69  C   UNL A   1      52.177  26.725  26.019  1.00  0.00     0.020 A 
ATOM     70  C   UNL A   1      51.170  27.093  23.839  1.00  0.00     0.020 A 
ATOM     71  C   UNL A   1      52.268  26.737  24.624  1.00  0.00     0.054 A 
BRANCH  71  72
ATOM     72  S   UNL A   1      53.835  26.250  23.854  1.00  0.00     0.124 S 
ATOM     73  O   UNL A   1      54.693  27.391  24.168  1.00  0.00    -0.237 OA
ATOM     74  O   UNL A   1      54.160  25.010  24.554  1.00  0.00    -0.237 OA
ATOM     75  O   UNL A   1      53.499  26.096  22.441  1.00  0.00    -0.744 OA
ENDBRANCH  71  72
ENDBRANCH  52  66
BRANCH  53  76
ATOM     76  C   UNL A   1      40.871  29.319  29.971  1.00  0.00    -0.014 A 
ATOM     77  C   UNL A   1      40.569  29.021  31.311  1.00  0.00     0.010 A 
ATOM     78  C   UNL A   1      39.886  29.928  29.169  1.00  0.00     0.010 A 
ATOM     79  C   UNL A   1      39.307  29.321  31.836  1.00  0.00     0.020 A 
ATOM     80  C   UNL A   1      38.635  30.255  29.699  1.00  0.00     0.020 A 
ATOM     81  C   UNL A   1      38.351  29.942  31.028  1.00  0.00     0.054 A 
BRANCH  81  82
ATOM     82  S   UNL A   1      36.741  30.367  31.749  1.00  0.00     0.124 S 
ATOM     83  O   UNL A   1      36.826  29.751  33.069  1.00  0.00    -0.237 OA
ATOM     84  O   UNL A   1      36.766  31.827  31.728  1.00  0.00    -0.237 OA
ATOM     85  O   UNL A   1      35.781  29.755  30.833  1.00  0.00    -0.744 OA
ENDBRANCH  81  82
ENDBRANCH  53  76
BRANCH  65  86
ATOM     86  C   UNL A   1      46.635  33.138  28.851  1.00  0.00    -0.014 A 
ATOM     87  C   UNL A   1      46.207  34.166  27.994  1.00  0.00     0.010 A 
ATOM     88  C   UNL A   1      47.270  33.467  30.063  1.00  0.00     0.010 A 
ATOM     89  C   UNL A   1      46.402  35.502  28.351  1.00  0.00     0.020 A 
ATOM     90  C   UNL A   1      47.440  34.802  30.435  1.00  0.00     0.020 A 
ATOM     91  C   UNL A   1      47.003  35.811  29.576  1.00  0.00     0.054 A 
BRANCH  91  92
ATOM     92  S   UNL A   1      47.137  37.554  30.058  1.00  0.00     0.124 S 
ATOM     93  O   UNL A   1      48.097  38.067  29.084  1.00  0.00    -0.237 OA
ATOM     94  O   UNL A   1      45.765  38.032  29.902  1.00  0.00    -0.237 OA
ATOM     95  O   UNL A   1      47.619  37.498  31.436  1.00  0.00    -0.744 OA
ENDBRANCH  91  92
ENDBRANCH  65  86
ENDBRANCH  39  40
ENDBRANCH  32  34
ENDBRANCH  31  32
ENDBRANCH  30  31
ENDBRANCH  29  30
ENDBRANCH  28  29
ENDBRANCH   1  28
TORSDOF 21
ENDMDL
MODEL 3
REMARK VINA RESULT:      -9.9      1.087      8.023
REMARK SMILES Cc1nc(N2CCN(c3ccccc3)CC2)nc(OCC(=O)OCCOCCOC(=O)c2ccc(-c3c4nc(c(-c5ccc(S(=O)(=O)[O-])cc5)c5ccc([nH]5)c(-c5ccc(S(=O)(=O)[O-])cc5)c5nc(c(-c6ccc(S(=O)(=O)[O-])cc6)c6ccc3[nH]6)C=C5)C=C4)cc2)c1C
REMARK SMILES IDX 25 1 24 2 23 3 21 4 22 5 20 6 19 7 18 8 1 9 2 10 3 11 92 12
REMARK SMILES IDX 4 13 93 14 17 15 5 16 6 17 16 18 7 19 15 20 8 21 9 22 10 23
REMARK SMILES IDX 14 24 11 25 13 26 12 27 26 28 27 29 28 30 29 31 30 32 31 33
REMARK SMILES IDX 32 34 33 35 91 36 34 37 90 38 35 39 36 40 37 41 84 42 38 43
REMARK SMILES IDX 89 44 83 45 85 46 39 47 88 48 82 49 81 50 40 52 70 53 51 54
REMARK SMILES IDX 69 55 52 56 55 57 68 58 86 59 53 60 54 61 67 63 87 64 56 65
REMARK SMILES IDX 41 66 42 67 50 68 43 69 49 70 44 71 45 72 46 73 47 74 48 75
REMARK SMILES IDX 71 76 72 77 80 78 73 79 79 80 74 81 75 82 76 83 77 84 78 85
REMARK SMILES IDX 57 86 58 87 66 88 59 89 65 90 60 91 61 92 62 93 63 94 64 95
REMARK H PARENT 85 51 55 62
REMARK Flexibility Score: inf
ROOT
ATOM      1  C   UNL A   1      36.209  33.119  28.675  1.00  0.00     0.202 C 
ENDROOT
BRANCH   1   2
ATOM      2  C   UNL A   1      34.854  32.648  28.127  1.00  0.00     0.261 C 
BRANCH   2   3
ATOM      3  O   UNL A   1      34.470  31.307  28.521  1.00  0.00    -0.461 OA
BRANCH   3   4
ATOM      4  C   UNL A   1      34.882  30.315  27.683  1.00  0.00     0.344 C 
ATOM      5  O   UNL A   1      36.049  30.120  27.355  1.00  0.00    -0.248 OA
BRANCH   4   6
ATOM      6  C   UNL A   1      33.748  29.459  27.106  1.00  0.00     0.353 C 
BRANCH   6   7
ATOM      7  O   UNL A   1      33.660  28.974  25.798  1.00  0.00    -0.465 OA
BRANCH   7   8
ATOM      8  C   UNL A   1      32.610  28.332  25.243  1.00  0.00     0.221 A 
ATOM      9  C   UNL A   1      29.584  28.305  23.028  1.00  0.00     0.067 C 
ATOM     10  C   UNL A   1      30.706  27.910  23.953  1.00  0.00     0.050 A 
ATOM     11  N   UNL A   1      31.050  26.604  23.844  1.00  0.00    -0.218 NA
ATOM     12  C   UNL A   1      31.420  28.828  24.736  1.00  0.00     0.033 A 
ATOM     13  C   UNL A   1      32.116  26.189  24.522  1.00  0.00     0.229 A 
ATOM     14  C   UNL A   1      30.916  30.214  24.973  1.00  0.00     0.052 C 
ATOM     15  N   UNL A   1      32.901  27.022  25.202  1.00  0.00    -0.177 NA
BRANCH  13  16
ATOM     16  N   UNL A   1      32.493  24.877  24.518  1.00  0.00    -0.337 N 
ATOM     17  C   UNL A   1      33.854  24.486  24.168  1.00  0.00     0.141 C 
ATOM     18  C   UNL A   1      31.439  23.910  24.217  1.00  0.00     0.141 C 
ATOM     19  C   UNL A   1      34.184  23.122  24.844  1.00  0.00     0.138 C 
ATOM     20  C   UNL A   1      31.765  22.550  24.865  1.00  0.00     0.138 C 
ATOM     21  N   UNL A   1      33.137  22.141  24.513  1.00  0.00    -0.368 N 
BRANCH  21  22
ATOM     22  C   UNL A   1      33.409  20.793  24.417  1.00  0.00     0.037 A 
ATOM     23  C   UNL A   1      32.481  19.854  23.961  1.00  0.00     0.026 A 
ATOM     24  C   UNL A   1      34.676  20.330  24.805  1.00  0.00     0.026 A 
ATOM     25  C   UNL A   1      32.807  18.493  23.899  1.00  0.00     0.002 A 
ATOM     26  C   UNL A   1      35.001  18.974  24.764  1.00  0.00     0.002 A 
ATOM     27  C   UNL A   1      34.064  18.053  24.308  1.00  0.00     0.000 A 
ENDBRANCH  21  22
ENDBRANCH  13  16
ENDBRANCH   7   8
ENDBRANCH   6   7
ENDBRANCH   4   6
ENDBRANCH   3   4
ENDBRANCH   2   3
ENDBRANCH   1   2
BRANCH   1  28
ATOM     28  O   UNL A   1      36.227  33.905  29.866  1.00  0.00    -0.374 OA
BRANCH  28  29
ATOM     29  C   UNL A   1      35.376  33.501  30.927  1.00  0.00     0.202 C 
BRANCH  29  30
ATOM     30  C   UNL A   1      35.787  32.301  31.780  1.00  0.00     0.261 C 
BRANCH  30  31
ATOM     31  O   UNL A   1      37.104  31.832  31.556  1.00  0.00    -0.460 OA
BRANCH  31  32
ATOM     32  C   UNL A   1      37.171  30.528  31.220  1.00  0.00     0.338 C 
ATOM     33  O   UNL A   1      36.268  29.715  31.124  1.00  0.00    -0.246 OA
BRANCH  32  34
ATOM     34  C   UNL A   1      38.555  30.290  30.823  1.00  0.00     0.060 A 
ATOM     35  C   UNL A   1      38.832  30.244  29.457  1.00  0.00     0.016 A 
ATOM     36  C   UNL A   1      39.555  30.165  31.790  1.00  0.00     0.016 A 
ATOM     37  C   UNL A   1      40.135  30.033  29.046  1.00  0.00     0.010 A 
ATOM     38  C   UNL A   1      40.864  29.948  31.374  1.00  0.00     0.010 A 
ATOM     39  C   UNL A   1      41.144  29.849  30.003  1.00  0.00    -0.014 A 
BRANCH  39  40
ATOM     40  C   UNL A   1      42.462  29.394  29.530  1.00  0.00     0.031 A 
ATOM     41  C   UNL A   1      42.581  27.991  29.017  1.00  0.00     0.074 A 
ATOM     42  C   UNL A   1      43.478  30.269  29.451  1.00  0.00     0.049 A 
ATOM     43  N   UNL A   1      43.582  27.426  28.401  1.00  0.00    -0.248 NA
ATOM     44  C   UNL A   1      41.414  27.111  29.207  1.00  0.00     0.031 C 
ATOM     45  C   UNL A   1      43.423  31.664  29.893  1.00  0.00     0.029 A 
ATOM     46  N   UNL A   1      44.737  30.128  28.932  1.00  0.00    -0.354 N 
ATOM     47  C   UNL A   1      43.161  26.135  28.112  1.00  0.00     0.074 A 
ATOM     48  C   UNL A   1      41.836  25.977  28.667  1.00  0.00     0.031 C 
ATOM     49  C   UNL A   1      44.587  32.263  29.589  1.00  0.00     0.029 A 
ATOM     50  C   UNL A   1      45.473  31.288  28.958  1.00  0.00     0.049 A 
ATOM     51  H   UNL A   1      45.081  29.278  28.576  1.00  0.00     0.167 HD
ATOM     52  C   UNL A   1      43.815  25.176  27.421  1.00  0.00     0.031 A 
ATOM     53  C   UNL A   1      46.719  31.532  28.507  1.00  0.00     0.031 A 
ATOM     54  C   UNL A   1      45.139  25.353  26.892  1.00  0.00     0.049 A 
ATOM     55  C   UNL A   1      47.464  30.415  27.823  1.00  0.00     0.074 A 
ATOM     56  C   UNL A   1      45.907  24.448  26.185  1.00  0.00     0.029 A 
ATOM     57  N   UNL A   1      45.891  26.511  27.021  1.00  0.00    -0.354 N 
ATOM     58  N   UNL A   1      47.043  29.207  27.529  1.00  0.00    -0.248 NA
ATOM     59  C   UNL A   1      48.845  30.692  27.407  1.00  0.00     0.031 C 
ATOM     60  C   UNL A   1      47.150  25.040  25.941  1.00  0.00     0.029 A 
ATOM     61  C   UNL A   1      47.129  26.336  26.434  1.00  0.00     0.049 A 
ATOM     62  H   UNL A   1      45.587  27.336  27.464  1.00  0.00     0.167 HD
ATOM     63  C   UNL A   1      48.099  28.585  26.874  1.00  0.00     0.074 A 
ATOM     64  C   UNL A   1      49.173  29.556  26.804  1.00  0.00     0.031 C 
ATOM     65  C   UNL A   1      48.175  27.327  26.377  1.00  0.00     0.031 A 
BRANCH  52  66
ATOM     66  C   UNL A   1      43.119  23.859  27.215  1.00  0.00    -0.014 A 
ATOM     67  C   UNL A   1      42.315  23.635  26.084  1.00  0.00     0.010 A 
ATOM     68  C   UNL A   1      43.311  22.816  28.137  1.00  0.00     0.010 A 
ATOM     69  C   UNL A   1      41.695  22.398  25.891  1.00  0.00     0.020 A 
ATOM     70  C   UNL A   1      42.716  21.568  27.934  1.00  0.00     0.020 A 
ATOM     71  C   UNL A   1      41.903  21.370  26.816  1.00  0.00     0.054 A 
BRANCH  71  72
ATOM     72  S   UNL A   1      41.118  19.764  26.516  1.00  0.00     0.124 S 
ATOM     73  O   UNL A   1      40.902  19.275  27.875  1.00  0.00    -0.237 OA
ATOM     74  O   UNL A   1      39.911  20.133  25.782  1.00  0.00    -0.237 OA
ATOM     75  O   UNL A   1      42.115  19.027  25.742  1.00  0.00    -0.744 OA
ENDBRANCH  71  72
ENDBRANCH  52  66
BRANCH  53  76
ATOM     76  C   UNL A   1      47.318  32.882  28.678  1.00  0.00    -0.014 A 
ATOM     77  C   UNL A   1      48.071  33.197  29.823  1.00  0.00     0.010 A 
ATOM     78  C   UNL A   1      47.166  33.858  27.673  1.00  0.00     0.010 A 
ATOM     79  C   UNL A   1      48.654  34.461  29.962  1.00  0.00     0.020 A 
ATOM     80  C   UNL A   1      47.771  35.112  27.796  1.00  0.00     0.020 A 
ATOM     81  C   UNL A   1      48.505  35.408  28.945  1.00  0.00     0.054 A 
BRANCH  81  82
ATOM     82  S   UNL A   1      49.315  37.021  29.128  1.00  0.00     0.124 S 
ATOM     83  O   UNL A   1      48.775  37.764  27.995  1.00  0.00    -0.237 OA
ATOM     84  O   UNL A   1      48.858  37.452  30.446  1.00  0.00    -0.237 OA
ATOM     85  O   UNL A   1      50.739  36.702  29.044  1.00  0.00    -0.744 OA
ENDBRANCH  81  82
ENDBRANCH  53  76
BRANCH  65  86
ATOM     86  C   UNL A   1      49.452  26.913  25.698  1.00  0.00    -0.014 A 
ATOM     87  C   UNL A   1      49.845  27.507  24.488  1.00  0.00     0.010 A 
ATOM     88  C   UNL A   1      50.334  26.037  26.358  1.00  0.00     0.010 A 
ATOM     89  C   UNL A   1      51.106  27.237  23.952  1.00  0.00     0.020 A 
ATOM     90  C   UNL A   1      51.606  25.788  25.838  1.00  0.00     0.020 A 
ATOM     91  C   UNL A   1      51.984  26.392  24.639  1.00  0.00     0.054 A 
BRANCH  91  92
ATOM     92  S   UNL A   1      53.653  26.153  23.973  1.00  0.00     0.124 S 
ATOM     93  O   UNL A   1      53.388  25.929  22.554  1.00  0.00    -0.237 OA
ATOM     94  O   UNL A   1      54.308  27.418  24.299  1.00  0.00    -0.237 OA
ATOM     95  O   UNL A   1      54.156  24.991  24.703  1.00  0.00    -0.744 OA
ENDBRANCH  91  92
ENDBRANCH  65  86
ENDBRANCH  39  40
ENDBRANCH  32  34
ENDBRANCH  31  32
ENDBRANCH  30  31
ENDBRANCH  29  30
ENDBRANCH  28  29
ENDBRANCH   1  28
TORSDOF 21
ENDMDL
