MODEL 1
REMARK VINA RESULT:     -10.1      0.000      0.000
REMARK SMILES O=C(Cc1ccccc1Cl)Nc1ccc(C(=O)OCCOCCOC(=O)c2ccc(-c3c4nc(c(-c5ccc(S(=O)(=O)[O-])cc5)c5ccc([nH]5)c(-c5ccc(S(=O)(=O)[O-])cc5)c5nc(c(-c6ccc(S(=O)(=O)[O-])cc6)c6ccc3[nH]6)C=C5)C=C4)cc2)cc1
REMARK SMILES IDX 21 1 20 2 19 3 18 4 16 5 17 6 15 7 12 8 13 9 88 10 14 11
REMARK SMILES IDX 87 12 11 13 1 14 2 15 3 17 4 18 5 19 9 20 6 21 8 22 10 23
REMARK SMILES IDX 7 24 22 25 23 26 24 27 25 28 26 29 27 30 28 31 86 32 29 33
REMARK SMILES IDX 85 34 30 35 31 36 32 37 79 38 33 39 84 40 78 41 80 42 34 43
REMARK SMILES IDX 83 44 77 45 76 46 35 48 65 49 46 50 64 51 47 52 50 53 63 54
REMARK SMILES IDX 81 55 48 56 49 57 62 59 82 60 51 61 36 62 37 63 45 64 38 65
REMARK SMILES IDX 44 66 39 67 40 68 41 69 42 70 43 71 66 72 67 73 75 74 68 75
REMARK SMILES IDX 74 76 69 77 70 78 71 79 72 80 73 81 52 82 53 83 61 84 54 85
REMARK SMILES IDX 60 86 55 87 56 88 57 89 58 90 59 91
REMARK H PARENT 11 16 80 47 50 58
REMARK Flexibility Score: inf
ROOT
ATOM      1  O   UNL A   1      34.059  33.587  30.303  1.00  0.00    -0.374 OA
ENDROOT
BRANCH   1   2
ATOM      2  C   UNL A   1      33.650  33.757  28.945  1.00  0.00     0.202 C 
BRANCH   2   3
ATOM      3  C   UNL A   1      34.360  32.866  27.920  1.00  0.00     0.261 C 
BRANCH   3   4
ATOM      4  O   UNL A   1      33.670  31.617  27.749  1.00  0.00    -0.460 OA
BRANCH   4   5
ATOM      5  C   UNL A   1      34.438  30.599  27.296  1.00  0.00     0.338 C 
ATOM      6  O   UNL A   1      35.629  30.425  27.516  1.00  0.00    -0.246 OA
BRANCH   5   7
ATOM      7  C   UNL A   1      33.613  29.593  26.592  1.00  0.00     0.060 A 
ATOM      8  C   UNL A   1      32.270  27.543  25.227  1.00  0.00     0.041 A 
ATOM      9  C   UNL A   1      33.016  27.255  26.375  1.00  0.00     0.027 A 
ATOM     10  C   UNL A   1      32.127  28.873  24.821  1.00  0.00     0.027 A 
ATOM     11  C   UNL A   1      33.701  28.270  27.041  1.00  0.00     0.018 A 
ATOM     12  C   UNL A   1      32.786  29.902  25.509  1.00  0.00     0.018 A 
BRANCH   8  13
ATOM     13  N   UNL A   1      31.731  26.444  24.535  1.00  0.00    -0.326 N 
ATOM     14  O   UNL A   1      29.752  26.082  25.704  1.00  0.00    -0.274 OA
ATOM     15  C   UNL A   1      30.540  25.788  24.810  1.00  0.00     0.228 C 
ATOM     16  H   UNL A   1      32.253  26.102  23.774  1.00  0.00     0.169 HD
BRANCH  15  17
ATOM     17  C   UNL A   1      30.291  24.585  23.910  1.00  0.00     0.137 C 
BRANCH  17  18
ATOM     18  C   UNL A   1      31.345  23.499  23.993  1.00  0.00    -0.020 A 
ATOM     19  C   UNL A   1      32.288  23.381  22.953  1.00  0.00     0.006 A 
ATOM     20  C   UNL A   1      31.425  22.595  25.066  1.00  0.00     0.044 A 
ATOM     21  C   UNL A   1      33.269  22.389  22.978  1.00  0.00     0.000 A 
ATOM     22  C   UNL A   1      32.423  21.614  25.097  1.00  0.00     0.021 A 
ATOM     23  Cl  UNL A   1      30.332  22.657  26.400  1.00  0.00    -0.084 Cl
ATOM     24  C   UNL A   1      33.341  21.508  24.053  1.00  0.00     0.002 A 
ENDBRANCH  17  18
ENDBRANCH  15  17
ENDBRANCH   8  13
ENDBRANCH   5   7
ENDBRANCH   4   5
ENDBRANCH   3   4
ENDBRANCH   2   3
ENDBRANCH   1   2
BRANCH   1  25
ATOM     25  C   UNL A   1      35.399  33.140  30.517  1.00  0.00     0.202 C 
BRANCH  25  26
ATOM     26  C   UNL A   1      35.560  31.908  31.415  1.00  0.00     0.261 C 
BRANCH  26  27
ATOM     27  O   UNL A   1      36.178  30.815  30.711  1.00  0.00    -0.460 OA
BRANCH  27  28
ATOM     28  C   UNL A   1      36.971  30.023  31.470  1.00  0.00     0.338 C 
ATOM     29  O   UNL A   1      36.620  29.272  32.369  1.00  0.00    -0.246 OA
BRANCH  28  30
ATOM     30  C   UNL A   1      38.349  30.043  30.942  1.00  0.00     0.060 A 
ATOM     31  C   UNL A   1      38.512  30.219  29.561  1.00  0.00     0.016 A 
ATOM     32  C   UNL A   1      39.458  29.836  31.766  1.00  0.00     0.016 A 
ATOM     33  C   UNL A   1      39.781  30.137  28.991  1.00  0.00     0.010 A 
ATOM     34  C   UNL A   1      40.729  29.745  31.190  1.00  0.00     0.010 A 
ATOM     35  C   UNL A   1      40.892  29.860  29.798  1.00  0.00    -0.014 A 
BRANCH  35  36
ATOM     36  C   UNL A   1      42.197  29.539  29.171  1.00  0.00     0.031 A 
ATOM     37  C   UNL A   1      42.426  28.147  28.646  1.00  0.00     0.074 A 
ATOM     38  C   UNL A   1      43.158  30.473  29.060  1.00  0.00     0.049 A 
ATOM     39  N   UNL A   1      43.504  27.630  28.115  1.00  0.00    -0.248 NA
ATOM     40  C   UNL A   1      41.290  27.215  28.734  1.00  0.00     0.031 C 
ATOM     41  C   UNL A   1      43.038  31.866  29.485  1.00  0.00     0.029 A 
ATOM     42  N   UNL A   1      44.432  30.381  28.558  1.00  0.00    -0.354 N 
ATOM     43  C   UNL A   1      43.181  26.312  27.816  1.00  0.00     0.074 A 
ATOM     44  C   UNL A   1      41.815  26.101  28.247  1.00  0.00     0.031 C 
ATOM     45  C   UNL A   1      44.199  32.498  29.235  1.00  0.00     0.029 A 
ATOM     46  C   UNL A   1      45.152  31.547  28.668  1.00  0.00     0.049 A 
ATOM     47  H   UNL A   1      44.797  29.559  28.157  1.00  0.00     0.167 HD
ATOM     48  C   UNL A   1      43.951  25.362  27.233  1.00  0.00     0.031 A 
ATOM     49  C   UNL A   1      46.439  31.809  28.366  1.00  0.00     0.031 A 
ATOM     50  C   UNL A   1      45.311  25.571  26.817  1.00  0.00     0.049 A 
ATOM     51  C   UNL A   1      47.300  30.716  27.788  1.00  0.00     0.074 A 
ATOM     52  C   UNL A   1      46.172  24.675  26.207  1.00  0.00     0.029 A 
ATOM     53  N   UNL A   1      46.012  26.756  26.974  1.00  0.00    -0.354 N 
ATOM     54  N   UNL A   1      46.976  29.479  27.496  1.00  0.00    -0.248 NA
ATOM     55  C   UNL A   1      48.700  31.057  27.495  1.00  0.00     0.031 C 
ATOM     56  C   UNL A   1      47.411  25.304  26.043  1.00  0.00     0.029 A 
ATOM     57  C   UNL A   1      47.303  26.609  26.496  1.00  0.00     0.049 A 
ATOM     58  H   UNL A   1      45.647  27.582  27.367  1.00  0.00     0.167 HD
ATOM     59  C   UNL A   1      48.123  28.904  26.955  1.00  0.00     0.074 A 
ATOM     60  C   UNL A   1      49.145  29.929  26.956  1.00  0.00     0.031 C 
ATOM     61  C   UNL A   1      48.309  27.642  26.496  1.00  0.00     0.031 A 
BRANCH  48  62
ATOM     62  C   UNL A   1      43.345  23.997  27.045  1.00  0.00    -0.014 A 
ATOM     63  C   UNL A   1      43.270  23.078  28.107  1.00  0.00     0.010 A 
ATOM     64  C   UNL A   1      42.814  23.639  25.791  1.00  0.00     0.010 A 
ATOM     65  C   UNL A   1      42.711  21.813  27.909  1.00  0.00     0.020 A 
ATOM     66  C   UNL A   1      42.230  22.384  25.596  1.00  0.00     0.020 A 
ATOM     67  C   UNL A   1      42.198  21.472  26.653  1.00  0.00     0.054 A 
BRANCH  67  68
ATOM     68  S   UNL A   1      41.463  19.829  26.428  1.00  0.00     0.124 S 
ATOM     69  O   UNL A   1      42.236  19.306  25.303  1.00  0.00    -0.237 OA
ATOM     70  O   UNL A   1      41.713  19.186  27.713  1.00  0.00    -0.237 OA
ATOM     71  O   UNL A   1      40.060  20.113  26.138  1.00  0.00    -0.744 OA
ENDBRANCH  67  68
ENDBRANCH  48  62
BRANCH  49  72
ATOM     72  C   UNL A   1      47.002  33.163  28.625  1.00  0.00    -0.014 A 
ATOM     73  C   UNL A   1      46.947  34.163  27.638  1.00  0.00     0.010 A 
ATOM     74  C   UNL A   1      47.594  33.460  29.867  1.00  0.00     0.010 A 
ATOM     75  C   UNL A   1      47.488  35.429  27.883  1.00  0.00     0.020 A 
ATOM     76  C   UNL A   1      48.113  34.732  30.124  1.00  0.00     0.020 A 
ATOM     77  C   UNL A   1      48.066  35.705  29.125  1.00  0.00     0.054 A 
BRANCH  77  78
ATOM     78  S   UNL A   1      48.717  37.370  29.437  1.00  0.00     0.124 S 
ATOM     79  O   UNL A   1      48.648  37.455  30.892  1.00  0.00    -0.237 OA
ATOM     80  O   UNL A   1      50.061  37.296  28.870  1.00  0.00    -0.237 OA
ATOM     81  O   UNL A   1      47.792  38.240  28.713  1.00  0.00    -0.744 OA
ENDBRANCH  77  78
ENDBRANCH  49  72
BRANCH  61  82
ATOM     82  C   UNL A   1      49.654  27.302  25.911  1.00  0.00    -0.014 A 
ATOM     83  C   UNL A   1      50.634  26.637  26.668  1.00  0.00     0.010 A 
ATOM     84  C   UNL A   1      49.909  27.586  24.556  1.00  0.00     0.010 A 
ATOM     85  C   UNL A   1      51.854  26.282  26.086  1.00  0.00     0.020 A 
ATOM     86  C   UNL A   1      51.117  27.211  23.965  1.00  0.00     0.020 A 
ATOM     87  C   UNL A   1      52.088  26.570  24.737  1.00  0.00     0.054 A 
BRANCH  87  88
ATOM     88  S   UNL A   1      53.655  26.045  23.989  1.00  0.00     0.124 S 
ATOM     89  O   UNL A   1      53.888  24.759  24.643  1.00  0.00    -0.237 OA
ATOM     90  O   UNL A   1      53.326  25.976  22.567  1.00  0.00    -0.237 OA
ATOM     91  O   UNL A   1      54.587  27.108  24.356  1.00  0.00    -0.744 OA
ENDBRANCH  87  88
ENDBRANCH  61  82
ENDBRANCH  35  36
ENDBRANCH  28  30
ENDBRANCH  27  28
ENDBRANCH  26  27
ENDBRANCH  25  26
ENDBRANCH   1  25
TORSDOF 20
ENDMDL
MODEL 2
REMARK VINA RESULT:      -9.9      1.471      8.397
REMARK SMILES O=C(Cc1ccccc1Cl)Nc1ccc(C(=O)OCCOCCOC(=O)c2ccc(-c3c4nc(c(-c5ccc(S(=O)(=O)[O-])cc5)c5ccc([nH]5)c(-c5ccc(S(=O)(=O)[O-])cc5)c5nc(c(-c6ccc(S(=O)(=O)[O-])cc6)c6ccc3[nH]6)C=C5)C=C4)cc2)cc1
REMARK SMILES IDX 21 1 20 2 19 3 18 4 16 5 17 6 15 7 12 8 13 9 88 10 14 11
REMARK SMILES IDX 87 12 11 13 1 14 2 15 3 17 4 18 5 19 9 20 6 21 8 22 10 23
REMARK SMILES IDX 7 24 22 25 23 26 24 27 25 28 26 29 27 30 28 31 86 32 29 33
REMARK SMILES IDX 85 34 30 35 31 36 32 37 79 38 33 39 84 40 78 41 80 42 34 43
REMARK SMILES IDX 83 44 77 45 76 46 35 48 65 49 46 50 64 51 47 52 50 53 63 54
REMARK SMILES IDX 81 55 48 56 49 57 62 59 82 60 51 61 36 62 37 63 45 64 38 65
REMARK SMILES IDX 44 66 39 67 40 68 41 69 42 70 43 71 66 72 67 73 75 74 68 75
REMARK SMILES IDX 74 76 69 77 70 78 71 79 72 80 73 81 52 82 53 83 61 84 54 85
REMARK SMILES IDX 60 86 55 87 56 88 57 89 58 90 59 91
REMARK H PARENT 11 16 80 47 50 58
REMARK Flexibility Score: inf
ROOT
ATOM      1  O   UNL A   1      35.093  34.273  32.554  1.00  0.00    -0.374 OA
ENDROOT
BRANCH   1   2
ATOM      2  C   UNL A   1      34.102  35.259  32.261  1.00  0.00     0.202 C 
BRANCH   2   3
ATOM      3  C   UNL A   1      33.575  35.267  30.822  1.00  0.00     0.261 C 
BRANCH   3   4
ATOM      4  O   UNL A   1      33.655  33.960  30.231  1.00  0.00    -0.460 OA
BRANCH   4   5
ATOM      5  C   UNL A   1      34.276  33.915  29.030  1.00  0.00     0.338 C 
ATOM      6  O   UNL A   1      35.230  34.593  28.671  1.00  0.00    -0.246 OA
BRANCH   5   7
ATOM      7  C   UNL A   1      33.749  32.803  28.208  1.00  0.00     0.060 A 
ATOM      8  C   UNL A   1      32.526  30.712  26.793  1.00  0.00     0.041 A 
ATOM      9  C   UNL A   1      31.914  31.968  26.866  1.00  0.00     0.027 A 
ATOM     10  C   UNL A   1      33.796  30.538  27.354  1.00  0.00     0.027 A 
ATOM     11  C   UNL A   1      32.511  33.000  27.588  1.00  0.00     0.018 A 
ATOM     12  C   UNL A   1      34.416  31.584  28.051  1.00  0.00     0.018 A 
BRANCH   8  13
ATOM     13  N   UNL A   1      31.791  29.688  26.170  1.00  0.00    -0.326 N 
ATOM     14  O   UNL A   1      33.024  29.344  24.228  1.00  0.00    -0.274 OA
ATOM     15  C   UNL A   1      32.068  29.085  24.953  1.00  0.00     0.228 C 
ATOM     16  H   UNL A   1      30.994  29.364  26.648  1.00  0.00     0.169 HD
BRANCH  15  17
ATOM     17  C   UNL A   1      31.022  28.060  24.533  1.00  0.00     0.137 C 
BRANCH  17  18
ATOM     18  C   UNL A   1      31.385  26.620  24.837  1.00  0.00    -0.020 A 
ATOM     19  C   UNL A   1      31.140  26.111  26.128  1.00  0.00     0.006 A 
ATOM     20  C   UNL A   1      31.959  25.762  23.884  1.00  0.00     0.044 A 
ATOM     21  C   UNL A   1      31.468  24.795  26.458  1.00  0.00     0.000 A 
ATOM     22  C   UNL A   1      32.268  24.437  24.213  1.00  0.00     0.021 A 
ATOM     23  Cl  UNL A   1      32.288  26.275  22.269  1.00  0.00    -0.084 Cl
ATOM     24  C   UNL A   1      32.028  23.956  25.500  1.00  0.00     0.002 A 
ENDBRANCH  17  18
ENDBRANCH  15  17
ENDBRANCH   8  13
ENDBRANCH   5   7
ENDBRANCH   4   5
ENDBRANCH   3   4
ENDBRANCH   2   3
ENDBRANCH   1   2
BRANCH   1  25
ATOM     25  C   UNL A   1      36.450  34.718  32.585  1.00  0.00     0.202 C 
BRANCH  25  26
ATOM     26  C   UNL A   1      37.496  33.719  32.080  1.00  0.00     0.261 C 
BRANCH  26  27
ATOM     27  O   UNL A   1      37.059  33.050  30.883  1.00  0.00    -0.460 OA
BRANCH  27  28
ATOM     28  C   UNL A   1      36.834  31.722  31.021  1.00  0.00     0.338 C 
ATOM     29  O   UNL A   1      35.801  31.183  31.393  1.00  0.00    -0.246 OA
BRANCH  28  30
ATOM     30  C   UNL A   1      37.976  30.963  30.477  1.00  0.00     0.060 A 
ATOM     31  C   UNL A   1      38.918  30.466  31.388  1.00  0.00     0.016 A 
ATOM     32  C   UNL A   1      38.158  30.787  29.103  1.00  0.00     0.016 A 
ATOM     33  C   UNL A   1      40.073  29.837  30.926  1.00  0.00     0.010 A 
ATOM     34  C   UNL A   1      39.322  30.164  28.642  1.00  0.00     0.010 A 
ATOM     35  C   UNL A   1      40.300  29.718  29.549  1.00  0.00    -0.014 A 
BRANCH  35  36
ATOM     36  C   UNL A   1      41.624  29.268  29.056  1.00  0.00     0.031 A 
ATOM     37  C   UNL A   1      42.742  30.272  28.960  1.00  0.00     0.074 A 
ATOM     38  C   UNL A   1      41.833  27.985  28.710  1.00  0.00     0.049 A 
ATOM     39  N   UNL A   1      43.958  30.115  28.505  1.00  0.00    -0.248 NA
ATOM     40  C   UNL A   1      42.447  31.632  29.439  1.00  0.00     0.031 C 
ATOM     41  C   UNL A   1      40.845  26.911  28.804  1.00  0.00     0.029 A 
ATOM     42  N   UNL A   1      42.951  27.373  28.201  1.00  0.00    -0.354 N 
ATOM     43  C   UNL A   1      44.570  31.356  28.632  1.00  0.00     0.074 A 
ATOM     44  C   UNL A   1      43.584  32.261  29.183  1.00  0.00     0.031 C 
ATOM     45  C   UNL A   1      41.399  25.771  28.356  1.00  0.00     0.029 A 
ATOM     46  C   UNL A   1      42.765  26.042  27.910  1.00  0.00     0.049 A 
ATOM     47  H   UNL A   1      43.805  27.841  28.057  1.00  0.00     0.167 HD
ATOM     48  C   UNL A   1      45.839  31.711  28.320  1.00  0.00     0.031 A 
ATOM     49  C   UNL A   1      43.594  25.152  27.330  1.00  0.00     0.031 A 
ATOM     50  C   UNL A   1      46.812  30.812  27.761  1.00  0.00     0.049 A 
ATOM     51  C   UNL A   1      44.977  25.587  26.921  1.00  0.00     0.074 A 
ATOM     52  C   UNL A   1      48.129  31.073  27.419  1.00  0.00     0.029 A 
ATOM     53  N   UNL A   1      46.575  29.481  27.454  1.00  0.00    -0.354 N 
ATOM     54  N   UNL A   1      45.547  26.760  27.063  1.00  0.00    -0.248 NA
ATOM     55  C   UNL A   1      45.830  24.577  26.279  1.00  0.00     0.031 C 
ATOM     56  C   UNL A   1      48.671  29.912  26.857  1.00  0.00     0.029 A 
ATOM     57  C   UNL A   1      47.712  28.913  26.904  1.00  0.00     0.049 A 
ATOM     58  H   UNL A   1      45.724  29.009  27.604  1.00  0.00     0.167 HD
ATOM     59  C   UNL A   1      46.836  26.620  26.555  1.00  0.00     0.074 A 
ATOM     60  C   UNL A   1      46.962  25.247  26.110  1.00  0.00     0.031 C 
ATOM     61  C   UNL A   1      47.825  27.543  26.471  1.00  0.00     0.031 A 
BRANCH  48  62
ATOM     62  C   UNL A   1      46.234  33.146  28.545  1.00  0.00    -0.014 A 
ATOM     63  C   UNL A   1      46.573  33.618  29.826  1.00  0.00     0.010 A 
ATOM     64  C   UNL A   1      46.299  34.028  27.450  1.00  0.00     0.010 A 
ATOM     65  C   UNL A   1      46.930  34.956  30.013  1.00  0.00     0.020 A 
ATOM     66  C   UNL A   1      46.682  35.361  27.630  1.00  0.00     0.020 A 
ATOM     67  C   UNL A   1      46.978  35.820  28.915  1.00  0.00     0.054 A 
BRANCH  67  68
ATOM     68  S   UNL A   1      47.460  37.548  29.185  1.00  0.00     0.124 S 
ATOM     69  O   UNL A   1      47.186  38.144  27.879  1.00  0.00    -0.237 OA
ATOM     70  O   UNL A   1      46.571  37.965  30.264  1.00  0.00    -0.237 OA
ATOM     71  O   UNL A   1      48.874  37.463  29.544  1.00  0.00    -0.744 OA
ENDBRANCH  67  68
ENDBRANCH  48  62
BRANCH  49  72
ATOM     72  C   UNL A   1      43.131  23.759  27.082  1.00  0.00    -0.014 A 
ATOM     73  C   UNL A   1      43.085  22.821  28.128  1.00  0.00     0.010 A 
ATOM     74  C   UNL A   1      42.731  23.364  25.791  1.00  0.00     0.010 A 
ATOM     75  C   UNL A   1      42.661  21.511  27.885  1.00  0.00     0.020 A 
ATOM     76  C   UNL A   1      42.282  22.063  25.550  1.00  0.00     0.020 A 
ATOM     77  C   UNL A   1      42.261  21.141  26.598  1.00  0.00     0.054 A 
BRANCH  77  78
ATOM     78  S   UNL A   1      41.667  19.449  26.317  1.00  0.00     0.124 S 
ATOM     79  O   UNL A   1      40.243  19.662  26.081  1.00  0.00    -0.237 OA
ATOM     80  O   UNL A   1      42.446  19.029  25.155  1.00  0.00    -0.237 OA
ATOM     81  O   UNL A   1      42.000  18.759  27.562  1.00  0.00    -0.744 OA
ENDBRANCH  77  78
ENDBRANCH  49  72
BRANCH  61  82
ATOM     82  C   UNL A   1      49.152  27.097  25.917  1.00  0.00    -0.014 A 
ATOM     83  C   UNL A   1      49.486  27.297  24.567  1.00  0.00     0.010 A 
ATOM     84  C   UNL A   1      50.109  26.537  26.785  1.00  0.00     0.010 A 
ATOM     85  C   UNL A   1      50.746  26.926  24.089  1.00  0.00     0.020 A 
ATOM     86  C   UNL A   1      51.378  26.188  26.316  1.00  0.00     0.020 A 
ATOM     87  C   UNL A   1      51.685  26.374  24.968  1.00  0.00     0.054 A 
BRANCH  87  88
ATOM     88  S   UNL A   1      53.333  25.957  24.337  1.00  0.00     0.124 S 
ATOM     89  O   UNL A   1      54.165  26.988  24.952  1.00  0.00    -0.237 OA
ATOM     90  O   UNL A   1      53.538  24.601  24.841  1.00  0.00    -0.237 OA
ATOM     91  O   UNL A   1      53.186  26.060  22.886  1.00  0.00    -0.744 OA
ENDBRANCH  87  88
ENDBRANCH  61  82
ENDBRANCH  35  36
ENDBRANCH  28  30
ENDBRANCH  27  28
ENDBRANCH  26  27
ENDBRANCH  25  26
ENDBRANCH   1  25
TORSDOF 20
ENDMDL
MODEL 3
REMARK VINA RESULT:      -9.8      1.200      8.222
REMARK SMILES O=C(Cc1ccccc1Cl)Nc1ccc(C(=O)OCCOCCOC(=O)c2ccc(-c3c4nc(c(-c5ccc(S(=O)(=O)[O-])cc5)c5ccc([nH]5)c(-c5ccc(S(=O)(=O)[O-])cc5)c5nc(c(-c6ccc(S(=O)(=O)[O-])cc6)c6ccc3[nH]6)C=C5)C=C4)cc2)cc1
REMARK SMILES IDX 21 1 20 2 19 3 18 4 16 5 17 6 15 7 12 8 13 9 88 10 14 11
REMARK SMILES IDX 87 12 11 13 1 14 2 15 3 17 4 18 5 19 9 20 6 21 8 22 10 23
REMARK SMILES IDX 7 24 22 25 23 26 24 27 25 28 26 29 27 30 28 31 86 32 29 33
REMARK SMILES IDX 85 34 30 35 31 36 32 37 79 38 33 39 84 40 78 41 80 42 34 43
REMARK SMILES IDX 83 44 77 45 76 46 35 48 65 49 46 50 64 51 47 52 50 53 63 54
REMARK SMILES IDX 81 55 48 56 49 57 62 59 82 60 51 61 36 62 37 63 45 64 38 65
REMARK SMILES IDX 44 66 39 67 40 68 41 69 42 70 43 71 66 72 67 73 75 74 68 75
REMARK SMILES IDX 74 76 69 77 70 78 71 79 72 80 73 81 52 82 53 83 61 84 54 85
REMARK SMILES IDX 60 86 55 87 56 88 57 89 58 90 59 91
REMARK H PARENT 11 16 80 47 50 58
REMARK Flexibility Score: inf
ROOT
ATOM      1  O   UNL A   1      35.727  33.334  28.879  1.00  0.00    -0.374 OA
ENDROOT
BRANCH   1   2
ATOM      2  C   UNL A   1      35.166  32.600  27.790  1.00  0.00     0.202 C 
BRANCH   2   3
ATOM      3  C   UNL A   1      33.665  32.309  27.887  1.00  0.00     0.261 C 
BRANCH   3   4
ATOM      4  O   UNL A   1      33.404  30.896  27.841  1.00  0.00    -0.460 OA
BRANCH   4   5
ATOM      5  C   UNL A   1      32.344  30.537  27.080  1.00  0.00     0.338 C 
ATOM      6  O   UNL A   1      31.406  31.249  26.746  1.00  0.00    -0.246 OA
BRANCH   5   7
ATOM      7  C   UNL A   1      32.523  29.169  26.545  1.00  0.00     0.060 A 
ATOM      8  C   UNL A   1      32.892  26.686  25.293  1.00  0.00     0.041 A 
ATOM      9  C   UNL A   1      33.862  27.687  25.175  1.00  0.00     0.027 A 
ATOM     10  C   UNL A   1      31.782  26.904  26.116  1.00  0.00     0.027 A 
ATOM     11  C   UNL A   1      33.668  28.929  25.779  1.00  0.00     0.018 A 
ATOM     12  C   UNL A   1      31.600  28.140  26.754  1.00  0.00     0.018 A 
BRANCH   8  13
ATOM     13  N   UNL A   1      33.097  25.518  24.537  1.00  0.00    -0.326 N 
ATOM     14  O   UNL A   1      32.658  23.861  26.109  1.00  0.00    -0.274 OA
ATOM     15  C   UNL A   1      32.980  24.209  24.977  1.00  0.00     0.228 C 
ATOM     16  H   UNL A   1      33.350  25.643  23.594  1.00  0.00     0.169 HD
BRANCH  15  17
ATOM     17  C   UNL A   1      33.348  23.180  23.916  1.00  0.00     0.137 C 
BRANCH  17  18
ATOM     18  C   UNL A   1      34.641  22.432  24.176  1.00  0.00    -0.020 A 
ATOM     19  C   UNL A   1      35.847  22.957  23.670  1.00  0.00     0.006 A 
ATOM     20  C   UNL A   1      34.693  21.230  24.901  1.00  0.00     0.044 A 
ATOM     21  C   UNL A   1      37.061  22.298  23.873  1.00  0.00     0.000 A 
ATOM     22  C   UNL A   1      35.916  20.583  25.119  1.00  0.00     0.021 A 
ATOM     23  Cl  UNL A   1      33.281  20.506  25.579  1.00  0.00    -0.084 Cl
ATOM     24  C   UNL A   1      37.097  21.113  24.601  1.00  0.00     0.002 A 
ENDBRANCH  17  18
ENDBRANCH  15  17
ENDBRANCH   8  13
ENDBRANCH   5   7
ENDBRANCH   4   5
ENDBRANCH   3   4
ENDBRANCH   2   3
ENDBRANCH   1   2
BRANCH   1  25
ATOM     25  C   UNL A   1      34.979  33.348  30.095  1.00  0.00     0.202 C 
BRANCH  25  26
ATOM     26  C   UNL A   1      35.230  32.178  31.053  1.00  0.00     0.261 C 
BRANCH  26  27
ATOM     27  O   UNL A   1      36.050  31.163  30.448  1.00  0.00    -0.460 OA
BRANCH  27  28
ATOM     28  C   UNL A   1      36.760  30.407  31.319  1.00  0.00     0.338 C 
ATOM     29  O   UNL A   1      36.324  29.769  32.267  1.00  0.00    -0.246 OA
BRANCH  28  30
ATOM     30  C   UNL A   1      38.159  30.300  30.863  1.00  0.00     0.060 A 
ATOM     31  C   UNL A   1      38.392  30.288  29.481  1.00  0.00     0.016 A 
ATOM     32  C   UNL A   1      39.219  30.154  31.761  1.00  0.00     0.016 A 
ATOM     33  C   UNL A   1      39.680  30.080  28.991  1.00  0.00     0.010 A 
ATOM     34  C   UNL A   1      40.509  29.936  31.266  1.00  0.00     0.010 A 
ATOM     35  C   UNL A   1      40.739  29.862  29.881  1.00  0.00    -0.014 A 
BRANCH  35  36
ATOM     36  C   UNL A   1      42.053  29.407  29.367  1.00  0.00     0.031 A 
ATOM     37  C   UNL A   1      43.187  30.394  29.300  1.00  0.00     0.074 A 
ATOM     38  C   UNL A   1      42.239  28.133  28.978  1.00  0.00     0.049 A 
ATOM     39  N   UNL A   1      44.399  30.233  28.835  1.00  0.00    -0.248 NA
ATOM     40  C   UNL A   1      42.917  31.743  29.826  1.00  0.00     0.031 C 
ATOM     41  C   UNL A   1      41.235  27.073  29.040  1.00  0.00     0.029 A 
ATOM     42  N   UNL A   1      43.345  27.519  28.444  1.00  0.00    -0.354 N 
ATOM     43  C   UNL A   1      45.032  31.459  29.001  1.00  0.00     0.074 A 
ATOM     44  C   UNL A   1      44.063  32.361  29.586  1.00  0.00     0.031 C 
ATOM     45  C   UNL A   1      41.768  25.939  28.552  1.00  0.00     0.029 A 
ATOM     46  C   UNL A   1      43.136  26.203  28.110  1.00  0.00     0.049 A 
ATOM     47  H   UNL A   1      44.206  27.979  28.312  1.00  0.00     0.167 HD
ATOM     48  C   UNL A   1      46.305  31.803  28.695  1.00  0.00     0.031 A 
ATOM     49  C   UNL A   1      43.948  25.319  27.497  1.00  0.00     0.031 A 
ATOM     50  C   UNL A   1      47.261  30.908  28.102  1.00  0.00     0.049 A 
ATOM     51  C   UNL A   1      45.337  25.745  27.097  1.00  0.00     0.074 A 
ATOM     52  C   UNL A   1      48.581  31.158  27.764  1.00  0.00     0.029 A 
ATOM     53  N   UNL A   1      47.001  29.592  27.752  1.00  0.00    -0.354 N 
ATOM     54  N   UNL A   1      45.927  26.902  27.275  1.00  0.00    -0.248 NA
ATOM     55  C   UNL A   1      46.170  24.742  26.417  1.00  0.00     0.031 C 
ATOM     56  C   UNL A   1      49.101  30.008  27.161  1.00  0.00     0.029 A 
ATOM     57  C   UNL A   1      48.126  29.024  27.178  1.00  0.00     0.049 A 
ATOM     58  H   UNL A   1      46.143  29.129  27.890  1.00  0.00     0.167 HD
ATOM     59  C   UNL A   1      47.211  26.758  26.757  1.00  0.00     0.074 A 
ATOM     60  C   UNL A   1      47.313  25.400  26.266  1.00  0.00     0.031 C 
ATOM     61  C   UNL A   1      48.215  27.667  26.700  1.00  0.00     0.031 A 
BRANCH  48  62
ATOM     62  C   UNL A   1      46.725  33.223  28.966  1.00  0.00    -0.014 A 
ATOM     63  C   UNL A   1      47.304  33.592  30.193  1.00  0.00     0.010 A 
ATOM     64  C   UNL A   1      46.567  34.198  27.962  1.00  0.00     0.010 A 
ATOM     65  C   UNL A   1      47.679  34.918  30.427  1.00  0.00     0.020 A 
ATOM     66  C   UNL A   1      46.966  35.519  28.183  1.00  0.00     0.020 A 
ATOM     67  C   UNL A   1      47.505  35.874  29.422  1.00  0.00     0.054 A 
BRANCH  67  68
ATOM     68  S   UNL A   1      48.016  37.584  29.746  1.00  0.00     0.124 S 
ATOM     69  O   UNL A   1      48.876  37.863  28.597  1.00  0.00    -0.237 OA
ATOM     70  O   UNL A   1      46.745  38.300  29.767  1.00  0.00    -0.237 OA
ATOM     71  O   UNL A   1      48.705  37.503  31.031  1.00  0.00    -0.744 OA
ENDBRANCH  67  68
ENDBRANCH  48  62
BRANCH  49  72
ATOM     72  C   UNL A   1      43.461  23.943  27.204  1.00  0.00    -0.014 A 
ATOM     73  C   UNL A   1      43.261  23.016  28.242  1.00  0.00     0.010 A 
ATOM     74  C   UNL A   1      43.193  23.553  25.878  1.00  0.00     0.010 A 
ATOM     75  C   UNL A   1      42.815  21.721  27.959  1.00  0.00     0.020 A 
ATOM     76  C   UNL A   1      42.723  22.268  25.594  1.00  0.00     0.020 A 
ATOM     77  C   UNL A   1      42.548  21.356  26.637  1.00  0.00     0.054 A 
BRANCH  77  78
ATOM     78  S   UNL A   1      41.923  19.686  26.299  1.00  0.00     0.124 S 
ATOM     79  O   UNL A   1      42.403  18.942  27.458  1.00  0.00    -0.237 OA
ATOM     80  O   UNL A   1      40.479  19.897  26.235  1.00  0.00    -0.237 OA
ATOM     81  O   UNL A   1      42.550  19.338  25.026  1.00  0.00    -0.744 OA
ENDBRANCH  77  78
ENDBRANCH  49  72
BRANCH  61  82
ATOM     82  C   UNL A   1      49.532  27.218  26.126  1.00  0.00    -0.014 A 
ATOM     83  C   UNL A   1      50.366  26.324  26.818  1.00  0.00     0.010 A 
ATOM     84  C   UNL A   1      49.903  27.642  24.835  1.00  0.00     0.010 A 
ATOM     85  C   UNL A   1      51.558  25.878  26.240  1.00  0.00     0.020 A 
ATOM     86  C   UNL A   1      51.081  27.179  24.244  1.00  0.00     0.020 A 
ATOM     87  C   UNL A   1      51.907  26.307  24.955  1.00  0.00     0.054 A 
BRANCH  87  88
ATOM     88  S   UNL A   1      53.428  25.667  24.202  1.00  0.00     0.124 S 
ATOM     89  O   UNL A   1      54.436  26.590  24.719  1.00  0.00    -0.237 OA
ATOM     90  O   UNL A   1      53.497  24.305  24.725  1.00  0.00    -0.237 OA
ATOM     91  O   UNL A   1      53.172  25.765  22.767  1.00  0.00    -0.744 OA
ENDBRANCH  87  88
ENDBRANCH  61  82
ENDBRANCH  35  36
ENDBRANCH  28  30
ENDBRANCH  27  28
ENDBRANCH  26  27
ENDBRANCH  25  26
ENDBRANCH   1  25
TORSDOF 20
ENDMDL
