MODEL 1
REMARK VINA RESULT:     -10.9      0.000      0.000
REMARK SMILES COc1ccc2[nH]c(C(=O)c3cc(C)ccn3)c(CC(=O)OCCOCCOC(=O)c3ccc(-c4c5nc(c(-c6ccc(S(=O)(=O)[O-])cc6)c6ccc([nH]6)c(-c6ccc(S(=O)(=O)[O-])cc6)c6nc(c(-c7ccc(S(=O)(=O)[O-])cc7)c7ccc4[nH]7)C=C6)C=C5)cc3)c2c1
REMARK SMILES IDX 25 1 24 2 23 3 22 4 20 5 21 6 19 7 18 8 3 9 4 10 92 11 5 12
REMARK SMILES IDX 91 13 6 14 7 15 8 16 2 18 1 19 9 20 10 21 11 22 12 23 17 24
REMARK SMILES IDX 13 25 16 26 14 27 15 28 26 29 27 30 28 31 29 32 30 33 31 34
REMARK SMILES IDX 32 35 90 36 33 37 89 38 34 39 35 40 36 41 83 42 37 43 88 44
REMARK SMILES IDX 82 45 84 46 38 47 87 48 81 49 80 50 39 52 69 53 50 54 68 55
REMARK SMILES IDX 51 56 54 57 67 58 85 59 52 60 53 61 66 63 86 64 55 65 40 66
REMARK SMILES IDX 41 67 49 68 42 69 48 70 43 71 44 72 45 73 46 74 47 75 70 76
REMARK SMILES IDX 71 77 79 78 72 79 78 80 73 81 74 82 75 83 76 84 77 85 56 86
REMARK SMILES IDX 57 87 65 88 58 89 64 90 59 91 60 92 61 93 62 94 63 95
REMARK H PARENT 7 17 84 51 54 62
REMARK Flexibility Score: inf
ROOT
ATOM      1  O   UNL A   1      32.494  28.186  27.261  1.00  0.00    -0.374 OA
ENDROOT
BRANCH   1   2
ATOM      2  C   UNL A   1      31.623  27.067  27.109  1.00  0.00     0.202 C 
BRANCH   2   3
ATOM      3  C   UNL A   1      32.186  25.806  26.431  1.00  0.00     0.261 C 
BRANCH   3   4
ATOM      4  O   UNL A   1      31.787  24.564  27.050  1.00  0.00    -0.463 OA
BRANCH   4   5
ATOM      5  C   UNL A   1      30.611  24.043  26.600  1.00  0.00     0.310 C 
ATOM      6  O   UNL A   1      29.504  24.489  26.902  1.00  0.00    -0.252 OA
BRANCH   5   7
ATOM      7  C   UNL A   1      30.730  22.914  25.594  1.00  0.00     0.161 C 
BRANCH   7   8
ATOM      8  C   UNL A   1      31.609  23.105  24.388  1.00  0.00     0.000 A 
ATOM      9  C   UNL A   1      30.919  26.358  22.472  1.00  0.00     0.119 A 
ATOM     10  C   UNL A   1      31.939  26.193  21.536  1.00  0.00     0.048 A 
ATOM     11  C   UNL A   1      30.693  25.372  23.442  1.00  0.00     0.057 A 
ATOM     12  C   UNL A   1      32.747  25.047  21.544  1.00  0.00     0.030 A 
ATOM     13  C   UNL A   1      31.512  24.224  23.491  1.00  0.00     0.008 A 
ATOM     14  C   UNL A   1      32.518  24.092  22.543  1.00  0.00     0.046 A 
ATOM     15  N   UNL A   1      33.174  22.915  22.818  1.00  0.00    -0.352 N 
ATOM     16  C   UNL A   1      32.763  22.393  24.029  1.00  0.00     0.093 A 
ATOM     17  H   UNL A   1      33.847  22.501  22.230  1.00  0.00     0.167 HD
BRANCH   9  18
ATOM     18  O   UNL A   1      30.119  27.463  22.587  1.00  0.00    -0.497 OA
ATOM     19  C   UNL A   1      30.746  28.724  22.382  1.00  0.00     0.278 C 
ENDBRANCH   9  18
BRANCH  16  20
ATOM     20  C   UNL A   1      33.446  21.317  24.751  1.00  0.00     0.227 C 
ATOM     21  O   UNL A   1      34.097  21.500  25.779  1.00  0.00    -0.285 OA
BRANCH  20  22
ATOM     22  C   UNL A   1      33.344  19.911  24.254  1.00  0.00     0.113 A 
ATOM     23  C   UNL A   1      34.166  18.904  24.741  1.00  0.00     0.036 A 
ATOM     24  N   UNL A   1      32.399  19.706  23.303  1.00  0.00    -0.253 NA
ATOM     25  C   UNL A   1      34.023  17.621  24.196  1.00  0.00    -0.047 A 
ATOM     26  C   UNL A   1      32.295  18.474  22.776  1.00  0.00     0.112 A 
ATOM     27  C   UNL A   1      34.845  16.464  24.676  1.00  0.00     0.044 C 
ATOM     28  C   UNL A   1      33.079  17.412  23.183  1.00  0.00     0.023 A 
ENDBRANCH  20  22
ENDBRANCH  16  20
ENDBRANCH   7   8
ENDBRANCH   5   7
ENDBRANCH   4   5
ENDBRANCH   3   4
ENDBRANCH   2   3
ENDBRANCH   1   2
BRANCH   1  29
ATOM     29  C   UNL A   1      31.998  29.456  26.852  1.00  0.00     0.202 C 
BRANCH  29  30
ATOM     30  C   UNL A   1      32.818  30.689  27.235  1.00  0.00     0.261 C 
BRANCH  30  31
ATOM     31  O   UNL A   1      34.233  30.515  27.213  1.00  0.00    -0.460 OA
BRANCH  31  32
ATOM     32  C   UNL A   1      34.869  30.986  28.305  1.00  0.00     0.338 C 
ATOM     33  O   UNL A   1      34.485  31.820  29.109  1.00  0.00    -0.246 OA
BRANCH  32  34
ATOM     34  C   UNL A   1      36.136  30.268  28.438  1.00  0.00     0.060 A 
ATOM     35  C   UNL A   1      36.448  29.700  29.675  1.00  0.00     0.016 A 
ATOM     36  C   UNL A   1      37.037  30.244  27.372  1.00  0.00     0.016 A 
ATOM     37  C   UNL A   1      37.708  29.146  29.867  1.00  0.00     0.010 A 
ATOM     38  C   UNL A   1      38.297  29.683  27.567  1.00  0.00     0.010 A 
ATOM     39  C   UNL A   1      38.649  29.170  28.826  1.00  0.00    -0.014 A 
BRANCH  39  40
ATOM     40  C   UNL A   1      40.046  28.779  29.109  1.00  0.00     0.031 A 
ATOM     41  C   UNL A   1      40.945  29.752  29.817  1.00  0.00     0.074 A 
ATOM     42  C   UNL A   1      40.480  27.552  28.772  1.00  0.00     0.049 A 
ATOM     43  N   UNL A   1      42.186  29.604  30.199  1.00  0.00    -0.248 NA
ATOM     44  C   UNL A   1      40.370  31.070  30.137  1.00  0.00     0.031 C 
ATOM     45  C   UNL A   1      39.677  26.527  28.104  1.00  0.00     0.029 A 
ATOM     46  N   UNL A   1      41.702  26.958  28.954  1.00  0.00    -0.354 N 
ATOM     47  C   UNL A   1      42.540  30.803  30.805  1.00  0.00     0.074 A 
ATOM     48  C   UNL A   1      41.397  31.683  30.709  1.00  0.00     0.031 C 
ATOM     49  C   UNL A   1      40.427  25.425  27.939  1.00  0.00     0.029 A 
ATOM     50  C   UNL A   1      41.766  25.676  28.467  1.00  0.00     0.049 A 
ATOM     51  H   UNL A   1      42.460  27.409  29.392  1.00  0.00     0.167 HD
ATOM     52  C   UNL A   1      43.712  31.135  31.397  1.00  0.00     0.031 A 
ATOM     53  C   UNL A   1      42.795  24.807  28.445  1.00  0.00     0.031 A 
ATOM     54  C   UNL A   1      44.846  30.255  31.470  1.00  0.00     0.049 A 
ATOM     55  C   UNL A   1      44.104  25.218  29.064  1.00  0.00     0.074 A 
ATOM     56  C   UNL A   1      46.079  30.483  32.053  1.00  0.00     0.029 A 
ATOM     57  N   UNL A   1      44.885  28.975  30.935  1.00  0.00    -0.354 N 
ATOM     58  N   UNL A   1      44.414  26.346  29.661  1.00  0.00    -0.248 NA
ATOM     59  C   UNL A   1      45.196  24.238  29.017  1.00  0.00     0.031 C 
ATOM     60  C   UNL A   1      46.882  29.359  31.826  1.00  0.00     0.029 A 
ATOM     61  C   UNL A   1      46.129  28.410  31.152  1.00  0.00     0.049 A 
ATOM     62  H   UNL A   1      44.138  28.534  30.470  1.00  0.00     0.167 HD
ATOM     63  C   UNL A   1      45.732  26.202  30.080  1.00  0.00     0.074 A 
ATOM     64  C   UNL A   1      46.153  24.874  29.681  1.00  0.00     0.031 C 
ATOM     65  C   UNL A   1      46.523  27.086  30.737  1.00  0.00     0.031 A 
BRANCH  52  66
ATOM     66  C   UNL A   1      43.827  32.518  31.981  1.00  0.00    -0.014 A 
ATOM     67  C   UNL A   1      44.318  33.594  31.216  1.00  0.00     0.010 A 
ATOM     68  C   UNL A   1      43.422  32.752  33.307  1.00  0.00     0.010 A 
ATOM     69  C   UNL A   1      44.437  34.867  31.781  1.00  0.00     0.020 A 
ATOM     70  C   UNL A   1      43.517  34.029  33.867  1.00  0.00     0.020 A 
ATOM     71  C   UNL A   1      44.041  35.076  33.105  1.00  0.00     0.054 A 
BRANCH  71  72
ATOM     72  S   UNL A   1      44.197  36.740  33.811  1.00  0.00     0.124 S 
ATOM     73  O   UNL A   1      44.405  36.447  35.227  1.00  0.00    -0.237 OA
ATOM     74  O   UNL A   1      45.356  37.280  33.107  1.00  0.00    -0.237 OA
ATOM     75  O   UNL A   1      42.923  37.375  33.487  1.00  0.00    -0.744 OA
ENDBRANCH  71  72
ENDBRANCH  52  66
BRANCH  53  76
ATOM     76  C   UNL A   1      42.623  23.471  27.814  1.00  0.00    -0.014 A 
ATOM     77  C   UNL A   1      42.917  23.274  26.454  1.00  0.00     0.010 A 
ATOM     78  C   UNL A   1      42.185  22.378  28.585  1.00  0.00     0.010 A 
ATOM     79  C   UNL A   1      42.761  22.011  25.873  1.00  0.00     0.020 A 
ATOM     80  C   UNL A   1      42.053  21.109  28.014  1.00  0.00     0.020 A 
ATOM     81  C   UNL A   1      42.332  20.936  26.658  1.00  0.00     0.054 A 
BRANCH  81  82
ATOM     82  S   UNL A   1      42.190  19.294  25.897  1.00  0.00     0.124 S 
ATOM     83  O   UNL A   1      42.685  18.424  26.960  1.00  0.00    -0.237 OA
ATOM     84  O   UNL A   1      40.761  19.199  25.615  1.00  0.00    -0.237 OA
ATOM     85  O   UNL A   1      43.046  19.391  24.717  1.00  0.00    -0.744 OA
ENDBRANCH  81  82
ENDBRANCH  53  76
BRANCH  65  86
ATOM     86  C   UNL A   1      47.915  26.635  31.086  1.00  0.00    -0.014 A 
ATOM     87  C   UNL A   1      48.999  26.897  30.231  1.00  0.00     0.010 A 
ATOM     88  C   UNL A   1      48.147  25.989  32.314  1.00  0.00     0.010 A 
ATOM     89  C   UNL A   1      50.288  26.493  30.585  1.00  0.00     0.020 A 
ATOM     90  C   UNL A   1      49.438  25.608  32.683  1.00  0.00     0.020 A 
ATOM     91  C   UNL A   1      50.500  25.851  31.808  1.00  0.00     0.054 A 
BRANCH  91  92
ATOM     92  S   UNL A   1      52.189  25.376  32.265  1.00  0.00     0.124 S 
ATOM     93  O   UNL A   1      52.432  26.212  33.438  1.00  0.00    -0.237 OA
ATOM     94  O   UNL A   1      52.060  23.945  32.531  1.00  0.00    -0.237 OA
ATOM     95  O   UNL A   1      52.977  25.715  31.083  1.00  0.00    -0.744 OA
ENDBRANCH  91  92
ENDBRANCH  65  86
ENDBRANCH  39  40
ENDBRANCH  32  34
ENDBRANCH  31  32
ENDBRANCH  30  31
ENDBRANCH  29  30
ENDBRANCH   1  29
TORSDOF 21
ENDMDL
MODEL 2
REMARK VINA RESULT:     -10.8      3.907      9.735
REMARK SMILES COc1ccc2[nH]c(C(=O)c3cc(C)ccn3)c(CC(=O)OCCOCCOC(=O)c3ccc(-c4c5nc(c(-c6ccc(S(=O)(=O)[O-])cc6)c6ccc([nH]6)c(-c6ccc(S(=O)(=O)[O-])cc6)c6nc(c(-c7ccc(S(=O)(=O)[O-])cc7)c7ccc4[nH]7)C=C6)C=C5)cc3)c2c1
REMARK SMILES IDX 25 1 24 2 23 3 22 4 20 5 21 6 19 7 18 8 3 9 4 10 92 11 5 12
REMARK SMILES IDX 91 13 6 14 7 15 8 16 2 18 1 19 9 20 10 21 11 22 12 23 17 24
REMARK SMILES IDX 13 25 16 26 14 27 15 28 26 29 27 30 28 31 29 32 30 33 31 34
REMARK SMILES IDX 32 35 90 36 33 37 89 38 34 39 35 40 36 41 83 42 37 43 88 44
REMARK SMILES IDX 82 45 84 46 38 47 87 48 81 49 80 50 39 52 69 53 50 54 68 55
REMARK SMILES IDX 51 56 54 57 67 58 85 59 52 60 53 61 66 63 86 64 55 65 40 66
REMARK SMILES IDX 41 67 49 68 42 69 48 70 43 71 44 72 45 73 46 74 47 75 70 76
REMARK SMILES IDX 71 77 79 78 72 79 78 80 73 81 74 82 75 83 76 84 77 85 56 86
REMARK SMILES IDX 57 87 65 88 58 89 64 90 59 91 60 92 61 93 62 94 63 95
REMARK H PARENT 7 17 84 51 54 62
REMARK Flexibility Score: inf
ROOT
ATOM      1  O   UNL A   1      41.539  21.030  25.653  1.00  0.00    -0.374 OA
ENDROOT
BRANCH   1   2
ATOM      2  C   UNL A   1      40.405  20.977  26.517  1.00  0.00     0.202 C 
BRANCH   2   3
ATOM      3  C   UNL A   1      39.595  22.269  26.719  1.00  0.00     0.261 C 
BRANCH   3   4
ATOM      4  O   UNL A   1      38.603  22.519  25.700  1.00  0.00    -0.463 OA
BRANCH   4   5
ATOM      5  C   UNL A   1      37.819  23.614  25.909  1.00  0.00     0.310 C 
ATOM      6  O   UNL A   1      38.079  24.495  26.730  1.00  0.00    -0.252 OA
BRANCH   5   7
ATOM      7  C   UNL A   1      36.625  23.759  24.986  1.00  0.00     0.161 C 
BRANCH   7   8
ATOM      8  C   UNL A   1      35.252  23.458  25.522  1.00  0.00     0.000 A 
ATOM      9  C   UNL A   1      33.042  26.566  25.944  1.00  0.00     0.119 A 
ATOM     10  C   UNL A   1      31.903  25.878  26.358  1.00  0.00     0.048 A 
ATOM     11  C   UNL A   1      34.225  25.865  25.678  1.00  0.00     0.057 A 
ATOM     12  C   UNL A   1      31.920  24.485  26.520  1.00  0.00     0.030 A 
ATOM     13  C   UNL A   1      34.260  24.460  25.802  1.00  0.00     0.008 A 
ATOM     14  C   UNL A   1      33.107  23.806  26.218  1.00  0.00     0.046 A 
ATOM     15  N   UNL A   1      33.396  22.462  26.238  1.00  0.00    -0.352 N 
ATOM     16  C   UNL A   1      34.621  22.211  25.652  1.00  0.00     0.093 A 
ATOM     17  H   UNL A   1      32.807  21.771  26.619  1.00  0.00     0.167 HD
BRANCH   9  18
ATOM     18  O   UNL A   1      33.111  27.912  25.698  1.00  0.00    -0.497 OA
ATOM     19  C   UNL A   1      33.571  28.729  26.768  1.00  0.00     0.278 C 
ENDBRANCH   9  18
BRANCH  16  20
ATOM     20  C   UNL A   1      35.105  20.886  25.257  1.00  0.00     0.227 C 
ATOM     21  O   UNL A   1      36.246  20.488  25.485  1.00  0.00    -0.285 OA
BRANCH  20  22
ATOM     22  C   UNL A   1      34.181  19.937  24.563  1.00  0.00     0.113 A 
ATOM     23  C   UNL A   1      34.465  18.583  24.465  1.00  0.00     0.036 A 
ATOM     24  N   UNL A   1      33.061  20.502  24.046  1.00  0.00    -0.253 NA
ATOM     25  C   UNL A   1      33.559  17.771  23.770  1.00  0.00    -0.047 A 
ATOM     26  C   UNL A   1      32.216  19.711  23.362  1.00  0.00     0.112 A 
ATOM     27  C   UNL A   1      33.766  16.293  23.635  1.00  0.00     0.044 C 
ATOM     28  C   UNL A   1      32.423  18.355  23.196  1.00  0.00     0.023 A 
ENDBRANCH  20  22
ENDBRANCH  16  20
ENDBRANCH   7   8
ENDBRANCH   5   7
ENDBRANCH   4   5
ENDBRANCH   3   4
ENDBRANCH   2   3
ENDBRANCH   1   2
BRANCH   1  29
ATOM     29  C   UNL A   1      42.813  21.206  26.262  1.00  0.00     0.202 C 
BRANCH  29  30
ATOM     30  C   UNL A   1      43.484  22.572  26.109  1.00  0.00     0.261 C 
BRANCH  30  31
ATOM     31  O   UNL A   1      42.596  23.681  25.993  1.00  0.00    -0.460 OA
BRANCH  31  32
ATOM     32  C   UNL A   1      43.209  24.874  25.855  1.00  0.00     0.338 C 
ATOM     33  O   UNL A   1      44.066  25.202  25.048  1.00  0.00    -0.246 OA
BRANCH  32  34
ATOM     34  C   UNL A   1      42.624  25.801  26.822  1.00  0.00     0.060 A 
ATOM     35  C   UNL A   1      43.189  27.073  26.946  1.00  0.00     0.016 A 
ATOM     36  C   UNL A   1      41.590  25.374  27.657  1.00  0.00     0.016 A 
ATOM     37  C   UNL A   1      42.747  27.914  27.961  1.00  0.00     0.010 A 
ATOM     38  C   UNL A   1      41.147  26.222  28.669  1.00  0.00     0.010 A 
ATOM     39  C   UNL A   1      41.752  27.476  28.849  1.00  0.00    -0.014 A 
BRANCH  39  40
ATOM     40  C   UNL A   1      41.449  28.287  30.046  1.00  0.00     0.031 A 
ATOM     41  C   UNL A   1      42.309  28.129  31.268  1.00  0.00     0.074 A 
ATOM     42  C   UNL A   1      40.444  29.179  30.016  1.00  0.00     0.049 A 
ATOM     43  N   UNL A   1      42.248  28.765  32.409  1.00  0.00    -0.248 NA
ATOM     44  C   UNL A   1      43.380  27.121  31.196  1.00  0.00     0.031 C 
ATOM     45  C   UNL A   1      39.567  29.423  28.869  1.00  0.00     0.029 A 
ATOM     46  N   UNL A   1      39.997  30.051  30.973  1.00  0.00    -0.354 N 
ATOM     47  C   UNL A   1      43.271  28.238  33.189  1.00  0.00     0.074 A 
ATOM     48  C   UNL A   1      43.914  27.205  32.407  1.00  0.00     0.031 C 
ATOM     49  C   UNL A   1      38.691  30.390  29.189  1.00  0.00     0.029 A 
ATOM     50  C   UNL A   1      38.929  30.813  30.567  1.00  0.00     0.049 A 
ATOM     51  H   UNL A   1      40.403  30.124  31.868  1.00  0.00     0.167 HD
ATOM     52  C   UNL A   1      43.644  28.592  34.441  1.00  0.00     0.031 A 
ATOM     53  C   UNL A   1      38.222  31.743  31.236  1.00  0.00     0.031 A 
ATOM     54  C   UNL A   1      42.983  29.609  35.213  1.00  0.00     0.049 A 
ATOM     55  C   UNL A   1      38.624  32.083  32.646  1.00  0.00     0.074 A 
ATOM     56  C   UNL A   1      43.282  30.055  36.487  1.00  0.00     0.029 A 
ATOM     57  N   UNL A   1      41.883  30.336  34.780  1.00  0.00    -0.354 N 
ATOM     58  N   UNL A   1      39.613  31.597  33.360  1.00  0.00    -0.248 NA
ATOM     59  C   UNL A   1      37.824  33.102  33.336  1.00  0.00     0.031 C 
ATOM     60  C   UNL A   1      42.330  31.018  36.845  1.00  0.00     0.029 A 
ATOM     61  C   UNL A   1      41.475  31.211  35.771  1.00  0.00     0.049 A 
ATOM     62  H   UNL A   1      41.457  30.244  33.897  1.00  0.00     0.167 HD
ATOM     63  C   UNL A   1      39.568  32.267  34.577  1.00  0.00     0.074 A 
ATOM     64  C   UNL A   1      38.463  33.203  34.495  1.00  0.00     0.031 C 
ATOM     65  C   UNL A   1      40.367  32.127  35.664  1.00  0.00     0.031 A 
BRANCH  52  66
ATOM     66  C   UNL A   1      44.799  27.848  35.058  1.00  0.00    -0.014 A 
ATOM     67  C   UNL A   1      46.121  28.310  34.919  1.00  0.00     0.010 A 
ATOM     68  C   UNL A   1      44.559  26.681  35.805  1.00  0.00     0.010 A 
ATOM     69  C   UNL A   1      47.184  27.596  35.481  1.00  0.00     0.020 A 
ATOM     70  C   UNL A   1      45.616  25.978  36.390  1.00  0.00     0.020 A 
ATOM     71  C   UNL A   1      46.924  26.431  36.209  1.00  0.00     0.054 A 
BRANCH  71  72
ATOM     72  S   UNL A   1      48.319  25.528  36.938  1.00  0.00     0.124 S 
ATOM     73  O   UNL A   1      47.640  24.443  37.642  1.00  0.00    -0.237 OA
ATOM     74  O   UNL A   1      49.090  25.127  35.764  1.00  0.00    -0.237 OA
ATOM     75  O   UNL A   1      48.964  26.519  37.795  1.00  0.00    -0.744 OA
ENDBRANCH  71  72
ENDBRANCH  52  66
BRANCH  53  76
ATOM     76  C   UNL A   1      37.066  32.410  30.579  1.00  0.00    -0.014 A 
ATOM     77  C   UNL A   1      37.240  33.597  29.848  1.00  0.00     0.010 A 
ATOM     78  C   UNL A   1      35.782  31.840  30.664  1.00  0.00     0.010 A 
ATOM     79  C   UNL A   1      36.148  34.211  29.226  1.00  0.00     0.020 A 
ATOM     80  C   UNL A   1      34.693  32.437  30.023  1.00  0.00     0.020 A 
ATOM     81  C   UNL A   1      34.881  33.625  29.317  1.00  0.00     0.054 A 
BRANCH  81  82
ATOM     82  S   UNL A   1      33.488  34.409  28.456  1.00  0.00     0.124 S 
ATOM     83  O   UNL A   1      32.949  33.298  27.678  1.00  0.00    -0.237 OA
ATOM     84  O   UNL A   1      32.654  34.873  29.561  1.00  0.00    -0.237 OA
ATOM     85  O   UNL A   1      34.123  35.469  27.677  1.00  0.00    -0.744 OA
ENDBRANCH  81  82
ENDBRANCH  53  76
BRANCH  65  86
ATOM     86  C   UNL A   1      40.089  33.021  36.841  1.00  0.00    -0.014 A 
ATOM     87  C   UNL A   1      39.244  32.606  37.885  1.00  0.00     0.010 A 
ATOM     88  C   UNL A   1      40.728  34.271  36.928  1.00  0.00     0.010 A 
ATOM     89  C   UNL A   1      39.020  33.439  38.982  1.00  0.00     0.020 A 
ATOM     90  C   UNL A   1      40.527  35.096  38.037  1.00  0.00     0.020 A 
ATOM     91  C   UNL A   1      39.661  34.679  39.052  1.00  0.00     0.054 A 
BRANCH  91  92
ATOM     92  S   UNL A   1      39.389  35.725  40.508  1.00  0.00     0.124 S 
ATOM     93  O   UNL A   1      38.226  35.090  41.123  1.00  0.00    -0.237 OA
ATOM     94  O   UNL A   1      40.644  35.585  41.243  1.00  0.00    -0.237 OA
ATOM     95  O   UNL A   1      39.150  37.050  39.942  1.00  0.00    -0.744 OA
ENDBRANCH  91  92
ENDBRANCH  65  86
ENDBRANCH  39  40
ENDBRANCH  32  34
ENDBRANCH  31  32
ENDBRANCH  30  31
ENDBRANCH  29  30
ENDBRANCH   1  29
TORSDOF 21
ENDMDL
MODEL 3
REMARK VINA RESULT:     -10.8      3.429      8.911
REMARK SMILES COc1ccc2[nH]c(C(=O)c3cc(C)ccn3)c(CC(=O)OCCOCCOC(=O)c3ccc(-c4c5nc(c(-c6ccc(S(=O)(=O)[O-])cc6)c6ccc([nH]6)c(-c6ccc(S(=O)(=O)[O-])cc6)c6nc(c(-c7ccc(S(=O)(=O)[O-])cc7)c7ccc4[nH]7)C=C6)C=C5)cc3)c2c1
REMARK SMILES IDX 25 1 24 2 23 3 22 4 20 5 21 6 19 7 18 8 3 9 4 10 92 11 5 12
REMARK SMILES IDX 91 13 6 14 7 15 8 16 2 18 1 19 9 20 10 21 11 22 12 23 17 24
REMARK SMILES IDX 13 25 16 26 14 27 15 28 26 29 27 30 28 31 29 32 30 33 31 34
REMARK SMILES IDX 32 35 90 36 33 37 89 38 34 39 35 40 36 41 83 42 37 43 88 44
REMARK SMILES IDX 82 45 84 46 38 47 87 48 81 49 80 50 39 52 69 53 50 54 68 55
REMARK SMILES IDX 51 56 54 57 67 58 85 59 52 60 53 61 66 63 86 64 55 65 40 66
REMARK SMILES IDX 41 67 49 68 42 69 48 70 43 71 44 72 45 73 46 74 47 75 70 76
REMARK SMILES IDX 71 77 79 78 72 79 78 80 73 81 74 82 75 83 76 84 77 85 56 86
REMARK SMILES IDX 57 87 65 88 58 89 64 90 59 91 60 92 61 93 62 94 63 95
REMARK H PARENT 7 17 84 51 54 62
REMARK Flexibility Score: inf
ROOT
ATOM      1  O   UNL A   1      37.424  22.627  25.776  1.00  0.00    -0.374 OA
ENDROOT
BRANCH   1   2
ATOM      2  C   UNL A   1      36.036  22.500  25.472  1.00  0.00     0.202 C 
BRANCH   2   3
ATOM      3  C   UNL A   1      35.236  23.789  25.217  1.00  0.00     0.261 C 
BRANCH   3   4
ATOM      4  O   UNL A   1      35.120  24.157  23.825  1.00  0.00    -0.463 OA
BRANCH   4   5
ATOM      5  C   UNL A   1      34.136  25.055  23.542  1.00  0.00     0.310 C 
ATOM      6  O   UNL A   1      33.707  25.265  22.407  1.00  0.00    -0.252 OA
BRANCH   5   7
ATOM      7  C   UNL A   1      33.499  25.736  24.737  1.00  0.00     0.161 C 
BRANCH   7   8
ATOM      8  C   UNL A   1      32.008  25.644  24.917  1.00  0.00     0.000 A 
ATOM      9  C   UNL A   1      30.040  28.205  22.843  1.00  0.00     0.119 A 
ATOM     10  C   UNL A   1      28.776  27.751  23.216  1.00  0.00     0.048 A 
ATOM     11  C   UNL A   1      31.186  27.604  23.380  1.00  0.00     0.057 A 
ATOM     12  C   UNL A   1      28.628  26.698  24.130  1.00  0.00     0.030 A 
ATOM     13  C   UNL A   1      31.065  26.521  24.277  1.00  0.00     0.008 A 
ATOM     14  C   UNL A   1      29.790  26.095  24.628  1.00  0.00     0.046 A 
ATOM     15  N   UNL A   1      29.946  25.032  25.485  1.00  0.00    -0.352 N 
ATOM     16  C   UNL A   1      31.266  24.626  25.534  1.00  0.00     0.093 A 
ATOM     17  H   UNL A   1      29.214  24.615  25.995  1.00  0.00     0.167 HD
BRANCH   9  18
ATOM     18  O   UNL A   1      30.292  29.180  21.915  1.00  0.00    -0.497 OA
ATOM     19  C   UNL A   1      29.229  30.086  21.644  1.00  0.00     0.278 C 
ENDBRANCH   9  18
BRANCH  16  20
ATOM     20  C   UNL A   1      31.733  23.367  26.117  1.00  0.00     0.227 C 
ATOM     21  O   UNL A   1      31.879  23.195  27.327  1.00  0.00    -0.285 OA
BRANCH  20  22
ATOM     22  C   UNL A   1      32.032  22.204  25.226  1.00  0.00     0.113 A 
ATOM     23  C   UNL A   1      31.782  22.247  23.862  1.00  0.00     0.036 A 
ATOM     24  N   UNL A   1      32.557  21.121  25.853  1.00  0.00    -0.253 NA
ATOM     25  C   UNL A   1      32.063  21.100  23.108  1.00  0.00    -0.047 A 
ATOM     26  C   UNL A   1      32.797  20.023  25.116  1.00  0.00     0.112 A 
ATOM     27  C   UNL A   1      31.854  21.059  21.625  1.00  0.00     0.044 C 
ATOM     28  C   UNL A   1      32.565  19.964  23.756  1.00  0.00     0.023 A 
ENDBRANCH  20  22
ENDBRANCH  16  20
ENDBRANCH   7   8
ENDBRANCH   5   7
ENDBRANCH   4   5
ENDBRANCH   3   4
ENDBRANCH   2   3
ENDBRANCH   1   2
BRANCH   1  29
ATOM     29  C   UNL A   1      38.217  21.448  25.696  1.00  0.00     0.202 C 
BRANCH  29  30
ATOM     30  C   UNL A   1      39.600  21.484  26.348  1.00  0.00     0.261 C 
BRANCH  30  31
ATOM     31  O   UNL A   1      40.109  20.223  26.777  1.00  0.00    -0.460 OA
BRANCH  31  32
ATOM     32  C   UNL A   1      41.366  19.961  26.367  1.00  0.00     0.338 C 
ATOM     33  O   UNL A   1      41.805  18.939  25.863  1.00  0.00    -0.246 OA
BRANCH  32  34
ATOM     34  C   UNL A   1      42.168  21.167  26.561  1.00  0.00     0.060 A 
ATOM     35  C   UNL A   1      42.476  21.555  27.867  1.00  0.00     0.016 A 
ATOM     36  C   UNL A   1      42.527  21.949  25.460  1.00  0.00     0.016 A 
ATOM     37  C   UNL A   1      43.106  22.776  28.080  1.00  0.00     0.010 A 
ATOM     38  C   UNL A   1      43.163  23.169  25.679  1.00  0.00     0.010 A 
ATOM     39  C   UNL A   1      43.416  23.603  26.989  1.00  0.00    -0.014 A 
BRANCH  39  40
ATOM     40  C   UNL A   1      43.883  24.982  27.242  1.00  0.00     0.031 A 
ATOM     41  C   UNL A   1      45.331  25.313  27.017  1.00  0.00     0.074 A 
ATOM     42  C   UNL A   1      43.007  25.927  27.624  1.00  0.00     0.049 A 
ATOM     43  N   UNL A   1      45.945  26.461  27.137  1.00  0.00    -0.248 NA
ATOM     44  C   UNL A   1      46.206  24.203  26.602  1.00  0.00     0.031 C 
ATOM     45  C   UNL A   1      41.576  25.712  27.846  1.00  0.00     0.029 A 
ATOM     46  N   UNL A   1      43.191  27.260  27.885  1.00  0.00    -0.354 N 
ATOM     47  C   UNL A   1      47.273  26.214  26.811  1.00  0.00     0.074 A 
ATOM     48  C   UNL A   1      47.386  24.801  26.524  1.00  0.00     0.031 C 
ATOM     49  C   UNL A   1      41.010  26.876  28.202  1.00  0.00     0.029 A 
ATOM     50  C   UNL A   1      42.040  27.910  28.257  1.00  0.00     0.049 A 
ATOM     51  H   UNL A   1      44.066  27.707  27.813  1.00  0.00     0.167 HD
ATOM     52  C   UNL A   1      48.303  27.090  26.748  1.00  0.00     0.031 A 
ATOM     53  C   UNL A   1      41.845  29.195  28.609  1.00  0.00     0.031 A 
ATOM     54  C   UNL A   1      48.179  28.490  27.053  1.00  0.00     0.049 A 
ATOM     55  C   UNL A   1      43.017  30.140  28.581  1.00  0.00     0.074 A 
ATOM     56  C   UNL A   1      49.153  29.471  27.014  1.00  0.00     0.029 A 
ATOM     57  N   UNL A   1      47.004  29.106  27.460  1.00  0.00    -0.354 N 
ATOM     58  N   UNL A   1      44.261  29.898  28.241  1.00  0.00    -0.248 NA
ATOM     59  C   UNL A   1      42.756  31.531  28.972  1.00  0.00     0.031 C 
ATOM     60  C   UNL A   1      48.578  30.672  27.447  1.00  0.00     0.029 A 
ATOM     61  C   UNL A   1      47.233  30.449  27.700  1.00  0.00     0.049 A 
ATOM     62  H   UNL A   1      46.136  28.654  27.562  1.00  0.00     0.167 HD
ATOM     63  C   UNL A   1      44.929  31.112  28.357  1.00  0.00     0.074 A 
ATOM     64  C   UNL A   1      43.945  32.088  28.783  1.00  0.00     0.031 C 
ATOM     65  C   UNL A   1      46.235  31.397  28.130  1.00  0.00     0.031 A 
BRANCH  52  66
ATOM     66  C   UNL A   1      49.655  26.548  26.365  1.00  0.00    -0.014 A 
ATOM     67  C   UNL A   1      50.122  26.625  25.039  1.00  0.00     0.010 A 
ATOM     68  C   UNL A   1      50.479  25.971  27.347  1.00  0.00     0.010 A 
ATOM     69  C   UNL A   1      51.371  26.098  24.697  1.00  0.00     0.020 A 
ATOM     70  C   UNL A   1      51.739  25.465  27.013  1.00  0.00     0.020 A 
ATOM     71  C   UNL A   1      52.170  25.516  25.686  1.00  0.00     0.054 A 
BRANCH  71  72
ATOM     72  S   UNL A   1      53.791  24.849  25.218  1.00  0.00     0.124 S 
ATOM     73  O   UNL A   1      54.098  25.620  24.016  1.00  0.00    -0.237 OA
ATOM     74  O   UNL A   1      54.613  25.155  26.386  1.00  0.00    -0.237 OA
ATOM     75  O   UNL A   1      53.531  23.429  24.998  1.00  0.00    -0.744 OA
ENDBRANCH  71  72
ENDBRANCH  52  66
BRANCH  53  76
ATOM     76  C   UNL A   1      40.491  29.655  29.017  1.00  0.00    -0.014 A 
ATOM     77  C   UNL A   1      39.445  29.733  28.081  1.00  0.00     0.010 A 
ATOM     78  C   UNL A   1      40.235  29.994  30.358  1.00  0.00     0.010 A 
ATOM     79  C   UNL A   1      38.172  30.157  28.477  1.00  0.00     0.020 A 
ATOM     80  C   UNL A   1      38.959  30.394  30.763  1.00  0.00     0.020 A 
ATOM     81  C   UNL A   1      37.937  30.483  29.817  1.00  0.00     0.054 A 
BRANCH  81  82
ATOM     82  S   UNL A   1      36.265  30.978  30.319  1.00  0.00     0.124 S 
ATOM     83  O   UNL A   1      36.001  30.069  31.430  1.00  0.00    -0.237 OA
ATOM     84  O   UNL A   1      36.445  32.382  30.679  1.00  0.00    -0.237 OA
ATOM     85  O   UNL A   1      35.466  30.748  29.118  1.00  0.00    -0.744 OA
ENDBRANCH  81  82
ENDBRANCH  53  76
BRANCH  65  86
ATOM     86  C   UNL A   1      46.669  32.825  28.315  1.00  0.00    -0.014 A 
ATOM     87  C   UNL A   1      46.487  33.777  27.297  1.00  0.00     0.010 A 
ATOM     88  C   UNL A   1      47.215  33.230  29.547  1.00  0.00     0.010 A 
ATOM     89  C   UNL A   1      46.872  35.104  27.498  1.00  0.00     0.020 A 
ATOM     90  C   UNL A   1      47.577  34.561  29.760  1.00  0.00     0.020 A 
ATOM     91  C   UNL A   1      47.415  35.489  28.727  1.00  0.00     0.054 A 
BRANCH  91  92
ATOM     92  S   UNL A   1      47.867  37.227  28.980  1.00  0.00     0.124 S 
ATOM     93  O   UNL A   1      49.122  37.324  28.240  1.00  0.00    -0.237 OA
ATOM     94  O   UNL A   1      46.734  37.941  28.395  1.00  0.00    -0.237 OA
ATOM     95  O   UNL A   1      47.987  37.345  30.431  1.00  0.00    -0.744 OA
ENDBRANCH  91  92
ENDBRANCH  65  86
ENDBRANCH  39  40
ENDBRANCH  32  34
ENDBRANCH  31  32
ENDBRANCH  30  31
ENDBRANCH  29  30
ENDBRANCH   1  29
TORSDOF 21
ENDMDL
