MODEL 1
REMARK VINA RESULT:     -10.5      0.000      0.000
REMARK SMILES [NH3+]Cc1c(-c2ccccc2)c(C(=O)OCCOCCOC(=O)c2ccc(-c3c4nc(c(-c5ccc(S(=O)(=O)[O-])cc5)c5ccc([nH]5)c(-c5ccc(S(=O)(=O)[O-])cc5)c5nc(c(-c6ccc(S(=O)(=O)[O-])cc6)c6ccc3[nH]6)C=C5)C=C4)cc2)c2ccccn12
REMARK SMILES IDX 18 1 17 2 16 3 15 4 14 5 12 6 13 7 11 8 3 9 4 10 88 11 83 12
REMARK SMILES IDX 87 13 84 14 86 15 85 16 2 17 1 18 5 22 6 23 10 24 7 25 9 26
REMARK SMILES IDX 8 27 19 28 20 29 21 30 22 31 23 32 24 33 82 34 25 35 81 36
REMARK SMILES IDX 26 37 27 38 28 39 75 40 29 41 80 42 74 43 76 44 30 45 79 46
REMARK SMILES IDX 73 47 72 48 31 50 61 51 42 52 60 53 43 54 46 55 59 56 77 57
REMARK SMILES IDX 44 58 45 59 58 61 78 62 47 63 32 64 33 65 41 66 34 67 40 68
REMARK SMILES IDX 35 69 36 70 37 71 38 72 39 73 62 74 63 75 71 76 64 77 70 78
REMARK SMILES IDX 65 79 66 80 67 81 68 82 69 83 48 84 49 85 57 86 50 87 56 88
REMARK SMILES IDX 51 89 52 90 53 91 54 92 55 93
REMARK H PARENT 1 19 1 20 1 21 76 49 46 60
REMARK Flexibility Score: inf
ROOT
ATOM      1  C   UNL A   1      39.115  22.694  26.718  1.00  0.00     0.202 C 
ENDROOT
BRANCH   1   2
ATOM      2  O   UNL A   1      38.987  21.729  25.676  1.00  0.00    -0.374 OA
BRANCH   2   3
ATOM      3  C   UNL A   1      37.740  21.723  24.971  1.00  0.00     0.202 C 
BRANCH   3   4
ATOM      4  C   UNL A   1      36.657  22.599  25.606  1.00  0.00     0.261 C 
BRANCH   4   5
ATOM      5  O   UNL A   1      36.353  23.695  24.723  1.00  0.00    -0.460 OA
BRANCH   5   6
ATOM      6  C   UNL A   1      35.275  23.527  23.906  1.00  0.00     0.341 C 
ATOM      7  O   UNL A   1      35.336  23.080  22.767  1.00  0.00    -0.246 OA
BRANCH   6   8
ATOM      8  C   UNL A   1      34.011  23.832  24.574  1.00  0.00     0.093 A 
ATOM      9  C   UNL A   1      31.882  23.569  25.417  1.00  0.00     0.086 A 
ATOM     10  C   UNL A   1      32.923  22.926  24.747  1.00  0.00     0.024 A 
ATOM     11  N   UNL A   1      32.327  24.862  25.697  1.00  0.00    -0.314 N 
ATOM     12  C   UNL A   1      33.641  24.996  25.225  1.00  0.00     0.061 A 
ATOM     13  C   UNL A   1      31.673  25.925  26.338  1.00  0.00     0.092 A 
ATOM     14  C   UNL A   1      34.311  26.237  25.472  1.00  0.00     0.027 A 
ATOM     15  C   UNL A   1      32.296  27.097  26.527  1.00  0.00     0.018 A 
ATOM     16  C   UNL A   1      33.669  27.239  26.096  1.00  0.00     0.004 A 
BRANCH   9  17
ATOM     17  C   UNL A   1      30.588  22.934  25.842  1.00  0.00     0.315 C 
BRANCH  17  18
ATOM     18  N   UNL A   1      30.464  22.609  27.251  1.00  0.00    -0.353 N 
ATOM     19  H   UNL A   1      31.061  23.230  27.796  1.00  0.00     0.344 HD
ATOM     20  H   UNL A   1      30.749  21.641  27.403  1.00  0.00     0.344 HD
ATOM     21  H   UNL A   1      29.493  22.728  27.543  1.00  0.00     0.344 HD
ENDBRANCH  17  18
ENDBRANCH   9  17
BRANCH  10  22
ATOM     22  C   UNL A   1      32.915  21.504  24.444  1.00  0.00    -0.015 A 
ATOM     23  C   UNL A   1      33.563  20.612  25.308  1.00  0.00     0.009 A 
ATOM     24  C   UNL A   1      32.316  21.029  23.276  1.00  0.00     0.009 A 
ATOM     25  C   UNL A   1      33.627  19.255  24.994  1.00  0.00     0.001 A 
ATOM     26  C   UNL A   1      32.373  19.669  22.970  1.00  0.00     0.001 A 
ATOM     27  C   UNL A   1      33.032  18.784  23.826  1.00  0.00     0.000 A 
ENDBRANCH  10  22
ENDBRANCH   6   8
ENDBRANCH   5   6
ENDBRANCH   4   5
ENDBRANCH   3   4
ENDBRANCH   2   3
ENDBRANCH   1   2
BRANCH   1  28
ATOM     28  C   UNL A   1      40.130  23.810  26.451  1.00  0.00     0.261 C 
BRANCH  28  29
ATOM     29  O   UNL A   1      39.506  25.102  26.453  1.00  0.00    -0.460 OA
BRANCH  29  30
ATOM     30  C   UNL A   1      40.379  26.138  26.508  1.00  0.00     0.338 C 
ATOM     31  O   UNL A   1      41.197  26.457  25.662  1.00  0.00    -0.246 OA
BRANCH  30  32
ATOM     32  C   UNL A   1      40.103  26.963  27.701  1.00  0.00     0.060 A 
ATOM     33  C   UNL A   1      40.710  28.223  27.759  1.00  0.00     0.016 A 
ATOM     34  C   UNL A   1      39.311  26.508  28.760  1.00  0.00     0.016 A 
ATOM     35  C   UNL A   1      40.573  29.011  28.898  1.00  0.00     0.010 A 
ATOM     36  C   UNL A   1      39.178  27.299  29.907  1.00  0.00     0.010 A 
ATOM     37  C   UNL A   1      39.838  28.538  29.993  1.00  0.00    -0.014 A 
BRANCH  37  38
ATOM     38  C   UNL A   1      39.892  29.286  31.270  1.00  0.00     0.031 A 
ATOM     39  C   UNL A   1      41.020  29.013  32.228  1.00  0.00     0.074 A 
ATOM     40  C   UNL A   1      38.982  30.238  31.546  1.00  0.00     0.049 A 
ATOM     41  N   UNL A   1      41.298  29.597  33.364  1.00  0.00    -0.248 NA
ATOM     42  C   UNL A   1      41.958  27.943  31.852  1.00  0.00     0.031 C 
ATOM     43  C   UNL A   1      37.861  30.611  30.685  1.00  0.00     0.029 A 
ATOM     44  N   UNL A   1      38.868  31.070  32.630  1.00  0.00    -0.354 N 
ATOM     45  C   UNL A   1      42.445  28.973  33.837  1.00  0.00     0.074 A 
ATOM     46  C   UNL A   1      42.793  27.943  32.882  1.00  0.00     0.031 C 
ATOM     47  C   UNL A   1      37.170  31.603  31.276  1.00  0.00     0.029 A 
ATOM     48  C   UNL A   1      37.794  31.922  32.559  1.00  0.00     0.049 A 
ATOM     49  H   UNL A   1      39.498  31.057  33.387  1.00  0.00     0.167 HD
ATOM     50  C   UNL A   1      43.154  29.238  34.961  1.00  0.00     0.031 A 
ATOM     51  C   UNL A   1      37.360  32.852  33.432  1.00  0.00     0.031 A 
ATOM     52  C   UNL A   1      42.800  30.248  35.921  1.00  0.00     0.049 A 
ATOM     53  C   UNL A   1      38.136  33.095  34.699  1.00  0.00     0.074 A 
ATOM     54  C   UNL A   1      43.457  30.597  37.088  1.00  0.00     0.029 A 
ATOM     55  N   UNL A   1      41.684  31.066  35.831  1.00  0.00    -0.354 N 
ATOM     56  N   UNL A   1      39.237  32.517  35.115  1.00  0.00    -0.248 NA
ATOM     57  C   UNL A   1      37.616  34.128  35.606  1.00  0.00     0.031 C 
ATOM     58  C   UNL A   1      42.716  31.600  37.723  1.00  0.00     0.029 A 
ATOM     59  C   UNL A   1      41.622  31.906  36.929  1.00  0.00     0.049 A 
ATOM     60  H   UNL A   1      41.032  31.052  35.093  1.00  0.00     0.167 HD
ATOM     61  C   UNL A   1      39.554  33.132  36.322  1.00  0.00     0.074 A 
ATOM     62  C   UNL A   1      38.535  34.134  36.561  1.00  0.00     0.031 C 
ATOM     63  C   UNL A   1      40.595  32.891  37.156  1.00  0.00     0.031 A 
BRANCH  50  64
ATOM     64  C   UNL A   1      44.373  28.396  35.218  1.00  0.00    -0.014 A 
ATOM     65  C   UNL A   1      45.639  28.791  34.748  1.00  0.00     0.010 A 
ATOM     66  C   UNL A   1      44.255  27.203  35.952  1.00  0.00     0.010 A 
ATOM     67  C   UNL A   1      46.759  27.987  34.974  1.00  0.00     0.020 A 
ATOM     68  C   UNL A   1      45.377  26.406  36.198  1.00  0.00     0.020 A 
ATOM     69  C   UNL A   1      46.619  26.794  35.690  1.00  0.00     0.054 A 
BRANCH  69  70
ATOM     70  S   UNL A   1      48.088  25.769  35.978  1.00  0.00     0.124 S 
ATOM     71  O   UNL A   1      47.511  24.428  36.033  1.00  0.00    -0.237 OA
ATOM     72  O   UNL A   1      48.913  26.050  34.805  1.00  0.00    -0.237 OA
ATOM     73  O   UNL A   1      48.619  26.272  37.243  1.00  0.00    -0.744 OA
ENDBRANCH  69  70
ENDBRANCH  50  64
BRANCH  51  74
ATOM     74  C   UNL A   1      36.125  33.626  33.136  1.00  0.00    -0.014 A 
ATOM     75  C   UNL A   1      36.198  34.901  32.550  1.00  0.00     0.010 A 
ATOM     76  C   UNL A   1      34.864  33.081  33.438  1.00  0.00     0.010 A 
ATOM     77  C   UNL A   1      35.032  35.624  32.283  1.00  0.00     0.020 A 
ATOM     78  C   UNL A   1      33.696  33.792  33.153  1.00  0.00     0.020 A 
ATOM     79  C   UNL A   1      33.787  35.064  32.586  1.00  0.00     0.054 A 
BRANCH  79  80
ATOM     80  S   UNL A   1      32.282  35.992  32.178  1.00  0.00     0.124 S 
ATOM     81  O   UNL A   1      32.418  37.175  33.021  1.00  0.00    -0.237 OA
ATOM     82  O   UNL A   1      32.425  36.216  30.742  1.00  0.00    -0.237 OA
ATOM     83  O   UNL A   1      31.207  35.074  32.551  1.00  0.00    -0.744 OA
ENDBRANCH  79  80
ENDBRANCH  51  74
BRANCH  63  84
ATOM     84  C   UNL A   1      40.698  33.742  38.392  1.00  0.00    -0.014 A 
ATOM     85  C   UNL A   1      41.551  34.859  38.436  1.00  0.00     0.010 A 
ATOM     86  C   UNL A   1      39.905  33.438  39.514  1.00  0.00     0.010 A 
ATOM     87  C   UNL A   1      41.638  35.635  39.596  1.00  0.00     0.020 A 
ATOM     88  C   UNL A   1      39.973  34.224  40.666  1.00  0.00     0.020 A 
ATOM     89  C   UNL A   1      40.853  35.307  40.706  1.00  0.00     0.054 A 
BRANCH  89  90
ATOM     90  S   UNL A   1      40.964  36.339  42.195  1.00  0.00     0.124 S 
ATOM     91  O   UNL A   1      41.935  37.352  41.788  1.00  0.00    -0.237 OA
ATOM     92  O   UNL A   1      39.593  36.815  42.362  1.00  0.00    -0.237 OA
ATOM     93  O   UNL A   1      41.424  35.410  43.224  1.00  0.00    -0.744 OA
ENDBRANCH  89  90
ENDBRANCH  63  84
ENDBRANCH  37  38
ENDBRANCH  30  32
ENDBRANCH  29  30
ENDBRANCH  28  29
ENDBRANCH   1  28
TORSDOF 20
ENDMDL
MODEL 2
REMARK VINA RESULT:     -10.3      3.675      5.383
REMARK SMILES [NH3+]Cc1c(-c2ccccc2)c(C(=O)OCCOCCOC(=O)c2ccc(-c3c4nc(c(-c5ccc(S(=O)(=O)[O-])cc5)c5ccc([nH]5)c(-c5ccc(S(=O)(=O)[O-])cc5)c5nc(c(-c6ccc(S(=O)(=O)[O-])cc6)c6ccc3[nH]6)C=C5)C=C4)cc2)c2ccccn12
REMARK SMILES IDX 18 1 17 2 16 3 15 4 14 5 12 6 13 7 11 8 3 9 4 10 88 11 83 12
REMARK SMILES IDX 87 13 84 14 86 15 85 16 2 17 1 18 5 22 6 23 10 24 7 25 9 26
REMARK SMILES IDX 8 27 19 28 20 29 21 30 22 31 23 32 24 33 82 34 25 35 81 36
REMARK SMILES IDX 26 37 27 38 28 39 75 40 29 41 80 42 74 43 76 44 30 45 79 46
REMARK SMILES IDX 73 47 72 48 31 50 61 51 42 52 60 53 43 54 46 55 59 56 77 57
REMARK SMILES IDX 44 58 45 59 58 61 78 62 47 63 32 64 33 65 41 66 34 67 40 68
REMARK SMILES IDX 35 69 36 70 37 71 38 72 39 73 62 74 63 75 71 76 64 77 70 78
REMARK SMILES IDX 65 79 66 80 67 81 68 82 69 83 48 84 49 85 57 86 50 87 56 88
REMARK SMILES IDX 51 89 52 90 53 91 54 92 55 93
REMARK H PARENT 1 19 1 20 1 21 76 49 46 60
REMARK Flexibility Score: inf
ROOT
ATOM      1  C   UNL A   1      35.104  23.254  25.884  1.00  0.00     0.202 C 
ENDROOT
BRANCH   1   2
ATOM      2  O   UNL A   1      34.166  23.537  26.920  1.00  0.00    -0.374 OA
BRANCH   2   3
ATOM      3  C   UNL A   1      33.276  22.471  27.274  1.00  0.00     0.202 C 
BRANCH   3   4
ATOM      4  C   UNL A   1      31.802  22.880  27.329  1.00  0.00     0.261 C 
BRANCH   4   5
ATOM      5  O   UNL A   1      31.705  24.316  27.300  1.00  0.00    -0.460 OA
BRANCH   5   6
ATOM      6  C   UNL A   1      30.959  24.848  26.292  1.00  0.00     0.341 C 
ATOM      7  O   UNL A   1      29.791  25.201  26.411  1.00  0.00    -0.246 OA
BRANCH   6   8
ATOM      8  C   UNL A   1      31.734  25.063  25.072  1.00  0.00     0.093 A 
ATOM      9  C   UNL A   1      33.017  26.113  23.471  1.00  0.00     0.086 A 
ATOM     10  C   UNL A   1      32.389  26.276  24.705  1.00  0.00     0.024 A 
ATOM     11  N   UNL A   1      32.789  24.794  23.078  1.00  0.00    -0.314 N 
ATOM     12  C   UNL A   1      32.050  24.149  24.081  1.00  0.00     0.061 A 
ATOM     13  C   UNL A   1      33.183  24.114  21.916  1.00  0.00     0.092 A 
ATOM     14  C   UNL A   1      31.763  22.757  23.903  1.00  0.00     0.027 A 
ATOM     15  C   UNL A   1      32.873  22.821  21.741  1.00  0.00     0.018 A 
ATOM     16  C   UNL A   1      32.158  22.123  22.787  1.00  0.00     0.004 A 
BRANCH   9  17
ATOM     17  C   UNL A   1      33.863  27.142  22.775  1.00  0.00     0.315 C 
BRANCH  17  18
ATOM     18  N   UNL A   1      33.249  27.826  21.652  1.00  0.00    -0.353 N 
ATOM     19  H   UNL A   1      32.742  27.150  21.080  1.00  0.00     0.344 HD
ATOM     20  H   UNL A   1      33.973  28.274  21.090  1.00  0.00     0.344 HD
ATOM     21  H   UNL A   1      32.600  28.533  21.998  1.00  0.00     0.344 HD
ENDBRANCH  17  18
ENDBRANCH   9  17
BRANCH  10  22
ATOM     22  C   UNL A   1      32.551  27.463  25.529  1.00  0.00    -0.015 A 
ATOM     23  C   UNL A   1      33.635  27.548  26.411  1.00  0.00     0.009 A 
ATOM     24  C   UNL A   1      31.606  28.491  25.488  1.00  0.00     0.009 A 
ATOM     25  C   UNL A   1      33.764  28.647  27.260  1.00  0.00     0.001 A 
ATOM     26  C   UNL A   1      31.744  29.593  26.332  1.00  0.00     0.001 A 
ATOM     27  C   UNL A   1      32.819  29.669  27.220  1.00  0.00     0.000 A 
ENDBRANCH  10  22
ENDBRANCH   6   8
ENDBRANCH   5   6
ENDBRANCH   4   5
ENDBRANCH   3   4
ENDBRANCH   2   3
ENDBRANCH   1   2
BRANCH   1  28
ATOM     28  C   UNL A   1      36.201  24.306  25.693  1.00  0.00     0.261 C 
BRANCH  28  29
ATOM     29  O   UNL A   1      37.357  23.750  25.049  1.00  0.00    -0.460 OA
BRANCH  29  30
ATOM     30  C   UNL A   1      38.256  23.201  25.903  1.00  0.00     0.338 C 
ATOM     31  O   UNL A   1      38.553  22.023  26.001  1.00  0.00    -0.246 OA
BRANCH  30  32
ATOM     32  C   UNL A   1      38.975  24.268  26.629  1.00  0.00     0.060 A 
ATOM     33  C   UNL A   1      38.724  24.386  28.001  1.00  0.00     0.016 A 
ATOM     34  C   UNL A   1      39.837  25.161  25.986  1.00  0.00     0.016 A 
ATOM     35  C   UNL A   1      39.291  25.430  28.725  1.00  0.00     0.010 A 
ATOM     36  C   UNL A   1      40.403  26.214  26.714  1.00  0.00     0.010 A 
ATOM     37  C   UNL A   1      40.102  26.372  28.079  1.00  0.00    -0.014 A 
BRANCH  37  38
ATOM     38  C   UNL A   1      40.509  27.592  28.813  1.00  0.00     0.031 A 
ATOM     39  C   UNL A   1      41.892  27.663  29.400  1.00  0.00     0.074 A 
ATOM     40  C   UNL A   1      39.678  28.646  28.904  1.00  0.00     0.049 A 
ATOM     41  N   UNL A   1      42.477  28.655  30.020  1.00  0.00    -0.248 NA
ATOM     42  C   UNL A   1      42.726  26.457  29.268  1.00  0.00     0.031 C 
ATOM     43  C   UNL A   1      38.325  28.708  28.353  1.00  0.00     0.029 A 
ATOM     44  N   UNL A   1      39.861  29.873  29.489  1.00  0.00    -0.354 N 
ATOM     45  C   UNL A   1      43.748  28.198  30.346  1.00  0.00     0.074 A 
ATOM     46  C   UNL A   1      43.838  26.829  29.886  1.00  0.00     0.031 C 
ATOM     47  C   UNL A   1      37.799  29.915  28.625  1.00  0.00     0.029 A 
ATOM     48  C   UNL A   1      38.771  30.703  29.381  1.00  0.00     0.049 A 
ATOM     49  H   UNL A   1      40.694  30.134  29.944  1.00  0.00     0.167 HD
ATOM     50  C   UNL A   1      44.755  28.860  30.964  1.00  0.00     0.031 A 
ATOM     51  C   UNL A   1      38.580  31.954  29.841  1.00  0.00     0.031 A 
ATOM     52  C   UNL A   1      44.662  30.214  31.439  1.00  0.00     0.049 A 
ATOM     53  C   UNL A   1      39.696  32.652  30.570  1.00  0.00     0.074 A 
ATOM     54  C   UNL A   1      45.629  30.975  32.072  1.00  0.00     0.029 A 
ATOM     55  N   UNL A   1      43.529  31.008  31.342  1.00  0.00    -0.354 N 
ATOM     56  N   UNL A   1      40.903  32.216  30.842  1.00  0.00    -0.248 NA
ATOM     57  C   UNL A   1      39.427  34.018  31.040  1.00  0.00     0.031 C 
ATOM     58  C   UNL A   1      45.067  32.216  32.394  1.00  0.00     0.029 A 
ATOM     59  C   UNL A   1      43.765  32.243  31.920  1.00  0.00     0.049 A 
ATOM     60  H   UNL A   1      42.681  30.733  30.922  1.00  0.00     0.167 HD
ATOM     61  C   UNL A   1      41.545  33.263  31.495  1.00  0.00     0.074 A 
ATOM     62  C   UNL A   1      40.596  34.356  31.566  1.00  0.00     0.031 C 
ATOM     63  C   UNL A   1      42.806  33.316  31.990  1.00  0.00     0.031 A 
BRANCH  50  64
ATOM     64  C   UNL A   1      46.039  28.108  31.181  1.00  0.00    -0.014 A 
ATOM     65  C   UNL A   1      47.092  28.188  30.252  1.00  0.00     0.010 A 
ATOM     66  C   UNL A   1      46.202  27.324  32.337  1.00  0.00     0.010 A 
ATOM     67  C   UNL A   1      48.270  27.464  30.455  1.00  0.00     0.020 A 
ATOM     68  C   UNL A   1      47.387  26.615  32.554  1.00  0.00     0.020 A 
ATOM     69  C   UNL A   1      48.407  26.676  31.601  1.00  0.00     0.054 A 
BRANCH  69  70
ATOM     70  S   UNL A   1      49.948  25.751  31.848  1.00  0.00     0.124 S 
ATOM     71  O   UNL A   1      50.913  26.827  32.058  1.00  0.00    -0.237 OA
ATOM     72  O   UNL A   1      49.651  24.936  33.024  1.00  0.00    -0.237 OA
ATOM     73  O   UNL A   1      50.107  25.005  30.602  1.00  0.00    -0.744 OA
ENDBRANCH  69  70
ENDBRANCH  50  64
BRANCH  51  74
ATOM     74  C   UNL A   1      37.272  32.629  29.625  1.00  0.00    -0.014 A 
ATOM     75  C   UNL A   1      36.319  32.698  30.655  1.00  0.00     0.010 A 
ATOM     76  C   UNL A   1      36.980  33.213  28.379  1.00  0.00     0.010 A 
ATOM     77  C   UNL A   1      35.090  33.328  30.440  1.00  0.00     0.020 A 
ATOM     78  C   UNL A   1      35.761  33.862  28.167  1.00  0.00     0.020 A 
ATOM     79  C   UNL A   1      34.819  33.907  29.196  1.00  0.00     0.054 A 
BRANCH  79  80
ATOM     80  S   UNL A   1      33.243  34.772  28.953  1.00  0.00     0.124 S 
ATOM     81  O   UNL A   1      33.686  36.087  28.500  1.00  0.00    -0.237 OA
ATOM     82  O   UNL A   1      32.577  33.946  27.950  1.00  0.00    -0.237 OA
ATOM     83  O   UNL A   1      32.630  34.739  30.280  1.00  0.00    -0.744 OA
ENDBRANCH  79  80
ENDBRANCH  51  74
BRANCH  63  84
ATOM     84  C   UNL A   1      43.240  34.607  32.630  1.00  0.00    -0.014 A 
ATOM     85  C   UNL A   1      43.759  35.661  31.857  1.00  0.00     0.010 A 
ATOM     86  C   UNL A   1      43.097  34.778  34.019  1.00  0.00     0.010 A 
ATOM     87  C   UNL A   1      44.164  36.851  32.470  1.00  0.00     0.020 A 
ATOM     88  C   UNL A   1      43.479  35.974  34.630  1.00  0.00     0.020 A 
ATOM     89  C   UNL A   1      44.028  36.996  33.854  1.00  0.00     0.054 A 
BRANCH  89  90
ATOM     90  S   UNL A   1      44.538  38.556  34.628  1.00  0.00     0.124 S 
ATOM     91  O   UNL A   1      43.869  39.544  33.785  1.00  0.00    -0.237 OA
ATOM     92  O   UNL A   1      44.014  38.431  35.986  1.00  0.00    -0.237 OA
ATOM     93  O   UNL A   1      45.996  38.530  34.525  1.00  0.00    -0.744 OA
ENDBRANCH  89  90
ENDBRANCH  63  84
ENDBRANCH  37  38
ENDBRANCH  30  32
ENDBRANCH  29  30
ENDBRANCH  28  29
ENDBRANCH   1  28
TORSDOF 20
ENDMDL
MODEL 3
REMARK VINA RESULT:     -10.2      1.835      3.440
REMARK SMILES [NH3+]Cc1c(-c2ccccc2)c(C(=O)OCCOCCOC(=O)c2ccc(-c3c4nc(c(-c5ccc(S(=O)(=O)[O-])cc5)c5ccc([nH]5)c(-c5ccc(S(=O)(=O)[O-])cc5)c5nc(c(-c6ccc(S(=O)(=O)[O-])cc6)c6ccc3[nH]6)C=C5)C=C4)cc2)c2ccccn12
REMARK SMILES IDX 18 1 17 2 16 3 15 4 14 5 12 6 13 7 11 8 3 9 4 10 88 11 83 12
REMARK SMILES IDX 87 13 84 14 86 15 85 16 2 17 1 18 5 22 6 23 10 24 7 25 9 26
REMARK SMILES IDX 8 27 19 28 20 29 21 30 22 31 23 32 24 33 82 34 25 35 81 36
REMARK SMILES IDX 26 37 27 38 28 39 75 40 29 41 80 42 74 43 76 44 30 45 79 46
REMARK SMILES IDX 73 47 72 48 31 50 61 51 42 52 60 53 43 54 46 55 59 56 77 57
REMARK SMILES IDX 44 58 45 59 58 61 78 62 47 63 32 64 33 65 41 66 34 67 40 68
REMARK SMILES IDX 35 69 36 70 37 71 38 72 39 73 62 74 63 75 71 76 64 77 70 78
REMARK SMILES IDX 65 79 66 80 67 81 68 82 69 83 48 84 49 85 57 86 50 87 56 88
REMARK SMILES IDX 51 89 52 90 53 91 54 92 55 93
REMARK H PARENT 1 19 1 20 1 21 76 49 46 60
REMARK Flexibility Score: inf
ROOT
ATOM      1  C   UNL A   1      40.908  22.588  26.664  1.00  0.00     0.202 C 
ENDROOT
BRANCH   1   2
ATOM      2  O   UNL A   1      39.945  21.846  25.918  1.00  0.00    -0.374 OA
BRANCH   2   3
ATOM      3  C   UNL A   1      38.570  22.142  26.191  1.00  0.00     0.202 C 
BRANCH   3   4
ATOM      4  C   UNL A   1      38.213  23.626  26.070  1.00  0.00     0.261 C 
BRANCH   4   5
ATOM      5  O   UNL A   1      36.781  23.767  26.017  1.00  0.00    -0.460 OA
BRANCH   5   6
ATOM      6  C   UNL A   1      36.205  23.601  24.794  1.00  0.00     0.341 C 
ATOM      7  O   UNL A   1      36.807  23.697  23.730  1.00  0.00    -0.246 OA
BRANCH   6   8
ATOM      8  C   UNL A   1      34.809  23.180  24.881  1.00  0.00     0.093 A 
ATOM      9  C   UNL A   1      32.511  23.295  25.029  1.00  0.00     0.086 A 
ATOM     10  C   UNL A   1      33.680  24.051  24.938  1.00  0.00     0.024 A 
ATOM     11  N   UNL A   1      32.900  21.955  24.994  1.00  0.00    -0.314 N 
ATOM     12  C   UNL A   1      34.294  21.895  24.854  1.00  0.00     0.061 A 
ATOM     13  C   UNL A   1      32.127  20.787  25.069  1.00  0.00     0.092 A 
ATOM     14  C   UNL A   1      34.894  20.600  24.730  1.00  0.00     0.027 A 
ATOM     15  C   UNL A   1      32.704  19.578  24.994  1.00  0.00     0.018 A 
ATOM     16  C   UNL A   1      34.134  19.495  24.796  1.00  0.00     0.004 A 
BRANCH   9  17
ATOM     17  C   UNL A   1      31.112  23.842  25.048  1.00  0.00     0.315 C 
BRANCH  17  18
ATOM     18  N   UNL A   1      30.418  23.875  23.773  1.00  0.00    -0.353 N 
ATOM     19  H   UNL A   1      30.335  24.842  23.457  1.00  0.00     0.344 HD
ATOM     20  H   UNL A   1      29.489  23.471  23.882  1.00  0.00     0.344 HD
ATOM     21  H   UNL A   1      30.946  23.338  23.085  1.00  0.00     0.344 HD
ENDBRANCH  17  18
ENDBRANCH   9  17
BRANCH  10  22
ATOM     22  C   UNL A   1      33.682  25.493  24.760  1.00  0.00    -0.015 A 
ATOM     23  C   UNL A   1      33.636  26.029  23.467  1.00  0.00     0.009 A 
ATOM     24  C   UNL A   1      33.784  26.345  25.861  1.00  0.00     0.009 A 
ATOM     25  C   UNL A   1      33.711  27.408  23.276  1.00  0.00     0.001 A 
ATOM     26  C   UNL A   1      33.848  27.726  25.668  1.00  0.00     0.001 A 
ATOM     27  C   UNL A   1      33.816  28.256  24.376  1.00  0.00     0.000 A 
ENDBRANCH  10  22
ENDBRANCH   6   8
ENDBRANCH   5   6
ENDBRANCH   4   5
ENDBRANCH   3   4
ENDBRANCH   2   3
ENDBRANCH   1   2
BRANCH   1  28
ATOM     28  C   UNL A   1      42.099  23.109  25.854  1.00  0.00     0.261 C 
BRANCH  28  29
ATOM     29  O   UNL A   1      42.756  24.195  26.522  1.00  0.00    -0.460 OA
BRANCH  29  30
ATOM     30  C   UNL A   1      42.243  25.416  26.230  1.00  0.00     0.338 C 
ATOM     31  O   UNL A   1      41.752  25.774  25.173  1.00  0.00    -0.246 OA
BRANCH  30  32
ATOM     32  C   UNL A   1      42.211  26.251  27.448  1.00  0.00     0.060 A 
ATOM     33  C   UNL A   1      41.331  25.860  28.464  1.00  0.00     0.016 A 
ATOM     34  C   UNL A   1      42.981  27.410  27.583  1.00  0.00     0.016 A 
ATOM     35  C   UNL A   1      41.178  26.655  29.597  1.00  0.00     0.010 A 
ATOM     36  C   UNL A   1      42.821  28.211  28.719  1.00  0.00     0.010 A 
ATOM     37  C   UNL A   1      41.893  27.854  29.712  1.00  0.00    -0.014 A 
BRANCH  37  38
ATOM     38  C   UNL A   1      41.550  28.790  30.808  1.00  0.00     0.031 A 
ATOM     39  C   UNL A   1      42.406  28.809  32.045  1.00  0.00     0.074 A 
ATOM     40  C   UNL A   1      40.525  29.652  30.678  1.00  0.00     0.049 A 
ATOM     41  N   UNL A   1      42.329  29.590  33.091  1.00  0.00    -0.248 NA
ATOM     42  C   UNL A   1      43.494  27.820  32.108  1.00  0.00     0.031 C 
ATOM     43  C   UNL A   1      39.641  29.747  29.517  1.00  0.00     0.029 A 
ATOM     44  N   UNL A   1      40.065  30.620  31.533  1.00  0.00    -0.354 N 
ATOM     45  C   UNL A   1      43.360  29.193  33.934  1.00  0.00     0.074 A 
ATOM     46  C   UNL A   1      44.027  28.081  33.294  1.00  0.00     0.031 C 
ATOM     47  C   UNL A   1      38.743  30.724  29.733  1.00  0.00     0.029 A 
ATOM     48  C   UNL A   1      38.981  31.311  31.051  1.00  0.00     0.049 A 
ATOM     49  H   UNL A   1      40.473  30.802  32.411  1.00  0.00     0.167 HD
ATOM     50  C   UNL A   1      43.726  29.714  35.130  1.00  0.00     0.031 A 
ATOM     51  C   UNL A   1      38.260  32.303  31.610  1.00  0.00     0.031 A 
ATOM     52  C   UNL A   1      43.052  30.806  35.777  1.00  0.00     0.049 A 
ATOM     53  C   UNL A   1      38.655  32.831  32.962  1.00  0.00     0.074 A 
ATOM     54  C   UNL A   1      43.351  31.409  36.986  1.00  0.00     0.029 A 
ATOM     55  N   UNL A   1      41.936  31.456  35.272  1.00  0.00    -0.354 N 
ATOM     56  N   UNL A   1      39.652  32.465  33.732  1.00  0.00    -0.248 NA
ATOM     57  C   UNL A   1      37.834  33.918  33.514  1.00  0.00     0.031 C 
ATOM     58  C   UNL A   1      42.390  32.398  37.231  1.00  0.00     0.029 A 
ATOM     59  C   UNL A   1      41.522  32.440  36.152  1.00  0.00     0.049 A 
ATOM     60  H   UNL A   1      41.503  31.248  34.412  1.00  0.00     0.167 HD
ATOM     61  C   UNL A   1      39.592  33.292  34.849  1.00  0.00     0.074 A 
ATOM     62  C   UNL A   1      38.468  34.184  34.647  1.00  0.00     0.031 C 
ATOM     63  C   UNL A   1      40.395  33.313  35.941  1.00  0.00     0.031 A 
BRANCH  50  64
ATOM     64  C   UNL A   1      44.899  29.079  35.824  1.00  0.00    -0.014 A 
ATOM     65  C   UNL A   1      44.723  27.997  36.705  1.00  0.00     0.010 A 
ATOM     66  C   UNL A   1      46.198  29.561  35.581  1.00  0.00     0.010 A 
ATOM     67  C   UNL A   1      45.820  27.434  37.361  1.00  0.00     0.020 A 
ATOM     68  C   UNL A   1      47.300  28.986  36.219  1.00  0.00     0.020 A 
ATOM     69  C   UNL A   1      47.101  27.937  37.120  1.00  0.00     0.054 A 
BRANCH  69  70
ATOM     70  S   UNL A   1      48.513  27.185  37.977  1.00  0.00     0.124 S 
ATOM     71  O   UNL A   1      48.296  27.626  39.353  1.00  0.00    -0.237 OA
ATOM     72  O   UNL A   1      48.314  25.758  37.736  1.00  0.00    -0.237 OA
ATOM     73  O   UNL A   1      49.674  27.770  37.311  1.00  0.00    -0.744 OA
ENDBRANCH  69  70
ENDBRANCH  50  64
BRANCH  51  74
ATOM     74  C   UNL A   1      37.087  32.863  30.887  1.00  0.00    -0.014 A 
ATOM     75  C   UNL A   1      35.785  32.422  31.178  1.00  0.00     0.010 A 
ATOM     76  C   UNL A   1      37.274  33.849  29.901  1.00  0.00     0.010 A 
ATOM     77  C   UNL A   1      34.690  32.949  30.487  1.00  0.00     0.020 A 
ATOM     78  C   UNL A   1      36.180  34.393  29.224  1.00  0.00     0.020 A 
ATOM     79  C   UNL A   1      34.894  33.932  29.514  1.00  0.00     0.054 A 
BRANCH  79  80
ATOM     80  S   UNL A   1      33.457  34.647  28.670  1.00  0.00     0.124 S 
ATOM     81  O   UNL A   1      33.061  33.563  27.776  1.00  0.00    -0.237 OA
ATOM     82  O   UNL A   1      32.543  34.923  29.775  1.00  0.00    -0.237 OA
ATOM     83  O   UNL A   1      34.004  35.834  28.015  1.00  0.00    -0.744 OA
ENDBRANCH  79  80
ENDBRANCH  51  74
BRANCH  63  84
ATOM     84  C   UNL A   1      40.101  34.349  36.991  1.00  0.00    -0.014 A 
ATOM     85  C   UNL A   1      39.193  34.090  38.033  1.00  0.00     0.010 A 
ATOM     86  C   UNL A   1      40.766  35.589  36.951  1.00  0.00     0.010 A 
ATOM     87  C   UNL A   1      38.928  35.068  38.996  1.00  0.00     0.020 A 
ATOM     88  C   UNL A   1      40.520  36.559  37.925  1.00  0.00     0.020 A 
ATOM     89  C   UNL A   1      39.587  36.299  38.931  1.00  0.00     0.054 A 
BRANCH  89  90
ATOM     90  S   UNL A   1      39.245  37.547  40.203  1.00  0.00     0.124 S 
ATOM     91  O   UNL A   1      38.802  36.722  41.324  1.00  0.00    -0.237 OA
ATOM     92  O   UNL A   1      40.542  38.198  40.376  1.00  0.00    -0.237 OA
ATOM     93  O   UNL A   1      38.212  38.383  39.595  1.00  0.00    -0.744 OA
ENDBRANCH  89  90
ENDBRANCH  63  84
ENDBRANCH  37  38
ENDBRANCH  30  32
ENDBRANCH  29  30
ENDBRANCH  28  29
ENDBRANCH   1  28
TORSDOF 20
ENDMDL
