MODEL 1
REMARK VINA RESULT:     -11.4      0.000      0.000
REMARK SMILES Cc1ccc(C(=O)N2C[C@H](C(=O)OCCOCCOC(=O)c3ccc(-c4c5nc(c(-c6ccc(S(=O)(=O)[O-])cc6)c6ccc([nH]6)c(-c6ccc(S(=O)(=O)[O-])cc6)c6nc(c(-c7ccc(S(=O)(=O)[O-])cc7)c7ccc4[nH]7)C=C6)C=C5)cc3)Oc3ccccc32)o1
REMARK SMILES IDX 17 1 16 2 15 3 14 4 13 5 11 6 12 7 10 8 8 9 9 10 88 11 83 12
REMARK SMILES IDX 87 13 82 14 84 15 86 16 85 17 6 18 7 19 5 20 1 21 2 22 3 23
REMARK SMILES IDX 89 24 4 25 18 26 19 27 20 28 21 29 22 30 23 31 81 32 24 33
REMARK SMILES IDX 80 34 25 35 26 36 27 37 74 38 28 39 79 40 73 41 75 42 29 43
REMARK SMILES IDX 78 44 72 45 71 46 30 48 60 49 41 50 59 51 42 52 45 53 58 54
REMARK SMILES IDX 76 55 43 56 44 57 57 59 77 60 46 61 31 62 32 63 40 64 33 65
REMARK SMILES IDX 39 66 34 67 35 68 36 69 37 70 38 71 61 72 62 73 70 74 63 75
REMARK SMILES IDX 69 76 64 77 65 78 66 79 67 80 68 81 47 82 48 83 56 84 49 85
REMARK SMILES IDX 55 86 50 87 51 88 52 89 53 90 54 91
REMARK H PARENT 75 47 45 58
REMARK Flexibility Score: inf
ROOT
ATOM      1  C   UNL A   1      36.111  20.981  25.097  1.00  0.00     0.202 C 
ENDROOT
BRANCH   1   2
ATOM      2  O   UNL A   1      35.411  21.862  25.971  1.00  0.00    -0.374 OA
BRANCH   2   3
ATOM      3  C   UNL A   1      34.483  22.778  25.395  1.00  0.00     0.202 C 
BRANCH   3   4
ATOM      4  C   UNL A   1      33.012  22.609  25.782  1.00  0.00     0.261 C 
BRANCH   4   5
ATOM      5  O   UNL A   1      32.623  23.448  26.886  1.00  0.00    -0.460 OA
BRANCH   5   6
ATOM      6  C   UNL A   1      31.395  24.025  26.768  1.00  0.00     0.349 C 
ATOM      7  O   UNL A   1      30.340  23.497  27.106  1.00  0.00    -0.248 OA
BRANCH   6   8
ATOM      8  C   UNL A   1      31.451  25.409  26.152  1.00  0.00     0.302 C 
ATOM      9  N   UNL A   1      30.511  27.091  24.662  1.00  0.00    -0.298 N 
ATOM     10  C   UNL A   1      30.245  25.791  25.295  1.00  0.00     0.183 C 
ATOM     11  C   UNL A   1      31.240  28.024  25.466  1.00  0.00     0.087 A 
ATOM     12  C   UNL A   1      31.719  27.632  26.730  1.00  0.00     0.144 A 
ATOM     13  C   UNL A   1      31.445  29.345  25.054  1.00  0.00     0.030 A 
ATOM     14  O   UNL A   1      31.610  26.352  27.217  1.00  0.00    -0.475 OA
ATOM     15  C   UNL A   1      32.353  28.544  27.571  1.00  0.00     0.049 A 
ATOM     16  C   UNL A   1      32.098  30.256  25.891  1.00  0.00     0.002 A 
ATOM     17  C   UNL A   1      32.546  29.856  27.149  1.00  0.00     0.004 A 
BRANCH   9  18
ATOM     18  C   UNL A   1      30.313  27.305  23.295  1.00  0.00     0.294 C 
ATOM     19  O   UNL A   1      31.121  26.880  22.467  1.00  0.00    -0.265 OA
BRANCH  18  20
ATOM     20  C   UNL A   1      29.163  28.110  22.911  1.00  0.00     0.192 A 
ATOM     21  C   UNL A   1      28.295  31.004  20.985  1.00  0.00     0.087 C 
ATOM     22  C   UNL A   1      28.235  29.832  21.881  1.00  0.00     0.101 A 
ATOM     23  C   UNL A   1      27.263  29.305  22.701  1.00  0.00     0.046 A 
ATOM     24  O   UNL A   1      29.376  29.100  21.984  1.00  0.00    -0.456 OA
ATOM     25  C   UNL A   1      27.857  28.197  23.361  1.00  0.00     0.056 A 
ENDBRANCH  18  20
ENDBRANCH   9  18
ENDBRANCH   6   8
ENDBRANCH   5   6
ENDBRANCH   4   5
ENDBRANCH   3   4
ENDBRANCH   2   3
ENDBRANCH   1   2
BRANCH   1  26
ATOM     26  C   UNL A   1      37.643  21.046  25.117  1.00  0.00     0.261 C 
BRANCH  26  27
ATOM     27  O   UNL A   1      38.131  22.267  25.704  1.00  0.00    -0.460 OA
BRANCH  27  28
ATOM     28  C   UNL A   1      39.355  22.161  26.278  1.00  0.00     0.338 C 
ATOM     29  O   UNL A   1      40.152  21.242  26.146  1.00  0.00    -0.246 OA
BRANCH  28  30
ATOM     30  C   UNL A   1      39.711  23.411  26.975  1.00  0.00     0.060 A 
ATOM     31  C   UNL A   1      39.031  24.578  26.599  1.00  0.00     0.016 A 
ATOM     32  C   UNL A   1      40.753  23.465  27.901  1.00  0.00     0.016 A 
ATOM     33  C   UNL A   1      39.433  25.814  27.100  1.00  0.00     0.010 A 
ATOM     34  C   UNL A   1      41.162  24.708  28.394  1.00  0.00     0.010 A 
ATOM     35  C   UNL A   1      40.533  25.891  27.963  1.00  0.00    -0.014 A 
BRANCH  35  36
ATOM     36  C   UNL A   1      41.143  27.207  28.269  1.00  0.00     0.031 A 
ATOM     37  C   UNL A   1      42.629  27.369  28.091  1.00  0.00     0.074 A 
ATOM     38  C   UNL A   1      40.394  28.243  28.686  1.00  0.00     0.049 A 
ATOM     39  N   UNL A   1      43.393  28.388  28.389  1.00  0.00    -0.248 NA
ATOM     40  C   UNL A   1      43.348  26.227  27.501  1.00  0.00     0.031 C 
ATOM     41  C   UNL A   1      38.940  28.233  28.830  1.00  0.00     0.029 A 
ATOM     42  N   UNL A   1      40.764  29.505  29.075  1.00  0.00    -0.354 N 
ATOM     43  C   UNL A   1      44.683  28.006  28.039  1.00  0.00     0.074 A 
ATOM     44  C   UNL A   1      44.602  26.656  27.525  1.00  0.00     0.031 C 
ATOM     45  C   UNL A   1      38.541  29.431  29.291  1.00  0.00     0.029 A 
ATOM     46  C   UNL A   1      39.715  30.276  29.512  1.00  0.00     0.049 A 
ATOM     47  H   UNL A   1      41.694  29.829  29.044  1.00  0.00     0.167 HD
ATOM     48  C   UNL A   1      45.833  28.714  28.139  1.00  0.00     0.031 A 
ATOM     49  C   UNL A   1      39.705  31.508  30.058  1.00  0.00     0.031 A 
ATOM     50  C   UNL A   1      45.912  30.050  28.662  1.00  0.00     0.049 A 
ATOM     51  C   UNL A   1      41.004  32.248  30.239  1.00  0.00     0.074 A 
ATOM     52  C   UNL A   1      47.031  30.852  28.812  1.00  0.00     0.029 A 
ATOM     53  N   UNL A   1      44.830  30.783  29.125  1.00  0.00    -0.354 N 
ATOM     54  N   UNL A   1      42.219  31.870  29.915  1.00  0.00    -0.248 NA
ATOM     55  C   UNL A   1      40.933  33.580  30.857  1.00  0.00     0.031 C 
ATOM     56  C   UNL A   1      46.630  32.052  29.410  1.00  0.00     0.029 A 
ATOM     57  C   UNL A   1      45.254  32.019  29.579  1.00  0.00     0.049 A 
ATOM     58  H   UNL A   1      43.896  30.469  29.131  1.00  0.00     0.167 HD
ATOM     59  C   UNL A   1      43.051  32.931  30.259  1.00  0.00     0.074 A 
ATOM     60  C   UNL A   1      42.202  33.966  30.814  1.00  0.00     0.031 C 
ATOM     61  C   UNL A   1      44.395  33.042  30.118  1.00  0.00     0.031 A 
BRANCH  48  62
ATOM     62  C   UNL A   1      47.104  28.031  27.711  1.00  0.00    -0.014 A 
ATOM     63  C   UNL A   1      47.790  27.155  28.572  1.00  0.00     0.010 A 
ATOM     64  C   UNL A   1      47.613  28.260  26.420  1.00  0.00     0.010 A 
ATOM     65  C   UNL A   1      48.984  26.556  28.165  1.00  0.00     0.020 A 
ATOM     66  C   UNL A   1      48.793  27.643  25.999  1.00  0.00     0.020 A 
ATOM     67  C   UNL A   1      49.483  26.810  26.883  1.00  0.00     0.054 A 
BRANCH  67  68
ATOM     68  S   UNL A   1      51.036  26.020  26.378  1.00  0.00     0.124 S 
ATOM     69  O   UNL A   1      50.969  24.746  27.090  1.00  0.00    -0.237 OA
ATOM     70  O   UNL A   1      50.897  25.936  24.926  1.00  0.00    -0.237 OA
ATOM     71  O   UNL A   1      52.065  26.944  26.850  1.00  0.00    -0.744 OA
ENDBRANCH  67  68
ENDBRANCH  48  62
BRANCH  49  72
ATOM     72  C   UNL A   1      38.417  32.113  30.495  1.00  0.00    -0.014 A 
ATOM     73  C   UNL A   1      37.663  32.908  29.613  1.00  0.00     0.010 A 
ATOM     74  C   UNL A   1      37.933  31.887  31.796  1.00  0.00     0.010 A 
ATOM     75  C   UNL A   1      36.452  33.471  30.027  1.00  0.00     0.020 A 
ATOM     76  C   UNL A   1      36.711  32.427  32.206  1.00  0.00     0.020 A 
ATOM     77  C   UNL A   1      35.982  33.223  31.321  1.00  0.00     0.054 A 
BRANCH  77  78
ATOM     78  S   UNL A   1      34.378  33.912  31.817  1.00  0.00     0.124 S 
ATOM     79  O   UNL A   1      33.755  34.191  30.527  1.00  0.00    -0.237 OA
ATOM     80  O   UNL A   1      33.788  32.815  32.582  1.00  0.00    -0.237 OA
ATOM     81  O   UNL A   1      34.741  35.087  32.606  1.00  0.00    -0.744 OA
ENDBRANCH  77  78
ENDBRANCH  49  72
BRANCH  61  82
ATOM     82  C   UNL A   1      45.036  34.344  30.518  1.00  0.00    -0.014 A 
ATOM     83  C   UNL A   1      45.563  34.536  31.806  1.00  0.00     0.010 A 
ATOM     84  C   UNL A   1      45.188  35.360  29.555  1.00  0.00     0.010 A 
ATOM     85  C   UNL A   1      46.215  35.729  32.131  1.00  0.00     0.020 A 
ATOM     86  C   UNL A   1      45.861  36.543  29.868  1.00  0.00     0.020 A 
ATOM     87  C   UNL A   1      46.363  36.724  31.158  1.00  0.00     0.054 A 
BRANCH  87  88
ATOM     88  S   UNL A   1      47.272  38.235  31.583  1.00  0.00     0.124 S 
ATOM     89  O   UNL A   1      47.348  38.917  30.294  1.00  0.00    -0.237 OA
ATOM     90  O   UNL A   1      46.405  38.864  32.576  1.00  0.00    -0.237 OA
ATOM     91  O   UNL A   1      48.545  37.738  32.103  1.00  0.00    -0.744 OA
ENDBRANCH  87  88
ENDBRANCH  61  82
ENDBRANCH  35  36
ENDBRANCH  28  30
ENDBRANCH  27  28
ENDBRANCH  26  27
ENDBRANCH   1  26
TORSDOF 19
ENDMDL
MODEL 2
REMARK VINA RESULT:     -11.3      4.481     10.228
REMARK SMILES Cc1ccc(C(=O)N2C[C@H](C(=O)OCCOCCOC(=O)c3ccc(-c4c5nc(c(-c6ccc(S(=O)(=O)[O-])cc6)c6ccc([nH]6)c(-c6ccc(S(=O)(=O)[O-])cc6)c6nc(c(-c7ccc(S(=O)(=O)[O-])cc7)c7ccc4[nH]7)C=C6)C=C5)cc3)Oc3ccccc32)o1
REMARK SMILES IDX 17 1 16 2 15 3 14 4 13 5 11 6 12 7 10 8 8 9 9 10 88 11 83 12
REMARK SMILES IDX 87 13 82 14 84 15 86 16 85 17 6 18 7 19 5 20 1 21 2 22 3 23
REMARK SMILES IDX 89 24 4 25 18 26 19 27 20 28 21 29 22 30 23 31 81 32 24 33
REMARK SMILES IDX 80 34 25 35 26 36 27 37 74 38 28 39 79 40 73 41 75 42 29 43
REMARK SMILES IDX 78 44 72 45 71 46 30 48 60 49 41 50 59 51 42 52 45 53 58 54
REMARK SMILES IDX 76 55 43 56 44 57 57 59 77 60 46 61 31 62 32 63 40 64 33 65
REMARK SMILES IDX 39 66 34 67 35 68 36 69 37 70 38 71 61 72 62 73 70 74 63 75
REMARK SMILES IDX 69 76 64 77 65 78 66 79 67 80 68 81 47 82 48 83 56 84 49 85
REMARK SMILES IDX 55 86 50 87 51 88 52 89 53 90 54 91
REMARK H PARENT 75 47 45 58
REMARK Flexibility Score: inf
ROOT
ATOM      1  C   UNL A   1      31.809  29.266  26.172  1.00  0.00     0.202 C 
ENDROOT
BRANCH   1   2
ATOM      2  O   UNL A   1      32.383  27.969  26.031  1.00  0.00    -0.374 OA
BRANCH   2   3
ATOM      3  C   UNL A   1      32.811  27.565  24.733  1.00  0.00     0.202 C 
BRANCH   3   4
ATOM      4  C   UNL A   1      32.432  26.150  24.289  1.00  0.00     0.261 C 
BRANCH   4   5
ATOM      5  O   UNL A   1      32.160  26.059  22.877  1.00  0.00    -0.460 OA
BRANCH   5   6
ATOM      6  C   UNL A   1      32.962  25.200  22.188  1.00  0.00     0.349 C 
ATOM      7  O   UNL A   1      33.269  25.327  21.007  1.00  0.00    -0.248 OA
BRANCH   6   8
ATOM      8  C   UNL A   1      33.441  24.036  23.033  1.00  0.00     0.302 C 
ATOM      9  N   UNL A   1      33.235  21.708  23.721  1.00  0.00    -0.298 N 
ATOM     10  C   UNL A   1      32.768  22.695  22.735  1.00  0.00     0.183 C 
ATOM     11  C   UNL A   1      34.604  21.839  24.115  1.00  0.00     0.087 A 
ATOM     12  C   UNL A   1      35.372  22.913  23.628  1.00  0.00     0.144 A 
ATOM     13  C   UNL A   1      35.226  20.891  24.935  1.00  0.00     0.030 A 
ATOM     14  O   UNL A   1      34.856  23.922  22.851  1.00  0.00    -0.475 OA
ATOM     15  C   UNL A   1      36.730  23.015  23.924  1.00  0.00     0.049 A 
ATOM     16  C   UNL A   1      36.584  21.004  25.246  1.00  0.00     0.002 A 
ATOM     17  C   UNL A   1      37.336  22.062  24.736  1.00  0.00     0.004 A 
BRANCH   9  18
ATOM     18  C   UNL A   1      32.350  20.883  24.420  1.00  0.00     0.294 C 
ATOM     19  O   UNL A   1      31.626  21.343  25.306  1.00  0.00    -0.265 OA
BRANCH  18  20
ATOM     20  C   UNL A   1      32.382  19.463  24.108  1.00  0.00     0.192 A 
ATOM     21  C   UNL A   1      32.886  16.271  25.657  1.00  0.00     0.087 C 
ATOM     22  C   UNL A   1      32.665  17.342  24.664  1.00  0.00     0.101 A 
ATOM     23  C   UNL A   1      32.629  17.377  23.289  1.00  0.00     0.046 A 
ATOM     24  O   UNL A   1      32.490  18.594  25.165  1.00  0.00    -0.456 OA
ATOM     25  C   UNL A   1      32.445  18.738  22.930  1.00  0.00     0.056 A 
ENDBRANCH  18  20
ENDBRANCH   9  18
ENDBRANCH   6   8
ENDBRANCH   5   6
ENDBRANCH   4   5
ENDBRANCH   3   4
ENDBRANCH   2   3
ENDBRANCH   1   2
BRANCH   1  26
ATOM     26  C   UNL A   1      32.776  30.447  26.322  1.00  0.00     0.261 C 
BRANCH  26  27
ATOM     27  O   UNL A   1      33.457  30.440  27.590  1.00  0.00    -0.460 OA
BRANCH  27  28
ATOM     28  C   UNL A   1      34.333  31.460  27.761  1.00  0.00     0.338 C 
ATOM     29  O   UNL A   1      34.070  32.655  27.808  1.00  0.00    -0.246 OA
BRANCH  28  30
ATOM     30  C   UNL A   1      35.679  30.942  28.068  1.00  0.00     0.060 A 
ATOM     31  C   UNL A   1      35.803  29.568  28.319  1.00  0.00     0.016 A 
ATOM     32  C   UNL A   1      36.778  31.791  28.211  1.00  0.00     0.016 A 
ATOM     33  C   UNL A   1      37.011  29.046  28.775  1.00  0.00     0.010 A 
ATOM     34  C   UNL A   1      37.987  31.266  28.678  1.00  0.00     0.010 A 
ATOM     35  C   UNL A   1      38.096  29.901  29.004  1.00  0.00    -0.014 A 
BRANCH  35  36
ATOM     36  C   UNL A   1      39.278  29.411  29.753  1.00  0.00     0.031 A 
ATOM     37  C   UNL A   1      39.657  30.107  31.033  1.00  0.00     0.074 A 
ATOM     38  C   UNL A   1      39.997  28.363  29.314  1.00  0.00     0.049 A 
ATOM     39  N   UNL A   1      40.700  29.921  31.800  1.00  0.00    -0.248 NA
ATOM     40  C   UNL A   1      38.736  31.154  31.508  1.00  0.00     0.031 C 
ATOM     41  C   UNL A   1      39.692  27.563  28.130  1.00  0.00     0.029 A 
ATOM     42  N   UNL A   1      41.142  27.800  29.817  1.00  0.00    -0.354 N 
ATOM     43  C   UNL A   1      40.571  30.837  32.838  1.00  0.00     0.074 A 
ATOM     44  C   UNL A   1      39.360  31.590  32.593  1.00  0.00     0.031 C 
ATOM     45  C   UNL A   1      40.638  26.619  27.988  1.00  0.00     0.029 A 
ATOM     46  C   UNL A   1      41.635  26.775  29.046  1.00  0.00     0.049 A 
ATOM     47  H   UNL A   1      41.572  28.102  30.650  1.00  0.00     0.167 HD
ATOM     48  C   UNL A   1      41.388  31.035  33.899  1.00  0.00     0.031 A 
ATOM     49  C   UNL A   1      42.775  26.065  29.164  1.00  0.00     0.031 A 
ATOM     50  C   UNL A   1      42.598  30.294  34.133  1.00  0.00     0.049 A 
ATOM     51  C   UNL A   1      43.714  26.357  30.305  1.00  0.00     0.074 A 
ATOM     52  C   UNL A   1      43.500  30.423  35.175  1.00  0.00     0.029 A 
ATOM     53  N   UNL A   1      43.078  29.286  33.311  1.00  0.00    -0.354 N 
ATOM     54  N   UNL A   1      43.587  27.234  31.273  1.00  0.00    -0.248 NA
ATOM     55  C   UNL A   1      44.950  25.564  30.371  1.00  0.00     0.031 C 
ATOM     56  C   UNL A   1      44.550  29.525  34.956  1.00  0.00     0.029 A 
ATOM     57  C   UNL A   1      44.272  28.798  33.809  1.00  0.00     0.049 A 
ATOM     58  H   UNL A   1      42.634  28.966  32.491  1.00  0.00     0.167 HD
ATOM     59  C   UNL A   1      44.708  27.073  32.081  1.00  0.00     0.074 A 
ATOM     60  C   UNL A   1      45.502  26.016  31.489  1.00  0.00     0.031 C 
ATOM     61  C   UNL A   1      45.044  27.736  33.215  1.00  0.00     0.031 A 
BRANCH  48  62
ATOM     62  C   UNL A   1      41.017  32.131  34.863  1.00  0.00    -0.014 A 
ATOM     63  C   UNL A   1      41.526  33.434  34.719  1.00  0.00     0.010 A 
ATOM     64  C   UNL A   1      40.133  31.853  35.920  1.00  0.00     0.010 A 
ATOM     65  C   UNL A   1      41.193  34.428  35.642  1.00  0.00     0.020 A 
ATOM     66  C   UNL A   1      39.776  32.851  36.830  1.00  0.00     0.020 A 
ATOM     67  C   UNL A   1      40.325  34.128  36.698  1.00  0.00     0.054 A 
BRANCH  67  68
ATOM     68  S   UNL A   1      39.907  35.435  37.883  1.00  0.00     0.124 S 
ATOM     69  O   UNL A   1      39.705  36.584  37.003  1.00  0.00    -0.237 OA
ATOM     70  O   UNL A   1      38.700  34.915  38.523  1.00  0.00    -0.237 OA
ATOM     71  O   UNL A   1      41.083  35.511  38.746  1.00  0.00    -0.744 OA
ENDBRANCH  67  68
ENDBRANCH  48  62
BRANCH  49  72
ATOM     72  C   UNL A   1      43.102  25.019  28.157  1.00  0.00    -0.014 A 
ATOM     73  C   UNL A   1      43.757  25.358  26.960  1.00  0.00     0.010 A 
ATOM     74  C   UNL A   1      42.768  23.674  28.397  1.00  0.00     0.010 A 
ATOM     75  C   UNL A   1      44.066  24.372  26.018  1.00  0.00     0.020 A 
ATOM     76  C   UNL A   1      43.097  22.682  27.469  1.00  0.00     0.020 A 
ATOM     77  C   UNL A   1      43.737  23.039  26.281  1.00  0.00     0.054 A 
BRANCH  77  78
ATOM     78  S   UNL A   1      44.202  21.766  25.074  1.00  0.00     0.124 S 
ATOM     79  O   UNL A   1      44.100  22.492  23.813  1.00  0.00    -0.237 OA
ATOM     80  O   UNL A   1      45.557  21.414  25.495  1.00  0.00    -0.237 OA
ATOM     81  O   UNL A   1      43.203  20.720  25.280  1.00  0.00    -0.744 OA
ENDBRANCH  77  78
ENDBRANCH  49  72
BRANCH  61  82
ATOM     82  C   UNL A   1      46.298  27.308  33.931  1.00  0.00    -0.014 A 
ATOM     83  C   UNL A   1      47.532  27.932  33.683  1.00  0.00     0.010 A 
ATOM     84  C   UNL A   1      46.216  26.321  34.930  1.00  0.00     0.010 A 
ATOM     85  C   UNL A   1      48.667  27.564  34.411  1.00  0.00     0.020 A 
ATOM     86  C   UNL A   1      47.341  25.967  35.677  1.00  0.00     0.020 A 
ATOM     87  C   UNL A   1      48.563  26.585  35.406  1.00  0.00     0.054 A 
BRANCH  87  88
ATOM     88  S   UNL A   1      50.035  26.172  36.384  1.00  0.00     0.124 S 
ATOM     89  O   UNL A   1      51.112  26.417  35.430  1.00  0.00    -0.237 OA
ATOM     90  O   UNL A   1      49.955  27.113  37.498  1.00  0.00    -0.237 OA
ATOM     91  O   UNL A   1      49.827  24.770  36.745  1.00  0.00    -0.744 OA
ENDBRANCH  87  88
ENDBRANCH  61  82
ENDBRANCH  35  36
ENDBRANCH  28  30
ENDBRANCH  27  28
ENDBRANCH  26  27
ENDBRANCH   1  26
TORSDOF 19
ENDMDL
MODEL 3
REMARK VINA RESULT:     -11.3      3.309      9.736
REMARK SMILES Cc1ccc(C(=O)N2C[C@H](C(=O)OCCOCCOC(=O)c3ccc(-c4c5nc(c(-c6ccc(S(=O)(=O)[O-])cc6)c6ccc([nH]6)c(-c6ccc(S(=O)(=O)[O-])cc6)c6nc(c(-c7ccc(S(=O)(=O)[O-])cc7)c7ccc4[nH]7)C=C6)C=C5)cc3)Oc3ccccc32)o1
REMARK SMILES IDX 17 1 16 2 15 3 14 4 13 5 11 6 12 7 10 8 8 9 9 10 88 11 83 12
REMARK SMILES IDX 87 13 82 14 84 15 86 16 85 17 6 18 7 19 5 20 1 21 2 22 3 23
REMARK SMILES IDX 89 24 4 25 18 26 19 27 20 28 21 29 22 30 23 31 81 32 24 33
REMARK SMILES IDX 80 34 25 35 26 36 27 37 74 38 28 39 79 40 73 41 75 42 29 43
REMARK SMILES IDX 78 44 72 45 71 46 30 48 60 49 41 50 59 51 42 52 45 53 58 54
REMARK SMILES IDX 76 55 43 56 44 57 57 59 77 60 46 61 31 62 32 63 40 64 33 65
REMARK SMILES IDX 39 66 34 67 35 68 36 69 37 70 38 71 61 72 62 73 70 74 63 75
REMARK SMILES IDX 69 76 64 77 65 78 66 79 67 80 68 81 47 82 48 83 56 84 49 85
REMARK SMILES IDX 55 86 50 87 51 88 52 89 53 90 54 91
REMARK H PARENT 75 47 45 58
REMARK Flexibility Score: inf
ROOT
ATOM      1  C   UNL A   1      31.656  30.510  26.288  1.00  0.00     0.202 C 
ENDROOT
BRANCH   1   2
ATOM      2  O   UNL A   1      31.702  29.965  24.972  1.00  0.00    -0.374 OA
BRANCH   2   3
ATOM      3  C   UNL A   1      31.571  28.553  24.827  1.00  0.00     0.202 C 
BRANCH   3   4
ATOM      4  C   UNL A   1      32.506  27.870  23.826  1.00  0.00     0.261 C 
BRANCH   4   5
ATOM      5  O   UNL A   1      32.958  26.577  24.273  1.00  0.00    -0.460 OA
BRANCH   5   6
ATOM      6  C   UNL A   1      33.056  25.631  23.299  1.00  0.00     0.349 C 
ATOM      7  O   UNL A   1      32.776  25.812  22.118  1.00  0.00    -0.248 OA
BRANCH   6   8
ATOM      8  C   UNL A   1      33.540  24.293  23.824  1.00  0.00     0.302 C 
ATOM      9  N   UNL A   1      33.303  21.872  23.958  1.00  0.00    -0.298 N 
ATOM     10  C   UNL A   1      32.820  23.070  23.255  1.00  0.00     0.183 C 
ATOM     11  C   UNL A   1      34.691  21.886  24.305  1.00  0.00     0.087 A 
ATOM     12  C   UNL A   1      35.465  23.032  24.045  1.00  0.00     0.144 A 
ATOM     13  C   UNL A   1      35.324  20.762  24.849  1.00  0.00     0.030 A 
ATOM     14  O   UNL A   1      34.942  24.203  23.552  1.00  0.00    -0.475 OA
ATOM     15  C   UNL A   1      36.837  23.042  24.289  1.00  0.00     0.049 A 
ATOM     16  C   UNL A   1      36.697  20.779  25.111  1.00  0.00     0.002 A 
ATOM     17  C   UNL A   1      37.453  21.915  24.826  1.00  0.00     0.004 A 
BRANCH   9  18
ATOM     18  C   UNL A   1      32.428  20.920  24.488  1.00  0.00     0.294 C 
ATOM     19  O   UNL A   1      31.711  21.192  25.454  1.00  0.00    -0.265 OA
BRANCH  18  20
ATOM     20  C   UNL A   1      32.463  19.590  23.900  1.00  0.00     0.192 A 
ATOM     21  C   UNL A   1      33.455  16.229  24.649  1.00  0.00     0.087 C 
ATOM     22  C   UNL A   1      32.968  17.438  23.955  1.00  0.00     0.101 A 
ATOM     23  C   UNL A   1      32.629  17.721  22.651  1.00  0.00     0.046 A 
ATOM     24  O   UNL A   1      32.844  18.556  24.719  1.00  0.00    -0.456 OA
ATOM     25  C   UNL A   1      32.302  19.102  22.615  1.00  0.00     0.056 A 
ENDBRANCH  18  20
ENDBRANCH   9  18
ENDBRANCH   6   8
ENDBRANCH   5   6
ENDBRANCH   4   5
ENDBRANCH   3   4
ENDBRANCH   2   3
ENDBRANCH   1   2
BRANCH   1  26
ATOM     26  C   UNL A   1      32.751  30.071  27.266  1.00  0.00     0.261 C 
BRANCH  26  27
ATOM     27  O   UNL A   1      34.034  30.639  26.943  1.00  0.00    -0.460 OA
BRANCH  27  28
ATOM     28  C   UNL A   1      34.728  31.099  28.013  1.00  0.00     0.338 C 
ATOM     29  O   UNL A   1      34.363  31.947  28.817  1.00  0.00    -0.246 OA
BRANCH  28  30
ATOM     30  C   UNL A   1      35.957  30.309  28.213  1.00  0.00     0.060 A 
ATOM     31  C   UNL A   1      36.144  29.709  29.467  1.00  0.00     0.016 A 
ATOM     32  C   UNL A   1      36.953  30.240  27.238  1.00  0.00     0.016 A 
ATOM     33  C   UNL A   1      37.354  29.090  29.773  1.00  0.00     0.010 A 
ATOM     34  C   UNL A   1      38.170  29.628  27.552  1.00  0.00     0.010 A 
ATOM     35  C   UNL A   1      38.392  29.090  28.833  1.00  0.00    -0.014 A 
BRANCH  35  36
ATOM     36  C   UNL A   1      39.761  28.697  29.244  1.00  0.00     0.031 A 
ATOM     37  C   UNL A   1      40.584  29.680  30.034  1.00  0.00     0.074 A 
ATOM     38  C   UNL A   1      40.264  27.490  28.933  1.00  0.00     0.049 A 
ATOM     39  N   UNL A   1      41.832  29.598  30.416  1.00  0.00    -0.248 NA
ATOM     40  C   UNL A   1      39.906  30.920  30.448  1.00  0.00     0.031 C 
ATOM     41  C   UNL A   1      39.544  26.427  28.234  1.00  0.00     0.029 A 
ATOM     42  N   UNL A   1      41.509  26.962  29.161  1.00  0.00    -0.354 N 
ATOM     43  C   UNL A   1      42.095  30.780  31.097  1.00  0.00     0.074 A 
ATOM     44  C   UNL A   1      40.884  31.570  31.061  1.00  0.00     0.031 C 
ATOM     45  C   UNL A   1      40.367  25.376  28.077  1.00  0.00     0.029 A 
ATOM     46  C   UNL A   1      41.681  25.708  28.626  1.00  0.00     0.049 A 
ATOM     47  H   UNL A   1      42.214  27.436  29.660  1.00  0.00     0.167 HD
ATOM     48  C   UNL A   1      43.243  31.175  31.698  1.00  0.00     0.031 A 
ATOM     49  C   UNL A   1      42.781  24.931  28.560  1.00  0.00     0.031 A 
ATOM     50  C   UNL A   1      44.449  30.393  31.720  1.00  0.00     0.049 A 
ATOM     51  C   UNL A   1      44.071  25.423  29.160  1.00  0.00     0.074 A 
ATOM     52  C   UNL A   1      45.669  30.706  32.296  1.00  0.00     0.029 A 
ATOM     53  N   UNL A   1      44.591  29.143  31.138  1.00  0.00    -0.354 N 
ATOM     54  N   UNL A   1      44.311  26.548  29.791  1.00  0.00    -0.248 NA
ATOM     55  C   UNL A   1      45.241  24.540  29.041  1.00  0.00     0.031 C 
ATOM     56  C   UNL A   1      46.561  29.665  32.020  1.00  0.00     0.029 A 
ATOM     57  C   UNL A   1      45.881  28.678  31.323  1.00  0.00     0.049 A 
ATOM     58  H   UNL A   1      43.878  28.657  30.663  1.00  0.00     0.167 HD
ATOM     59  C   UNL A   1      45.647  26.493  30.174  1.00  0.00     0.074 A 
ATOM     60  C   UNL A   1      46.165  25.224  29.705  1.00  0.00     0.031 C 
ATOM     61  C   UNL A   1      46.377  27.407  30.860  1.00  0.00     0.031 A 
BRANCH  48  62
ATOM     62  C   UNL A   1      43.255  32.536  32.340  1.00  0.00    -0.014 A 
ATOM     63  C   UNL A   1      42.919  32.708  33.695  1.00  0.00     0.010 A 
ATOM     64  C   UNL A   1      43.623  33.659  31.578  1.00  0.00     0.010 A 
ATOM     65  C   UNL A   1      42.907  33.984  34.264  1.00  0.00     0.020 A 
ATOM     66  C   UNL A   1      43.638  34.934  32.149  1.00  0.00     0.020 A 
ATOM     67  C   UNL A   1      43.259  35.091  33.484  1.00  0.00     0.054 A 
BRANCH  67  68
ATOM     68  S   UNL A   1      43.236  36.737  34.243  1.00  0.00     0.124 S 
ATOM     69  O   UNL A   1      44.378  36.663  35.153  1.00  0.00    -0.237 OA
ATOM     70  O   UNL A   1      43.405  37.625  33.095  1.00  0.00    -0.237 OA
ATOM     71  O   UNL A   1      41.928  36.803  34.891  1.00  0.00    -0.744 OA
ENDBRANCH  67  68
ENDBRANCH  48  62
BRANCH  49  72
ATOM     72  C   UNL A   1      42.712  23.610  27.878  1.00  0.00    -0.014 A 
ATOM     73  C   UNL A   1      43.173  23.461  26.558  1.00  0.00     0.010 A 
ATOM     74  C   UNL A   1      42.195  22.489  28.552  1.00  0.00     0.010 A 
ATOM     75  C   UNL A   1      43.110  22.217  25.922  1.00  0.00     0.020 A 
ATOM     76  C   UNL A   1      42.153  21.239  27.930  1.00  0.00     0.020 A 
ATOM     77  C   UNL A   1      42.604  21.113  26.615  1.00  0.00     0.054 A 
BRANCH  77  78
ATOM     78  S   UNL A   1      42.589  19.495  25.793  1.00  0.00     0.124 S 
ATOM     79  O   UNL A   1      41.184  19.353  25.427  1.00  0.00    -0.237 OA
ATOM     80  O   UNL A   1      43.517  19.698  24.682  1.00  0.00    -0.237 OA
ATOM     81  O   UNL A   1      43.063  18.582  26.831  1.00  0.00    -0.744 OA
ENDBRANCH  77  78
ENDBRANCH  49  72
BRANCH  61  82
ATOM     82  C   UNL A   1      47.802  27.055  31.198  1.00  0.00    -0.014 A 
ATOM     83  C   UNL A   1      48.871  27.475  30.390  1.00  0.00     0.010 A 
ATOM     84  C   UNL A   1      48.073  26.365  32.394  1.00  0.00     0.010 A 
ATOM     85  C   UNL A   1      50.189  27.195  30.763  1.00  0.00     0.020 A 
ATOM     86  C   UNL A   1      49.389  26.104  32.783  1.00  0.00     0.020 A 
ATOM     87  C   UNL A   1      50.439  26.514  31.960  1.00  0.00     0.054 A 
BRANCH  87  88
ATOM     88  S   UNL A   1      52.160  26.221  32.457  1.00  0.00     0.124 S 
ATOM     89  O   UNL A   1      51.995  25.563  33.749  1.00  0.00    -0.237 OA
ATOM     90  O   UNL A   1      52.666  25.374  31.379  1.00  0.00    -0.237 OA
ATOM     91  O   UNL A   1      52.737  27.563  32.508  1.00  0.00    -0.744 OA
ENDBRANCH  87  88
ENDBRANCH  61  82
ENDBRANCH  35  36
ENDBRANCH  28  30
ENDBRANCH  27  28
ENDBRANCH  26  27
ENDBRANCH   1  26
TORSDOF 19
ENDMDL
