MODEL 1
REMARK VINA RESULT:      -9.6      0.000      0.000
REMARK SMILES C[C@H](CCCO)Nc1ccc2c(C(=O)OCCOCCOC(=O)c3ccc(-c4c5nc(c(-c6ccc(S(=O)(=O)[O-])cc6)c6ccc([nH]6)c(-c6ccc(S(=O)(=O)[O-])cc6)c6nc(c(-c7ccc(S(=O)(=O)[O-])cc7)c7ccc4[nH]7)C=C6)C=C5)cc3)cccc2n1
REMARK SMILES IDX 16 1 15 2 13 3 14 4 12 5 8 6 9 7 88 8 10 9 87 10 11 11 86 12
REMARK SMILES IDX 85 13 84 14 7 15 2 17 1 18 3 19 4 20 5 21 6 22 17 24 18 25
REMARK SMILES IDX 19 26 20 27 21 28 22 29 23 30 24 31 25 32 83 33 26 34 82 35
REMARK SMILES IDX 27 36 28 37 29 38 76 39 30 40 81 41 75 42 77 43 31 44 80 45
REMARK SMILES IDX 74 46 73 47 32 49 62 50 43 51 61 52 44 53 47 54 60 55 78 56
REMARK SMILES IDX 45 57 46 58 59 60 79 61 48 62 33 63 34 64 42 65 35 66 41 67
REMARK SMILES IDX 36 68 37 69 38 70 39 71 40 72 63 73 64 74 72 75 65 76 71 77
REMARK SMILES IDX 66 78 67 79 68 80 69 81 70 82 49 83 50 84 58 85 51 86 57 87
REMARK SMILES IDX 52 88 53 89 54 90 55 91 56 92
REMARK H PARENT 7 16 6 23 77 48 47 59
REMARK Flexibility Score: inf
ROOT
ATOM      1  C   UNL A   1      36.308  21.132  25.546  1.00  0.00     0.261 C 
ENDROOT
BRANCH   1   2
ATOM      2  O   UNL A   1      35.459  21.830  24.623  1.00  0.00    -0.460 OA
BRANCH   2   3
ATOM      3  C   UNL A   1      34.850  22.927  25.132  1.00  0.00     0.338 C 
ATOM      4  O   UNL A   1      34.970  23.381  26.260  1.00  0.00    -0.246 OA
BRANCH   3   5
ATOM      5  C   UNL A   1      34.113  23.622  24.056  1.00  0.00     0.069 A 
ATOM      6  C   UNL A   1      31.913  27.121  24.757  1.00  0.00     0.126 A 
ATOM      7  C   UNL A   1      32.782  26.710  25.751  1.00  0.00     0.047 A 
ATOM      8  N   UNL A   1      31.845  26.482  23.573  1.00  0.00    -0.231 NA
ATOM      9  C   UNL A   1      33.527  25.554  25.552  1.00  0.00     0.015 A 
ATOM     10  C   UNL A   1      32.603  25.394  23.355  1.00  0.00     0.073 A 
ATOM     11  C   UNL A   1      33.429  24.835  24.342  1.00  0.00     0.015 A 
ATOM     12  C   UNL A   1      32.559  24.798  22.100  1.00  0.00     0.029 A 
ATOM     13  C   UNL A   1      33.300  23.655  21.794  1.00  0.00     0.003 A 
ATOM     14  C   UNL A   1      34.073  23.053  22.779  1.00  0.00     0.016 A 
BRANCH   6  15
ATOM     15  N   UNL A   1      31.012  28.128  25.039  1.00  0.00    -0.368 N 
ATOM     16  H   UNL A   1      30.201  27.934  25.562  1.00  0.00     0.162 HD
BRANCH  15  17
ATOM     17  C   UNL A   1      31.263  29.478  24.562  1.00  0.00     0.077 C 
ATOM     18  C   UNL A   1      31.700  30.358  25.727  1.00  0.00     0.031 C 
BRANCH  17  19
ATOM     19  C   UNL A   1      29.978  29.980  23.879  1.00  0.00     0.027 C 
BRANCH  19  20
ATOM     20  C   UNL A   1      29.237  28.926  23.046  1.00  0.00     0.030 C 
BRANCH  20  21
ATOM     21  C   UNL A   1      27.998  29.436  22.318  1.00  0.00     0.156 C 
BRANCH  21  22
ATOM     22  O   UNL A   1      28.352  30.108  21.120  1.00  0.00    -0.396 OA
ATOM     23  H   UNL A   1      28.348  31.066  21.272  1.00  0.00     0.210 HD
ENDBRANCH  21  22
ENDBRANCH  20  21
ENDBRANCH  19  20
ENDBRANCH  17  19
ENDBRANCH  15  17
ENDBRANCH   6  15
ENDBRANCH   3   5
ENDBRANCH   2   3
ENDBRANCH   1   2
BRANCH   1  24
ATOM     24  C   UNL A   1      37.723  20.958  24.985  1.00  0.00     0.202 C 
BRANCH  24  25
ATOM     25  O   UNL A   1      38.745  21.821  25.485  1.00  0.00    -0.374 OA
BRANCH  25  26
ATOM     26  C   UNL A   1      38.378  22.805  26.451  1.00  0.00     0.202 C 
BRANCH  26  27
ATOM     27  C   UNL A   1      38.829  24.257  26.242  1.00  0.00     0.261 C 
BRANCH  27  28
ATOM     28  O   UNL A   1      39.856  24.672  27.155  1.00  0.00    -0.460 OA
BRANCH  28  29
ATOM     29  C   UNL A   1      40.317  25.928  26.930  1.00  0.00     0.338 C 
ATOM     30  O   UNL A   1      40.777  26.365  25.887  1.00  0.00    -0.246 OA
BRANCH  29  31
ATOM     31  C   UNL A   1      40.021  26.795  28.083  1.00  0.00     0.060 A 
ATOM     32  C   UNL A   1      40.659  28.041  28.121  1.00  0.00     0.016 A 
ATOM     33  C   UNL A   1      39.214  26.377  29.142  1.00  0.00     0.016 A 
ATOM     34  C   UNL A   1      40.539  28.848  29.248  1.00  0.00     0.010 A 
ATOM     35  C   UNL A   1      39.097  27.190  30.276  1.00  0.00     0.010 A 
ATOM     36  C   UNL A   1      39.790  28.410  30.349  1.00  0.00    -0.014 A 
BRANCH  36  37
ATOM     37  C   UNL A   1      39.847  29.196  31.607  1.00  0.00     0.031 A 
ATOM     38  C   UNL A   1      40.976  28.964  32.576  1.00  0.00     0.074 A 
ATOM     39  C   UNL A   1      38.943  30.166  31.839  1.00  0.00     0.049 A 
ATOM     40  N   UNL A   1      41.250  29.590  33.691  1.00  0.00    -0.248 NA
ATOM     41  C   UNL A   1      41.925  27.888  32.244  1.00  0.00     0.031 C 
ATOM     42  C   UNL A   1      37.827  30.508  30.957  1.00  0.00     0.029 A 
ATOM     43  N   UNL A   1      38.833  31.053  32.879  1.00  0.00    -0.354 N 
ATOM     44  C   UNL A   1      42.399  28.990  34.193  1.00  0.00     0.074 A 
ATOM     45  C   UNL A   1      42.750  27.922  33.282  1.00  0.00     0.031 C 
ATOM     46  C   UNL A   1      37.153  31.542  31.486  1.00  0.00     0.029 A 
ATOM     47  C   UNL A   1      37.769  31.915  32.757  1.00  0.00     0.049 A 
ATOM     48  H   UNL A   1      39.457  31.071  33.641  1.00  0.00     0.167 HD
ATOM     49  C   UNL A   1      43.106  29.306  35.305  1.00  0.00     0.031 A 
ATOM     50  C   UNL A   1      37.336  32.889  33.581  1.00  0.00     0.031 A 
ATOM     51  C   UNL A   1      42.747  30.362  36.216  1.00  0.00     0.049 A 
ATOM     52  C   UNL A   1      38.103  33.175  34.846  1.00  0.00     0.074 A 
ATOM     53  C   UNL A   1      43.405  30.768  37.365  1.00  0.00     0.029 A 
ATOM     54  N   UNL A   1      41.632  31.176  36.089  1.00  0.00    -0.354 N 
ATOM     55  N   UNL A   1      39.204  32.615  35.289  1.00  0.00    -0.248 NA
ATOM     56  C   UNL A   1      37.574  34.236  35.713  1.00  0.00     0.031 C 
ATOM     57  C   UNL A   1      42.653  31.785  37.964  1.00  0.00     0.029 A 
ATOM     58  C   UNL A   1      41.566  32.062  37.152  1.00  0.00     0.049 A 
ATOM     59  H   UNL A   1      40.981  31.131  35.350  1.00  0.00     0.167 HD
ATOM     60  C   UNL A   1      39.513  33.275  36.474  1.00  0.00     0.074 A 
ATOM     61  C   UNL A   1      38.499  34.292  36.661  1.00  0.00     0.031 C 
ATOM     62  C   UNL A   1      40.542  33.060  37.332  1.00  0.00     0.031 A 
BRANCH  49  63
ATOM     63  C   UNL A   1      44.330  28.483  35.616  1.00  0.00    -0.014 A 
ATOM     64  C   UNL A   1      44.242  27.299  36.370  1.00  0.00     0.010 A 
ATOM     65  C   UNL A   1      45.580  28.867  35.093  1.00  0.00     0.010 A 
ATOM     66  C   UNL A   1      45.383  26.530  36.618  1.00  0.00     0.020 A 
ATOM     67  C   UNL A   1      46.717  28.086  35.315  1.00  0.00     0.020 A 
ATOM     68  C   UNL A   1      46.614  26.928  36.087  1.00  0.00     0.054 A 
BRANCH  68  69
ATOM     69  S   UNL A   1      48.069  25.888  36.392  1.00  0.00     0.124 S 
ATOM     70  O   UNL A   1      48.085  25.036  35.207  1.00  0.00    -0.237 OA
ATOM     71  O   UNL A   1      49.150  26.867  36.477  1.00  0.00    -0.237 OA
ATOM     72  O   UNL A   1      47.752  25.206  37.645  1.00  0.00    -0.744 OA
ENDBRANCH  68  69
ENDBRANCH  49  63
BRANCH  50  73
ATOM     73  C   UNL A   1      36.105  33.660  33.247  1.00  0.00    -0.014 A 
ATOM     74  C   UNL A   1      34.829  33.140  33.525  1.00  0.00     0.010 A 
ATOM     75  C   UNL A   1      36.210  34.917  32.624  1.00  0.00     0.010 A 
ATOM     76  C   UNL A   1      33.681  33.849  33.159  1.00  0.00     0.020 A 
ATOM     77  C   UNL A   1      35.065  35.644  32.288  1.00  0.00     0.020 A 
ATOM     78  C   UNL A   1      33.807  35.097  32.542  1.00  0.00     0.054 A 
BRANCH  78  79
ATOM     79  S   UNL A   1      32.304  36.014  32.103  1.00  0.00     0.124 S 
ATOM     80  O   UNL A   1      32.446  37.228  32.899  1.00  0.00    -0.237 OA
ATOM     81  O   UNL A   1      32.449  36.181  30.659  1.00  0.00    -0.237 OA
ATOM     82  O   UNL A   1      31.225  35.119  32.514  1.00  0.00    -0.744 OA
ENDBRANCH  78  79
ENDBRANCH  50  73
BRANCH  62  83
ATOM     83  C   UNL A   1      40.634  33.965  38.536  1.00  0.00    -0.014 A 
ATOM     84  C   UNL A   1      41.307  35.200  38.474  1.00  0.00     0.010 A 
ATOM     85  C   UNL A   1      40.027  33.578  39.745  1.00  0.00     0.010 A 
ATOM     86  C   UNL A   1      41.426  35.998  39.615  1.00  0.00     0.020 A 
ATOM     87  C   UNL A   1      40.112  34.392  40.878  1.00  0.00     0.020 A 
ATOM     88  C   UNL A   1      40.832  35.586  40.812  1.00  0.00     0.054 A 
BRANCH  88  89
ATOM     89  S   UNL A   1      41.000  36.639  42.278  1.00  0.00     0.124 S 
ATOM     90  O   UNL A   1      42.022  35.932  43.045  1.00  0.00    -0.237 OA
ATOM     91  O   UNL A   1      41.416  37.918  41.708  1.00  0.00    -0.237 OA
ATOM     92  O   UNL A   1      39.663  36.631  42.867  1.00  0.00    -0.744 OA
ENDBRANCH  88  89
ENDBRANCH  62  83
ENDBRANCH  36  37
ENDBRANCH  29  31
ENDBRANCH  28  29
ENDBRANCH  27  28
ENDBRANCH  26  27
ENDBRANCH  25  26
ENDBRANCH  24  25
ENDBRANCH   1  24
TORSDOF 23
ENDMDL
MODEL 2
REMARK VINA RESULT:      -9.1      1.450      8.268
REMARK SMILES C[C@H](CCCO)Nc1ccc2c(C(=O)OCCOCCOC(=O)c3ccc(-c4c5nc(c(-c6ccc(S(=O)(=O)[O-])cc6)c6ccc([nH]6)c(-c6ccc(S(=O)(=O)[O-])cc6)c6nc(c(-c7ccc(S(=O)(=O)[O-])cc7)c7ccc4[nH]7)C=C6)C=C5)cc3)cccc2n1
REMARK SMILES IDX 16 1 15 2 13 3 14 4 12 5 8 6 9 7 88 8 10 9 87 10 11 11 86 12
REMARK SMILES IDX 85 13 84 14 7 15 2 17 1 18 3 19 4 20 5 21 6 22 17 24 18 25
REMARK SMILES IDX 19 26 20 27 21 28 22 29 23 30 24 31 25 32 83 33 26 34 82 35
REMARK SMILES IDX 27 36 28 37 29 38 76 39 30 40 81 41 75 42 77 43 31 44 80 45
REMARK SMILES IDX 74 46 73 47 32 49 62 50 43 51 61 52 44 53 47 54 60 55 78 56
REMARK SMILES IDX 45 57 46 58 59 60 79 61 48 62 33 63 34 64 42 65 35 66 41 67
REMARK SMILES IDX 36 68 37 69 38 70 39 71 40 72 63 73 64 74 72 75 65 76 71 77
REMARK SMILES IDX 66 78 67 79 68 80 69 81 70 82 49 83 50 84 58 85 51 86 57 87
REMARK SMILES IDX 52 88 53 89 54 90 55 91 56 92
REMARK H PARENT 7 16 6 23 77 48 47 59
REMARK Flexibility Score: inf
ROOT
ATOM      1  C   UNL A   1      35.838  21.645  24.763  1.00  0.00     0.261 C 
ENDROOT
BRANCH   1   2
ATOM      2  O   UNL A   1      35.128  22.358  23.741  1.00  0.00    -0.460 OA
BRANCH   2   3
ATOM      3  C   UNL A   1      33.862  22.708  24.068  1.00  0.00     0.338 C 
ATOM      4  O   UNL A   1      33.129  22.156  24.875  1.00  0.00    -0.246 OA
BRANCH   3   5
ATOM      5  C   UNL A   1      33.523  23.989  23.414  1.00  0.00     0.069 A 
ATOM      6  C   UNL A   1      33.115  27.559  25.576  1.00  0.00     0.126 A 
ATOM      7  C   UNL A   1      33.700  26.488  26.226  1.00  0.00     0.047 A 
ATOM      8  N   UNL A   1      32.779  27.492  24.273  1.00  0.00    -0.231 NA
ATOM      9  C   UNL A   1      33.851  25.289  25.540  1.00  0.00     0.015 A 
ATOM     10  C   UNL A   1      32.971  26.351  23.589  1.00  0.00     0.073 A 
ATOM     11  C   UNL A   1      33.452  25.178  24.191  1.00  0.00     0.015 A 
ATOM     12  C   UNL A   1      32.675  26.336  22.231  1.00  0.00     0.029 A 
ATOM     13  C   UNL A   1      32.830  25.188  21.450  1.00  0.00     0.003 A 
ATOM     14  C   UNL A   1      33.243  24.003  22.044  1.00  0.00     0.016 A 
BRANCH   6  15
ATOM     15  N   UNL A   1      32.758  28.669  26.314  1.00  0.00    -0.368 N 
ATOM     16  H   UNL A   1      31.859  28.730  26.710  1.00  0.00     0.162 HD
BRANCH  15  17
ATOM     17  C   UNL A   1      33.712  29.747  26.507  1.00  0.00     0.077 C 
ATOM     18  C   UNL A   1      34.890  29.245  27.333  1.00  0.00     0.031 C 
BRANCH  17  19
ATOM     19  C   UNL A   1      32.967  30.918  27.174  1.00  0.00     0.027 C 
BRANCH  19  20
ATOM     20  C   UNL A   1      31.716  31.395  26.425  1.00  0.00     0.030 C 
BRANCH  20  21
ATOM     21  C   UNL A   1      31.330  32.849  26.676  1.00  0.00     0.156 C 
BRANCH  21  22
ATOM     22  O   UNL A   1      32.317  33.511  27.452  1.00  0.00    -0.396 OA
ATOM     23  H   UNL A   1      32.023  34.414  27.648  1.00  0.00     0.210 HD
ENDBRANCH  21  22
ENDBRANCH  20  21
ENDBRANCH  19  20
ENDBRANCH  17  19
ENDBRANCH  15  17
ENDBRANCH   6  15
ENDBRANCH   3   5
ENDBRANCH   2   3
ENDBRANCH   1   2
BRANCH   1  24
ATOM     24  C   UNL A   1      37.330  21.529  24.435  1.00  0.00     0.202 C 
BRANCH  24  25
ATOM     25  O   UNL A   1      38.260  22.080  25.368  1.00  0.00    -0.374 OA
BRANCH  25  26
ATOM     26  C   UNL A   1      37.786  23.067  26.282  1.00  0.00     0.202 C 
BRANCH  26  27
ATOM     27  C   UNL A   1      38.389  24.478  26.232  1.00  0.00     0.261 C 
BRANCH  27  28
ATOM     28  O   UNL A   1      39.432  24.687  27.196  1.00  0.00    -0.460 OA
BRANCH  28  29
ATOM     29  C   UNL A   1      40.167  25.805  26.976  1.00  0.00     0.338 C 
ATOM     30  O   UNL A   1      40.754  26.108  25.949  1.00  0.00    -0.246 OA
BRANCH  29  31
ATOM     31  C   UNL A   1      40.025  26.741  28.105  1.00  0.00     0.060 A 
ATOM     32  C   UNL A   1      40.806  27.902  28.071  1.00  0.00     0.016 A 
ATOM     33  C   UNL A   1      39.220  26.457  29.209  1.00  0.00     0.016 A 
ATOM     34  C   UNL A   1      40.830  28.755  29.169  1.00  0.00     0.010 A 
ATOM     35  C   UNL A   1      39.247  27.317  30.315  1.00  0.00     0.010 A 
ATOM     36  C   UNL A   1      40.082  28.448  30.314  1.00  0.00    -0.014 A 
BRANCH  36  37
ATOM     37  C   UNL A   1      40.284  29.264  31.537  1.00  0.00     0.031 A 
ATOM     38  C   UNL A   1      39.283  30.332  31.890  1.00  0.00     0.074 A 
ATOM     39  C   UNL A   1      41.309  28.995  32.367  1.00  0.00     0.049 A 
ATOM     40  N   UNL A   1      39.235  31.104  32.945  1.00  0.00    -0.248 NA
ATOM     41  C   UNL A   1      38.188  30.559  30.931  1.00  0.00     0.031 C 
ATOM     42  C   UNL A   1      42.322  27.961  32.150  1.00  0.00     0.029 A 
ATOM     43  N   UNL A   1      41.657  29.558  33.569  1.00  0.00    -0.354 N 
ATOM     44  C   UNL A   1      38.110  31.904  32.780  1.00  0.00     0.074 A 
ATOM     45  C   UNL A   1      37.525  31.553  31.504  1.00  0.00     0.031 C 
ATOM     46  C   UNL A   1      43.168  27.953  33.193  1.00  0.00     0.029 A 
ATOM     47  C   UNL A   1      42.778  29.000  34.134  1.00  0.00     0.049 A 
ATOM     48  H   UNL A   1      41.150  30.292  33.986  1.00  0.00     0.167 HD
ATOM     49  C   UNL A   1      37.602  32.838  33.621  1.00  0.00     0.031 A 
ATOM     50  C   UNL A   1      43.422  29.305  35.278  1.00  0.00     0.031 A 
ATOM     51  C   UNL A   1      38.194  33.193  34.885  1.00  0.00     0.049 A 
ATOM     52  C   UNL A   1      42.873  30.394  36.161  1.00  0.00     0.074 A 
ATOM     53  C   UNL A   1      37.749  34.119  35.813  1.00  0.00     0.029 A 
ATOM     54  N   UNL A   1      39.361  32.646  35.397  1.00  0.00    -0.354 N 
ATOM     55  N   UNL A   1      41.791  31.120  36.003  1.00  0.00    -0.248 NA
ATOM     56  C   UNL A   1      43.627  30.693  37.385  1.00  0.00     0.031 C 
ATOM     57  C   UNL A   1      38.680  34.175  36.856  1.00  0.00     0.029 A 
ATOM     58  C   UNL A   1      39.667  33.234  36.613  1.00  0.00     0.049 A 
ATOM     59  H   UNL A   1      39.893  31.942  34.960  1.00  0.00     0.167 HD
ATOM     60  C   UNL A   1      41.722  31.944  37.122  1.00  0.00     0.074 A 
ATOM     61  C   UNL A   1      42.855  31.605  37.959  1.00  0.00     0.031 C 
ATOM     62  C   UNL A   1      40.806  32.896  37.430  1.00  0.00     0.031 A 
BRANCH  49  63
ATOM     63  C   UNL A   1      36.353  33.564  33.190  1.00  0.00    -0.014 A 
ATOM     64  C   UNL A   1      36.420  34.802  32.526  1.00  0.00     0.010 A 
ATOM     65  C   UNL A   1      35.094  32.969  33.399  1.00  0.00     0.010 A 
ATOM     66  C   UNL A   1      35.252  35.444  32.102  1.00  0.00     0.020 A 
ATOM     67  C   UNL A   1      33.927  33.594  32.952  1.00  0.00     0.020 A 
ATOM     68  C   UNL A   1      34.012  34.834  32.318  1.00  0.00     0.054 A 
BRANCH  68  69
ATOM     69  S   UNL A   1      32.517  35.672  31.721  1.00  0.00     0.124 S 
ATOM     70  O   UNL A   1      32.845  37.076  31.952  1.00  0.00    -0.237 OA
ATOM     71  O   UNL A   1      32.459  35.261  30.320  1.00  0.00    -0.237 OA
ATOM     72  O   UNL A   1      31.456  35.134  32.568  1.00  0.00    -0.744 OA
ENDBRANCH  68  69
ENDBRANCH  49  63
BRANCH  50  73
ATOM     73  C   UNL A   1      44.669  28.579  35.650  1.00  0.00    -0.014 A 
ATOM     74  C   UNL A   1      44.621  27.422  36.448  1.00  0.00     0.010 A 
ATOM     75  C   UNL A   1      45.919  29.061  35.223  1.00  0.00     0.010 A 
ATOM     76  C   UNL A   1      45.801  26.779  36.835  1.00  0.00     0.020 A 
ATOM     77  C   UNL A   1      47.099  28.402  35.579  1.00  0.00     0.020 A 
ATOM     78  C   UNL A   1      47.032  27.274  36.397  1.00  0.00     0.054 A 
BRANCH  78  79
ATOM     79  S   UNL A   1      48.550  26.407  36.885  1.00  0.00     0.124 S 
ATOM     80  O   UNL A   1      49.464  27.516  37.138  1.00  0.00    -0.237 OA
ATOM     81  O   UNL A   1      48.118  25.658  38.062  1.00  0.00    -0.237 OA
ATOM     82  O   UNL A   1      48.866  25.589  35.717  1.00  0.00    -0.744 OA
ENDBRANCH  78  79
ENDBRANCH  50  73
BRANCH  62  83
ATOM     83  C   UNL A   1      40.978  33.617  38.744  1.00  0.00    -0.014 A 
ATOM     84  C   UNL A   1      40.525  33.055  39.953  1.00  0.00     0.010 A 
ATOM     85  C   UNL A   1      41.615  34.871  38.771  1.00  0.00     0.010 A 
ATOM     86  C   UNL A   1      40.648  33.763  41.151  1.00  0.00     0.020 A 
ATOM     87  C   UNL A   1      41.773  35.565  39.973  1.00  0.00     0.020 A 
ATOM     88  C   UNL A   1      41.266  35.017  41.153  1.00  0.00     0.054 A 
BRANCH  88  89
ATOM     89  S   UNL A   1      41.412  35.915  42.721  1.00  0.00     0.124 S 
ATOM     90  O   UNL A   1      40.458  37.004  42.538  1.00  0.00    -0.237 OA
ATOM     91  O   UNL A   1      41.032  34.906  43.706  1.00  0.00    -0.237 OA
ATOM     92  O   UNL A   1      42.817  36.319  42.760  1.00  0.00    -0.744 OA
ENDBRANCH  88  89
ENDBRANCH  62  83
ENDBRANCH  36  37
ENDBRANCH  29  31
ENDBRANCH  28  29
ENDBRANCH  27  28
ENDBRANCH  26  27
ENDBRANCH  25  26
ENDBRANCH  24  25
ENDBRANCH   1  24
TORSDOF 23
ENDMDL
MODEL 3
REMARK VINA RESULT:      -8.8      3.299      9.980
REMARK SMILES C[C@H](CCCO)Nc1ccc2c(C(=O)OCCOCCOC(=O)c3ccc(-c4c5nc(c(-c6ccc(S(=O)(=O)[O-])cc6)c6ccc([nH]6)c(-c6ccc(S(=O)(=O)[O-])cc6)c6nc(c(-c7ccc(S(=O)(=O)[O-])cc7)c7ccc4[nH]7)C=C6)C=C5)cc3)cccc2n1
REMARK SMILES IDX 16 1 15 2 13 3 14 4 12 5 8 6 9 7 88 8 10 9 87 10 11 11 86 12
REMARK SMILES IDX 85 13 84 14 7 15 2 17 1 18 3 19 4 20 5 21 6 22 17 24 18 25
REMARK SMILES IDX 19 26 20 27 21 28 22 29 23 30 24 31 25 32 83 33 26 34 82 35
REMARK SMILES IDX 27 36 28 37 29 38 76 39 30 40 81 41 75 42 77 43 31 44 80 45
REMARK SMILES IDX 74 46 73 47 32 49 62 50 43 51 61 52 44 53 47 54 60 55 78 56
REMARK SMILES IDX 45 57 46 58 59 60 79 61 48 62 33 63 34 64 42 65 35 66 41 67
REMARK SMILES IDX 36 68 37 69 38 70 39 71 40 72 63 73 64 74 72 75 65 76 71 77
REMARK SMILES IDX 66 78 67 79 68 80 69 81 70 82 49 83 50 84 58 85 51 86 57 87
REMARK SMILES IDX 52 88 53 89 54 90 55 91 56 92
REMARK H PARENT 7 16 6 23 77 48 47 59
REMARK Flexibility Score: inf
ROOT
ATOM      1  C   UNL A   1      31.113  28.722  24.633  1.00  0.00     0.261 C 
ENDROOT
BRANCH   1   2
ATOM      2  O   UNL A   1      31.700  27.579  23.996  1.00  0.00    -0.460 OA
BRANCH   2   3
ATOM      3  C   UNL A   1      30.818  26.763  23.372  1.00  0.00     0.338 C 
ATOM      4  O   UNL A   1      29.639  26.988  23.143  1.00  0.00    -0.246 OA
BRANCH   3   5
ATOM      5  C   UNL A   1      31.533  25.583  22.840  1.00  0.00     0.069 A 
ATOM      6  C   UNL A   1      31.860  22.009  25.008  1.00  0.00     0.126 A 
ATOM      7  C   UNL A   1      30.948  22.944  25.462  1.00  0.00     0.047 A 
ATOM      8  N   UNL A   1      32.545  22.194  23.863  1.00  0.00    -0.231 NA
ATOM      9  C   UNL A   1      30.813  24.140  24.768  1.00  0.00     0.015 A 
ATOM     10  C   UNL A   1      32.380  23.326  23.159  1.00  0.00     0.073 A 
ATOM     11  C   UNL A   1      31.564  24.380  23.598  1.00  0.00     0.015 A 
ATOM     12  C   UNL A   1      33.052  23.457  21.949  1.00  0.00     0.029 A 
ATOM     13  C   UNL A   1      32.950  24.607  21.163  1.00  0.00     0.003 A 
ATOM     14  C   UNL A   1      32.197  25.683  21.614  1.00  0.00     0.016 A 
BRANCH   6  15
ATOM     15  N   UNL A   1      32.160  20.929  25.813  1.00  0.00    -0.368 N 
ATOM     16  H   UNL A   1      31.467  20.536  26.392  1.00  0.00     0.162 HD
BRANCH  15  17
ATOM     17  C   UNL A   1      33.502  20.371  25.804  1.00  0.00     0.077 C 
ATOM     18  C   UNL A   1      34.513  21.467  26.113  1.00  0.00     0.031 C 
BRANCH  17  19
ATOM     19  C   UNL A   1      33.727  19.715  24.429  1.00  0.00     0.027 C 
BRANCH  19  20
ATOM     20  C   UNL A   1      34.180  18.251  24.480  1.00  0.00     0.030 C 
BRANCH  20  21
ATOM     21  C   UNL A   1      33.100  17.256  24.892  1.00  0.00     0.156 C 
BRANCH  21  22
ATOM     22  O   UNL A   1      33.295  16.817  26.228  1.00  0.00    -0.396 OA
ATOM     23  H   UNL A   1      33.980  16.130  26.245  1.00  0.00     0.210 HD
ENDBRANCH  21  22
ENDBRANCH  20  21
ENDBRANCH  19  20
ENDBRANCH  17  19
ENDBRANCH  15  17
ENDBRANCH   6  15
ENDBRANCH   3   5
ENDBRANCH   2   3
ENDBRANCH   1   2
BRANCH   1  24
ATOM     24  C   UNL A   1      32.154  29.519  25.427  1.00  0.00     0.202 C 
BRANCH  24  25
ATOM     25  O   UNL A   1      31.786  30.821  25.884  1.00  0.00    -0.374 OA
BRANCH  25  26
ATOM     26  C   UNL A   1      32.275  31.247  27.155  1.00  0.00     0.202 C 
BRANCH  26  27
ATOM     27  C   UNL A   1      33.737  30.959  27.523  1.00  0.00     0.261 C 
BRANCH  27  28
ATOM     28  O   UNL A   1      34.475  32.134  27.887  1.00  0.00    -0.460 OA
BRANCH  28  29
ATOM     29  C   UNL A   1      34.833  32.176  29.195  1.00  0.00     0.338 C 
ATOM     30  O   UNL A   1      34.145  32.548  30.133  1.00  0.00    -0.246 OA
BRANCH  29  31
ATOM     31  C   UNL A   1      36.139  31.523  29.389  1.00  0.00     0.060 A 
ATOM     32  C   UNL A   1      36.174  30.409  30.236  1.00  0.00     0.016 A 
ATOM     33  C   UNL A   1      37.314  32.030  28.833  1.00  0.00     0.016 A 
ATOM     34  C   UNL A   1      37.393  29.834  30.577  1.00  0.00     0.010 A 
ATOM     35  C   UNL A   1      38.541  31.451  29.180  1.00  0.00     0.010 A 
ATOM     36  C   UNL A   1      38.588  30.376  30.084  1.00  0.00    -0.014 A 
BRANCH  36  37
ATOM     37  C   UNL A   1      39.875  29.871  30.624  1.00  0.00     0.031 A 
ATOM     38  C   UNL A   1      40.448  30.487  31.873  1.00  0.00     0.074 A 
ATOM     39  C   UNL A   1      40.482  28.817  30.048  1.00  0.00     0.049 A 
ATOM     40  N   UNL A   1      41.517  30.148  32.546  1.00  0.00    -0.248 NA
ATOM     41  C   UNL A   1      39.719  31.633  32.443  1.00  0.00     0.031 C 
ATOM     42  C   UNL A   1      40.004  28.115  28.857  1.00  0.00     0.029 A 
ATOM     43  N   UNL A   1      41.624  28.142  30.400  1.00  0.00    -0.354 N 
ATOM     44  C   UNL A   1      41.589  31.033  33.616  1.00  0.00     0.074 A 
ATOM     45  C   UNL A   1      40.478  31.950  33.482  1.00  0.00     0.031 C 
ATOM     46  C   UNL A   1      40.838  27.097  28.585  1.00  0.00     0.029 A 
ATOM     47  C   UNL A   1      41.924  27.095  29.562  1.00  0.00     0.049 A 
ATOM     48  H   UNL A   1      42.175  28.386  31.179  1.00  0.00     0.167 HD
ATOM     49  C   UNL A   1      42.492  31.071  34.627  1.00  0.00     0.031 A 
ATOM     50  C   UNL A   1      42.963  26.236  29.576  1.00  0.00     0.031 A 
ATOM     51  C   UNL A   1      43.603  30.163  34.751  1.00  0.00     0.049 A 
ATOM     52  C   UNL A   1      43.988  26.344  30.674  1.00  0.00     0.074 A 
ATOM     53  C   UNL A   1      44.566  30.113  35.744  1.00  0.00     0.029 A 
ATOM     54  N   UNL A   1      43.907  29.151  33.852  1.00  0.00    -0.354 N 
ATOM     55  N   UNL A   1      44.024  27.169  31.694  1.00  0.00    -0.248 NA
ATOM     56  C   UNL A   1      45.106  25.393  30.628  1.00  0.00     0.031 C 
ATOM     57  C   UNL A   1      45.486  29.112  35.412  1.00  0.00     0.029 A 
ATOM     58  C   UNL A   1      45.057  28.491  34.251  1.00  0.00     0.049 A 
ATOM     59  H   UNL A   1      43.381  28.935  33.048  1.00  0.00     0.167 HD
ATOM     60  C   UNL A   1      45.155  26.817  32.425  1.00  0.00     0.074 A 
ATOM     61  C   UNL A   1      45.756  25.689  31.744  1.00  0.00     0.031 C 
ATOM     62  C   UNL A   1      45.652  27.377  33.557  1.00  0.00     0.031 A 
BRANCH  49  63
ATOM     63  C   UNL A   1      42.331  32.146  35.671  1.00  0.00    -0.014 A 
ATOM     64  C   UNL A   1      41.603  31.915  36.852  1.00  0.00     0.010 A 
ATOM     65  C   UNL A   1      42.969  33.389  35.495  1.00  0.00     0.010 A 
ATOM     66  C   UNL A   1      41.494  32.914  37.825  1.00  0.00     0.020 A 
ATOM     67  C   UNL A   1      42.886  34.379  36.477  1.00  0.00     0.020 A 
ATOM     68  C   UNL A   1      42.138  34.140  37.631  1.00  0.00     0.054 A 
BRANCH  68  69
ATOM     69  S   UNL A   1      42.012  35.402  38.929  1.00  0.00     0.124 S 
ATOM     70  O   UNL A   1      42.665  34.742  40.056  1.00  0.00    -0.237 OA
ATOM     71  O   UNL A   1      42.742  36.528  38.352  1.00  0.00    -0.237 OA
ATOM     72  O   UNL A   1      40.573  35.606  39.076  1.00  0.00    -0.744 OA
ENDBRANCH  68  69
ENDBRANCH  49  63
BRANCH  50  73
ATOM     73  C   UNL A   1      43.096  25.206  28.509  1.00  0.00    -0.014 A 
ATOM     74  C   UNL A   1      42.505  23.938  28.650  1.00  0.00     0.010 A 
ATOM     75  C   UNL A   1      43.840  25.486  27.348  1.00  0.00     0.010 A 
ATOM     76  C   UNL A   1      42.681  22.961  27.666  1.00  0.00     0.020 A 
ATOM     77  C   UNL A   1      43.989  24.524  26.345  1.00  0.00     0.020 A 
ATOM     78  C   UNL A   1      43.422  23.261  26.519  1.00  0.00     0.054 A 
BRANCH  78  79
ATOM     79  S   UNL A   1      43.612  21.989  25.239  1.00  0.00     0.124 S 
ATOM     80  O   UNL A   1      44.954  21.484  25.511  1.00  0.00    -0.237 OA
ATOM     81  O   UNL A   1      42.515  21.073  25.542  1.00  0.00    -0.237 OA
ATOM     82  O   UNL A   1      43.465  22.736  23.992  1.00  0.00    -0.744 OA
ENDBRANCH  78  79
ENDBRANCH  50  73
BRANCH  62  83
ATOM     83  C   UNL A   1      46.894  26.754  34.143  1.00  0.00    -0.014 A 
ATOM     84  C   UNL A   1      48.179  27.208  33.789  1.00  0.00     0.010 A 
ATOM     85  C   UNL A   1      46.774  25.703  35.071  1.00  0.00     0.010 A 
ATOM     86  C   UNL A   1      49.317  26.581  34.303  1.00  0.00     0.020 A 
ATOM     87  C   UNL A   1      47.909  25.098  35.615  1.00  0.00     0.020 A 
ATOM     88  C   UNL A   1      49.175  25.525  35.209  1.00  0.00     0.054 A 
BRANCH  88  89
ATOM     89  S   UNL A   1      50.667  24.729  35.862  1.00  0.00     0.124 S 
ATOM     90  O   UNL A   1      50.441  24.794  37.302  1.00  0.00    -0.237 OA
ATOM     91  O   UNL A   1      50.601  23.392  35.275  1.00  0.00    -0.237 OA
ATOM     92  O   UNL A   1      51.755  25.568  35.364  1.00  0.00    -0.744 OA
ENDBRANCH  88  89
ENDBRANCH  62  83
ENDBRANCH  36  37
ENDBRANCH  29  31
ENDBRANCH  28  29
ENDBRANCH  27  28
ENDBRANCH  26  27
ENDBRANCH  25  26
ENDBRANCH  24  25
ENDBRANCH   1  24
TORSDOF 23
ENDMDL
