MODEL 1
REMARK VINA RESULT:     -10.7      0.000      0.000
REMARK SMILES C[C@@H](C(=O)OCCOCCOC(=O)c1ccc(-c2c3nc(c(-c4ccc(S(=O)(=O)[O-])cc4)c4ccc([nH]4)c(-c4ccc(S(=O)(=O)[O-])cc4)c4nc(c(-c5ccc(S(=O)(=O)[O-])cc5)c5ccc2[nH]5)C=C4)C=C3)cc1)c1ccccc1-c1ccn(C(F)F)c(=O)c1
REMARK SMILES IDX 8 1 7 2 6 3 5 4 3 5 4 6 2 7 1 8 74 9 75 10 79 11 76 12 78 13
REMARK SMILES IDX 77 14 80 15 81 16 89 17 82 18 87 19 83 20 88 21 84 22 85 23
REMARK SMILES IDX 86 24 9 25 10 26 11 27 12 28 13 29 14 30 15 31 73 32 16 33
REMARK SMILES IDX 72 34 17 35 18 36 19 37 66 38 20 39 71 40 65 41 67 42 21 43
REMARK SMILES IDX 70 44 64 45 63 46 22 48 52 49 33 50 51 51 34 52 37 53 50 54
REMARK SMILES IDX 68 55 35 56 36 57 49 59 69 60 38 61 23 62 24 63 32 64 25 65
REMARK SMILES IDX 31 66 26 67 27 68 28 69 29 70 30 71 53 72 54 73 62 74 55 75
REMARK SMILES IDX 61 76 56 77 57 78 58 79 59 80 60 81 39 82 40 83 48 84 41 85
REMARK SMILES IDX 47 86 42 87 43 88 44 89 45 90 46 91
REMARK H PARENT 67 47 37 58
REMARK Flexibility Score: inf
ROOT
ATOM      1  O   UNL A   1      35.170  31.725  28.005  1.00  0.00    -0.374 OA
ENDROOT
BRANCH   1   2
ATOM      2  C   UNL A   1      34.185  30.962  27.311  1.00  0.00     0.202 C 
BRANCH   2   3
ATOM      3  C   UNL A   1      34.562  29.555  26.836  1.00  0.00     0.261 C 
BRANCH   3   4
ATOM      4  O   UNL A   1      33.427  28.678  26.727  1.00  0.00    -0.463 OA
BRANCH   4   5
ATOM      5  C   UNL A   1      32.846  28.672  25.496  1.00  0.00     0.313 C 
ATOM      6  O   UNL A   1      33.326  29.242  24.521  1.00  0.00    -0.252 OA
BRANCH   5   7
ATOM      7  C   UNL A   1      31.526  27.880  25.453  1.00  0.00     0.127 C 
ATOM      8  C   UNL A   1      31.015  27.399  26.818  1.00  0.00     0.025 C 
BRANCH   7   9
ATOM      9  C   UNL A   1      31.674  26.754  24.417  1.00  0.00    -0.026 A 
ATOM     10  C   UNL A   1      32.507  25.649  24.684  1.00  0.00     0.005 A 
ATOM     11  C   UNL A   1      31.124  26.885  23.116  1.00  0.00    -0.014 A 
ATOM     12  C   UNL A   1      32.819  24.725  23.686  1.00  0.00     0.000 A 
ATOM     13  C   UNL A   1      31.457  25.955  22.119  1.00  0.00     0.009 A 
ATOM     14  C   UNL A   1      32.308  24.886  22.403  1.00  0.00     0.001 A 
BRANCH  11  15
ATOM     15  C   UNL A   1      30.177  27.972  22.792  1.00  0.00    -0.011 A 
ATOM     16  C   UNL A   1      30.582  29.274  22.299  1.00  0.00     0.027 A 
ATOM     17  C   UNL A   1      28.891  27.771  23.128  1.00  0.00     0.080 A 
ATOM     18  C   UNL A   1      29.741  30.313  22.369  1.00  0.00     0.095 A 
ATOM     19  C   UNL A   1      27.913  28.891  23.090  1.00  0.00     0.255 A 
ATOM     20  N   UNL A   1      28.441  30.141  22.808  1.00  0.00    -0.258 N 
ATOM     21  O   UNL A   1      26.740  28.648  23.355  1.00  0.00    -0.269 OA
BRANCH  20  22
ATOM     22  C   UNL A   1      27.558  31.271  22.934  1.00  0.00     0.451 C 
ATOM     23  F   UNL A   1      27.110  31.390  24.208  1.00  0.00    -0.185 F 
ATOM     24  F   UNL A   1      28.194  32.422  22.605  1.00  0.00    -0.185 F 
ENDBRANCH  20  22
ENDBRANCH  11  15
ENDBRANCH   7   9
ENDBRANCH   5   7
ENDBRANCH   4   5
ENDBRANCH   3   4
ENDBRANCH   2   3
ENDBRANCH   1   2
BRANCH   1  25
ATOM     25  C   UNL A   1      34.814  32.290  29.264  1.00  0.00     0.202 C 
BRANCH  25  26
ATOM     26  C   UNL A   1      35.412  31.664  30.530  1.00  0.00     0.261 C 
BRANCH  26  27
ATOM     27  O   UNL A   1      35.915  30.336  30.299  1.00  0.00    -0.460 OA
BRANCH  27  28
ATOM     28  C   UNL A   1      36.841  29.927  31.198  1.00  0.00     0.338 C 
ATOM     29  O   UNL A   1      36.693  29.821  32.410  1.00  0.00    -0.246 OA
BRANCH  28  30
ATOM     30  C   UNL A   1      38.034  29.406  30.506  1.00  0.00     0.060 A 
ATOM     31  C   UNL A   1      38.966  28.701  31.280  1.00  0.00     0.016 A 
ATOM     32  C   UNL A   1      38.279  29.661  29.155  1.00  0.00     0.016 A 
ATOM     33  C   UNL A   1      40.175  28.300  30.722  1.00  0.00     0.010 A 
ATOM     34  C   UNL A   1      39.502  29.268  28.599  1.00  0.00     0.010 A 
ATOM     35  C   UNL A   1      40.471  28.624  29.392  1.00  0.00    -0.014 A 
BRANCH  35  36
ATOM     36  C   UNL A   1      41.856  28.440  28.898  1.00  0.00     0.031 A 
ATOM     37  C   UNL A   1      42.270  27.085  28.391  1.00  0.00     0.074 A 
ATOM     38  C   UNL A   1      42.714  29.475  28.846  1.00  0.00     0.049 A 
ATOM     39  N   UNL A   1      43.422  26.699  27.907  1.00  0.00    -0.248 NA
ATOM     40  C   UNL A   1      41.248  26.025  28.434  1.00  0.00     0.031 C 
ATOM     41  C   UNL A   1      42.411  30.845  29.259  1.00  0.00     0.029 A 
ATOM     42  N   UNL A   1      44.016  29.530  28.420  1.00  0.00    -0.354 N 
ATOM     43  C   UNL A   1      43.267  25.354  27.592  1.00  0.00     0.074 A 
ATOM     44  C   UNL A   1      41.919  24.983  27.966  1.00  0.00     0.031 C 
ATOM     45  C   UNL A   1      43.503  31.607  29.069  1.00  0.00     0.029 A 
ATOM     46  C   UNL A   1      44.586  30.773  28.551  1.00  0.00     0.049 A 
ATOM     47  H   UNL A   1      44.497  28.753  28.055  1.00  0.00     0.167 HD
ATOM     48  C   UNL A   1      44.163  24.505  27.036  1.00  0.00     0.031 A 
ATOM     49  C   UNL A   1      45.844  31.187  28.298  1.00  0.00     0.031 A 
ATOM     50  C   UNL A   1      45.507  24.872  26.678  1.00  0.00     0.049 A 
ATOM     51  C   UNL A   1      46.847  30.205  27.749  1.00  0.00     0.074 A 
ATOM     52  C   UNL A   1      46.489  24.086  26.102  1.00  0.00     0.029 A 
ATOM     53  N   UNL A   1      46.059  26.129  26.868  1.00  0.00    -0.354 N 
ATOM     54  N   UNL A   1      46.679  28.942  27.440  1.00  0.00    -0.248 NA
ATOM     55  C   UNL A   1      48.205  30.710  27.507  1.00  0.00     0.031 C 
ATOM     56  C   UNL A   1      47.653  24.854  25.992  1.00  0.00     0.029 A 
ATOM     57  C   UNL A   1      47.378  26.134  26.446  1.00  0.00     0.049 A 
ATOM     58  H   UNL A   1      45.584  26.904  27.247  1.00  0.00     0.167 HD
ATOM     59  C   UNL A   1      47.903  28.506  26.944  1.00  0.00     0.074 A 
ATOM     60  C   UNL A   1      48.799  29.646  26.982  1.00  0.00     0.031 C 
ATOM     61  C   UNL A   1      48.255  27.277  26.494  1.00  0.00     0.031 A 
BRANCH  48  62
ATOM     62  C   UNL A   1      43.725  23.081  26.815  1.00  0.00    -0.014 A 
ATOM     63  C   UNL A   1      42.975  22.390  27.785  1.00  0.00     0.010 A 
ATOM     64  C   UNL A   1      44.044  22.434  25.608  1.00  0.00     0.010 A 
ATOM     65  C   UNL A   1      42.587  21.065  27.567  1.00  0.00     0.020 A 
ATOM     66  C   UNL A   1      43.636  21.119  25.375  1.00  0.00     0.020 A 
ATOM     67  C   UNL A   1      42.924  20.437  26.364  1.00  0.00     0.054 A 
BRANCH  67  68
ATOM     68  S   UNL A   1      42.394  18.722  26.098  1.00  0.00     0.124 S 
ATOM     69  O   UNL A   1      43.291  18.294  25.028  1.00  0.00    -0.237 OA
ATOM     70  O   UNL A   1      42.632  18.107  27.402  1.00  0.00    -0.237 OA
ATOM     71  O   UNL A   1      40.989  18.848  25.720  1.00  0.00    -0.744 OA
ENDBRANCH  67  68
ENDBRANCH  48  62
BRANCH  49  72
ATOM     72  C   UNL A   1      46.231  32.595  28.580  1.00  0.00    -0.014 A 
ATOM     73  C   UNL A   1      46.766  32.959  29.828  1.00  0.00     0.010 A 
ATOM     74  C   UNL A   1      46.072  33.582  27.590  1.00  0.00     0.010 A 
ATOM     75  C   UNL A   1      47.124  34.287  30.084  1.00  0.00     0.020 A 
ATOM     76  C   UNL A   1      46.452  34.904  27.833  1.00  0.00     0.020 A 
ATOM     77  C   UNL A   1      46.968  35.250  29.083  1.00  0.00     0.054 A 
BRANCH  77  78
ATOM     78  S   UNL A   1      47.499  36.954  29.414  1.00  0.00     0.124 S 
ATOM     79  O   UNL A   1      47.113  37.126  30.810  1.00  0.00    -0.237 OA
ATOM     80  O   UNL A   1      48.936  36.892  29.155  1.00  0.00    -0.237 OA
ATOM     81  O   UNL A   1      46.736  37.741  28.447  1.00  0.00    -0.744 OA
ENDBRANCH  77  78
ENDBRANCH  49  72
BRANCH  61  82
ATOM     82  C   UNL A   1      49.658  27.101  25.975  1.00  0.00    -0.014 A 
ATOM     83  C   UNL A   1      49.977  27.364  24.631  1.00  0.00     0.010 A 
ATOM     84  C   UNL A   1      50.683  26.723  26.862  1.00  0.00     0.010 A 
ATOM     85  C   UNL A   1      51.291  27.222  24.177  1.00  0.00     0.020 A 
ATOM     86  C   UNL A   1      52.002  26.607  26.418  1.00  0.00     0.020 A 
ATOM     87  C   UNL A   1      52.295  26.843  25.073  1.00  0.00     0.054 A 
BRANCH  87  88
ATOM     88  S   UNL A   1      54.001  26.709  24.470  1.00  0.00     0.124 S 
ATOM     89  O   UNL A   1      54.500  28.067  24.670  1.00  0.00    -0.237 OA
ATOM     90  O   UNL A   1      54.574  25.693  25.349  1.00  0.00    -0.237 OA
ATOM     91  O   UNL A   1      53.844  26.302  23.075  1.00  0.00    -0.744 OA
ENDBRANCH  87  88
ENDBRANCH  61  82
ENDBRANCH  35  36
ENDBRANCH  28  30
ENDBRANCH  27  28
ENDBRANCH  26  27
ENDBRANCH  25  26
ENDBRANCH   1  25
TORSDOF 20
ENDMDL
MODEL 2
REMARK VINA RESULT:     -10.6      6.231     11.837
REMARK SMILES C[C@@H](C(=O)OCCOCCOC(=O)c1ccc(-c2c3nc(c(-c4ccc(S(=O)(=O)[O-])cc4)c4ccc([nH]4)c(-c4ccc(S(=O)(=O)[O-])cc4)c4nc(c(-c5ccc(S(=O)(=O)[O-])cc5)c5ccc2[nH]5)C=C4)C=C3)cc1)c1ccccc1-c1ccn(C(F)F)c(=O)c1
REMARK SMILES IDX 8 1 7 2 6 3 5 4 3 5 4 6 2 7 1 8 74 9 75 10 79 11 76 12 78 13
REMARK SMILES IDX 77 14 80 15 81 16 89 17 82 18 87 19 83 20 88 21 84 22 85 23
REMARK SMILES IDX 86 24 9 25 10 26 11 27 12 28 13 29 14 30 15 31 73 32 16 33
REMARK SMILES IDX 72 34 17 35 18 36 19 37 66 38 20 39 71 40 65 41 67 42 21 43
REMARK SMILES IDX 70 44 64 45 63 46 22 48 52 49 33 50 51 51 34 52 37 53 50 54
REMARK SMILES IDX 68 55 35 56 36 57 49 59 69 60 38 61 23 62 24 63 32 64 25 65
REMARK SMILES IDX 31 66 26 67 27 68 28 69 29 70 30 71 53 72 54 73 62 74 55 75
REMARK SMILES IDX 61 76 56 77 57 78 58 79 59 80 60 81 39 82 40 83 48 84 41 85
REMARK SMILES IDX 47 86 42 87 43 88 44 89 45 90 46 91
REMARK H PARENT 67 47 37 58
REMARK Flexibility Score: inf
ROOT
ATOM      1  O   UNL A   1      40.290  21.218  27.010  1.00  0.00    -0.374 OA
ENDROOT
BRANCH   1   2
ATOM      2  C   UNL A   1      39.457  22.166  26.346  1.00  0.00     0.202 C 
BRANCH   2   3
ATOM      3  C   UNL A   1      38.268  21.642  25.535  1.00  0.00     0.261 C 
BRANCH   3   4
ATOM      4  O   UNL A   1      37.002  22.112  26.031  1.00  0.00    -0.463 OA
BRANCH   4   5
ATOM      5  C   UNL A   1      36.006  22.111  25.103  1.00  0.00     0.313 C 
ATOM      6  O   UNL A   1      36.213  22.095  23.893  1.00  0.00    -0.252 OA
BRANCH   5   7
ATOM      7  C   UNL A   1      34.598  22.135  25.725  1.00  0.00     0.127 C 
ATOM      8  C   UNL A   1      34.537  21.740  27.207  1.00  0.00     0.025 C 
BRANCH   7   9
ATOM      9  C   UNL A   1      33.662  21.309  24.827  1.00  0.00    -0.026 A 
ATOM     10  C   UNL A   1      33.681  19.901  24.886  1.00  0.00     0.005 A 
ATOM     11  C   UNL A   1      32.896  21.931  23.807  1.00  0.00    -0.014 A 
ATOM     12  C   UNL A   1      32.998  19.131  23.944  1.00  0.00     0.000 A 
ATOM     13  C   UNL A   1      32.225  21.143  22.859  1.00  0.00     0.009 A 
ATOM     14  C   UNL A   1      32.284  19.750  22.923  1.00  0.00     0.001 A 
BRANCH  11  15
ATOM     15  C   UNL A   1      32.765  23.401  23.738  1.00  0.00    -0.011 A 
ATOM     16  C   UNL A   1      31.954  24.181  24.652  1.00  0.00     0.027 A 
ATOM     17  C   UNL A   1      33.309  24.005  22.668  1.00  0.00     0.080 A 
ATOM     18  C   UNL A   1      31.587  25.428  24.331  1.00  0.00     0.095 A 
ATOM     19  C   UNL A   1      33.009  25.431  22.366  1.00  0.00     0.255 A 
ATOM     20  N   UNL A   1      32.061  26.030  23.180  1.00  0.00    -0.258 N 
ATOM     21  O   UNL A   1      33.571  25.953  21.409  1.00  0.00    -0.269 OA
BRANCH  20  22
ATOM     22  C   UNL A   1      31.619  27.349  22.811  1.00  0.00     0.451 C 
ATOM     23  F   UNL A   1      30.776  27.294  21.751  1.00  0.00    -0.185 F 
ATOM     24  F   UNL A   1      30.963  27.945  23.837  1.00  0.00    -0.185 F 
ENDBRANCH  20  22
ENDBRANCH  11  15
ENDBRANCH   7   9
ENDBRANCH   5   7
ENDBRANCH   4   5
ENDBRANCH   3   4
ENDBRANCH   2   3
ENDBRANCH   1   2
BRANCH   1  25
ATOM     25  C   UNL A   1      41.551  21.663  27.502  1.00  0.00     0.202 C 
BRANCH  25  26
ATOM     26  C   UNL A   1      42.460  22.450  26.549  1.00  0.00     0.261 C 
BRANCH  26  27
ATOM     27  O   UNL A   1      43.047  23.602  27.179  1.00  0.00    -0.460 OA
BRANCH  27  28
ATOM     28  C   UNL A   1      42.807  24.770  26.537  1.00  0.00     0.338 C 
ATOM     29  O   UNL A   1      42.832  24.964  25.328  1.00  0.00    -0.246 OA
BRANCH  28  30
ATOM     30  C   UNL A   1      42.290  25.777  27.482  1.00  0.00     0.060 A 
ATOM     31  C   UNL A   1      43.045  26.947  27.647  1.00  0.00     0.016 A 
ATOM     32  C   UNL A   1      41.141  25.560  28.245  1.00  0.00     0.016 A 
ATOM     33  C   UNL A   1      42.689  27.876  28.618  1.00  0.00     0.010 A 
ATOM     34  C   UNL A   1      40.792  26.490  29.230  1.00  0.00     0.010 A 
ATOM     35  C   UNL A   1      41.589  27.630  29.448  1.00  0.00    -0.014 A 
BRANCH  35  36
ATOM     36  C   UNL A   1      41.388  28.478  30.647  1.00  0.00     0.031 A 
ATOM     37  C   UNL A   1      40.258  29.471  30.650  1.00  0.00     0.074 A 
ATOM     38  C   UNL A   1      42.161  28.327  31.737  1.00  0.00     0.049 A 
ATOM     39  N   UNL A   1      39.891  30.307  31.588  1.00  0.00    -0.248 NA
ATOM     40  C   UNL A   1      39.428  29.528  29.434  1.00  0.00     0.031 C 
ATOM     41  C   UNL A   1      43.253  27.363  31.873  1.00  0.00     0.029 A 
ATOM     42  N   UNL A   1      42.141  28.987  32.940  1.00  0.00    -0.354 N 
ATOM     43  C   UNL A   1      38.795  30.990  31.075  1.00  0.00     0.074 A 
ATOM     44  C   UNL A   1      38.572  30.494  29.735  1.00  0.00     0.031 C 
ATOM     45  C   UNL A   1      43.802  27.498  33.093  1.00  0.00     0.029 A 
ATOM     46  C   UNL A   1      43.121  28.575  33.810  1.00  0.00     0.049 A 
ATOM     47  H   UNL A   1      41.486  29.688  33.159  1.00  0.00     0.167 HD
ATOM     48  C   UNL A   1      38.037  31.942  31.670  1.00  0.00     0.031 A 
ATOM     49  C   UNL A   1      43.443  29.028  35.038  1.00  0.00     0.031 A 
ATOM     50  C   UNL A   1      38.269  32.445  32.998  1.00  0.00     0.049 A 
ATOM     51  C   UNL A   1      42.632  30.140  35.650  1.00  0.00     0.074 A 
ATOM     52  C   UNL A   1      37.552  33.404  33.692  1.00  0.00     0.029 A 
ATOM     53  N   UNL A   1      39.299  32.033  33.830  1.00  0.00    -0.354 N 
ATOM     54  N   UNL A   1      41.588  30.764  35.161  1.00  0.00    -0.248 NA
ATOM     55  C   UNL A   1      43.039  30.602  36.985  1.00  0.00     0.031 C 
ATOM     56  C   UNL A   1      38.182  33.610  34.925  1.00  0.00     0.029 A 
ATOM     57  C   UNL A   1      39.255  32.738  35.020  1.00  0.00     0.049 A 
ATOM     58  H   UNL A   1      39.964  31.342  33.606  1.00  0.00     0.167 HD
ATOM     59  C   UNL A   1      41.197  31.675  36.137  1.00  0.00     0.074 A 
ATOM     60  C   UNL A   1      42.111  31.511  37.251  1.00  0.00     0.031 C 
ATOM     61  C   UNL A   1      40.174  32.564  36.117  1.00  0.00     0.031 A 
BRANCH  48  62
ATOM     62  C   UNL A   1      36.905  32.528  30.868  1.00  0.00    -0.014 A 
ATOM     63  C   UNL A   1      35.593  32.038  30.992  1.00  0.00     0.010 A 
ATOM     64  C   UNL A   1      37.155  33.605  29.998  1.00  0.00     0.010 A 
ATOM     65  C   UNL A   1      34.557  32.588  30.231  1.00  0.00     0.020 A 
ATOM     66  C   UNL A   1      36.119  34.175  29.254  1.00  0.00     0.020 A 
ATOM     67  C   UNL A   1      34.829  33.651  29.363  1.00  0.00     0.054 A 
BRANCH  67  68
ATOM     68  S   UNL A   1      33.464  34.358  28.398  1.00  0.00     0.124 S 
ATOM     69  O   UNL A   1      32.592  34.878  29.449  1.00  0.00    -0.237 OA
ATOM     70  O   UNL A   1      34.137  35.367  27.584  1.00  0.00    -0.237 OA
ATOM     71  O   UNL A   1      32.934  33.216  27.658  1.00  0.00    -0.744 OA
ENDBRANCH  67  68
ENDBRANCH  48  62
BRANCH  49  72
ATOM     72  C   UNL A   1      44.602  28.441  35.763  1.00  0.00    -0.014 A 
ATOM     73  C   UNL A   1      45.896  28.963  35.596  1.00  0.00     0.010 A 
ATOM     74  C   UNL A   1      44.410  27.355  36.637  1.00  0.00     0.010 A 
ATOM     75  C   UNL A   1      46.979  28.401  36.280  1.00  0.00     0.020 A 
ATOM     76  C   UNL A   1      45.485  26.808  37.342  1.00  0.00     0.020 A 
ATOM     77  C   UNL A   1      46.766  27.329  37.151  1.00  0.00     0.054 A 
BRANCH  77  78
ATOM     78  S   UNL A   1      48.174  26.658  38.078  1.00  0.00     0.124 S 
ATOM     79  O   UNL A   1      49.133  27.755  38.011  1.00  0.00    -0.237 OA
ATOM     80  O   UNL A   1      47.592  26.403  39.395  1.00  0.00    -0.237 OA
ATOM     81  O   UNL A   1      48.536  25.458  37.326  1.00  0.00    -0.744 OA
ENDBRANCH  77  78
ENDBRANCH  49  72
BRANCH  61  82
ATOM     82  C   UNL A   1      39.963  33.410  37.345  1.00  0.00    -0.014 A 
ATOM     83  C   UNL A   1      39.185  32.949  38.422  1.00  0.00     0.010 A 
ATOM     84  C   UNL A   1      40.601  34.660  37.444  1.00  0.00     0.010 A 
ATOM     85  C   UNL A   1      39.026  33.738  39.565  1.00  0.00     0.020 A 
ATOM     86  C   UNL A   1      40.466  35.439  38.595  1.00  0.00     0.020 A 
ATOM     87  C   UNL A   1      39.666  34.979  39.643  1.00  0.00     0.054 A 
BRANCH  87  88
ATOM     88  S   UNL A   1      39.480  35.965  41.155  1.00  0.00     0.124 S 
ATOM     89  O   UNL A   1      40.870  36.168  41.556  1.00  0.00    -0.237 OA
ATOM     90  O   UNL A   1      38.783  37.157  40.678  1.00  0.00    -0.237 OA
ATOM     91  O   UNL A   1      38.696  35.103  42.037  1.00  0.00    -0.744 OA
ENDBRANCH  87  88
ENDBRANCH  61  82
ENDBRANCH  35  36
ENDBRANCH  28  30
ENDBRANCH  27  28
ENDBRANCH  26  27
ENDBRANCH  25  26
ENDBRANCH   1  25
TORSDOF 20
ENDMDL
MODEL 3
REMARK VINA RESULT:     -10.6      6.256     10.868
REMARK SMILES C[C@@H](C(=O)OCCOCCOC(=O)c1ccc(-c2c3nc(c(-c4ccc(S(=O)(=O)[O-])cc4)c4ccc([nH]4)c(-c4ccc(S(=O)(=O)[O-])cc4)c4nc(c(-c5ccc(S(=O)(=O)[O-])cc5)c5ccc2[nH]5)C=C4)C=C3)cc1)c1ccccc1-c1ccn(C(F)F)c(=O)c1
REMARK SMILES IDX 8 1 7 2 6 3 5 4 3 5 4 6 2 7 1 8 74 9 75 10 79 11 76 12 78 13
REMARK SMILES IDX 77 14 80 15 81 16 89 17 82 18 87 19 83 20 88 21 84 22 85 23
REMARK SMILES IDX 86 24 9 25 10 26 11 27 12 28 13 29 14 30 15 31 73 32 16 33
REMARK SMILES IDX 72 34 17 35 18 36 19 37 66 38 20 39 71 40 65 41 67 42 21 43
REMARK SMILES IDX 70 44 64 45 63 46 22 48 52 49 33 50 51 51 34 52 37 53 50 54
REMARK SMILES IDX 68 55 35 56 36 57 49 59 69 60 38 61 23 62 24 63 32 64 25 65
REMARK SMILES IDX 31 66 26 67 27 68 28 69 29 70 30 71 53 72 54 73 62 74 55 75
REMARK SMILES IDX 61 76 56 77 57 78 58 79 59 80 60 81 39 82 40 83 48 84 41 85
REMARK SMILES IDX 47 86 42 87 43 88 44 89 45 90 46 91
REMARK H PARENT 67 47 37 58
REMARK Flexibility Score: inf
ROOT
ATOM      1  O   UNL A   1      33.757  30.908  27.960  1.00  0.00    -0.374 OA
ENDROOT
BRANCH   1   2
ATOM      2  C   UNL A   1      33.703  29.509  27.687  1.00  0.00     0.202 C 
BRANCH   2   3
ATOM      3  C   UNL A   1      34.697  28.931  26.674  1.00  0.00     0.261 C 
BRANCH   3   4
ATOM      4  O   UNL A   1      34.089  27.999  25.763  1.00  0.00    -0.463 OA
BRANCH   4   5
ATOM      5  C   UNL A   1      32.995  28.487  25.116  1.00  0.00     0.313 C 
ATOM      6  O   UNL A   1      32.958  29.600  24.601  1.00  0.00    -0.252 OA
BRANCH   5   7
ATOM      7  C   UNL A   1      31.811  27.502  25.099  1.00  0.00     0.127 C 
ATOM      8  C   UNL A   1      31.548  26.783  26.429  1.00  0.00     0.025 C 
BRANCH   7   9
ATOM      9  C   UNL A   1      31.997  26.549  23.907  1.00  0.00    -0.026 A 
ATOM     10  C   UNL A   1      32.889  25.463  23.998  1.00  0.00     0.005 A 
ATOM     11  C   UNL A   1      31.415  26.840  22.646  1.00  0.00    -0.014 A 
ATOM     12  C   UNL A   1      33.229  24.712  22.872  1.00  0.00     0.000 A 
ATOM     13  C   UNL A   1      31.776  26.084  21.519  1.00  0.00     0.009 A 
ATOM     14  C   UNL A   1      32.685  25.031  21.632  1.00  0.00     0.001 A 
BRANCH  11  15
ATOM     15  C   UNL A   1      30.408  27.911  22.496  1.00  0.00    -0.011 A 
ATOM     16  C   UNL A   1      30.723  29.258  22.062  1.00  0.00     0.027 A 
ATOM     17  C   UNL A   1      29.169  27.639  22.941  1.00  0.00     0.080 A 
ATOM     18  C   UNL A   1      29.862  30.257  22.290  1.00  0.00     0.095 A 
ATOM     19  C   UNL A   1      28.159  28.722  23.081  1.00  0.00     0.255 A 
ATOM     20  N   UNL A   1      28.618  30.007  22.840  1.00  0.00    -0.258 N 
ATOM     21  O   UNL A   1      27.026  28.417  23.441  1.00  0.00    -0.269 OA
BRANCH  20  22
ATOM     22  C   UNL A   1      27.719  31.092  23.135  1.00  0.00     0.451 C 
ATOM     23  F   UNL A   1      28.191  31.842  24.160  1.00  0.00    -0.185 F 
ATOM     24  F   UNL A   1      27.568  31.902  22.058  1.00  0.00    -0.185 F 
ENDBRANCH  20  22
ENDBRANCH  11  15
ENDBRANCH   7   9
ENDBRANCH   5   7
ENDBRANCH   4   5
ENDBRANCH   3   4
ENDBRANCH   2   3
ENDBRANCH   1   2
BRANCH   1  25
ATOM     25  C   UNL A   1      32.720  31.732  27.436  1.00  0.00     0.202 C 
BRANCH  25  26
ATOM     26  C   UNL A   1      32.941  33.250  27.425  1.00  0.00     0.261 C 
BRANCH  26  27
ATOM     27  O   UNL A   1      32.350  33.898  28.565  1.00  0.00    -0.460 OA
BRANCH  27  28
ATOM     28  C   UNL A   1      33.015  34.999  28.987  1.00  0.00     0.338 C 
ATOM     29  O   UNL A   1      32.662  36.165  28.860  1.00  0.00    -0.246 OA
BRANCH  28  30
ATOM     30  C   UNL A   1      34.159  34.614  29.834  1.00  0.00     0.060 A 
ATOM     31  C   UNL A   1      35.427  34.618  29.237  1.00  0.00     0.016 A 
ATOM     32  C   UNL A   1      33.996  34.187  31.154  1.00  0.00     0.016 A 
ATOM     33  C   UNL A   1      36.529  34.138  29.935  1.00  0.00     0.010 A 
ATOM     34  C   UNL A   1      35.105  33.692  31.850  1.00  0.00     0.010 A 
ATOM     35  C   UNL A   1      36.366  33.626  31.228  1.00  0.00    -0.014 A 
BRANCH  35  36
ATOM     36  C   UNL A   1      37.479  32.870  31.849  1.00  0.00     0.031 A 
ATOM     37  C   UNL A   1      38.013  33.328  33.179  1.00  0.00     0.074 A 
ATOM     38  C   UNL A   1      37.969  31.761  31.268  1.00  0.00     0.049 A 
ATOM     39  N   UNL A   1      38.971  32.817  33.908  1.00  0.00    -0.248 NA
ATOM     40  C   UNL A   1      37.378  34.520  33.768  1.00  0.00     0.031 C 
ATOM     41  C   UNL A   1      37.499  31.189  30.006  1.00  0.00     0.029 A 
ATOM     42  N   UNL A   1      38.973  30.915  31.669  1.00  0.00    -0.354 N 
ATOM     43  C   UNL A   1      39.059  33.625  35.035  1.00  0.00     0.074 A 
ATOM     44  C   UNL A   1      38.077  34.676  34.883  1.00  0.00     0.031 C 
ATOM     45  C   UNL A   1      38.219  30.086  29.734  1.00  0.00     0.029 A 
ATOM     46  C   UNL A   1      39.217  29.893  30.784  1.00  0.00     0.049 A 
ATOM     47  H   UNL A   1      39.470  31.031  32.510  1.00  0.00     0.167 HD
ATOM     48  C   UNL A   1      39.880  33.500  36.106  1.00  0.00     0.031 A 
ATOM     49  C   UNL A   1      40.151  28.922  30.811  1.00  0.00     0.031 A 
ATOM     50  C   UNL A   1      40.865  32.462  36.249  1.00  0.00     0.049 A 
ATOM     51  C   UNL A   1      41.103  28.846  31.976  1.00  0.00     0.074 A 
ATOM     52  C   UNL A   1      41.740  32.246  37.299  1.00  0.00     0.029 A 
ATOM     53  N   UNL A   1      41.112  31.472  35.311  1.00  0.00    -0.354 N 
ATOM     54  N   UNL A   1      41.162  29.607  33.043  1.00  0.00    -0.248 NA
ATOM     55  C   UNL A   1      42.109  27.775  31.943  1.00  0.00     0.031 C 
ATOM     56  C   UNL A   1      42.552  31.154  36.971  1.00  0.00     0.029 A 
ATOM     57  C   UNL A   1      42.143  30.657  35.743  1.00  0.00     0.049 A 
ATOM     58  H   UNL A   1      40.625  31.364  34.461  1.00  0.00     0.167 HD
ATOM     59  C   UNL A   1      42.194  29.091  33.821  1.00  0.00     0.074 A 
ATOM     60  C   UNL A   1      42.723  27.946  33.107  1.00  0.00     0.031 C 
ATOM     61  C   UNL A   1      42.660  29.523  35.019  1.00  0.00     0.031 A 
BRANCH  48  62
ATOM     62  C   UNL A   1      39.767  34.538  37.191  1.00  0.00    -0.014 A 
ATOM     63  C   UNL A   1      38.917  34.350  38.296  1.00  0.00     0.010 A 
ATOM     64  C   UNL A   1      40.545  35.708  37.116  1.00  0.00     0.010 A 
ATOM     65  C   UNL A   1      38.819  35.330  39.287  1.00  0.00     0.020 A 
ATOM     66  C   UNL A   1      40.469  36.678  38.118  1.00  0.00     0.020 A 
ATOM     67  C   UNL A   1      39.592  36.490  39.190  1.00  0.00     0.054 A 
BRANCH  67  68
ATOM     68  S   UNL A   1      39.458  37.740  40.498  1.00  0.00     0.124 S 
ATOM     69  O   UNL A   1      38.320  38.533  40.040  1.00  0.00    -0.237 OA
ATOM     70  O   UNL A   1      39.221  36.931  41.691  1.00  0.00    -0.237 OA
ATOM     71  O   UNL A   1      40.748  38.424  40.458  1.00  0.00    -0.744 OA
ENDBRANCH  67  68
ENDBRANCH  48  62
BRANCH  49  72
ATOM     72  C   UNL A   1      40.244  27.952  29.687  1.00  0.00    -0.014 A 
ATOM     73  C   UNL A   1      41.132  28.169  28.619  1.00  0.00     0.010 A 
ATOM     74  C   UNL A   1      39.443  26.795  29.686  1.00  0.00     0.010 A 
ATOM     75  C   UNL A   1      41.209  27.253  27.566  1.00  0.00     0.020 A 
ATOM     76  C   UNL A   1      39.536  25.865  28.648  1.00  0.00     0.020 A 
ATOM     77  C   UNL A   1      40.412  26.105  27.588  1.00  0.00     0.054 A 
BRANCH  77  78
ATOM     78  S   UNL A   1      40.575  24.896  26.244  1.00  0.00     0.124 S 
ATOM     79  O   UNL A   1      41.245  25.679  25.212  1.00  0.00    -0.237 OA
ATOM     80  O   UNL A   1      41.377  23.843  26.862  1.00  0.00    -0.237 OA
ATOM     81  O   UNL A   1      39.192  24.523  25.954  1.00  0.00    -0.744 OA
ENDBRANCH  77  78
ENDBRANCH  49  72
BRANCH  61  82
ATOM     82  C   UNL A   1      43.778  28.740  35.653  1.00  0.00    -0.014 A 
ATOM     83  C   UNL A   1      45.121  29.124  35.492  1.00  0.00     0.010 A 
ATOM     84  C   UNL A   1      43.475  27.636  36.471  1.00  0.00     0.010 A 
ATOM     85  C   UNL A   1      46.142  28.400  36.113  1.00  0.00     0.020 A 
ATOM     86  C   UNL A   1      44.490  26.926  37.116  1.00  0.00     0.020 A 
ATOM     87  C   UNL A   1      45.820  27.305  36.920  1.00  0.00     0.054 A 
BRANCH  87  88
ATOM     88  S   UNL A   1      47.160  26.407  37.752  1.00  0.00     0.124 S 
ATOM     89  O   UNL A   1      48.037  27.496  38.173  1.00  0.00    -0.237 OA
ATOM     90  O   UNL A   1      46.461  25.711  38.829  1.00  0.00    -0.237 OA
ATOM     91  O   UNL A   1      47.699  25.541  36.705  1.00  0.00    -0.744 OA
ENDBRANCH  87  88
ENDBRANCH  61  82
ENDBRANCH  35  36
ENDBRANCH  28  30
ENDBRANCH  27  28
ENDBRANCH  26  27
ENDBRANCH  25  26
ENDBRANCH   1  25
TORSDOF 20
ENDMDL
