MODEL 1
REMARK VINA RESULT:     -12.1      0.000      0.000
REMARK SMILES COc1cc([C@@H]2CC(=O)Nc3c(C(=O)OCCOCCOC(=O)c4ccc(-c5c6nc(c(-c7ccc(S(=O)(=O)[O-])cc7)c7ccc([nH]7)c(-c7ccc(S(=O)(=O)[O-])cc7)c7nc(c(-c8ccc(S(=O)(=O)[O-])cc8)c8ccc5[nH]8)C=C7)C=C6)cc4)cn(-c4ccc(F)cc4)c32)c(OC)c2c1OCO2
REMARK SMILES IDX 19 1 18 2 17 3 16 4 15 5 13 6 14 7 12 8 6 9 7 10 93 11 8 12
REMARK SMILES IDX 11 13 85 14 9 15 10 16 84 17 5 19 3 20 4 21 98 22 97 23
REMARK SMILES IDX 99 24 94 25 101 26 100 27 2 28 1 29 95 30 96 31 86 32 87 33
REMARK SMILES IDX 92 34 88 35 91 36 89 37 90 38 20 39 21 40 22 41 23 42 24 43
REMARK SMILES IDX 25 44 83 45 26 46 82 47 27 48 28 49 29 50 76 51 30 52 81 53
REMARK SMILES IDX 75 54 77 55 31 56 80 57 74 58 73 59 32 61 62 62 43 63 61 64
REMARK SMILES IDX 44 65 47 66 60 67 78 68 45 69 46 70 59 72 79 73 48 74 33 75
REMARK SMILES IDX 34 76 42 77 35 78 41 79 36 80 37 81 38 82 39 83 40 84 63 85
REMARK SMILES IDX 64 86 72 87 65 88 71 89 66 90 67 91 68 92 69 93 70 94 49 95
REMARK SMILES IDX 50 96 58 97 51 98 57 99 52 100 53 101 54 102 55 103 56 104
REMARK H PARENT 10 18 77 60 47 71
REMARK Flexibility Score: inf
ROOT
ATOM      1  C   UNL A   1      36.782  21.011  24.677  1.00  0.00     0.202 C 
ENDROOT
BRANCH   1   2
ATOM      2  O   UNL A   1      35.542  21.630  24.349  1.00  0.00    -0.374 OA
BRANCH   2   3
ATOM      3  C   UNL A   1      34.287  21.058  24.714  1.00  0.00     0.202 C 
BRANCH   3   4
ATOM      4  C   UNL A   1      33.623  21.468  26.028  1.00  0.00     0.261 C 
BRANCH   4   5
ATOM      5  O   UNL A   1      33.860  22.844  26.351  1.00  0.00    -0.460 OA
BRANCH   5   6
ATOM      6  C   UNL A   1      32.762  23.635  26.234  1.00  0.00     0.341 C 
ATOM      7  O   UNL A   1      31.630  23.324  26.612  1.00  0.00    -0.246 OA
BRANCH   6   8
ATOM      8  C   UNL A   1      33.063  24.951  25.715  1.00  0.00     0.102 A 
ATOM      9  C   UNL A   1      32.814  27.580  23.175  1.00  0.00     0.082 C 
ATOM     10  C   UNL A   1      33.366  26.840  21.943  1.00  0.00     0.115 C 
ATOM     11  C   UNL A   1      33.093  26.766  24.400  1.00  0.00     0.055 A 
ATOM     12  C   UNL A   1      33.205  25.324  21.978  1.00  0.00     0.225 C 
ATOM     13  C   UNL A   1      33.226  25.396  24.387  1.00  0.00     0.078 A 
ATOM     14  N   UNL A   1      33.187  27.195  25.703  1.00  0.00    -0.317 N 
ATOM     15  O   UNL A   1      33.109  24.660  20.946  1.00  0.00    -0.275 OA
ATOM     16  N   UNL A   1      33.262  24.699  23.202  1.00  0.00    -0.324 N 
ATOM     17  C   UNL A   1      33.184  26.083  26.511  1.00  0.00     0.109 A 
ATOM     18  H   UNL A   1      33.332  23.718  23.231  1.00  0.00     0.170 HD
BRANCH   9  19
ATOM     19  C   UNL A   1      31.321  27.937  23.033  1.00  0.00     0.012 A 
ATOM     20  C   UNL A   1      29.693  29.677  22.406  1.00  0.00     0.165 A 
ATOM     21  C   UNL A   1      31.003  29.188  22.440  1.00  0.00     0.059 A 
ATOM     22  C   UNL A   1      28.692  28.861  22.899  1.00  0.00     0.211 A 
ATOM     23  C   UNL A   1      28.970  27.618  23.433  1.00  0.00     0.211 A 
ATOM     24  O   UNL A   1      27.356  29.136  22.925  1.00  0.00    -0.449 OA
ATOM     25  C   UNL A   1      30.264  27.126  23.518  1.00  0.00     0.168 A 
ATOM     26  O   UNL A   1      27.837  26.994  23.867  1.00  0.00    -0.449 OA
ATOM     27  C   UNL A   1      26.822  27.908  23.438  1.00  0.00     0.468 C 
BRANCH  20  28
ATOM     28  O   UNL A   1      29.543  30.919  21.863  1.00  0.00    -0.493 OA
ATOM     29  C   UNL A   1      29.057  31.917  22.756  1.00  0.00     0.278 C 
ENDBRANCH  20  28
BRANCH  25  30
ATOM     30  O   UNL A   1      30.609  25.930  24.063  1.00  0.00    -0.492 OA
ATOM     31  C   UNL A   1      30.078  24.721  23.552  1.00  0.00     0.278 C 
ENDBRANCH  25  30
ENDBRANCH   9  19
BRANCH  14  32
ATOM     32  C   UNL A   1      33.120  28.511  26.196  1.00  0.00     0.046 A 
ATOM     33  C   UNL A   1      34.302  29.169  26.546  1.00  0.00     0.029 A 
ATOM     34  C   UNL A   1      31.883  29.155  26.282  1.00  0.00     0.029 A 
ATOM     35  C   UNL A   1      34.242  30.460  27.061  1.00  0.00     0.041 A 
ATOM     36  C   UNL A   1      31.831  30.451  26.797  1.00  0.00     0.041 A 
ATOM     37  C   UNL A   1      33.007  31.086  27.192  1.00  0.00     0.123 A 
ATOM     38  F   UNL A   1      32.952  32.325  27.696  1.00  0.00    -0.207 F 
ENDBRANCH  14  32
ENDBRANCH   6   8
ENDBRANCH   5   6
ENDBRANCH   4   5
ENDBRANCH   3   4
ENDBRANCH   2   3
ENDBRANCH   1   2
BRANCH   1  39
ATOM     39  C   UNL A   1      37.626  21.539  25.830  1.00  0.00     0.261 C 
BRANCH  39  40
ATOM     40  O   UNL A   1      38.991  21.637  25.475  1.00  0.00    -0.460 OA
BRANCH  40  41
ATOM     41  C   UNL A   1      39.684  20.501  25.710  1.00  0.00     0.338 C 
ATOM     42  O   UNL A   1      39.318  19.353  25.485  1.00  0.00    -0.246 OA
BRANCH  41  43
ATOM     43  C   UNL A   1      40.939  20.846  26.383  1.00  0.00     0.060 A 
ATOM     44  C   UNL A   1      40.863  20.832  27.778  1.00  0.00     0.016 A 
ATOM     45  C   UNL A   1      41.841  21.651  25.682  1.00  0.00     0.016 A 
ATOM     46  C   UNL A   1      41.389  21.909  28.445  1.00  0.00     0.010 A 
ATOM     47  C   UNL A   1      42.322  22.747  26.338  1.00  0.00     0.010 A 
ATOM     48  C   UNL A   1      41.985  22.913  27.683  1.00  0.00    -0.014 A 
BRANCH  48  49
ATOM     49  C   UNL A   1      42.335  24.153  28.329  1.00  0.00     0.031 A 
ATOM     50  C   UNL A   1      41.306  25.182  28.079  1.00  0.00     0.074 A 
ATOM     51  C   UNL A   1      43.375  24.239  29.178  1.00  0.00     0.049 A 
ATOM     52  N   UNL A   1      41.354  26.152  27.225  1.00  0.00    -0.248 NA
ATOM     53  C   UNL A   1      39.955  24.918  28.615  1.00  0.00     0.031 C 
ATOM     54  C   UNL A   1      44.224  23.163  29.701  1.00  0.00     0.029 A 
ATOM     55  N   UNL A   1      43.815  25.316  29.868  1.00  0.00    -0.354 N 
ATOM     56  C   UNL A   1      40.110  26.757  27.332  1.00  0.00     0.074 A 
ATOM     57  C   UNL A   1      39.231  25.764  27.885  1.00  0.00     0.031 C 
ATOM     58  C   UNL A   1      44.856  23.607  30.816  1.00  0.00     0.029 A 
ATOM     59  C   UNL A   1      44.534  25.011  31.015  1.00  0.00     0.049 A 
ATOM     60  H   UNL A   1      43.639  26.242  29.580  1.00  0.00     0.167 HD
ATOM     61  C   UNL A   1      39.978  28.111  27.372  1.00  0.00     0.031 A 
ATOM     62  C   UNL A   1      44.706  25.833  32.088  1.00  0.00     0.031 A 
ATOM     63  C   UNL A   1      41.177  28.771  26.918  1.00  0.00     0.049 A 
ATOM     64  C   UNL A   1      44.352  27.211  31.631  1.00  0.00     0.074 A 
ATOM     65  C   UNL A   1      41.933  28.707  25.764  1.00  0.00     0.029 A 
ATOM     66  N   UNL A   1      42.001  29.305  27.885  1.00  0.00    -0.354 N 
ATOM     67  N   UNL A   1      45.031  27.862  30.724  1.00  0.00    -0.248 NA
ATOM     68  C   UNL A   1      42.961  27.631  31.778  1.00  0.00     0.031 C 
ATOM     69  C   UNL A   1      43.286  28.741  26.209  1.00  0.00     0.029 A 
ATOM     70  C   UNL A   1      43.286  28.922  27.594  1.00  0.00     0.049 A 
ATOM     71  H   UNL A   1      41.719  29.861  28.647  1.00  0.00     0.167 HD
ATOM     72  C   UNL A   1      44.075  28.459  29.911  1.00  0.00     0.074 A 
ATOM     73  C   UNL A   1      42.816  28.325  30.645  1.00  0.00     0.031 C 
ATOM     74  C   UNL A   1      44.319  28.724  28.591  1.00  0.00     0.031 A 
BRANCH  61  75
ATOM     75  C   UNL A   1      38.956  28.800  28.248  1.00  0.00    -0.014 A 
ATOM     76  C   UNL A   1      38.168  29.822  27.691  1.00  0.00     0.010 A 
ATOM     77  C   UNL A   1      38.911  28.659  29.653  1.00  0.00     0.010 A 
ATOM     78  C   UNL A   1      37.424  30.685  28.506  1.00  0.00     0.020 A 
ATOM     79  C   UNL A   1      38.136  29.477  30.470  1.00  0.00     0.020 A 
ATOM     80  C   UNL A   1      37.421  30.511  29.891  1.00  0.00     0.054 A 
BRANCH  80  81
ATOM     81  S   UNL A   1      36.529  31.676  30.941  1.00  0.00     0.124 S 
ATOM     82  O   UNL A   1      35.325  31.925  30.156  1.00  0.00    -0.237 OA
ATOM     83  O   UNL A   1      36.343  30.902  32.166  1.00  0.00    -0.237 OA
ATOM     84  O   UNL A   1      37.448  32.806  31.059  1.00  0.00    -0.744 OA
ENDBRANCH  80  81
ENDBRANCH  61  75
BRANCH  62  85
ATOM     85  C   UNL A   1      44.699  25.423  33.526  1.00  0.00    -0.014 A 
ATOM     86  C   UNL A   1      44.183  24.181  33.947  1.00  0.00     0.010 A 
ATOM     87  C   UNL A   1      45.439  26.161  34.473  1.00  0.00     0.010 A 
ATOM     88  C   UNL A   1      44.435  23.687  35.246  1.00  0.00     0.020 A 
ATOM     89  C   UNL A   1      45.687  25.683  35.766  1.00  0.00     0.020 A 
ATOM     90  C   UNL A   1      45.200  24.437  36.143  1.00  0.00     0.054 A 
BRANCH  90  91
ATOM     91  S   UNL A   1      45.662  23.739  37.758  1.00  0.00     0.124 S 
ATOM     92  O   UNL A   1      45.570  22.303  37.518  1.00  0.00    -0.237 OA
ATOM     93  O   UNL A   1      47.010  24.263  37.959  1.00  0.00    -0.237 OA
ATOM     94  O   UNL A   1      44.651  24.279  38.668  1.00  0.00    -0.744 OA
ENDBRANCH  90  91
ENDBRANCH  62  85
BRANCH  74  95
ATOM     95  C   UNL A   1      45.731  28.604  28.061  1.00  0.00    -0.014 A 
ATOM     96  C   UNL A   1      46.346  27.389  27.699  1.00  0.00     0.010 A 
ATOM     97  C   UNL A   1      46.388  29.805  27.741  1.00  0.00     0.010 A 
ATOM     98  C   UNL A   1      47.595  27.382  27.054  1.00  0.00     0.020 A 
ATOM     99  C   UNL A   1      47.620  29.807  27.084  1.00  0.00     0.020 A 
ATOM    100  C   UNL A   1      48.224  28.595  26.751  1.00  0.00     0.054 A 
BRANCH 100 101
ATOM    101  S   UNL A   1      49.822  28.593  25.889  1.00  0.00     0.124 S 
ATOM    102  O   UNL A   1      50.317  29.944  26.139  1.00  0.00    -0.237 OA
ATOM    103  O   UNL A   1      50.552  27.520  26.559  1.00  0.00    -0.237 OA
ATOM    104  O   UNL A   1      49.467  28.314  24.498  1.00  0.00    -0.744 OA
ENDBRANCH 100 101
ENDBRANCH  74  95
ENDBRANCH  48  49
ENDBRANCH  41  43
ENDBRANCH  40  41
ENDBRANCH  39  40
ENDBRANCH   1  39
TORSDOF 21
ENDMDL
MODEL 2
REMARK VINA RESULT:     -11.3      2.922      7.538
REMARK SMILES COc1cc([C@@H]2CC(=O)Nc3c(C(=O)OCCOCCOC(=O)c4ccc(-c5c6nc(c(-c7ccc(S(=O)(=O)[O-])cc7)c7ccc([nH]7)c(-c7ccc(S(=O)(=O)[O-])cc7)c7nc(c(-c8ccc(S(=O)(=O)[O-])cc8)c8ccc5[nH]8)C=C7)C=C6)cc4)cn(-c4ccc(F)cc4)c32)c(OC)c2c1OCO2
REMARK SMILES IDX 19 1 18 2 17 3 16 4 15 5 13 6 14 7 12 8 6 9 7 10 93 11 8 12
REMARK SMILES IDX 11 13 85 14 9 15 10 16 84 17 5 19 3 20 4 21 98 22 97 23
REMARK SMILES IDX 99 24 94 25 101 26 100 27 2 28 1 29 95 30 96 31 86 32 87 33
REMARK SMILES IDX 92 34 88 35 91 36 89 37 90 38 20 39 21 40 22 41 23 42 24 43
REMARK SMILES IDX 25 44 83 45 26 46 82 47 27 48 28 49 29 50 76 51 30 52 81 53
REMARK SMILES IDX 75 54 77 55 31 56 80 57 74 58 73 59 32 61 62 62 43 63 61 64
REMARK SMILES IDX 44 65 47 66 60 67 78 68 45 69 46 70 59 72 79 73 48 74 33 75
REMARK SMILES IDX 34 76 42 77 35 78 41 79 36 80 37 81 38 82 39 83 40 84 63 85
REMARK SMILES IDX 64 86 72 87 65 88 71 89 66 90 67 91 68 92 69 93 70 94 49 95
REMARK SMILES IDX 50 96 58 97 51 98 57 99 52 100 53 101 54 102 55 103 56 104
REMARK H PARENT 10 18 77 60 47 71
REMARK Flexibility Score: inf
ROOT
ATOM      1  C   UNL A   1      39.174  21.378  25.670  1.00  0.00     0.202 C 
ENDROOT
BRANCH   1   2
ATOM      2  O   UNL A   1      37.772  21.132  25.721  1.00  0.00    -0.374 OA
BRANCH   2   3
ATOM      3  C   UNL A   1      36.824  22.022  25.133  1.00  0.00     0.202 C 
BRANCH   3   4
ATOM      4  C   UNL A   1      35.519  22.328  25.866  1.00  0.00     0.261 C 
BRANCH   4   5
ATOM      5  O   UNL A   1      34.384  22.305  24.991  1.00  0.00    -0.460 OA
BRANCH   5   6
ATOM      6  C   UNL A   1      33.348  23.077  25.411  1.00  0.00     0.341 C 
ATOM      7  O   UNL A   1      32.402  22.671  26.089  1.00  0.00    -0.246 OA
BRANCH   6   8
ATOM      8  C   UNL A   1      33.511  24.474  25.078  1.00  0.00     0.102 A 
ATOM      9  C   UNL A   1      32.847  27.422  23.004  1.00  0.00     0.082 C 
ATOM     10  C   UNL A   1      33.329  26.919  21.631  1.00  0.00     0.115 C 
ATOM     11  C   UNL A   1      33.295  26.461  24.061  1.00  0.00     0.055 A 
ATOM     12  C   UNL A   1      33.274  25.406  21.445  1.00  0.00     0.225 C 
ATOM     13  C   UNL A   1      33.517  25.123  23.826  1.00  0.00     0.078 A 
ATOM     14  N   UNL A   1      33.482  26.699  25.403  1.00  0.00    -0.317 N 
ATOM     15  O   UNL A   1      33.125  24.897  20.334  1.00  0.00    -0.275 OA
ATOM     16  N   UNL A   1      33.488  24.614  22.548  1.00  0.00    -0.324 N 
ATOM     17  C   UNL A   1      33.629  25.482  26.026  1.00  0.00     0.109 A 
ATOM     18  H   UNL A   1      33.625  23.648  22.420  1.00  0.00     0.170 HD
BRANCH   9  19
ATOM     19  C   UNL A   1      31.327  27.674  23.044  1.00  0.00     0.012 A 
ATOM     20  C   UNL A   1      29.535  29.352  22.834  1.00  0.00     0.165 A 
ATOM     21  C   UNL A   1      30.872  28.970  22.683  1.00  0.00     0.059 A 
ATOM     22  C   UNL A   1      28.641  28.394  23.273  1.00  0.00     0.211 A 
ATOM     23  C   UNL A   1      29.051  27.111  23.581  1.00  0.00     0.211 A 
ATOM     24  O   UNL A   1      27.298  28.553  23.452  1.00  0.00    -0.449 OA
ATOM     25  C   UNL A   1      30.377  26.717  23.481  1.00  0.00     0.168 A 
ATOM     26  O   UNL A   1      28.007  26.339  24.004  1.00  0.00    -0.449 OA
ATOM     27  C   UNL A   1      26.898  27.223  23.809  1.00  0.00     0.468 C 
BRANCH  20  28
ATOM     28  O   UNL A   1      29.252  30.646  22.507  1.00  0.00    -0.493 OA
ATOM     29  C   UNL A   1      28.894  30.864  21.146  1.00  0.00     0.278 C 
ENDBRANCH  20  28
BRANCH  25  30
ATOM     30  O   UNL A   1      30.851  25.485  23.801  1.00  0.00    -0.492 OA
ATOM     31  C   UNL A   1      30.229  24.316  23.298  1.00  0.00     0.278 C 
ENDBRANCH  25  30
ENDBRANCH   9  19
BRANCH  14  32
ATOM     32  C   UNL A   1      33.375  27.917  26.097  1.00  0.00     0.046 A 
ATOM     33  C   UNL A   1      34.537  28.614  26.435  1.00  0.00     0.029 A 
ATOM     34  C   UNL A   1      32.110  28.434  26.392  1.00  0.00     0.029 A 
ATOM     35  C   UNL A   1      34.439  29.806  27.147  1.00  0.00     0.041 A 
ATOM     36  C   UNL A   1      32.021  29.632  27.104  1.00  0.00     0.041 A 
ATOM     37  C   UNL A   1      33.184  30.299  27.484  1.00  0.00     0.123 A 
ATOM     38  F   UNL A   1      33.094  31.442  28.176  1.00  0.00    -0.207 F 
ENDBRANCH  14  32
ENDBRANCH   6   8
ENDBRANCH   5   6
ENDBRANCH   4   5
ENDBRANCH   3   4
ENDBRANCH   2   3
ENDBRANCH   1   2
BRANCH   1  39
ATOM     39  C   UNL A   1      39.886  22.034  26.846  1.00  0.00     0.261 C 
BRANCH  39  40
ATOM     40  O   UNL A   1      40.347  23.331  26.519  1.00  0.00    -0.460 OA
BRANCH  40  41
ATOM     41  C   UNL A   1      41.636  23.349  26.114  1.00  0.00     0.338 C 
ATOM     42  O   UNL A   1      42.378  22.385  25.968  1.00  0.00    -0.246 OA
BRANCH  41  43
ATOM     43  C   UNL A   1      42.061  24.744  25.962  1.00  0.00     0.060 A 
ATOM     44  C   UNL A   1      43.244  25.058  26.636  1.00  0.00     0.016 A 
ATOM     45  C   UNL A   1      41.068  25.689  25.695  1.00  0.00     0.016 A 
ATOM     46  C   UNL A   1      43.249  26.201  27.393  1.00  0.00     0.010 A 
ATOM     47  C   UNL A   1      41.052  26.802  26.486  1.00  0.00     0.010 A 
ATOM     48  C   UNL A   1      42.088  26.974  27.405  1.00  0.00    -0.014 A 
BRANCH  48  49
ATOM     49  C   UNL A   1      41.983  28.044  28.364  1.00  0.00     0.031 A 
ATOM     50  C   UNL A   1      43.157  28.935  28.288  1.00  0.00     0.074 A 
ATOM     51  C   UNL A   1      40.858  28.248  29.074  1.00  0.00     0.049 A 
ATOM     52  N   UNL A   1      44.183  28.955  29.074  1.00  0.00    -0.248 NA
ATOM     53  C   UNL A   1      43.356  29.667  27.020  1.00  0.00     0.031 C 
ATOM     54  C   UNL A   1      39.558  27.583  28.944  1.00  0.00     0.029 A 
ATOM     55  N   UNL A   1      40.601  29.210  29.991  1.00  0.00    -0.354 N 
ATOM     56  C   UNL A   1      45.024  29.904  28.509  1.00  0.00     0.074 A 
ATOM     57  C   UNL A   1      44.640  30.001  27.128  1.00  0.00     0.031 C 
ATOM     58  C   UNL A   1      38.610  28.352  29.535  1.00  0.00     0.029 A 
ATOM     59  C   UNL A   1      39.254  29.496  30.163  1.00  0.00     0.049 A 
ATOM     60  H   UNL A   1      41.311  29.669  30.495  1.00  0.00     0.167 HD
ATOM     61  C   UNL A   1      45.661  30.834  29.272  1.00  0.00     0.031 A 
ATOM     62  C   UNL A   1      38.745  30.660  30.657  1.00  0.00     0.031 A 
ATOM     63  C   UNL A   1      45.657  30.466  30.666  1.00  0.00     0.049 A 
ATOM     64  C   UNL A   1      39.872  31.362  31.342  1.00  0.00     0.074 A 
ATOM     65  C   UNL A   1      46.075  29.352  31.368  1.00  0.00     0.029 A 
ATOM     66  N   UNL A   1      44.757  31.117  31.482  1.00  0.00    -0.354 N 
ATOM     67  N   UNL A   1      40.465  30.893  32.408  1.00  0.00    -0.248 NA
ATOM     68  C   UNL A   1      40.677  32.280  30.541  1.00  0.00     0.031 C 
ATOM     69  C   UNL A   1      45.058  29.129  32.341  1.00  0.00     0.029 A 
ATOM     70  C   UNL A   1      44.128  30.168  32.247  1.00  0.00     0.049 A 
ATOM     71  H   UNL A   1      44.594  32.087  31.510  1.00  0.00     0.167 HD
ATOM     72  C   UNL A   1      41.822  31.108  32.193  1.00  0.00     0.074 A 
ATOM     73  C   UNL A   1      41.886  32.018  31.049  1.00  0.00     0.031 C 
ATOM     74  C   UNL A   1      42.773  30.296  32.747  1.00  0.00     0.031 A 
BRANCH  61  75
ATOM     75  C   UNL A   1      45.861  32.260  28.811  1.00  0.00    -0.014 A 
ATOM     76  C   UNL A   1      47.155  32.807  28.848  1.00  0.00     0.010 A 
ATOM     77  C   UNL A   1      44.798  33.162  28.581  1.00  0.00     0.010 A 
ATOM     78  C   UNL A   1      47.361  34.187  28.718  1.00  0.00     0.020 A 
ATOM     79  C   UNL A   1      44.993  34.528  28.399  1.00  0.00     0.020 A 
ATOM     80  C   UNL A   1      46.275  35.038  28.503  1.00  0.00     0.054 A 
BRANCH  80  81
ATOM     81  S   UNL A   1      46.535  36.822  28.420  1.00  0.00     0.124 S 
ATOM     82  O   UNL A   1      47.972  36.925  28.652  1.00  0.00    -0.237 OA
ATOM     83  O   UNL A   1      46.084  37.134  27.067  1.00  0.00    -0.237 OA
ATOM     84  O   UNL A   1      45.687  37.343  29.490  1.00  0.00    -0.744 OA
ENDBRANCH  80  81
ENDBRANCH  61  75
BRANCH  62  85
ATOM     85  C   UNL A   1      37.519  31.365  30.170  1.00  0.00    -0.014 A 
ATOM     86  C   UNL A   1      36.540  31.861  31.055  1.00  0.00     0.010 A 
ATOM     87  C   UNL A   1      37.430  31.777  28.824  1.00  0.00     0.010 A 
ATOM     88  C   UNL A   1      35.545  32.761  30.614  1.00  0.00     0.020 A 
ATOM     89  C   UNL A   1      36.442  32.662  28.376  1.00  0.00     0.020 A 
ATOM     90  C   UNL A   1      35.513  33.168  29.278  1.00  0.00     0.054 A 
BRANCH  90  91
ATOM     91  S   UNL A   1      34.337  34.446  28.738  1.00  0.00     0.124 S 
ATOM     92  O   UNL A   1      35.143  35.662  28.802  1.00  0.00    -0.237 OA
ATOM     93  O   UNL A   1      33.971  33.999  27.398  1.00  0.00    -0.237 OA
ATOM     94  O   UNL A   1      33.262  34.366  29.728  1.00  0.00    -0.744 OA
ENDBRANCH  90  91
ENDBRANCH  62  85
BRANCH  74  95
ATOM     95  C   UNL A   1      42.369  29.302  33.813  1.00  0.00    -0.014 A 
ATOM     96  C   UNL A   1      41.757  28.059  33.553  1.00  0.00     0.010 A 
ATOM     97  C   UNL A   1      42.807  29.568  35.122  1.00  0.00     0.010 A 
ATOM     98  C   UNL A   1      41.572  27.122  34.585  1.00  0.00     0.020 A 
ATOM     99  C   UNL A   1      42.642  28.636  36.148  1.00  0.00     0.020 A 
ATOM    100  C   UNL A   1      42.016  27.419  35.878  1.00  0.00     0.054 A 
BRANCH 100 101
ATOM    101  S   UNL A   1      41.809  26.200  37.207  1.00  0.00     0.124 S 
ATOM    102  O   UNL A   1      40.472  26.504  37.709  1.00  0.00    -0.237 OA
ATOM    103  O   UNL A   1      41.943  24.927  36.503  1.00  0.00    -0.237 OA
ATOM    104  O   UNL A   1      42.900  26.504  38.132  1.00  0.00    -0.744 OA
ENDBRANCH 100 101
ENDBRANCH  74  95
ENDBRANCH  48  49
ENDBRANCH  41  43
ENDBRANCH  40  41
ENDBRANCH  39  40
ENDBRANCH   1  39
TORSDOF 21
ENDMDL
MODEL 3
REMARK VINA RESULT:     -11.3      3.479      8.206
REMARK SMILES COc1cc([C@@H]2CC(=O)Nc3c(C(=O)OCCOCCOC(=O)c4ccc(-c5c6nc(c(-c7ccc(S(=O)(=O)[O-])cc7)c7ccc([nH]7)c(-c7ccc(S(=O)(=O)[O-])cc7)c7nc(c(-c8ccc(S(=O)(=O)[O-])cc8)c8ccc5[nH]8)C=C7)C=C6)cc4)cn(-c4ccc(F)cc4)c32)c(OC)c2c1OCO2
REMARK SMILES IDX 19 1 18 2 17 3 16 4 15 5 13 6 14 7 12 8 6 9 7 10 93 11 8 12
REMARK SMILES IDX 11 13 85 14 9 15 10 16 84 17 5 19 3 20 4 21 98 22 97 23
REMARK SMILES IDX 99 24 94 25 101 26 100 27 2 28 1 29 95 30 96 31 86 32 87 33
REMARK SMILES IDX 92 34 88 35 91 36 89 37 90 38 20 39 21 40 22 41 23 42 24 43
REMARK SMILES IDX 25 44 83 45 26 46 82 47 27 48 28 49 29 50 76 51 30 52 81 53
REMARK SMILES IDX 75 54 77 55 31 56 80 57 74 58 73 59 32 61 62 62 43 63 61 64
REMARK SMILES IDX 44 65 47 66 60 67 78 68 45 69 46 70 59 72 79 73 48 74 33 75
REMARK SMILES IDX 34 76 42 77 35 78 41 79 36 80 37 81 38 82 39 83 40 84 63 85
REMARK SMILES IDX 64 86 72 87 65 88 71 89 66 90 67 91 68 92 69 93 70 94 49 95
REMARK SMILES IDX 50 96 58 97 51 98 57 99 52 100 53 101 54 102 55 103 56 104
REMARK H PARENT 10 18 77 60 47 71
REMARK Flexibility Score: inf
ROOT
ATOM      1  C   UNL A   1      40.159  22.511  27.388  1.00  0.00     0.202 C 
ENDROOT
BRANCH   1   2
ATOM      2  O   UNL A   1      39.815  23.882  27.561  1.00  0.00    -0.374 OA
BRANCH   2   3
ATOM      3  C   UNL A   1      38.586  24.423  27.079  1.00  0.00     0.202 C 
BRANCH   3   4
ATOM      4  C   UNL A   1      37.843  23.718  25.945  1.00  0.00     0.261 C 
BRANCH   4   5
ATOM      5  O   UNL A   1      36.453  23.529  26.239  1.00  0.00    -0.460 OA
BRANCH   5   6
ATOM      6  C   UNL A   1      35.899  22.455  25.618  1.00  0.00     0.341 C 
ATOM      7  O   UNL A   1      36.301  21.295  25.730  1.00  0.00    -0.246 OA
BRANCH   6   8
ATOM      8  C   UNL A   1      34.699  22.783  24.882  1.00  0.00     0.102 A 
ATOM      9  C   UNL A   1      31.400  24.349  24.569  1.00  0.00     0.082 C 
ATOM     10  C   UNL A   1      30.646  23.657  25.717  1.00  0.00     0.115 C 
ATOM     11  C   UNL A   1      32.699  23.641  24.340  1.00  0.00     0.055 A 
ATOM     12  C   UNL A   1      31.526  23.163  26.861  1.00  0.00     0.225 C 
ATOM     13  C   UNL A   1      33.370  22.948  25.322  1.00  0.00     0.078 A 
ATOM     14  N   UNL A   1      33.464  23.614  23.197  1.00  0.00    -0.317 N 
ATOM     15  O   UNL A   1      31.100  23.069  28.011  1.00  0.00    -0.275 OA
ATOM     16  N   UNL A   1      32.797  22.734  26.555  1.00  0.00    -0.324 N 
ATOM     17  C   UNL A   1      34.685  23.075  23.523  1.00  0.00     0.109 A 
ATOM     18  H   UNL A   1      33.316  22.257  27.242  1.00  0.00     0.170 HD
BRANCH   9  19
ATOM     19  C   UNL A   1      31.589  25.860  24.809  1.00  0.00     0.012 A 
ATOM     20  C   UNL A   1      32.777  27.584  26.109  1.00  0.00     0.165 A 
ATOM     21  C   UNL A   1      32.621  26.255  25.701  1.00  0.00     0.059 A 
ATOM     22  C   UNL A   1      31.937  28.528  25.549  1.00  0.00     0.211 A 
ATOM     23  C   UNL A   1      30.959  28.176  24.639  1.00  0.00     0.211 A 
ATOM     24  O   UNL A   1      31.949  29.872  25.786  1.00  0.00    -0.449 OA
ATOM     25  C   UNL A   1      30.755  26.861  24.249  1.00  0.00     0.168 A 
ATOM     26  O   UNL A   1      30.243  29.263  24.227  1.00  0.00    -0.449 OA
ATOM     27  C   UNL A   1      30.949  30.332  24.866  1.00  0.00     0.468 C 
BRANCH  20  28
ATOM     28  O   UNL A   1      33.770  27.808  27.017  1.00  0.00    -0.493 OA
ATOM     29  C   UNL A   1      34.620  28.913  26.725  1.00  0.00     0.278 C 
ENDBRANCH  20  28
BRANCH  25  30
ATOM     30  O   UNL A   1      29.790  26.443  23.388  1.00  0.00    -0.492 OA
ATOM     31  C   UNL A   1      28.426  26.457  23.768  1.00  0.00     0.278 C 
ENDBRANCH  25  30
ENDBRANCH   9  19
BRANCH  14  32
ATOM     32  C   UNL A   1      33.177  24.179  21.942  1.00  0.00     0.046 A 
ATOM     33  C   UNL A   1      33.020  25.563  21.837  1.00  0.00     0.029 A 
ATOM     34  C   UNL A   1      33.102  23.356  20.814  1.00  0.00     0.029 A 
ATOM     35  C   UNL A   1      32.708  26.127  20.603  1.00  0.00     0.041 A 
ATOM     36  C   UNL A   1      32.791  23.930  19.580  1.00  0.00     0.041 A 
ATOM     37  C   UNL A   1      32.586  25.306  19.488  1.00  0.00     0.123 A 
ATOM     38  F   UNL A   1      32.277  25.850  18.305  1.00  0.00    -0.207 F 
ENDBRANCH  14  32
ENDBRANCH   6   8
ENDBRANCH   5   6
ENDBRANCH   4   5
ENDBRANCH   3   4
ENDBRANCH   2   3
ENDBRANCH   1   2
BRANCH   1  39
ATOM     39  C   UNL A   1      41.616  22.095  27.233  1.00  0.00     0.261 C 
BRANCH  39  40
ATOM     40  O   UNL A   1      42.471  23.216  27.126  1.00  0.00    -0.460 OA
BRANCH  40  41
ATOM     41  C   UNL A   1      42.738  23.559  25.846  1.00  0.00     0.338 C 
ATOM     42  O   UNL A   1      42.806  22.810  24.879  1.00  0.00    -0.246 OA
BRANCH  41  43
ATOM     43  C   UNL A   1      43.038  24.993  25.797  1.00  0.00     0.060 A 
ATOM     44  C   UNL A   1      44.107  25.383  26.607  1.00  0.00     0.016 A 
ATOM     45  C   UNL A   1      41.990  25.855  25.461  1.00  0.00     0.016 A 
ATOM     46  C   UNL A   1      43.921  26.482  27.405  1.00  0.00     0.010 A 
ATOM     47  C   UNL A   1      41.782  26.920  26.290  1.00  0.00     0.010 A 
ATOM     48  C   UNL A   1      42.695  27.142  27.322  1.00  0.00    -0.014 A 
BRANCH  48  49
ATOM     49  C   UNL A   1      42.386  28.148  28.306  1.00  0.00     0.031 A 
ATOM     50  C   UNL A   1      43.429  29.192  28.334  1.00  0.00     0.074 A 
ATOM     51  C   UNL A   1      41.203  28.169  28.947  1.00  0.00     0.049 A 
ATOM     52  N   UNL A   1      44.393  29.319  29.186  1.00  0.00    -0.248 NA
ATOM     53  C   UNL A   1      43.601  29.995  27.106  1.00  0.00     0.031 C 
ATOM     54  C   UNL A   1      40.017  27.340  28.711  1.00  0.00     0.029 A 
ATOM     55  N   UNL A   1      40.761  29.049  29.875  1.00  0.00    -0.354 N 
ATOM     56  C   UNL A   1      45.127  30.395  28.708  1.00  0.00     0.074 A 
ATOM     57  C   UNL A   1      44.818  30.495  27.308  1.00  0.00     0.031 C 
ATOM     58  C   UNL A   1      38.939  27.949  29.263  1.00  0.00     0.029 A 
ATOM     59  C   UNL A   1      39.380  29.144  29.967  1.00  0.00     0.049 A 
ATOM     60  H   UNL A   1      41.370  29.579  30.439  1.00  0.00     0.167 HD
ATOM     61  C   UNL A   1      45.584  31.371  29.540  1.00  0.00     0.031 A 
ATOM     62  C   UNL A   1      38.687  30.206  30.464  1.00  0.00     0.031 A 
ATOM     63  C   UNL A   1      45.546  30.950  30.918  1.00  0.00     0.049 A 
ATOM     64  C   UNL A   1      39.663  31.027  31.243  1.00  0.00     0.074 A 
ATOM     65  C   UNL A   1      46.071  29.876  31.610  1.00  0.00     0.029 A 
ATOM     66  N   UNL A   1      44.517  31.439  31.694  1.00  0.00    -0.354 N 
ATOM     67  N   UNL A   1      40.250  30.600  32.330  1.00  0.00    -0.248 NA
ATOM     68  C   UNL A   1      40.380  32.076  30.527  1.00  0.00     0.031 C 
ATOM     69  C   UNL A   1      45.037  29.478  32.507  1.00  0.00     0.029 A 
ATOM     70  C   UNL A   1      43.981  30.384  32.385  1.00  0.00     0.049 A 
ATOM     71  H   UNL A   1      44.222  32.377  31.742  1.00  0.00     0.167 HD
ATOM     72  C   UNL A   1      41.574  31.004  32.212  1.00  0.00     0.074 A 
ATOM     73  C   UNL A   1      41.581  31.960  31.103  1.00  0.00     0.031 C 
ATOM     74  C   UNL A   1      42.593  30.307  32.800  1.00  0.00     0.031 A 
BRANCH  61  75
ATOM     75  C   UNL A   1      45.613  32.829  29.138  1.00  0.00    -0.014 A 
ATOM     76  C   UNL A   1      46.835  33.521  29.197  1.00  0.00     0.010 A 
ATOM     77  C   UNL A   1      44.451  33.609  28.947  1.00  0.00     0.010 A 
ATOM     78  C   UNL A   1      46.877  34.920  29.124  1.00  0.00     0.020 A 
ATOM     79  C   UNL A   1      44.483  34.995  28.823  1.00  0.00     0.020 A 
ATOM     80  C   UNL A   1      45.698  35.646  28.946  1.00  0.00     0.054 A 
BRANCH  80  81
ATOM     81  S   UNL A   1      45.747  37.450  28.937  1.00  0.00     0.124 S 
ATOM     82  O   UNL A   1      44.333  37.788  29.064  1.00  0.00    -0.237 OA
ATOM     83  O   UNL A   1      46.578  37.738  30.103  1.00  0.00    -0.237 OA
ATOM     84  O   UNL A   1      46.357  37.771  27.649  1.00  0.00    -0.744 OA
ENDBRANCH  80  81
ENDBRANCH  61  75
BRANCH  62  85
ATOM     85  C   UNL A   1      37.407  30.758  29.921  1.00  0.00    -0.014 A 
ATOM     86  C   UNL A   1      36.364  31.197  30.762  1.00  0.00     0.010 A 
ATOM     87  C   UNL A   1      37.306  31.090  28.554  1.00  0.00     0.010 A 
ATOM     88  C   UNL A   1      35.294  31.968  30.259  1.00  0.00     0.020 A 
ATOM     89  C   UNL A   1      36.244  31.847  28.044  1.00  0.00     0.020 A 
ATOM     90  C   UNL A   1      35.250  32.302  28.903  1.00  0.00     0.054 A 
BRANCH  90  91
ATOM     91  S   UNL A   1      33.963  33.425  28.277  1.00  0.00     0.124 S 
ATOM     92  O   UNL A   1      34.728  34.340  27.435  1.00  0.00    -0.237 OA
ATOM     93  O   UNL A   1      33.062  32.519  27.573  1.00  0.00    -0.237 OA
ATOM     94  O   UNL A   1      33.408  34.023  29.492  1.00  0.00    -0.744 OA
ENDBRANCH  90  91
ENDBRANCH  62  85
BRANCH  74  95
ATOM     95  C   UNL A   1      42.266  29.225  33.805  1.00  0.00    -0.014 A 
ATOM     96  C   UNL A   1      42.021  27.877  33.474  1.00  0.00     0.010 A 
ATOM     97  C   UNL A   1      42.403  29.563  35.163  1.00  0.00     0.010 A 
ATOM     98  C   UNL A   1      41.895  26.904  34.481  1.00  0.00     0.020 A 
ATOM     99  C   UNL A   1      42.297  28.600  36.167  1.00  0.00     0.020 A 
ATOM    100  C   UNL A   1      42.034  27.274  35.823  1.00  0.00     0.054 A 
BRANCH 100 101
ATOM    101  S   UNL A   1      41.906  26.015  37.125  1.00  0.00     0.124 S 
ATOM    102  O   UNL A   1      40.524  26.165  37.574  1.00  0.00    -0.237 OA
ATOM    103  O   UNL A   1      42.206  24.777  36.411  1.00  0.00    -0.237 OA
ATOM    104  O   UNL A   1      42.918  26.418  38.100  1.00  0.00    -0.744 OA
ENDBRANCH 100 101
ENDBRANCH  74  95
ENDBRANCH  48  49
ENDBRANCH  41  43
ENDBRANCH  40  41
ENDBRANCH  39  40
ENDBRANCH   1  39
TORSDOF 21
ENDMDL
