MODEL 1
REMARK VINA RESULT:     -10.4      0.000      0.000
REMARK SMILES O=C(OCCOCCOC(=O)c1ccc(S(=O)(=O)N[C@@H]2CC[N@H+]3CCC[C@H]23)cc1)c1ccc(-c2c3nc(c(-c4ccc(S(=O)(=O)[O-])cc4)c4ccc([nH]4)c(-c4ccc(S(=O)(=O)[O-])cc4)c4nc(c(-c5ccc(S(=O)(=O)[O-])cc5)c5ccc2[nH]5)C=C4)C=C3)cc1
REMARK SMILES IDX 6 1 5 2 4 3 3 4 2 5 1 6 30 7 31 8 89 9 32 10 88 11 33 12
REMARK SMILES IDX 34 13 35 14 82 15 36 16 87 17 81 18 83 19 37 20 86 21 80 22
REMARK SMILES IDX 79 23 38 25 68 26 49 27 67 28 50 29 53 30 66 31 84 32 51 33
REMARK SMILES IDX 52 34 65 36 85 37 54 38 39 39 40 40 48 41 41 42 47 43 42 44
REMARK SMILES IDX 43 45 44 46 45 47 46 48 69 49 70 50 78 51 71 52 77 53 72 54
REMARK SMILES IDX 73 55 74 56 75 57 76 58 55 59 56 60 64 61 57 62 63 63 58 64
REMARK SMILES IDX 59 65 60 66 61 67 62 68 7 69 8 70 9 71 10 72 11 73 12 74
REMARK SMILES IDX 13 75 29 76 14 77 28 78 15 79 16 80 17 81 18 82 19 83 20 85
REMARK SMILES IDX 21 86 27 87 22 88 23 89 26 90 24 91 25 93
REMARK H PARENT 83 24 53 35 19 84 23 92
REMARK Flexibility Score: inf
ROOT
ATOM      1  O   UNL A   1      33.868  33.722  30.410  1.00  0.00    -0.374 OA
ENDROOT
BRANCH   1   2
ATOM      2  C   UNL A   1      34.713  33.440  31.528  1.00  0.00     0.202 C 
BRANCH   2   3
ATOM      3  C   UNL A   1      36.084  32.871  31.154  1.00  0.00     0.261 C 
BRANCH   3   4
ATOM      4  O   UNL A   1      35.987  31.453  30.927  1.00  0.00    -0.460 OA
BRANCH   4   5
ATOM      5  C   UNL A   1      36.785  30.462  31.388  1.00  0.00     0.338 C 
ATOM      6  O   UNL A   1      36.401  29.812  32.360  1.00  0.00    -0.246 OA
BRANCH   5   7
ATOM      7  C   UNL A   1      38.122  30.125  30.805  1.00  0.00     0.060 A 
ATOM      8  C   UNL A   1      39.199  29.600  31.519  1.00  0.00     0.016 A 
ATOM      9  C   UNL A   1      38.262  30.254  29.410  1.00  0.00     0.016 A 
ATOM     10  C   UNL A   1      40.399  29.280  30.892  1.00  0.00     0.010 A 
ATOM     11  C   UNL A   1      39.447  29.884  28.763  1.00  0.00     0.010 A 
ATOM     12  C   UNL A   1      40.527  29.408  29.510  1.00  0.00    -0.014 A 
BRANCH  12  13
ATOM     13  C   UNL A   1      41.829  29.061  28.903  1.00  0.00     0.031 A 
ATOM     14  C   UNL A   1      42.940  30.066  28.931  1.00  0.00     0.074 A 
ATOM     15  C   UNL A   1      42.034  27.801  28.474  1.00  0.00     0.049 A 
ATOM     16  N   UNL A   1      44.176  29.936  28.530  1.00  0.00    -0.248 NA
ATOM     17  C   UNL A   1      42.626  31.386  29.505  1.00  0.00     0.031 C 
ATOM     18  C   UNL A   1      41.028  26.732  28.487  1.00  0.00     0.029 A 
ATOM     19  N   UNL A   1      43.161  27.190  27.994  1.00  0.00    -0.354 N 
ATOM     20  C   UNL A   1      44.788  31.152  28.802  1.00  0.00     0.074 A 
ATOM     21  C   UNL A   1      43.786  32.016  29.385  1.00  0.00     0.031 C 
ATOM     22  C   UNL A   1      41.599  25.589  28.078  1.00  0.00     0.029 A 
ATOM     23  C   UNL A   1      42.989  25.852  27.726  1.00  0.00     0.049 A 
ATOM     24  H   UNL A   1      44.012  27.662  27.853  1.00  0.00     0.167 HD
ATOM     25  C   UNL A   1      46.074  31.513  28.583  1.00  0.00     0.031 A 
ATOM     26  C   UNL A   1      43.859  24.944  27.241  1.00  0.00     0.031 A 
ATOM     27  C   UNL A   1      47.049  30.651  27.972  1.00  0.00     0.049 A 
ATOM     28  C   UNL A   1      45.261  25.396  26.938  1.00  0.00     0.074 A 
ATOM     29  C   UNL A   1      48.351  30.939  27.605  1.00  0.00     0.029 A 
ATOM     30  N   UNL A   1      46.821  29.323  27.640  1.00  0.00    -0.354 N 
ATOM     31  N   UNL A   1      45.807  26.574  27.139  1.00  0.00    -0.248 NA
ATOM     32  C   UNL A   1      46.160  24.406  26.332  1.00  0.00     0.031 C 
ATOM     33  C   UNL A   1      48.901  29.790  27.023  1.00  0.00     0.029 A 
ATOM     34  C   UNL A   1      47.954  28.777  27.066  1.00  0.00     0.049 A 
ATOM     35  H   UNL A   1      45.977  28.840  27.791  1.00  0.00     0.167 HD
ATOM     36  C   UNL A   1      47.113  26.468  26.678  1.00  0.00     0.074 A 
ATOM     37  C   UNL A   1      47.285  25.101  26.225  1.00  0.00     0.031 C 
ATOM     38  C   UNL A   1      48.082  27.415  26.617  1.00  0.00     0.031 A 
BRANCH  25  39
ATOM     39  C   UNL A   1      46.464  32.914  28.961  1.00  0.00    -0.014 A 
ATOM     40  C   UNL A   1      46.309  33.979  28.056  1.00  0.00     0.010 A 
ATOM     41  C   UNL A   1      47.009  33.166  30.233  1.00  0.00     0.010 A 
ATOM     42  C   UNL A   1      46.728  35.266  28.402  1.00  0.00     0.020 A 
ATOM     43  C   UNL A   1      47.413  34.456  30.590  1.00  0.00     0.020 A 
ATOM     44  C   UNL A   1      47.287  35.494  29.664  1.00  0.00     0.054 A 
BRANCH  44  45
ATOM     45  S   UNL A   1      47.832  37.172  30.088  1.00  0.00     0.124 S 
ATOM     46  O   UNL A   1      47.765  37.150  31.547  1.00  0.00    -0.237 OA
ATOM     47  O   UNL A   1      49.176  37.229  29.521  1.00  0.00    -0.237 OA
ATOM     48  O   UNL A   1      46.848  38.031  29.433  1.00  0.00    -0.744 OA
ENDBRANCH  44  45
ENDBRANCH  25  39
BRANCH  26  49
ATOM     49  C   UNL A   1      43.418  23.549  26.961  1.00  0.00    -0.014 A 
ATOM     50  C   UNL A   1      43.211  22.626  28.000  1.00  0.00     0.010 A 
ATOM     51  C   UNL A   1      43.216  23.133  25.631  1.00  0.00     0.010 A 
ATOM     52  C   UNL A   1      42.840  21.307  27.713  1.00  0.00     0.020 A 
ATOM     53  C   UNL A   1      42.818  21.825  25.343  1.00  0.00     0.020 A 
ATOM     54  C   UNL A   1      42.651  20.914  26.385  1.00  0.00     0.054 A 
BRANCH  54  55
ATOM     55  S   UNL A   1      42.145  19.209  26.025  1.00  0.00     0.124 S 
ATOM     56  O   UNL A   1      40.720  19.368  25.755  1.00  0.00    -0.237 OA
ATOM     57  O   UNL A   1      42.973  18.862  24.873  1.00  0.00    -0.237 OA
ATOM     58  O   UNL A   1      42.474  18.492  27.256  1.00  0.00    -0.744 OA
ENDBRANCH  54  55
ENDBRANCH  26  49
BRANCH  38  59
ATOM     59  C   UNL A   1      49.401  26.992  26.039  1.00  0.00    -0.014 A 
ATOM     60  C   UNL A   1      49.807  27.447  24.772  1.00  0.00     0.010 A 
ATOM     61  C   UNL A   1      50.255  26.161  26.783  1.00  0.00     0.010 A 
ATOM     62  C   UNL A   1      51.034  27.047  24.242  1.00  0.00     0.020 A 
ATOM     63  C   UNL A   1      51.493  25.777  26.265  1.00  0.00     0.020 A 
ATOM     64  C   UNL A   1      51.867  26.209  24.990  1.00  0.00     0.054 A 
BRANCH  64  65
ATOM     65  S   UNL A   1      53.473  25.726  24.298  1.00  0.00     0.124 S 
ATOM     66  O   UNL A   1      53.216  25.797  22.863  1.00  0.00    -0.237 OA
ATOM     67  O   UNL A   1      54.375  26.747  24.827  1.00  0.00    -0.237 OA
ATOM     68  O   UNL A   1      53.685  24.382  24.830  1.00  0.00    -0.744 OA
ENDBRANCH  64  65
ENDBRANCH  38  59
ENDBRANCH  12  13
ENDBRANCH   5   7
ENDBRANCH   4   5
ENDBRANCH   3   4
ENDBRANCH   2   3
ENDBRANCH   1   2
BRANCH   1  69
ATOM     69  C   UNL A   1      34.491  34.414  29.319  1.00  0.00     0.202 C 
BRANCH  69  70
ATOM     70  C   UNL A   1      34.030  33.790  27.998  1.00  0.00     0.261 C 
BRANCH  70  71
ATOM     71  O   UNL A   1      33.745  32.406  28.255  1.00  0.00    -0.460 OA
BRANCH  71  72
ATOM     72  C   UNL A   1      34.619  31.552  27.668  1.00  0.00     0.338 C 
ATOM     73  O   UNL A   1      35.826  31.687  27.573  1.00  0.00    -0.246 OA
BRANCH  72  74
ATOM     74  C   UNL A   1      33.894  30.307  27.311  1.00  0.00     0.060 A 
ATOM     75  C   UNL A   1      34.653  29.162  27.027  1.00  0.00     0.017 A 
ATOM     76  C   UNL A   1      32.494  30.241  27.311  1.00  0.00     0.017 A 
ATOM     77  C   UNL A   1      34.018  27.968  26.688  1.00  0.00     0.022 A 
ATOM     78  C   UNL A   1      31.855  29.047  26.990  1.00  0.00     0.022 A 
ATOM     79  C   UNL A   1      32.621  27.927  26.645  1.00  0.00     0.082 A 
BRANCH  79  80
ATOM     80  S   UNL A   1      31.820  26.554  25.849  1.00  0.00     0.241 S 
ATOM     81  O   UNL A   1      30.777  26.065  26.728  1.00  0.00    -0.207 OA
ATOM     82  O   UNL A   1      31.570  26.915  24.477  1.00  0.00    -0.207 OA
BRANCH  80  83
ATOM     83  N   UNL A   1      33.041  25.412  25.857  1.00  0.00    -0.202 NA
ATOM     84  H   UNL A   1      32.920  24.855  26.702  1.00  0.00     0.141 HD
BRANCH  83  85
ATOM     85  C   UNL A   1      33.163  24.469  24.741  1.00  0.00     0.133 C 
ATOM     86  C   UNL A   1      32.032  23.414  24.842  1.00  0.00     0.087 C 
ATOM     87  C   UNL A   1      34.420  23.624  24.762  1.00  0.00     0.202 C 
ATOM     88  C   UNL A   1      32.737  22.052  24.907  1.00  0.00     0.264 C 
ATOM     89  N   UNL A   1      33.989  22.442  25.517  1.00  0.00    -0.331 N 
ATOM     90  C   UNL A   1      35.692  23.953  25.502  1.00  0.00     0.072 C 
ATOM     91  C   UNL A   1      35.132  21.556  25.481  1.00  0.00     0.262 C 
ATOM     92  H   UNL A   1      33.764  22.521  26.508  1.00  0.00     0.348 HD
ATOM     93  C   UNL A   1      36.276  22.548  25.762  1.00  0.00     0.068 C 
ENDBRANCH  83  85
ENDBRANCH  80  83
ENDBRANCH  79  80
ENDBRANCH  72  74
ENDBRANCH  71  72
ENDBRANCH  70  71
ENDBRANCH  69  70
ENDBRANCH   1  69
TORSDOF 20
ENDMDL
MODEL 2
REMARK VINA RESULT:     -10.4      5.812     12.068
REMARK SMILES O=C(OCCOCCOC(=O)c1ccc(S(=O)(=O)N[C@@H]2CC[N@H+]3CCC[C@H]23)cc1)c1ccc(-c2c3nc(c(-c4ccc(S(=O)(=O)[O-])cc4)c4ccc([nH]4)c(-c4ccc(S(=O)(=O)[O-])cc4)c4nc(c(-c5ccc(S(=O)(=O)[O-])cc5)c5ccc2[nH]5)C=C4)C=C3)cc1
REMARK SMILES IDX 6 1 5 2 4 3 3 4 2 5 1 6 30 7 31 8 89 9 32 10 88 11 33 12
REMARK SMILES IDX 34 13 35 14 82 15 36 16 87 17 81 18 83 19 37 20 86 21 80 22
REMARK SMILES IDX 79 23 38 25 68 26 49 27 67 28 50 29 53 30 66 31 84 32 51 33
REMARK SMILES IDX 52 34 65 36 85 37 54 38 39 39 40 40 48 41 41 42 47 43 42 44
REMARK SMILES IDX 43 45 44 46 45 47 46 48 69 49 70 50 78 51 71 52 77 53 72 54
REMARK SMILES IDX 73 55 74 56 75 57 76 58 55 59 56 60 64 61 57 62 63 63 58 64
REMARK SMILES IDX 59 65 60 66 61 67 62 68 7 69 8 70 9 71 10 72 11 73 12 74
REMARK SMILES IDX 13 75 29 76 14 77 28 78 15 79 16 80 17 81 18 82 19 83 20 85
REMARK SMILES IDX 21 86 27 87 22 88 23 89 26 90 24 91 25 93
REMARK H PARENT 83 24 53 35 19 84 23 92
REMARK Flexibility Score: inf
ROOT
ATOM      1  O   UNL A   1      39.875  21.748  27.281  1.00  0.00    -0.374 OA
ENDROOT
BRANCH   1   2
ATOM      2  C   UNL A   1      41.300  21.843  27.253  1.00  0.00     0.202 C 
BRANCH   2   3
ATOM      3  C   UNL A   1      41.865  22.470  25.976  1.00  0.00     0.261 C 
BRANCH   3   4
ATOM      4  O   UNL A   1      42.527  23.710  26.285  1.00  0.00    -0.460 OA
BRANCH   4   5
ATOM      5  C   UNL A   1      42.058  24.975  26.175  1.00  0.00     0.338 C 
ATOM      6  O   UNL A   1      41.905  25.441  25.047  1.00  0.00    -0.246 OA
BRANCH   5   7
ATOM      7  C   UNL A   1      41.736  25.852  27.345  1.00  0.00     0.060 A 
ATOM      8  C   UNL A   1      40.755  25.587  28.301  1.00  0.00     0.016 A 
ATOM      9  C   UNL A   1      42.559  26.976  27.547  1.00  0.00     0.016 A 
ATOM     10  C   UNL A   1      40.544  26.438  29.380  1.00  0.00     0.010 A 
ATOM     11  C   UNL A   1      42.390  27.808  28.659  1.00  0.00     0.010 A 
ATOM     12  C   UNL A   1      41.366  27.547  29.574  1.00  0.00    -0.014 A 
BRANCH  12  13
ATOM     13  C   UNL A   1      41.087  28.419  30.733  1.00  0.00     0.031 A 
ATOM     14  C   UNL A   1      42.011  28.386  31.912  1.00  0.00     0.074 A 
ATOM     15  C   UNL A   1      40.098  29.329  30.642  1.00  0.00     0.049 A 
ATOM     16  N   UNL A   1      41.994  29.123  32.990  1.00  0.00    -0.248 NA
ATOM     17  C   UNL A   1      43.113  27.409  31.864  1.00  0.00     0.031 C 
ATOM     18  C   UNL A   1      39.200  29.486  29.492  1.00  0.00     0.029 A 
ATOM     19  N   UNL A   1      39.713  30.323  31.501  1.00  0.00    -0.354 N 
ATOM     20  C   UNL A   1      43.078  28.702  33.749  1.00  0.00     0.074 A 
ATOM     21  C   UNL A   1      43.724  27.634  33.019  1.00  0.00     0.031 C 
ATOM     22  C   UNL A   1      38.401  30.544  29.701  1.00  0.00     0.029 A 
ATOM     23  C   UNL A   1      38.692  31.106  31.015  1.00  0.00     0.049 A 
ATOM     24  H   UNL A   1      40.127  30.464  32.383  1.00  0.00     0.167 HD
ATOM     25  C   UNL A   1      43.496  29.169  34.949  1.00  0.00     0.031 A 
ATOM     26  C   UNL A   1      38.059  32.154  31.576  1.00  0.00     0.031 A 
ATOM     27  C   UNL A   1      42.823  30.211  35.674  1.00  0.00     0.049 A 
ATOM     28  C   UNL A   1      38.498  32.601  32.943  1.00  0.00     0.074 A 
ATOM     29  C   UNL A   1      43.091  30.696  36.941  1.00  0.00     0.029 A 
ATOM     30  N   UNL A   1      41.742  30.932  35.187  1.00  0.00    -0.354 N 
ATOM     31  N   UNL A   1      39.487  32.147  33.678  1.00  0.00    -0.248 NA
ATOM     32  C   UNL A   1      37.734  33.691  33.562  1.00  0.00     0.031 C 
ATOM     33  C   UNL A   1      42.150  31.693  37.232  1.00  0.00     0.029 A 
ATOM     34  C   UNL A   1      41.324  31.854  36.129  1.00  0.00     0.049 A 
ATOM     35  H   UNL A   1      41.333  30.806  34.301  1.00  0.00     0.167 HD
ATOM     36  C   UNL A   1      39.459  32.891  34.851  1.00  0.00     0.074 A 
ATOM     37  C   UNL A   1      38.381  33.850  34.708  1.00  0.00     0.031 C 
ATOM     38  C   UNL A   1      40.240  32.784  35.954  1.00  0.00     0.031 A 
BRANCH  25  39
ATOM     39  C   UNL A   1      44.702  28.510  35.554  1.00  0.00    -0.014 A 
ATOM     40  C   UNL A   1      45.997  29.005  35.313  1.00  0.00     0.010 A 
ATOM     41  C   UNL A   1      44.542  27.369  36.361  1.00  0.00     0.010 A 
ATOM     42  C   UNL A   1      47.113  28.348  35.838  1.00  0.00     0.020 A 
ATOM     43  C   UNL A   1      45.655  26.719  36.902  1.00  0.00     0.020 A 
ATOM     44  C   UNL A   1      46.934  27.202  36.621  1.00  0.00     0.054 A 
BRANCH  44  45
ATOM     45  S   UNL A   1      48.399  26.361  37.283  1.00  0.00     0.124 S 
ATOM     46  O   UNL A   1      48.252  25.019  36.726  1.00  0.00    -0.237 OA
ATOM     47  O   UNL A   1      49.500  27.150  36.738  1.00  0.00    -0.237 OA
ATOM     48  O   UNL A   1      48.228  26.456  38.731  1.00  0.00    -0.744 OA
ENDBRANCH  44  45
ENDBRANCH  25  39
BRANCH  26  49
ATOM     49  C   UNL A   1      36.916  32.808  30.878  1.00  0.00    -0.014 A 
ATOM     50  C   UNL A   1      37.125  33.712  29.824  1.00  0.00     0.010 A 
ATOM     51  C   UNL A   1      35.596  32.532  31.287  1.00  0.00     0.010 A 
ATOM     52  C   UNL A   1      36.040  34.350  29.210  1.00  0.00     0.020 A 
ATOM     53  C   UNL A   1      34.510  33.145  30.658  1.00  0.00     0.020 A 
ATOM     54  C   UNL A   1      34.739  34.066  29.636  1.00  0.00     0.054 A 
BRANCH  54  55
ATOM     55  S   UNL A   1      33.337  34.878  28.818  1.00  0.00     0.124 S 
ATOM     56  O   UNL A   1      32.944  33.879  27.830  1.00  0.00    -0.237 OA
ATOM     57  O   UNL A   1      32.398  35.087  29.917  1.00  0.00    -0.237 OA
ATOM     58  O   UNL A   1      33.926  36.100  28.274  1.00  0.00    -0.744 OA
ENDBRANCH  54  55
ENDBRANCH  26  49
BRANCH  38  59
ATOM     59  C   UNL A   1      39.944  33.731  37.081  1.00  0.00    -0.014 A 
ATOM     60  C   UNL A   1      40.485  35.029  37.087  1.00  0.00     0.010 A 
ATOM     61  C   UNL A   1      39.093  33.331  38.125  1.00  0.00     0.010 A 
ATOM     62  C   UNL A   1      40.206  35.902  38.139  1.00  0.00     0.020 A 
ATOM     63  C   UNL A   1      38.795  34.209  39.168  1.00  0.00     0.020 A 
ATOM     64  C   UNL A   1      39.367  35.484  39.177  1.00  0.00     0.054 A 
BRANCH  64  65
ATOM     65  S   UNL A   1      38.990  36.642  40.520  1.00  0.00     0.124 S 
ATOM     66  O   UNL A   1      38.568  37.830  39.784  1.00  0.00    -0.237 OA
ATOM     67  O   UNL A   1      37.934  35.952  41.258  1.00  0.00    -0.237 OA
ATOM     68  O   UNL A   1      40.260  36.766  41.233  1.00  0.00    -0.744 OA
ENDBRANCH  64  65
ENDBRANCH  38  59
ENDBRANCH  12  13
ENDBRANCH   5   7
ENDBRANCH   4   5
ENDBRANCH   3   4
ENDBRANCH   2   3
ENDBRANCH   1   2
BRANCH   1  69
ATOM     69  C   UNL A   1      39.184  22.437  26.231  1.00  0.00     0.202 C 
BRANCH  69  70
ATOM     70  C   UNL A   1      38.302  21.443  25.469  1.00  0.00     0.261 C 
BRANCH  70  71
ATOM     71  O   UNL A   1      37.330  22.206  24.738  1.00  0.00    -0.460 OA
BRANCH  71  72
ATOM     72  C   UNL A   1      36.054  21.998  25.149  1.00  0.00     0.338 C 
ATOM     73  O   UNL A   1      35.675  21.207  25.994  1.00  0.00    -0.246 OA
BRANCH  72  74
ATOM     74  C   UNL A   1      35.186  23.031  24.533  1.00  0.00     0.060 A 
ATOM     75  C   UNL A   1      34.391  22.657  23.439  1.00  0.00     0.017 A 
ATOM     76  C   UNL A   1      35.102  24.331  25.052  1.00  0.00     0.017 A 
ATOM     77  C   UNL A   1      33.557  23.592  22.828  1.00  0.00     0.022 A 
ATOM     78  C   UNL A   1      34.258  25.263  24.455  1.00  0.00     0.022 A 
ATOM     79  C   UNL A   1      33.518  24.898  23.324  1.00  0.00     0.082 A 
BRANCH  79  80
ATOM     80  S   UNL A   1      32.776  26.177  22.337  1.00  0.00     0.241 S 
ATOM     81  O   UNL A   1      33.837  26.932  21.700  1.00  0.00    -0.207 OA
ATOM     82  O   UNL A   1      31.688  25.595  21.594  1.00  0.00    -0.207 OA
BRANCH  80  83
ATOM     83  N   UNL A   1      32.115  27.160  23.515  1.00  0.00    -0.202 NA
ATOM     84  H   UNL A   1      32.439  26.804  24.414  1.00  0.00     0.141 HD
BRANCH  83  85
ATOM     85  C   UNL A   1      32.394  28.599  23.503  1.00  0.00     0.133 C 
ATOM     86  C   UNL A   1      32.567  29.096  24.962  1.00  0.00     0.087 C 
ATOM     87  C   UNL A   1      31.260  29.459  22.983  1.00  0.00     0.202 C 
ATOM     88  C   UNL A   1      31.520  30.202  25.153  1.00  0.00     0.264 C 
ATOM     89  N   UNL A   1      30.514  29.766  24.209  1.00  0.00    -0.331 N 
ATOM     90  C   UNL A   1      30.129  28.989  22.105  1.00  0.00     0.072 C 
ATOM     91  C   UNL A   1      29.471  30.671  23.779  1.00  0.00     0.262 C 
ATOM     92  H   UNL A   1      30.017  29.028  24.706  1.00  0.00     0.348 HD
ATOM     93  C   UNL A   1      29.005  29.978  22.483  1.00  0.00     0.068 C 
ENDBRANCH  83  85
ENDBRANCH  80  83
ENDBRANCH  79  80
ENDBRANCH  72  74
ENDBRANCH  71  72
ENDBRANCH  70  71
ENDBRANCH  69  70
ENDBRANCH   1  69
TORSDOF 20
ENDMDL
MODEL 3
REMARK VINA RESULT:     -10.3      1.206      2.032
REMARK SMILES O=C(OCCOCCOC(=O)c1ccc(S(=O)(=O)N[C@@H]2CC[N@H+]3CCC[C@H]23)cc1)c1ccc(-c2c3nc(c(-c4ccc(S(=O)(=O)[O-])cc4)c4ccc([nH]4)c(-c4ccc(S(=O)(=O)[O-])cc4)c4nc(c(-c5ccc(S(=O)(=O)[O-])cc5)c5ccc2[nH]5)C=C4)C=C3)cc1
REMARK SMILES IDX 6 1 5 2 4 3 3 4 2 5 1 6 30 7 31 8 89 9 32 10 88 11 33 12
REMARK SMILES IDX 34 13 35 14 82 15 36 16 87 17 81 18 83 19 37 20 86 21 80 22
REMARK SMILES IDX 79 23 38 25 68 26 49 27 67 28 50 29 53 30 66 31 84 32 51 33
REMARK SMILES IDX 52 34 65 36 85 37 54 38 39 39 40 40 48 41 41 42 47 43 42 44
REMARK SMILES IDX 43 45 44 46 45 47 46 48 69 49 70 50 78 51 71 52 77 53 72 54
REMARK SMILES IDX 73 55 74 56 75 57 76 58 55 59 56 60 64 61 57 62 63 63 58 64
REMARK SMILES IDX 59 65 60 66 61 67 62 68 7 69 8 70 9 71 10 72 11 73 12 74
REMARK SMILES IDX 13 75 29 76 14 77 28 78 15 79 16 80 17 81 18 82 19 83 20 85
REMARK SMILES IDX 21 86 27 87 22 88 23 89 26 90 24 91 25 93
REMARK H PARENT 83 24 53 35 19 84 23 92
REMARK Flexibility Score: inf
ROOT
ATOM      1  O   UNL A   1      34.160  33.019  28.642  1.00  0.00    -0.374 OA
ENDROOT
BRANCH   1   2
ATOM      2  C   UNL A   1      34.781  33.587  29.796  1.00  0.00     0.202 C 
BRANCH   2   3
ATOM      3  C   UNL A   1      34.933  32.618  30.972  1.00  0.00     0.261 C 
BRANCH   3   4
ATOM      4  O   UNL A   1      36.298  32.175  31.075  1.00  0.00    -0.460 OA
BRANCH   4   5
ATOM      5  C   UNL A   1      36.780  30.911  31.111  1.00  0.00     0.338 C 
ATOM      6  O   UNL A   1      36.127  30.058  31.710  1.00  0.00    -0.246 OA
BRANCH   5   7
ATOM      7  C   UNL A   1      38.076  30.491  30.488  1.00  0.00     0.060 A 
ATOM      8  C   UNL A   1      38.370  30.560  29.126  1.00  0.00     0.016 A 
ATOM      9  C   UNL A   1      39.106  30.096  31.361  1.00  0.00     0.016 A 
ATOM     10  C   UNL A   1      39.614  30.182  28.632  1.00  0.00     0.010 A 
ATOM     11  C   UNL A   1      40.378  29.766  30.878  1.00  0.00     0.010 A 
ATOM     12  C   UNL A   1      40.630  29.795  29.504  1.00  0.00    -0.014 A 
BRANCH  12  13
ATOM     13  C   UNL A   1      41.927  29.397  28.920  1.00  0.00     0.031 A 
ATOM     14  C   UNL A   1      43.068  30.367  28.944  1.00  0.00     0.074 A 
ATOM     15  C   UNL A   1      42.097  28.123  28.516  1.00  0.00     0.049 A 
ATOM     16  N   UNL A   1      44.304  30.191  28.560  1.00  0.00    -0.248 NA
ATOM     17  C   UNL A   1      42.789  31.706  29.490  1.00  0.00     0.031 C 
ATOM     18  C   UNL A   1      41.059  27.086  28.535  1.00  0.00     0.029 A 
ATOM     19  N   UNL A   1      43.210  27.468  28.060  1.00  0.00    -0.354 N 
ATOM     20  C   UNL A   1      44.951  31.393  28.818  1.00  0.00     0.074 A 
ATOM     21  C   UNL A   1      43.970  32.298  29.374  1.00  0.00     0.031 C 
ATOM     22  C   UNL A   1      41.598  25.918  28.154  1.00  0.00     0.029 A 
ATOM     23  C   UNL A   1      43.001  26.132  27.815  1.00  0.00     0.049 A 
ATOM     24  H   UNL A   1      44.078  27.912  27.922  1.00  0.00     0.167 HD
ATOM     25  C   UNL A   1      46.250  31.710  28.608  1.00  0.00     0.031 A 
ATOM     26  C   UNL A   1      43.847  25.189  27.356  1.00  0.00     0.031 A 
ATOM     27  C   UNL A   1      47.204  30.807  28.025  1.00  0.00     0.049 A 
ATOM     28  C   UNL A   1      45.266  25.592  27.062  1.00  0.00     0.074 A 
ATOM     29  C   UNL A   1      48.519  31.048  27.669  1.00  0.00     0.029 A 
ATOM     30  N   UNL A   1      46.939  29.481  27.713  1.00  0.00    -0.354 N 
ATOM     31  N   UNL A   1      45.846  26.755  27.249  1.00  0.00    -0.248 NA
ATOM     32  C   UNL A   1      46.141  24.564  26.485  1.00  0.00     0.031 C 
ATOM     33  C   UNL A   1      49.039  29.872  27.114  1.00  0.00     0.029 A 
ATOM     34  C   UNL A   1      48.061  28.890  27.163  1.00  0.00     0.049 A 
ATOM     35  H   UNL A   1      46.078  29.027  27.863  1.00  0.00     0.167 HD
ATOM     36  C   UNL A   1      47.154  26.601  26.806  1.00  0.00     0.074 A 
ATOM     37  C   UNL A   1      47.288  25.222  26.380  1.00  0.00     0.031 C 
ATOM     38  C   UNL A   1      48.151  27.517  26.740  1.00  0.00     0.031 A 
BRANCH  25  39
ATOM     39  C   UNL A   1      46.678  33.104  28.967  1.00  0.00    -0.014 A 
ATOM     40  C   UNL A   1      47.115  33.416  30.267  1.00  0.00     0.010 A 
ATOM     41  C   UNL A   1      46.626  34.121  27.997  1.00  0.00     0.010 A 
ATOM     42  C   UNL A   1      47.457  34.729  30.601  1.00  0.00     0.020 A 
ATOM     43  C   UNL A   1      46.983  35.433  28.322  1.00  0.00     0.020 A 
ATOM     44  C   UNL A   1      47.379  35.731  29.628  1.00  0.00     0.054 A 
BRANCH  44  45
ATOM     45  S   UNL A   1      47.819  37.430  30.087  1.00  0.00     0.124 S 
ATOM     46  O   UNL A   1      47.476  38.168  28.874  1.00  0.00    -0.237 OA
ATOM     47  O   UNL A   1      46.961  37.686  31.241  1.00  0.00    -0.237 OA
ATOM     48  O   UNL A   1      49.247  37.350  30.384  1.00  0.00    -0.744 OA
ENDBRANCH  44  45
ENDBRANCH  25  39
BRANCH  26  49
ATOM     49  C   UNL A   1      43.366  23.804  27.095  1.00  0.00    -0.014 A 
ATOM     50  C   UNL A   1      43.016  23.384  25.801  1.00  0.00     0.010 A 
ATOM     51  C   UNL A   1      43.241  22.894  28.163  1.00  0.00     0.010 A 
ATOM     52  C   UNL A   1      42.523  22.091  25.583  1.00  0.00     0.020 A 
ATOM     53  C   UNL A   1      42.777  21.594  27.945  1.00  0.00     0.020 A 
ATOM     54  C   UNL A   1      42.402  21.207  26.659  1.00  0.00     0.054 A 
BRANCH  54  55
ATOM     55  S   UNL A   1      41.787  19.525  26.363  1.00  0.00     0.124 S 
ATOM     56  O   UNL A   1      42.213  18.831  27.573  1.00  0.00    -0.237 OA
ATOM     57  O   UNL A   1      40.347  19.728  26.223  1.00  0.00    -0.237 OA
ATOM     58  O   UNL A   1      42.473  19.126  25.135  1.00  0.00    -0.744 OA
ENDBRANCH  54  55
ENDBRANCH  26  49
BRANCH  38  59
ATOM     59  C   UNL A   1      49.463  27.043  26.186  1.00  0.00    -0.014 A 
ATOM     60  C   UNL A   1      49.709  27.071  24.802  1.00  0.00     0.010 A 
ATOM     61  C   UNL A   1      50.471  26.598  27.059  1.00  0.00     0.010 A 
ATOM     62  C   UNL A   1      50.931  26.627  24.295  1.00  0.00     0.020 A 
ATOM     63  C   UNL A   1      51.702  26.173  26.557  1.00  0.00     0.020 A 
ATOM     64  C   UNL A   1      51.918  26.175  25.176  1.00  0.00     0.054 A 
BRANCH  64  65
ATOM     65  S   UNL A   1      53.512  25.632  24.503  1.00  0.00     0.124 S 
ATOM     66  O   UNL A   1      53.383  25.996  23.094  1.00  0.00    -0.237 OA
ATOM     67  O   UNL A   1      54.475  26.419  25.270  1.00  0.00    -0.237 OA
ATOM     68  O   UNL A   1      53.531  24.197  24.779  1.00  0.00    -0.744 OA
ENDBRANCH  64  65
ENDBRANCH  38  59
ENDBRANCH  12  13
ENDBRANCH   5   7
ENDBRANCH   4   5
ENDBRANCH   3   4
ENDBRANCH   2   3
ENDBRANCH   1   2
BRANCH   1  69
ATOM     69  C   UNL A   1      34.957  32.081  27.905  1.00  0.00     0.202 C 
BRANCH  69  70
ATOM     70  C   UNL A   1      34.250  30.722  27.889  1.00  0.00     0.261 C 
BRANCH  70  71
ATOM     71  O   UNL A   1      33.983  30.395  26.516  1.00  0.00    -0.460 OA
BRANCH  71  72
ATOM     72  C   UNL A   1      32.699  30.025  26.284  1.00  0.00     0.338 C 
ATOM     73  O   UNL A   1      31.692  30.549  26.727  1.00  0.00    -0.246 OA
BRANCH  72  74
ATOM     74  C   UNL A   1      32.693  28.972  25.238  1.00  0.00     0.060 A 
ATOM     75  C   UNL A   1      31.516  28.231  25.056  1.00  0.00     0.017 A 
ATOM     76  C   UNL A   1      33.799  28.752  24.405  1.00  0.00     0.017 A 
ATOM     77  C   UNL A   1      31.461  27.233  24.085  1.00  0.00     0.022 A 
ATOM     78  C   UNL A   1      33.743  27.769  23.422  1.00  0.00     0.022 A 
ATOM     79  C   UNL A   1      32.586  26.990  23.292  1.00  0.00     0.082 A 
BRANCH  79  80
ATOM     80  S   UNL A   1      32.665  25.492  22.339  1.00  0.00     0.241 S 
ATOM     81  O   UNL A   1      31.403  24.794  22.484  1.00  0.00    -0.207 OA
ATOM     82  O   UNL A   1      33.230  25.809  21.052  1.00  0.00    -0.207 OA
BRANCH  80  83
ATOM     83  N   UNL A   1      33.809  24.620  23.191  1.00  0.00    -0.202 NA
ATOM     84  H   UNL A   1      34.677  25.152  23.151  1.00  0.00     0.141 HD
BRANCH  83  85
ATOM     85  C   UNL A   1      33.574  24.295  24.601  1.00  0.00     0.133 C 
ATOM     86  C   UNL A   1      34.840  24.653  25.422  1.00  0.00     0.087 C 
ATOM     87  C   UNL A   1      33.388  22.819  24.887  1.00  0.00     0.202 C 
ATOM     88  C   UNL A   1      35.269  23.352  26.114  1.00  0.00     0.264 C 
ATOM     89  N   UNL A   1      34.760  22.382  25.170  1.00  0.00    -0.331 N 
ATOM     90  C   UNL A   1      32.985  21.770  23.884  1.00  0.00     0.072 C 
ATOM     91  C   UNL A   1      34.624  20.992  25.548  1.00  0.00     0.262 C 
ATOM     92  H   UNL A   1      35.459  22.372  24.428  1.00  0.00     0.348 HD
ATOM     93  C   UNL A   1      33.626  20.500  24.482  1.00  0.00     0.068 C 
ENDBRANCH  83  85
ENDBRANCH  80  83
ENDBRANCH  79  80
ENDBRANCH  72  74
ENDBRANCH  71  72
ENDBRANCH  70  71
ENDBRANCH  69  70
ENDBRANCH   1  69
TORSDOF 20
ENDMDL
