MODEL 1
REMARK VINA RESULT:     -11.5      0.000      0.000
REMARK SMILES Cc1cc(/C=C2/C(=O)NC(=S)N=C2OCCOCCOC(=O)c2ccc(-c3c4nc(c(-c5ccc(S(=O)(=O)[O-])cc5)c5ccc([nH]5)c(-c5ccc(S(=O)(=O)[O-])cc5)c5nc(c(-c6ccc(S(=O)(=O)[O-])cc6)c6ccc3[nH]6)C=C5)C=C4)cc2)c(C)n1-c1cccc(C(=O)[O-])c1
REMARK SMILES IDX 18 1 17 2 16 3 15 4 14 5 13 6 5 7 6 8 7 9 8 10 9 11 12 12
REMARK SMILES IDX 10 13 11 15 4 16 1 17 2 18 3 19 85 20 83 21 84 22 86 23
REMARK SMILES IDX 87 24 94 25 88 26 90 27 89 28 91 29 92 30 93 31 19 32 20 33
REMARK SMILES IDX 21 34 22 35 23 36 24 37 82 38 25 39 81 40 26 41 27 42 28 43
REMARK SMILES IDX 75 44 29 45 80 46 74 47 76 48 30 49 79 50 73 51 72 52 31 54
REMARK SMILES IDX 61 55 42 56 60 57 43 58 46 59 59 60 77 61 44 62 45 63 58 65
REMARK SMILES IDX 78 66 47 67 32 68 33 69 41 70 34 71 40 72 35 73 36 74 37 75
REMARK SMILES IDX 38 76 39 77 62 78 63 79 71 80 64 81 70 82 65 83 66 84 67 85
REMARK SMILES IDX 68 86 69 87 48 88 49 89 57 90 50 91 56 92 51 93 52 94 53 95
REMARK SMILES IDX 54 96 55 97
REMARK H PARENT 9 14 76 53 46 64
REMARK Flexibility Score: inf
ROOT
ATOM      1  C   UNL A   1      37.011  23.268  25.292  1.00  0.00     0.202 C 
ENDROOT
BRANCH   1   2
ATOM      2  O   UNL A   1      36.173  23.721  24.211  1.00  0.00    -0.374 OA
BRANCH   2   3
ATOM      3  C   UNL A   1      35.380  22.833  23.425  1.00  0.00     0.202 C 
BRANCH   3   4
ATOM      4  C   UNL A   1      34.007  23.298  22.818  1.00  0.00     0.260 C 
BRANCH   4   5
ATOM      5  O   UNL A   1      32.810  22.804  23.474  1.00  0.00    -0.475 OA
BRANCH   5   6
ATOM      6  C   UNL A   1      32.933  22.024  24.561  1.00  0.00     0.229 C 
ATOM      7  C   UNL A   1      33.124  24.070  26.205  1.00  0.00     0.029 C 
ATOM      8  C   UNL A   1      33.112  22.757  25.848  1.00  0.00     0.103 C 
ATOM      9  C   UNL A   1      33.332  21.814  27.005  1.00  0.00     0.262 C 
ATOM     10  O   UNL A   1      33.496  22.167  28.169  1.00  0.00    -0.269 OA
ATOM     11  N   UNL A   1      33.326  20.482  26.698  1.00  0.00    -0.297 N 
ATOM     12  N   UNL A   1      32.903  20.745  24.412  1.00  0.00    -0.184 NA
ATOM     13  C   UNL A   1      33.100  19.924  25.473  1.00  0.00     0.203 C 
ATOM     14  H   UNL A   1      33.504  19.858  27.439  1.00  0.00     0.172 HD
ATOM     15  S   UNL A   1      33.098  18.251  25.356  1.00  0.00    -0.038 S 
BRANCH   7  16
ATOM     16  C   UNL A   1      32.969  25.335  25.520  1.00  0.00    -0.003 A 
ATOM     17  C   UNL A   1      34.170  28.278  23.512  1.00  0.00     0.065 C 
ATOM     18  C   UNL A   1      33.503  27.222  24.309  1.00  0.00     0.020 A 
ATOM     19  C   UNL A   1      34.036  26.176  25.064  1.00  0.00     0.031 A 
ATOM     20  N   UNL A   1      32.138  27.152  24.460  1.00  0.00    -0.318 N 
ATOM     21  C   UNL A   1      31.871  25.876  24.898  1.00  0.00     0.027 A 
ATOM     22  C   UNL A   1      30.603  25.294  24.483  1.00  0.00     0.065 C 
BRANCH  20  23
ATOM     23  C   UNL A   1      31.091  27.997  23.993  1.00  0.00     0.046 A 
ATOM     24  C   UNL A   1      30.584  27.749  22.703  1.00  0.00     0.026 A 
ATOM     25  C   UNL A   1      30.873  29.232  24.603  1.00  0.00     0.036 A 
ATOM     26  C   UNL A   1      29.874  28.735  22.018  1.00  0.00     0.003 A 
ATOM     27  C   UNL A   1      30.133  30.213  23.921  1.00  0.00    -0.001 A 
ATOM     28  C   UNL A   1      29.649  29.965  22.628  1.00  0.00     0.010 A 
BRANCH  27  29
ATOM     29  C   UNL A   1      29.876  31.539  24.519  1.00  0.00     0.072 C 
ATOM     30  O   UNL A   1      30.479  32.005  25.481  1.00  0.00    -0.545 OA
ATOM     31  O   UNL A   1      28.905  32.176  23.859  1.00  0.00    -0.545 OA
ENDBRANCH  27  29
ENDBRANCH  20  23
ENDBRANCH   7  16
ENDBRANCH   5   6
ENDBRANCH   4   5
ENDBRANCH   3   4
ENDBRANCH   2   3
ENDBRANCH   1   2
BRANCH   1  32
ATOM     32  C   UNL A   1      37.362  21.706  25.685  1.00  0.00     0.261 C 
BRANCH  32  33
ATOM     33  O   UNL A   1      38.529  20.752  25.332  1.00  0.00    -0.460 OA
BRANCH  33  34
ATOM     34  C   UNL A   1      39.784  20.775  26.014  1.00  0.00     0.338 C 
ATOM     35  O   UNL A   1      40.271  19.697  26.348  1.00  0.00    -0.246 OA
BRANCH  34  36
ATOM     36  C   UNL A   1      40.634  22.174  26.332  1.00  0.00     0.060 A 
ATOM     37  C   UNL A   1      41.812  22.726  25.686  1.00  0.00     0.016 A 
ATOM     38  C   UNL A   1      40.326  23.039  27.328  1.00  0.00     0.016 A 
ATOM     39  C   UNL A   1      42.627  24.137  25.979  1.00  0.00     0.010 A 
ATOM     40  C   UNL A   1      41.120  24.335  27.540  1.00  0.00     0.010 A 
ATOM     41  C   UNL A   1      42.356  25.094  26.999  1.00  0.00    -0.014 A 
BRANCH  41  42
ATOM     42  C   UNL A   1      42.625  26.996  27.025  1.00  0.00     0.031 A 
ATOM     43  C   UNL A   1      41.578  27.256  28.081  1.00  0.00     0.074 A 
ATOM     44  C   UNL A   1      43.599  28.275  26.881  1.00  0.00     0.049 A 
ATOM     45  N   UNL A   1      41.513  26.232  28.914  1.00  0.00    -0.248 NA
ATOM     46  C   UNL A   1      41.443  28.476  28.856  1.00  0.00     0.031 C 
ATOM     47  C   UNL A   1      44.962  28.497  26.195  1.00  0.00     0.029 A 
ATOM     48  N   UNL A   1      43.638  29.783  27.516  1.00  0.00    -0.354 N 
ATOM     49  C   UNL A   1      42.581  26.629  29.681  1.00  0.00     0.074 A 
ATOM     50  C   UNL A   1      42.004  27.979  29.978  1.00  0.00     0.031 C 
ATOM     51  C   UNL A   1      45.633  29.690  26.430  1.00  0.00     0.029 A 
ATOM     52  C   UNL A   1      44.955  30.680  27.308  1.00  0.00     0.049 A 
ATOM     53  H   UNL A   1      42.867  30.135  28.016  1.00  0.00     0.167 HD
ATOM     54  C   UNL A   1      43.964  26.350  29.487  1.00  0.00     0.031 A 
ATOM     55  C   UNL A   1      45.463  31.997  27.880  1.00  0.00     0.031 A 
ATOM     56  C   UNL A   1      44.683  27.178  30.333  1.00  0.00     0.049 A 
ATOM     57  C   UNL A   1      46.264  31.302  28.934  1.00  0.00     0.074 A 
ATOM     58  C   UNL A   1      44.471  27.859  31.493  1.00  0.00     0.029 A 
ATOM     59  N   UNL A   1      45.729  27.707  29.696  1.00  0.00    -0.354 N 
ATOM     60  N   UNL A   1      47.457  30.807  28.739  1.00  0.00    -0.248 NA
ATOM     61  C   UNL A   1      45.901  31.546  30.346  1.00  0.00     0.031 C 
ATOM     62  C   UNL A   1      45.456  28.843  31.449  1.00  0.00     0.029 A 
ATOM     63  C   UNL A   1      46.455  28.451  30.538  1.00  0.00     0.049 A 
ATOM     64  H   UNL A   1      45.935  27.571  28.743  1.00  0.00     0.167 HD
ATOM     65  C   UNL A   1      47.756  30.261  29.966  1.00  0.00     0.074 A 
ATOM     66  C   UNL A   1      46.999  31.047  30.934  1.00  0.00     0.031 C 
ATOM     67  C   UNL A   1      47.690  28.906  29.941  1.00  0.00     0.031 A 
BRANCH  54  68
ATOM     68  C   UNL A   1      45.015  25.424  28.419  1.00  0.00    -0.014 A 
ATOM     69  C   UNL A   1      45.804  25.905  27.322  1.00  0.00     0.010 A 
ATOM     70  C   UNL A   1      45.008  24.015  28.457  1.00  0.00     0.010 A 
ATOM     71  C   UNL A   1      46.227  25.160  26.201  1.00  0.00     0.020 A 
ATOM     72  C   UNL A   1      45.455  23.225  27.339  1.00  0.00     0.020 A 
ATOM     73  C   UNL A   1      45.949  23.820  26.171  1.00  0.00     0.054 A 
BRANCH  73  74
ATOM     74  S   UNL A   1      46.085  22.930  24.586  1.00  0.00     0.124 S 
ATOM     75  O   UNL A   1      46.507  21.599  25.026  1.00  0.00    -0.237 OA
ATOM     76  O   UNL A   1      44.735  22.979  24.028  1.00  0.00    -0.237 OA
ATOM     77  O   UNL A   1      47.096  23.688  23.858  1.00  0.00    -0.744 OA
ENDBRANCH  73  74
ENDBRANCH  54  68
BRANCH  55  78
ATOM     78  C   UNL A   1      46.440  33.522  28.139  1.00  0.00    -0.014 A 
ATOM     79  C   UNL A   1      47.728  33.921  27.699  1.00  0.00     0.010 A 
ATOM     80  C   UNL A   1      45.842  34.760  28.686  1.00  0.00     0.010 A 
ATOM     81  C   UNL A   1      48.204  35.362  27.645  1.00  0.00     0.020 A 
ATOM     82  C   UNL A   1      46.208  36.143  28.566  1.00  0.00     0.020 A 
ATOM     83  C   UNL A   1      47.399  36.462  27.994  1.00  0.00     0.054 A 
BRANCH  83  84
ATOM     84  S   UNL A   1      47.753  38.246  27.653  1.00  0.00     0.124 S 
ATOM     85  O   UNL A   1      49.204  38.343  27.778  1.00  0.00    -0.237 OA
ATOM     86  O   UNL A   1      47.223  38.437  26.306  1.00  0.00    -0.237 OA
ATOM     87  O   UNL A   1      47.006  38.955  28.696  1.00  0.00    -0.744 OA
ENDBRANCH  83  84
ENDBRANCH  55  78
BRANCH  67  88
ATOM     88  C   UNL A   1      48.480  28.259  28.768  1.00  0.00    -0.014 A 
ATOM     89  C   UNL A   1      48.902  26.928  28.923  1.00  0.00     0.010 A 
ATOM     90  C   UNL A   1      48.921  28.884  27.575  1.00  0.00     0.010 A 
ATOM     91  C   UNL A   1      49.735  26.293  27.982  1.00  0.00     0.020 A 
ATOM     92  C   UNL A   1      49.763  28.275  26.633  1.00  0.00     0.020 A 
ATOM     93  C   UNL A   1      50.174  26.975  26.848  1.00  0.00     0.054 A 
BRANCH  93  94
ATOM     94  S   UNL A   1      51.363  26.210  25.717  1.00  0.00     0.124 S 
ATOM     95  O   UNL A   1      51.548  24.878  26.291  1.00  0.00    -0.237 OA
ATOM     96  O   UNL A   1      50.646  26.245  24.446  1.00  0.00    -0.237 OA
ATOM     97  O   UNL A   1      52.535  27.077  25.815  1.00  0.00    -0.744 OA
ENDBRANCH  93  94
ENDBRANCH  67  88
ENDBRANCH  41  42
ENDBRANCH  34  36
ENDBRANCH  33  34
ENDBRANCH  32  33
ENDBRANCH   1  32
TORSDOF 19
ENDMDL
MODEL 2
REMARK VINA RESULT:     -11.1      5.481     10.491
REMARK SMILES Cc1cc(/C=C2/C(=O)NC(=S)N=C2OCCOCCOC(=O)c2ccc(-c3c4nc(c(-c5ccc(S(=O)(=O)[O-])cc5)c5ccc([nH]5)c(-c5ccc(S(=O)(=O)[O-])cc5)c5nc(c(-c6ccc(S(=O)(=O)[O-])cc6)c6ccc3[nH]6)C=C5)C=C4)cc2)c(C)n1-c1cccc(C(=O)[O-])c1
REMARK SMILES IDX 18 1 17 2 16 3 15 4 14 5 13 6 5 7 6 8 7 9 8 10 9 11 12 12
REMARK SMILES IDX 10 13 11 15 4 16 1 17 2 18 3 19 85 20 83 21 84 22 86 23
REMARK SMILES IDX 87 24 94 25 88 26 90 27 89 28 91 29 92 30 93 31 19 32 20 33
REMARK SMILES IDX 21 34 22 35 23 36 24 37 82 38 25 39 81 40 26 41 27 42 28 43
REMARK SMILES IDX 75 44 29 45 80 46 74 47 76 48 30 49 79 50 73 51 72 52 31 54
REMARK SMILES IDX 61 55 42 56 60 57 43 58 46 59 59 60 77 61 44 62 45 63 58 65
REMARK SMILES IDX 78 66 47 67 32 68 33 69 41 70 34 71 40 72 35 73 36 74 37 75
REMARK SMILES IDX 38 76 39 77 62 78 63 79 71 80 64 81 70 82 65 83 66 84 67 85
REMARK SMILES IDX 68 86 69 87 48 88 49 89 57 90 50 91 56 92 51 93 52 94 53 95
REMARK SMILES IDX 54 96 55 97
REMARK H PARENT 9 14 76 53 46 64
REMARK Flexibility Score: inf
ROOT
ATOM      1  C   UNL A   1      38.644  33.483  33.968  1.00  0.00     0.202 C 
ENDROOT
BRANCH   1   2
ATOM      2  O   UNL A   1      37.839  32.493  33.298  1.00  0.00    -0.374 OA
BRANCH   2   3
ATOM      3  C   UNL A   1      36.500  32.195  33.688  1.00  0.00     0.202 C 
BRANCH   3   4
ATOM      4  C   UNL A   1      35.277  32.772  32.886  1.00  0.00     0.260 C 
BRANCH   4   5
ATOM      5  O   UNL A   1      35.592  33.601  31.736  1.00  0.00    -0.475 OA
BRANCH   5   6
ATOM      6  C   UNL A   1      34.777  34.623  31.423  1.00  0.00     0.229 C 
ATOM      7  C   UNL A   1      34.134  33.601  29.084  1.00  0.00     0.029 C 
ATOM      8  C   UNL A   1      34.136  34.530  30.079  1.00  0.00     0.103 C 
ATOM      9  C   UNL A   1      33.310  35.752  29.766  1.00  0.00     0.262 C 
ATOM     10  O   UNL A   1      32.676  35.918  28.728  1.00  0.00    -0.269 OA
ATOM     11  N   UNL A   1      33.279  36.715  30.736  1.00  0.00    -0.297 N 
ATOM     12  N   UNL A   1      34.628  35.579  32.272  1.00  0.00    -0.184 NA
ATOM     13  C   UNL A   1      33.875  36.663  31.962  1.00  0.00     0.203 C 
ATOM     14  H   UNL A   1      32.772  37.534  30.528  1.00  0.00     0.172 HD
ATOM     15  S   UNL A   1      33.652  37.957  33.005  1.00  0.00    -0.038 S 
BRANCH   7  16
ATOM     16  C   UNL A   1      34.734  32.302  28.873  1.00  0.00    -0.003 A 
ATOM     17  C   UNL A   1      35.066  28.944  27.216  1.00  0.00     0.065 C 
ATOM     18  C   UNL A   1      35.101  30.202  27.998  1.00  0.00     0.020 A 
ATOM     19  C   UNL A   1      34.164  31.229  28.114  1.00  0.00     0.031 A 
ATOM     20  N   UNL A   1      36.145  30.534  28.829  1.00  0.00    -0.318 N 
ATOM     21  C   UNL A   1      36.030  31.886  29.058  1.00  0.00     0.027 A 
ATOM     22  C   UNL A   1      37.269  32.621  29.263  1.00  0.00     0.065 C 
BRANCH  20  23
ATOM     23  C   UNL A   1      37.335  29.834  29.179  1.00  0.00     0.046 A 
ATOM     24  C   UNL A   1      38.010  29.149  28.151  1.00  0.00     0.026 A 
ATOM     25  C   UNL A   1      37.580  29.509  30.513  1.00  0.00     0.036 A 
ATOM     26  C   UNL A   1      38.918  28.133  28.453  1.00  0.00     0.003 A 
ATOM     27  C   UNL A   1      38.516  28.505  30.813  1.00  0.00    -0.001 A 
ATOM     28  C   UNL A   1      39.170  27.813  29.783  1.00  0.00     0.010 A 
BRANCH  27  29
ATOM     29  C   UNL A   1      38.811  28.119  32.208  1.00  0.00     0.072 C 
ATOM     30  O   UNL A   1      39.840  28.405  32.814  1.00  0.00    -0.545 OA
ATOM     31  O   UNL A   1      37.798  27.426  32.733  1.00  0.00    -0.545 OA
ENDBRANCH  27  29
ENDBRANCH  20  23
ENDBRANCH   7  16
ENDBRANCH   5   6
ENDBRANCH   4   5
ENDBRANCH   3   4
ENDBRANCH   2   3
ENDBRANCH   1   2
BRANCH   1  32
ATOM     32  C   UNL A   1      38.723  33.762  35.590  1.00  0.00     0.261 C 
BRANCH  32  33
ATOM     33  O   UNL A   1      39.071  32.877  36.812  1.00  0.00    -0.460 OA
BRANCH  33  34
ATOM     34  C   UNL A   1      40.377  32.347  37.040  1.00  0.00     0.338 C 
ATOM     35  O   UNL A   1      40.808  32.367  38.191  1.00  0.00    -0.246 OA
BRANCH  34  36
ATOM     36  C   UNL A   1      41.316  31.666  35.841  1.00  0.00     0.060 A 
ATOM     37  C   UNL A   1      42.086  32.292  34.781  1.00  0.00     0.016 A 
ATOM     38  C   UNL A   1      41.480  30.333  35.671  1.00  0.00     0.016 A 
ATOM     39  C   UNL A   1      43.049  31.612  33.618  1.00  0.00     0.010 A 
ATOM     40  C   UNL A   1      42.394  29.769  34.576  1.00  0.00     0.010 A 
ATOM     41  C   UNL A   1      43.274  30.225  33.386  1.00  0.00    -0.014 A 
BRANCH  41  42
ATOM     42  C   UNL A   1      44.815  29.311  32.694  1.00  0.00     0.031 A 
ATOM     43  C   UNL A   1      44.439  27.971  33.278  1.00  0.00     0.074 A 
ATOM     44  C   UNL A   1      45.933  29.123  31.545  1.00  0.00     0.049 A 
ATOM     45  N   UNL A   1      43.124  27.849  33.318  1.00  0.00    -0.248 NA
ATOM     46  C   UNL A   1      44.999  26.690  32.887  1.00  0.00     0.031 C 
ATOM     47  C   UNL A   1      46.488  30.049  30.444  1.00  0.00     0.029 A 
ATOM     48  N   UNL A   1      46.806  27.864  30.969  1.00  0.00    -0.354 N 
ATOM     49  C   UNL A   1      42.996  27.465  32.006  1.00  0.00     0.074 A 
ATOM     50  C   UNL A   1      43.942  26.311  32.139  1.00  0.00     0.031 C 
ATOM     51  C   UNL A   1      47.322  29.502  29.479  1.00  0.00     0.029 A 
ATOM     52  C   UNL A   1      47.643  28.055  29.610  1.00  0.00     0.049 A 
ATOM     53  H   UNL A   1      46.820  27.004  31.448  1.00  0.00     0.167 HD
ATOM     54  C   UNL A   1      42.859  28.286  30.851  1.00  0.00     0.031 A 
ATOM     55  C   UNL A   1      48.388  27.124  28.664  1.00  0.00     0.031 A 
ATOM     56  C   UNL A   1      43.044  27.484  29.738  1.00  0.00     0.049 A 
ATOM     57  C   UNL A   1      47.205  26.992  27.760  1.00  0.00     0.074 A 
ATOM     58  C   UNL A   1      42.942  26.163  29.423  1.00  0.00     0.029 A 
ATOM     59  N   UNL A   1      43.828  28.091  28.845  1.00  0.00    -0.354 N 
ATOM     60  N   UNL A   1      46.893  27.856  26.831  1.00  0.00    -0.248 NA
ATOM     61  C   UNL A   1      46.603  25.650  27.607  1.00  0.00     0.031 C 
ATOM     62  C   UNL A   1      43.761  26.057  28.301  1.00  0.00     0.029 A 
ATOM     63  C   UNL A   1      43.946  27.338  27.746  1.00  0.00     0.049 A 
ATOM     64  H   UNL A   1      44.258  28.967  28.978  1.00  0.00     0.167 HD
ATOM     65  C   UNL A   1      45.740  27.322  26.305  1.00  0.00     0.074 A 
ATOM     66  C   UNL A   1      45.842  25.884  26.528  1.00  0.00     0.031 C 
ATOM     67  C   UNL A   1      44.643  28.025  26.684  1.00  0.00     0.031 A 
BRANCH  54  68
ATOM     68  C   UNL A   1      42.694  29.987  30.419  1.00  0.00    -0.014 A 
ATOM     69  C   UNL A   1      43.737  30.927  30.126  1.00  0.00     0.010 A 
ATOM     70  C   UNL A   1      41.445  30.631  30.519  1.00  0.00     0.010 A 
ATOM     71  C   UNL A   1      43.668  32.330  30.271  1.00  0.00     0.020 A 
ATOM     72  C   UNL A   1      41.339  32.062  30.644  1.00  0.00     0.020 A 
ATOM     73  C   UNL A   1      42.472  32.885  30.639  1.00  0.00     0.054 A 
BRANCH  73  74
ATOM     74  S   UNL A   1      42.453  34.603  31.249  1.00  0.00     0.124 S 
ATOM     75  O   UNL A   1      43.763  34.704  31.895  1.00  0.00    -0.237 OA
ATOM     76  O   UNL A   1      42.313  35.413  30.040  1.00  0.00    -0.237 OA
ATOM     77  O   UNL A   1      41.314  34.626  32.159  1.00  0.00    -0.744 OA
ENDBRANCH  73  74
ENDBRANCH  54  68
BRANCH  55  78
ATOM     78  C   UNL A   1      49.478  26.501  27.333  1.00  0.00    -0.014 A 
ATOM     79  C   UNL A   1      49.739  26.958  26.016  1.00  0.00     0.010 A 
ATOM     80  C   UNL A   1      50.522  25.481  27.578  1.00  0.00     0.010 A 
ATOM     81  C   UNL A   1      50.969  26.582  25.209  1.00  0.00     0.020 A 
ATOM     82  C   UNL A   1      51.746  25.171  26.896  1.00  0.00     0.020 A 
ATOM     83  C   UNL A   1      52.003  25.764  25.701  1.00  0.00     0.054 A 
BRANCH  83  84
ATOM     84  S   UNL A   1      53.675  25.519  24.946  1.00  0.00     0.124 S 
ATOM     85  O   UNL A   1      53.512  25.995  23.576  1.00  0.00    -0.237 OA
ATOM     86  O   UNL A   1      54.544  26.328  25.795  1.00  0.00    -0.237 OA
ATOM     87  O   UNL A   1      53.902  24.075  25.063  1.00  0.00    -0.744 OA
ENDBRANCH  83  84
ENDBRANCH  55  78
BRANCH  67  88
ATOM     88  C   UNL A   1      44.773  29.559  26.461  1.00  0.00    -0.014 A 
ATOM     89  C   UNL A   1      46.060  30.079  26.242  1.00  0.00     0.010 A 
ATOM     90  C   UNL A   1      43.749  30.535  26.546  1.00  0.00     0.010 A 
ATOM     91  C   UNL A   1      46.305  31.463  26.164  1.00  0.00     0.020 A 
ATOM     92  C   UNL A   1      43.973  31.918  26.484  1.00  0.00     0.020 A 
ATOM     93  C   UNL A   1      45.261  32.377  26.299  1.00  0.00     0.054 A 
BRANCH  93  94
ATOM     94  S   UNL A   1      45.596  34.155  26.347  1.00  0.00     0.124 S 
ATOM     95  O   UNL A   1      46.223  34.334  27.655  1.00  0.00    -0.237 OA
ATOM     96  O   UNL A   1      46.485  34.332  25.202  1.00  0.00    -0.237 OA
ATOM     97  O   UNL A   1      44.270  34.757  26.227  1.00  0.00    -0.744 OA
ENDBRANCH  93  94
ENDBRANCH  67  88
ENDBRANCH  41  42
ENDBRANCH  34  36
ENDBRANCH  33  34
ENDBRANCH  32  33
ENDBRANCH   1  32
TORSDOF 19
ENDMDL
MODEL 3
REMARK VINA RESULT:     -11.1      6.977     13.144
REMARK SMILES Cc1cc(/C=C2/C(=O)NC(=S)N=C2OCCOCCOC(=O)c2ccc(-c3c4nc(c(-c5ccc(S(=O)(=O)[O-])cc5)c5ccc([nH]5)c(-c5ccc(S(=O)(=O)[O-])cc5)c5nc(c(-c6ccc(S(=O)(=O)[O-])cc6)c6ccc3[nH]6)C=C5)C=C4)cc2)c(C)n1-c1cccc(C(=O)[O-])c1
REMARK SMILES IDX 18 1 17 2 16 3 15 4 14 5 13 6 5 7 6 8 7 9 8 10 9 11 12 12
REMARK SMILES IDX 10 13 11 15 4 16 1 17 2 18 3 19 85 20 83 21 84 22 86 23
REMARK SMILES IDX 87 24 94 25 88 26 90 27 89 28 91 29 92 30 93 31 19 32 20 33
REMARK SMILES IDX 21 34 22 35 23 36 24 37 82 38 25 39 81 40 26 41 27 42 28 43
REMARK SMILES IDX 75 44 29 45 80 46 74 47 76 48 30 49 79 50 73 51 72 52 31 54
REMARK SMILES IDX 61 55 42 56 60 57 43 58 46 59 59 60 77 61 44 62 45 63 58 65
REMARK SMILES IDX 78 66 47 67 32 68 33 69 41 70 34 71 40 72 35 73 36 74 37 75
REMARK SMILES IDX 38 76 39 77 62 78 63 79 71 80 64 81 70 82 65 83 66 84 67 85
REMARK SMILES IDX 68 86 69 87 48 88 49 89 57 90 50 91 56 92 51 93 52 94 53 95
REMARK SMILES IDX 54 96 55 97
REMARK H PARENT 9 14 76 53 46 64
REMARK Flexibility Score: inf
ROOT
ATOM      1  C   UNL A   1      39.586  35.284  35.720  1.00  0.00     0.202 C 
ENDROOT
BRANCH   1   2
ATOM      2  O   UNL A   1      38.953  35.410  34.431  1.00  0.00    -0.374 OA
BRANCH   2   3
ATOM      3  C   UNL A   1      38.065  34.424  33.908  1.00  0.00     0.202 C 
BRANCH   3   4
ATOM      4  C   UNL A   1      37.772  34.336  32.366  1.00  0.00     0.260 C 
BRANCH   4   5
ATOM      5  O   UNL A   1      36.722  33.421  31.958  1.00  0.00    -0.475 OA
BRANCH   5   6
ATOM      6  C   UNL A   1      35.605  33.914  31.398  1.00  0.00     0.229 C 
ATOM      7  C   UNL A   1      36.071  32.766  29.077  1.00  0.00     0.029 C 
ATOM      8  C   UNL A   1      35.402  33.550  29.965  1.00  0.00     0.103 C 
ATOM      9  C   UNL A   1      34.177  34.212  29.386  1.00  0.00     0.262 C 
ATOM     10  O   UNL A   1      33.788  34.067  28.231  1.00  0.00    -0.269 OA
ATOM     11  N   UNL A   1      33.469  35.010  30.242  1.00  0.00    -0.297 N 
ATOM     12  N   UNL A   1      34.826  34.651  32.113  1.00  0.00    -0.184 NA
ATOM     13  C   UNL A   1      33.730  35.229  31.562  1.00  0.00     0.203 C 
ATOM     14  H   UNL A   1      32.688  35.475  29.865  1.00  0.00     0.172 HD
ATOM     15  S   UNL A   1      32.683  36.218  32.421  1.00  0.00    -0.038 S 
BRANCH   7  16
ATOM     16  C   UNL A   1      37.257  31.938  29.106  1.00  0.00    -0.003 A 
ATOM     17  C   UNL A   1      40.603  30.846  30.428  1.00  0.00     0.065 C 
ATOM     18  C   UNL A   1      39.312  31.121  29.754  1.00  0.00     0.020 A 
ATOM     19  C   UNL A   1      38.457  32.221  29.836  1.00  0.00     0.031 A 
ATOM     20  N   UNL A   1      38.753  30.263  28.837  1.00  0.00    -0.318 N 
ATOM     21  C   UNL A   1      37.430  30.627  28.736  1.00  0.00     0.027 A 
ATOM     22  C   UNL A   1      36.479  29.563  28.449  1.00  0.00     0.065 C 
BRANCH  20  23
ATOM     23  C   UNL A   1      39.213  29.030  28.292  1.00  0.00     0.046 A 
ATOM     24  C   UNL A   1      39.135  27.889  29.113  1.00  0.00     0.026 A 
ATOM     25  C   UNL A   1      40.059  29.036  27.183  1.00  0.00     0.036 A 
ATOM     26  C   UNL A   1      39.909  26.762  28.836  1.00  0.00     0.003 A 
ATOM     27  C   UNL A   1      40.816  27.888  26.892  1.00  0.00    -0.001 A 
ATOM     28  C   UNL A   1      40.748  26.763  27.725  1.00  0.00     0.010 A 
BRANCH  27  29
ATOM     29  C   UNL A   1      41.730  27.842  25.732  1.00  0.00     0.072 C 
ATOM     30  O   UNL A   1      42.576  28.692  25.469  1.00  0.00    -0.545 OA
ATOM     31  O   UNL A   1      41.525  26.736  25.011  1.00  0.00    -0.545 OA
ENDBRANCH  27  29
ENDBRANCH  20  23
ENDBRANCH   7  16
ENDBRANCH   5   6
ENDBRANCH   4   5
ENDBRANCH   3   4
ENDBRANCH   2   3
ENDBRANCH   1   2
BRANCH   1  32
ATOM     32  C   UNL A   1      41.160  34.897  36.016  1.00  0.00     0.261 C 
BRANCH  32  33
ATOM     33  O   UNL A   1      42.215  35.408  37.028  1.00  0.00    -0.460 OA
BRANCH  33  34
ATOM     34  C   UNL A   1      43.345  36.192  36.641  1.00  0.00     0.338 C 
ATOM     35  O   UNL A   1      44.274  36.285  37.440  1.00  0.00    -0.246 OA
BRANCH  34  36
ATOM     36  C   UNL A   1      43.483  36.937  35.155  1.00  0.00     0.060 A 
ATOM     37  C   UNL A   1      43.598  36.367  33.825  1.00  0.00     0.016 A 
ATOM     38  C   UNL A   1      43.532  38.280  34.981  1.00  0.00     0.016 A 
ATOM     39  C   UNL A   1      43.694  37.112  32.349  1.00  0.00     0.010 A 
ATOM     40  C   UNL A   1      43.614  38.905  33.582  1.00  0.00     0.010 A 
ATOM     41  C   UNL A   1      43.741  38.512  32.091  1.00  0.00    -0.014 A 
BRANCH  41  42
ATOM     42  C   UNL A   1      43.104  39.524  30.588  1.00  0.00     0.031 A 
ATOM     43  C   UNL A   1      42.747  40.744  31.401  1.00  0.00     0.074 A 
ATOM     44  C   UNL A   1      43.179  39.903  29.021  1.00  0.00     0.049 A 
ATOM     45  N   UNL A   1      43.577  40.865  32.423  1.00  0.00    -0.248 NA
ATOM     46  C   UNL A   1      42.493  42.071  30.869  1.00  0.00     0.031 C 
ATOM     47  C   UNL A   1      43.741  39.178  27.781  1.00  0.00     0.029 A 
ATOM     48  N   UNL A   1      42.854  41.237  28.131  1.00  0.00    -0.354 N 
ATOM     49  C   UNL A   1      44.575  41.471  31.699  1.00  0.00     0.074 A 
ATOM     50  C   UNL A   1      43.695  42.579  31.210  1.00  0.00     0.031 C 
ATOM     51  C   UNL A   1      43.822  39.880  26.586  1.00  0.00     0.029 A 
ATOM     52  C   UNL A   1      43.321  41.280  26.594  1.00  0.00     0.049 A 
ATOM     53  H   UNL A   1      42.380  42.002  28.531  1.00  0.00     0.167 HD
ATOM     54  C   UNL A   1      45.624  40.862  30.953  1.00  0.00     0.031 A 
ATOM     55  C   UNL A   1      43.396  42.357  25.521  1.00  0.00     0.031 A 
ATOM     56  C   UNL A   1      46.212  41.843  30.174  1.00  0.00     0.049 A 
ATOM     57  C   UNL A   1      44.831  42.649  25.826  1.00  0.00     0.074 A 
ATOM     58  C   UNL A   1      46.337  43.200  30.190  1.00  0.00     0.029 A 
ATOM     59  N   UNL A   1      46.426  41.396  28.936  1.00  0.00    -0.354 N 
ATOM     60  N   UNL A   1      45.835  41.961  25.352  1.00  0.00    -0.248 NA
ATOM     61  C   UNL A   1      45.166  44.000  26.324  1.00  0.00     0.031 C 
ATOM     62  C   UNL A   1      46.601  43.494  28.855  1.00  0.00     0.029 A 
ATOM     63  C   UNL A   1      47.055  42.327  28.210  1.00  0.00     0.049 A 
ATOM     64  H   UNL A   1      46.159  40.508  28.604  1.00  0.00     0.167 HD
ATOM     65  C   UNL A   1      46.918  42.583  25.927  1.00  0.00     0.074 A 
ATOM     66  C   UNL A   1      46.497  43.961  26.158  1.00  0.00     0.031 C 
ATOM     67  C   UNL A   1      47.463  41.830  26.916  1.00  0.00     0.031 A 
BRANCH  54  68
ATOM     68  C   UNL A   1      46.275  39.262  30.603  1.00  0.00    -0.014 A 
ATOM     69  C   UNL A   1      45.953  38.400  29.504  1.00  0.00     0.010 A 
ATOM     70  C   UNL A   1      47.080  38.597  31.549  1.00  0.00     0.010 A 
ATOM     71  C   UNL A   1      46.068  36.993  29.477  1.00  0.00     0.020 A 
ATOM     72  C   UNL A   1      47.238  37.166  31.536  1.00  0.00     0.020 A 
ATOM     73  C   UNL A   1      46.624  36.369  30.561  1.00  0.00     0.054 A 
BRANCH  73  74
ATOM     74  S   UNL A   1      46.394  34.570  30.751  1.00  0.00     0.124 S 
ATOM     75  O   UNL A   1      45.325  34.303  29.787  1.00  0.00    -0.237 OA
ATOM     76  O   UNL A   1      47.690  34.000  30.385  1.00  0.00    -0.237 OA
ATOM     77  O   UNL A   1      46.013  34.423  32.150  1.00  0.00    -0.744 OA
ENDBRANCH  73  74
ENDBRANCH  54  68
BRANCH  55  78
ATOM     78  C   UNL A   1      43.567  43.196  23.903  1.00  0.00    -0.014 A 
ATOM     79  C   UNL A   1      44.024  44.488  23.537  1.00  0.00     0.010 A 
ATOM     80  C   UNL A   1      43.479  42.464  22.620  1.00  0.00     0.010 A 
ATOM     81  C   UNL A   1      44.497  44.864  22.144  1.00  0.00     0.020 A 
ATOM     82  C   UNL A   1      44.005  42.740  21.314  1.00  0.00     0.020 A 
ATOM     83  C   UNL A   1      44.567  43.953  21.073  1.00  0.00     0.054 A 
BRANCH  83  84
ATOM     84  S   UNL A   1      45.429  44.211  19.456  1.00  0.00     0.124 S 
ATOM     85  O   UNL A   1      45.949  45.571  19.551  1.00  0.00    -0.237 OA
ATOM     86  O   UNL A   1      46.433  43.151  19.443  1.00  0.00    -0.237 OA
ATOM     87  O   UNL A   1      44.364  44.038  18.462  1.00  0.00    -0.744 OA
ENDBRANCH  83  84
ENDBRANCH  55  78
BRANCH  67  88
ATOM     88  C   UNL A   1      47.744  40.357  26.502  1.00  0.00    -0.014 A 
ATOM     89  C   UNL A   1      48.636  39.617  27.296  1.00  0.00     0.010 A 
ATOM     90  C   UNL A   1      47.278  39.680  25.348  1.00  0.00     0.010 A 
ATOM     91  C   UNL A   1      49.062  38.324  26.936  1.00  0.00     0.020 A 
ATOM     92  C   UNL A   1      47.700  38.399  24.964  1.00  0.00     0.020 A 
ATOM     93  C   UNL A   1      48.602  37.727  25.764  1.00  0.00     0.054 A 
BRANCH  93  94
ATOM     94  S   UNL A   1      49.262  36.129  25.225  1.00  0.00     0.124 S 
ATOM     95  O   UNL A   1      50.261  35.828  26.249  1.00  0.00    -0.237 OA
ATOM     96  O   UNL A   1      48.074  35.282  25.249  1.00  0.00    -0.237 OA
ATOM     97  O   UNL A   1      49.819  36.416  23.905  1.00  0.00    -0.744 OA
ENDBRANCH  93  94
ENDBRANCH  67  88
ENDBRANCH  41  42
ENDBRANCH  34  36
ENDBRANCH  33  34
ENDBRANCH  32  33
ENDBRANCH   1  32
TORSDOF 19
ENDMDL
