MODEL 1
REMARK VINA RESULT:      -9.8      0.000      0.000
REMARK SMILES Cc1c(Br)cc(C(=O)OCCOCCOC(=O)c2ccc(-c3c4nc(c(-c5ccc(S(=O)(=O)[O-])cc5)c5ccc([nH]5)c(-c5ccc(S(=O)(=O)[O-])cc5)c5nc(c(-c6ccc(S(=O)(=O)[O-])cc6)c6ccc3[nH]6)C=C5)C=C4)cc2)c(C)c1C
REMARK SMILES IDX 13 1 12 2 11 3 10 4 9 5 7 6 8 7 6 8 1 9 2 10 3 11 80 12 4 13
REMARK SMILES IDX 5 14 78 15 81 16 79 17 14 18 15 19 16 20 17 21 18 22 19 23
REMARK SMILES IDX 77 24 20 25 76 26 21 27 22 28 23 29 70 30 24 31 75 32 69 33
REMARK SMILES IDX 71 34 25 35 74 36 68 37 67 38 26 40 56 41 37 42 55 43 38 44
REMARK SMILES IDX 41 45 54 46 72 47 39 48 40 49 53 51 73 52 42 53 27 54 28 55
REMARK SMILES IDX 36 56 29 57 35 58 30 59 31 60 32 61 33 62 34 63 57 64 58 65
REMARK SMILES IDX 66 66 59 67 65 68 60 69 61 70 62 71 63 72 64 73 43 74 44 75
REMARK SMILES IDX 52 76 45 77 51 78 46 79 47 80 48 81 49 82 50 83
REMARK H PARENT 71 39 41 50
REMARK Flexibility Score: inf
ROOT
ATOM      1  C   UNL A   1      31.876  30.168  25.925  1.00  0.00     0.202 C 
ENDROOT
BRANCH   1   2
ATOM      2  O   UNL A   1      31.432  29.270  24.905  1.00  0.00    -0.374 OA
BRANCH   2   3
ATOM      3  C   UNL A   1      32.418  28.433  24.300  1.00  0.00     0.202 C 
BRANCH   3   4
ATOM      4  C   UNL A   1      32.355  26.952  24.673  1.00  0.00     0.261 C 
BRANCH   4   5
ATOM      5  O   UNL A   1      32.126  26.144  23.509  1.00  0.00    -0.460 OA
BRANCH   5   6
ATOM      6  C   UNL A   1      33.239  25.644  22.927  1.00  0.00     0.338 C 
ATOM      7  O   UNL A   1      33.922  26.194  22.077  1.00  0.00    -0.246 OA
BRANCH   6   8
ATOM      8  C   UNL A   1      33.671  24.377  23.577  1.00  0.00     0.064 A 
ATOM      9  C   UNL A   1      35.561  20.825  25.186  1.00  0.00     0.046 C 
ATOM     10  C   UNL A   1      34.875  22.074  24.688  1.00  0.00    -0.034 A 
ATOM     11  C   UNL A   1      35.515  23.324  24.754  1.00  0.00     0.022 A 
ATOM     12  C   UNL A   1      33.555  22.007  24.151  1.00  0.00    -0.043 A 
ATOM     13  Br  UNL A   1      37.193  23.596  25.611  1.00  0.00    -0.051 Br
ATOM     14  C   UNL A   1      34.929  24.450  24.187  1.00  0.00     0.032 A 
ATOM     15  C   UNL A   1      32.943  23.169  23.590  1.00  0.00    -0.033 A 
ATOM     16  C   UNL A   1      32.794  20.696  24.141  1.00  0.00     0.045 C 
ATOM     17  C   UNL A   1      31.533  23.129  23.048  1.00  0.00     0.045 C 
ENDBRANCH   6   8
ENDBRANCH   5   6
ENDBRANCH   4   5
ENDBRANCH   3   4
ENDBRANCH   2   3
ENDBRANCH   1   2
BRANCH   1  18
ATOM     18  C   UNL A   1      33.359  30.088  26.309  1.00  0.00     0.261 C 
BRANCH  18  19
ATOM     19  O   UNL A   1      33.589  30.523  27.663  1.00  0.00    -0.460 OA
BRANCH  19  20
ATOM     20  C   UNL A   1      34.690  31.291  27.837  1.00  0.00     0.338 C 
ATOM     21  O   UNL A   1      34.735  32.509  27.941  1.00  0.00    -0.246 OA
BRANCH  20  22
ATOM     22  C   UNL A   1      35.864  30.436  28.073  1.00  0.00     0.060 A 
ATOM     23  C   UNL A   1      35.953  29.770  29.303  1.00  0.00     0.016 A 
ATOM     24  C   UNL A   1      36.915  30.387  27.156  1.00  0.00     0.016 A 
ATOM     25  C   UNL A   1      37.118  29.086  29.641  1.00  0.00     0.010 A 
ATOM     26  C   UNL A   1      38.092  29.721  27.507  1.00  0.00     0.010 A 
ATOM     27  C   UNL A   1      38.211  29.104  28.765  1.00  0.00    -0.014 A 
BRANCH  27  28
ATOM     28  C   UNL A   1      39.534  28.655  29.254  1.00  0.00     0.031 A 
ATOM     29  C   UNL A   1      40.309  29.567  30.165  1.00  0.00     0.074 A 
ATOM     30  C   UNL A   1      40.024  27.448  28.924  1.00  0.00     0.049 A 
ATOM     31  N   UNL A   1      41.494  29.396  30.690  1.00  0.00    -0.248 NA
ATOM     32  C   UNL A   1      39.661  30.836  30.538  1.00  0.00     0.031 C 
ATOM     33  C   UNL A   1      39.338  26.453  28.101  1.00  0.00     0.029 A 
ATOM     34  N   UNL A   1      41.219  26.857  29.248  1.00  0.00    -0.354 N 
ATOM     35  C   UNL A   1      41.734  30.532  31.453  1.00  0.00     0.074 A 
ATOM     36  C   UNL A   1      40.582  31.395  31.310  1.00  0.00     0.031 C 
ATOM     37  C   UNL A   1      40.130  25.374  27.978  1.00  0.00     0.029 A 
ATOM     38  C   UNL A   1      41.387  25.615  28.687  1.00  0.00     0.049 A 
ATOM     39  H   UNL A   1      41.892  27.283  29.827  1.00  0.00     0.167 HD
ATOM     40  C   UNL A   1      42.817  30.831  32.207  1.00  0.00     0.031 A 
ATOM     41  C   UNL A   1      42.441  24.776  28.725  1.00  0.00     0.031 A 
ATOM     42  C   UNL A   1      43.969  29.983  32.335  1.00  0.00     0.049 A 
ATOM     43  C   UNL A   1      43.673  25.167  29.494  1.00  0.00     0.074 A 
ATOM     44  C   UNL A   1      45.114  30.197  33.081  1.00  0.00     0.029 A 
ATOM     45  N   UNL A   1      44.127  28.762  31.696  1.00  0.00    -0.354 N 
ATOM     46  N   UNL A   1      43.887  26.247  30.206  1.00  0.00    -0.248 NA
ATOM     47  C   UNL A   1      44.807  24.231  29.460  1.00  0.00     0.031 C 
ATOM     48  C   UNL A   1      45.987  29.128  32.854  1.00  0.00     0.029 A 
ATOM     49  C   UNL A   1      45.364  28.226  32.005  1.00  0.00     0.049 A 
ATOM     50  H   UNL A   1      43.458  28.341  31.109  1.00  0.00     0.167 HD
ATOM     51  C   UNL A   1      45.175  26.118  30.713  1.00  0.00     0.074 A 
ATOM     52  C   UNL A   1      45.689  24.850  30.234  1.00  0.00     0.031 C 
ATOM     53  C   UNL A   1      45.867  26.972  31.507  1.00  0.00     0.031 A 
BRANCH  40  54
ATOM     54  C   UNL A   1      42.821  32.149  32.926  1.00  0.00    -0.014 A 
ATOM     55  C   UNL A   1      42.328  32.259  34.238  1.00  0.00     0.010 A 
ATOM     56  C   UNL A   1      43.373  33.281  32.300  1.00  0.00     0.010 A 
ATOM     57  C   UNL A   1      42.372  33.485  34.906  1.00  0.00     0.020 A 
ATOM     58  C   UNL A   1      43.435  34.505  32.972  1.00  0.00     0.020 A 
ATOM     59  C   UNL A   1      42.930  34.599  34.270  1.00  0.00     0.054 A 
BRANCH  59  60
ATOM     60  S   UNL A   1      42.994  36.169  35.175  1.00  0.00     0.124 S 
ATOM     61  O   UNL A   1      44.412  36.268  35.514  1.00  0.00    -0.237 OA
ATOM     62  O   UNL A   1      42.517  37.125  34.179  1.00  0.00    -0.237 OA
ATOM     63  O   UNL A   1      42.102  35.954  36.311  1.00  0.00    -0.744 OA
ENDBRANCH  59  60
ENDBRANCH  40  54
BRANCH  41  64
ATOM     64  C   UNL A   1      42.372  23.488  27.987  1.00  0.00    -0.014 A 
ATOM     65  C   UNL A   1      43.072  23.316  26.782  1.00  0.00     0.010 A 
ATOM     66  C   UNL A   1      41.646  22.407  28.522  1.00  0.00     0.010 A 
ATOM     67  C   UNL A   1      43.065  22.079  26.134  1.00  0.00     0.020 A 
ATOM     68  C   UNL A   1      41.651  21.163  27.886  1.00  0.00     0.020 A 
ATOM     69  C   UNL A   1      42.367  21.005  26.698  1.00  0.00     0.054 A 
BRANCH  69  70
ATOM     70  S   UNL A   1      42.449  19.389  25.879  1.00  0.00     0.124 S 
ATOM     71  O   UNL A   1      41.044  19.118  25.587  1.00  0.00    -0.237 OA
ATOM     72  O   UNL A   1      43.292  19.674  24.721  1.00  0.00    -0.237 OA
ATOM     73  O   UNL A   1      43.056  18.522  26.886  1.00  0.00    -0.744 OA
ENDBRANCH  69  70
ENDBRANCH  41  64
BRANCH  53  74
ATOM     74  C   UNL A   1      47.261  26.580  31.914  1.00  0.00    -0.014 A 
ATOM     75  C   UNL A   1      47.482  25.806  33.065  1.00  0.00     0.010 A 
ATOM     76  C   UNL A   1      48.348  26.901  31.079  1.00  0.00     0.010 A 
ATOM     77  C   UNL A   1      48.769  25.362  33.379  1.00  0.00     0.020 A 
ATOM     78  C   UNL A   1      49.632  26.442  31.379  1.00  0.00     0.020 A 
ATOM     79  C   UNL A   1      49.835  25.676  32.528  1.00  0.00     0.054 A 
BRANCH  79  80
ATOM     80  S   UNL A   1      51.484  25.039  32.937  1.00  0.00     0.124 S 
ATOM     81  O   UNL A   1      52.190  26.252  33.343  1.00  0.00    -0.237 OA
ATOM     82  O   UNL A   1      51.197  24.089  34.008  1.00  0.00    -0.237 OA
ATOM     83  O   UNL A   1      51.947  24.443  31.686  1.00  0.00    -0.744 OA
ENDBRANCH  79  80
ENDBRANCH  53  74
ENDBRANCH  27  28
ENDBRANCH  20  22
ENDBRANCH  19  20
ENDBRANCH  18  19
ENDBRANCH   1  18
TORSDOF 17
ENDMDL
MODEL 2
REMARK VINA RESULT:      -9.7      2.928      9.668
REMARK SMILES Cc1c(Br)cc(C(=O)OCCOCCOC(=O)c2ccc(-c3c4nc(c(-c5ccc(S(=O)(=O)[O-])cc5)c5ccc([nH]5)c(-c5ccc(S(=O)(=O)[O-])cc5)c5nc(c(-c6ccc(S(=O)(=O)[O-])cc6)c6ccc3[nH]6)C=C5)C=C4)cc2)c(C)c1C
REMARK SMILES IDX 13 1 12 2 11 3 10 4 9 5 7 6 8 7 6 8 1 9 2 10 3 11 80 12 4 13
REMARK SMILES IDX 5 14 78 15 81 16 79 17 14 18 15 19 16 20 17 21 18 22 19 23
REMARK SMILES IDX 77 24 20 25 76 26 21 27 22 28 23 29 70 30 24 31 75 32 69 33
REMARK SMILES IDX 71 34 25 35 74 36 68 37 67 38 26 40 56 41 37 42 55 43 38 44
REMARK SMILES IDX 41 45 54 46 72 47 39 48 40 49 53 51 73 52 42 53 27 54 28 55
REMARK SMILES IDX 36 56 29 57 35 58 30 59 31 60 32 61 33 62 34 63 57 64 58 65
REMARK SMILES IDX 66 66 59 67 65 68 60 69 61 70 62 71 63 72 64 73 43 74 44 75
REMARK SMILES IDX 52 76 45 77 51 78 46 79 47 80 48 81 49 82 50 83
REMARK H PARENT 71 39 41 50
REMARK Flexibility Score: inf
ROOT
ATOM      1  C   UNL A   1      36.341  22.526  26.042  1.00  0.00     0.202 C 
ENDROOT
BRANCH   1   2
ATOM      2  O   UNL A   1      35.215  21.773  26.501  1.00  0.00    -0.374 OA
BRANCH   2   3
ATOM      3  C   UNL A   1      34.204  22.483  27.215  1.00  0.00     0.202 C 
BRANCH   3   4
ATOM      4  C   UNL A   1      32.777  22.316  26.694  1.00  0.00     0.261 C 
BRANCH   4   5
ATOM      5  O   UNL A   1      32.403  23.431  25.871  1.00  0.00    -0.460 OA
BRANCH   5   6
ATOM      6  C   UNL A   1      31.356  24.156  26.325  1.00  0.00     0.338 C 
ATOM      7  O   UNL A   1      30.589  23.838  27.221  1.00  0.00    -0.246 OA
BRANCH   6   8
ATOM      8  C   UNL A   1      31.333  25.517  25.724  1.00  0.00     0.064 A 
ATOM      9  C   UNL A   1      31.071  29.697  24.612  1.00  0.00     0.046 C 
ATOM     10  C   UNL A   1      31.224  28.238  24.966  1.00  0.00    -0.034 A 
ATOM     11  C   UNL A   1      31.856  27.847  26.160  1.00  0.00     0.022 A 
ATOM     12  C   UNL A   1      30.736  27.226  24.086  1.00  0.00    -0.043 A 
ATOM     13  Br  UNL A   1      32.717  29.072  27.336  1.00  0.00    -0.051 Br
ATOM     14  C   UNL A   1      31.889  26.510  26.538  1.00  0.00     0.032 A 
ATOM     15  C   UNL A   1      30.792  25.850  24.465  1.00  0.00    -0.033 A 
ATOM     16  C   UNL A   1      30.126  27.598  22.749  1.00  0.00     0.045 C 
ATOM     17  C   UNL A   1      30.314  24.761  23.533  1.00  0.00     0.045 C 
ENDBRANCH   6   8
ENDBRANCH   5   6
ENDBRANCH   4   5
ENDBRANCH   3   4
ENDBRANCH   2   3
ENDBRANCH   1   2
BRANCH   1  18
ATOM     18  C   UNL A   1      37.574  21.720  25.615  1.00  0.00     0.261 C 
BRANCH  18  19
ATOM     19  O   UNL A   1      38.734  22.558  25.448  1.00  0.00    -0.460 OA
BRANCH  19  20
ATOM     20  C   UNL A   1      39.520  22.671  26.544  1.00  0.00     0.338 C 
ATOM     21  O   UNL A   1      40.251  21.816  27.024  1.00  0.00    -0.246 OA
BRANCH  20  22
ATOM     22  C   UNL A   1      39.525  24.065  27.013  1.00  0.00     0.060 A 
ATOM     23  C   UNL A   1      40.178  25.021  26.222  1.00  0.00     0.016 A 
ATOM     24  C   UNL A   1      39.008  24.406  28.264  1.00  0.00     0.016 A 
ATOM     25  C   UNL A   1      40.357  26.316  26.700  1.00  0.00     0.010 A 
ATOM     26  C   UNL A   1      39.211  25.700  28.753  1.00  0.00     0.010 A 
ATOM     27  C   UNL A   1      39.919  26.645  27.990  1.00  0.00    -0.014 A 
BRANCH  27  28
ATOM     28  C   UNL A   1      40.384  27.906  28.609  1.00  0.00     0.031 A 
ATOM     29  C   UNL A   1      41.820  28.005  29.044  1.00  0.00     0.074 A 
ATOM     30  C   UNL A   1      39.558  28.956  28.751  1.00  0.00     0.049 A 
ATOM     31  N   UNL A   1      42.438  28.995  29.632  1.00  0.00    -0.248 NA
ATOM     32  C   UNL A   1      42.674  26.834  28.777  1.00  0.00     0.031 C 
ATOM     33  C   UNL A   1      38.165  29.002  28.311  1.00  0.00     0.029 A 
ATOM     34  N   UNL A   1      39.779  30.190  29.309  1.00  0.00    -0.354 N 
ATOM     35  C   UNL A   1      43.750  28.570  29.805  1.00  0.00     0.074 A 
ATOM     36  C   UNL A   1      43.836  27.226  29.279  1.00  0.00     0.031 C 
ATOM     37  C   UNL A   1      37.651  30.205  28.624  1.00  0.00     0.029 A 
ATOM     38  C   UNL A   1      38.669  30.999  29.311  1.00  0.00     0.049 A 
ATOM     39  H   UNL A   1      40.650  30.469  29.674  1.00  0.00     0.167 HD
ATOM     40  C   UNL A   1      44.790  29.240  30.354  1.00  0.00     0.031 A 
ATOM     41  C   UNL A   1      38.490  32.232  29.825  1.00  0.00     0.031 A 
ATOM     42  C   UNL A   1      44.700  30.568  30.893  1.00  0.00     0.049 A 
ATOM     43  C   UNL A   1      39.635  32.923  30.513  1.00  0.00     0.074 A 
ATOM     44  C   UNL A   1      45.701  31.331  31.465  1.00  0.00     0.029 A 
ATOM     45  N   UNL A   1      43.540  31.326  30.935  1.00  0.00    -0.354 N 
ATOM     46  N   UNL A   1      40.867  32.506  30.673  1.00  0.00    -0.248 NA
ATOM     47  C   UNL A   1      39.364  34.247  31.093  1.00  0.00     0.031 C 
ATOM     48  C   UNL A   1      45.136  32.535  31.899  1.00  0.00     0.029 A 
ATOM     49  C   UNL A   1      43.793  32.538  31.552  1.00  0.00     0.049 A 
ATOM     50  H   UNL A   1      42.667  31.044  30.580  1.00  0.00     0.167 HD
ATOM     51  C   UNL A   1      41.523  33.519  31.365  1.00  0.00     0.074 A 
ATOM     52  C   UNL A   1      40.553  34.573  31.584  1.00  0.00     0.031 C 
ATOM     53  C   UNL A   1      42.814  33.569  31.778  1.00  0.00     0.031 A 
BRANCH  40  54
ATOM     54  C   UNL A   1      46.111  28.529  30.428  1.00  0.00    -0.014 A 
ATOM     55  C   UNL A   1      46.447  27.740  31.542  1.00  0.00     0.010 A 
ATOM     56  C   UNL A   1      47.005  28.610  29.346  1.00  0.00     0.010 A 
ATOM     57  C   UNL A   1      47.664  27.057  31.579  1.00  0.00     0.020 A 
ATOM     58  C   UNL A   1      48.216  27.913  29.371  1.00  0.00     0.020 A 
ATOM     59  C   UNL A   1      48.539  27.144  30.491  1.00  0.00     0.054 A 
BRANCH  59  60
ATOM     60  S   UNL A   1      50.100  26.224  30.560  1.00  0.00     0.124 S 
ATOM     61  O   UNL A   1      50.050  25.444  29.326  1.00  0.00    -0.237 OA
ATOM     62  O   UNL A   1      51.094  27.294  30.589  1.00  0.00    -0.237 OA
ATOM     63  O   UNL A   1      49.990  25.441  31.789  1.00  0.00    -0.744 OA
ENDBRANCH  59  60
ENDBRANCH  40  54
BRANCH  41  64
ATOM     64  C   UNL A   1      37.155  32.875  29.719  1.00  0.00    -0.014 A 
ATOM     65  C   UNL A   1      36.445  33.243  30.874  1.00  0.00     0.010 A 
ATOM     66  C   UNL A   1      36.615  33.175  28.454  1.00  0.00     0.010 A 
ATOM     67  C   UNL A   1      35.226  33.917  30.766  1.00  0.00     0.020 A 
ATOM     68  C   UNL A   1      35.404  33.864  28.343  1.00  0.00     0.020 A 
ATOM     69  C   UNL A   1      34.721  34.237  29.501  1.00  0.00     0.054 A 
BRANCH  69  70
ATOM     70  S   UNL A   1      33.180  35.189  29.397  1.00  0.00     0.124 S 
ATOM     71  O   UNL A   1      33.667  36.534  29.105  1.00  0.00    -0.237 OA
ATOM     72  O   UNL A   1      32.479  34.519  28.305  1.00  0.00    -0.237 OA
ATOM     73  O   UNL A   1      32.577  35.016  30.717  1.00  0.00    -0.744 OA
ENDBRANCH  69  70
ENDBRANCH  41  64
BRANCH  53  74
ATOM     74  C   UNL A   1      43.267  34.800  32.515  1.00  0.00    -0.014 A 
ATOM     75  C   UNL A   1      43.838  35.881  31.823  1.00  0.00     0.010 A 
ATOM     76  C   UNL A   1      43.023  34.915  33.896  1.00  0.00     0.010 A 
ATOM     77  C   UNL A   1      44.164  37.058  32.503  1.00  0.00     0.020 A 
ATOM     78  C   UNL A   1      43.328  36.098  34.574  1.00  0.00     0.020 A 
ATOM     79  C   UNL A   1      43.898  37.162  33.872  1.00  0.00     0.054 A 
BRANCH  79  80
ATOM     80  S   UNL A   1      44.283  38.723  34.712  1.00  0.00     0.124 S 
ATOM     81  O   UNL A   1      43.943  38.418  36.100  1.00  0.00    -0.237 OA
ATOM     82  O   UNL A   1      45.707  38.885  34.435  1.00  0.00    -0.237 OA
ATOM     83  O   UNL A   1      43.409  39.695  34.060  1.00  0.00    -0.744 OA
ENDBRANCH  79  80
ENDBRANCH  53  74
ENDBRANCH  27  28
ENDBRANCH  20  22
ENDBRANCH  19  20
ENDBRANCH  18  19
ENDBRANCH   1  18
TORSDOF 17
ENDMDL
MODEL 3
REMARK VINA RESULT:      -9.6      2.125      2.677
REMARK SMILES Cc1c(Br)cc(C(=O)OCCOCCOC(=O)c2ccc(-c3c4nc(c(-c5ccc(S(=O)(=O)[O-])cc5)c5ccc([nH]5)c(-c5ccc(S(=O)(=O)[O-])cc5)c5nc(c(-c6ccc(S(=O)(=O)[O-])cc6)c6ccc3[nH]6)C=C5)C=C4)cc2)c(C)c1C
REMARK SMILES IDX 13 1 12 2 11 3 10 4 9 5 7 6 8 7 6 8 1 9 2 10 3 11 80 12 4 13
REMARK SMILES IDX 5 14 78 15 81 16 79 17 14 18 15 19 16 20 17 21 18 22 19 23
REMARK SMILES IDX 77 24 20 25 76 26 21 27 22 28 23 29 70 30 24 31 75 32 69 33
REMARK SMILES IDX 71 34 25 35 74 36 68 37 67 38 26 40 56 41 37 42 55 43 38 44
REMARK SMILES IDX 41 45 54 46 72 47 39 48 40 49 53 51 73 52 42 53 27 54 28 55
REMARK SMILES IDX 36 56 29 57 35 58 30 59 31 60 32 61 33 62 34 63 57 64 58 65
REMARK SMILES IDX 66 66 59 67 65 68 60 69 61 70 62 71 63 72 64 73 43 74 44 75
REMARK SMILES IDX 52 76 45 77 51 78 46 79 47 80 48 81 49 82 50 83
REMARK H PARENT 71 39 41 50
REMARK Flexibility Score: inf
ROOT
ATOM      1  C   UNL A   1      31.838  29.509  25.940  1.00  0.00     0.202 C 
ENDROOT
BRANCH   1   2
ATOM      2  O   UNL A   1      31.797  29.523  24.511  1.00  0.00    -0.374 OA
BRANCH   2   3
ATOM      3  C   UNL A   1      31.737  28.259  23.849  1.00  0.00     0.202 C 
BRANCH   3   4
ATOM      4  C   UNL A   1      31.167  27.103  24.670  1.00  0.00     0.261 C 
BRANCH   4   5
ATOM      5  O   UNL A   1      32.096  26.010  24.721  1.00  0.00    -0.460 OA
BRANCH   5   6
ATOM      6  C   UNL A   1      32.106  25.315  25.880  1.00  0.00     0.338 C 
ATOM      7  O   UNL A   1      31.436  25.553  26.873  1.00  0.00    -0.246 OA
BRANCH   6   8
ATOM      8  C   UNL A   1      32.917  24.073  25.765  1.00  0.00     0.064 A 
ATOM      9  C   UNL A   1      35.684  20.829  24.990  1.00  0.00     0.046 C 
ATOM     10  C   UNL A   1      34.724  21.944  25.328  1.00  0.00    -0.034 A 
ATOM     11  C   UNL A   1      35.192  23.241  25.601  1.00  0.00     0.022 A 
ATOM     12  C   UNL A   1      33.320  21.695  25.387  1.00  0.00    -0.043 A 
ATOM     13  Br  UNL A   1      37.040  23.678  25.744  1.00  0.00    -0.051 Br
ATOM     14  C   UNL A   1      34.299  24.289  25.795  1.00  0.00     0.032 A 
ATOM     15  C   UNL A   1      32.404  22.768  25.609  1.00  0.00    -0.033 A 
ATOM     16  C   UNL A   1      32.778  20.294  25.185  1.00  0.00     0.045 C 
ATOM     17  C   UNL A   1      30.917  22.521  25.709  1.00  0.00     0.045 C 
ENDBRANCH   6   8
ENDBRANCH   5   6
ENDBRANCH   4   5
ENDBRANCH   3   4
ENDBRANCH   2   3
ENDBRANCH   1   2
BRANCH   1  18
ATOM     18  C   UNL A   1      32.232  30.824  26.624  1.00  0.00     0.261 C 
BRANCH  18  19
ATOM     19  O   UNL A   1      33.252  30.628  27.623  1.00  0.00    -0.460 OA
BRANCH  19  20
ATOM     20  C   UNL A   1      34.117  31.659  27.767  1.00  0.00     0.338 C 
ATOM     21  O   UNL A   1      33.847  32.851  27.820  1.00  0.00    -0.246 OA
BRANCH  20  22
ATOM     22  C   UNL A   1      35.467  31.143  28.041  1.00  0.00     0.060 A 
ATOM     23  C   UNL A   1      35.617  29.761  28.221  1.00  0.00     0.016 A 
ATOM     24  C   UNL A   1      36.543  32.010  28.240  1.00  0.00     0.016 A 
ATOM     25  C   UNL A   1      36.837  29.243  28.647  1.00  0.00     0.010 A 
ATOM     26  C   UNL A   1      37.759  31.491  28.692  1.00  0.00     0.010 A 
ATOM     27  C   UNL A   1      37.897  30.113  28.934  1.00  0.00    -0.014 A 
BRANCH  27  28
ATOM     28  C   UNL A   1      39.070  29.600  29.677  1.00  0.00     0.031 A 
ATOM     29  C   UNL A   1      39.428  30.247  30.987  1.00  0.00     0.074 A 
ATOM     30  C   UNL A   1      39.782  28.558  29.217  1.00  0.00     0.049 A 
ATOM     31  N   UNL A   1      40.424  29.984  31.792  1.00  0.00    -0.248 NA
ATOM     32  C   UNL A   1      38.544  31.329  31.453  1.00  0.00     0.031 C 
ATOM     33  C   UNL A   1      39.495  27.810  27.995  1.00  0.00     0.029 A 
ATOM     34  N   UNL A   1      40.899  27.950  29.733  1.00  0.00    -0.354 N 
ATOM     35  C   UNL A   1      40.288  30.866  32.857  1.00  0.00     0.074 A 
ATOM     36  C   UNL A   1      39.126  31.684  32.590  1.00  0.00     0.031 C 
ATOM     37  C   UNL A   1      40.419  26.844  27.850  1.00  0.00     0.029 A 
ATOM     38  C   UNL A   1      41.377  26.927  28.952  1.00  0.00     0.049 A 
ATOM     39  H   UNL A   1      41.318  28.222  30.581  1.00  0.00     0.167 HD
ATOM     40  C   UNL A   1      41.062  30.984  33.961  1.00  0.00     0.031 A 
ATOM     41  C   UNL A   1      42.474  26.157  29.099  1.00  0.00     0.031 A 
ATOM     42  C   UNL A   1      42.226  30.183  34.218  1.00  0.00     0.049 A 
ATOM     43  C   UNL A   1      43.373  26.366  30.287  1.00  0.00     0.074 A 
ATOM     44  C   UNL A   1      43.072  30.225  35.312  1.00  0.00     0.029 A 
ATOM     45  N   UNL A   1      42.715  29.203  33.369  1.00  0.00    -0.354 N 
ATOM     46  N   UNL A   1      43.234  27.207  31.283  1.00  0.00    -0.248 NA
ATOM     47  C   UNL A   1      44.578  25.526  30.368  1.00  0.00     0.031 C 
ATOM     48  C   UNL A   1      44.101  29.303  35.101  1.00  0.00     0.029 A 
ATOM     49  C   UNL A   1      43.868  28.653  33.898  1.00  0.00     0.049 A 
ATOM     50  H   UNL A   1      42.302  28.937  32.515  1.00  0.00     0.167 HD
ATOM     51  C   UNL A   1      44.329  26.993  32.114  1.00  0.00     0.074 A 
ATOM     52  C   UNL A   1      45.115  25.936  31.510  1.00  0.00     0.031 C 
ATOM     53  C   UNL A   1      44.649  27.615  33.276  1.00  0.00     0.031 A 
BRANCH  40  54
ATOM     54  C   UNL A   1      40.691  32.042  34.959  1.00  0.00    -0.014 A 
ATOM     55  C   UNL A   1      39.716  31.800  35.942  1.00  0.00     0.010 A 
ATOM     56  C   UNL A   1      41.366  33.276  34.947  1.00  0.00     0.010 A 
ATOM     57  C   UNL A   1      39.409  32.782  36.886  1.00  0.00     0.020 A 
ATOM     58  C   UNL A   1      41.074  34.254  35.901  1.00  0.00     0.020 A 
ATOM     59  C   UNL A   1      40.093  34.002  36.863  1.00  0.00     0.054 A 
BRANCH  59  60
ATOM     60  S   UNL A   1      39.688  35.246  38.118  1.00  0.00     0.124 S 
ATOM     61  O   UNL A   1      40.929  35.320  38.886  1.00  0.00    -0.237 OA
ATOM     62  O   UNL A   1      39.379  36.420  37.307  1.00  0.00    -0.237 OA
ATOM     63  O   UNL A   1      38.554  34.665  38.832  1.00  0.00    -0.744 OA
ENDBRANCH  59  60
ENDBRANCH  40  54
BRANCH  41  64
ATOM     64  C   UNL A   1      42.784  25.130  28.071  1.00  0.00    -0.014 A 
ATOM     65  C   UNL A   1      43.513  25.469  26.919  1.00  0.00     0.010 A 
ATOM     66  C   UNL A   1      42.397  23.792  28.272  1.00  0.00     0.010 A 
ATOM     67  C   UNL A   1      43.866  24.484  25.994  1.00  0.00     0.020 A 
ATOM     68  C   UNL A   1      42.764  22.800  27.358  1.00  0.00     0.020 A 
ATOM     69  C   UNL A   1      43.504  23.152  26.228  1.00  0.00     0.054 A 
BRANCH  69  70
ATOM     70  S   UNL A   1      44.053  21.884  25.054  1.00  0.00     0.124 S 
ATOM     71  O   UNL A   1      45.462  21.728  25.403  1.00  0.00    -0.237 OA
ATOM     72  O   UNL A   1      43.189  20.756  25.393  1.00  0.00    -0.237 OA
ATOM     73  O   UNL A   1      43.797  22.488  23.748  1.00  0.00    -0.744 OA
ENDBRANCH  69  70
ENDBRANCH  41  64
BRANCH  53  74
ATOM     74  C   UNL A   1      45.905  27.182  33.981  1.00  0.00    -0.014 A 
ATOM     75  C   UNL A   1      47.118  27.856  33.766  1.00  0.00     0.010 A 
ATOM     76  C   UNL A   1      45.845  26.160  34.946  1.00  0.00     0.010 A 
ATOM     77  C   UNL A   1      48.255  27.510  34.501  1.00  0.00     0.020 A 
ATOM     78  C   UNL A   1      46.974  25.825  35.697  1.00  0.00     0.020 A 
ATOM     79  C   UNL A   1      48.173  26.503  35.469  1.00  0.00     0.054 A 
BRANCH  79  80
ATOM     80  S   UNL A   1      49.654  26.116  36.443  1.00  0.00     0.124 S 
ATOM     81  O   UNL A   1      49.113  26.004  37.795  1.00  0.00    -0.237 OA
ATOM     82  O   UNL A   1      50.107  24.864  35.841  1.00  0.00    -0.237 OA
ATOM     83  O   UNL A   1      50.529  27.264  36.219  1.00  0.00    -0.744 OA
ENDBRANCH  79  80
ENDBRANCH  53  74
ENDBRANCH  27  28
ENDBRANCH  20  22
ENDBRANCH  19  20
ENDBRANCH  18  19
ENDBRANCH   1  18
TORSDOF 17
ENDMDL
