MODEL 1
REMARK VINA RESULT:     -11.0      0.000      0.000
REMARK SMILES Cc1cc(C(=O)N[C@H](CC(C)C)C(=O)OCCOCCOC(=O)c2ccc(-c3c4nc(c(-c5ccc(S(=O)(=O)[O-])cc5)c5ccc([nH]5)c(-c5ccc(S(=O)(=O)[O-])cc5)c5nc(c(-c6ccc(S(=O)(=O)[O-])cc6)c6ccc3[nH]6)C=C5)C=C4)cc2)sc1Br
REMARK SMILES IDX 19 1 18 2 17 3 16 4 15 5 13 6 14 7 8 8 7 9 5 10 6 11 4 13
REMARK SMILES IDX 1 14 2 15 3 16 85 17 84 18 86 19 9 20 10 21 11 22 12 23
REMARK SMILES IDX 20 24 21 25 22 26 23 27 24 28 25 29 83 30 26 31 82 32 27 33
REMARK SMILES IDX 28 34 29 35 76 36 30 37 81 38 75 39 77 40 31 41 80 42 74 43
REMARK SMILES IDX 73 44 32 46 62 47 43 48 61 49 44 50 47 51 60 52 78 53 45 54
REMARK SMILES IDX 46 55 59 57 79 58 48 59 33 60 34 61 42 62 35 63 41 64 36 65
REMARK SMILES IDX 37 66 38 67 39 68 40 69 63 70 64 71 72 72 65 73 71 74 66 75
REMARK SMILES IDX 67 76 68 77 69 78 70 79 49 80 50 81 58 82 51 83 57 84 52 85
REMARK SMILES IDX 53 86 54 87 55 88 56 89
REMARK H PARENT 7 12 77 45 47 56
REMARK Flexibility Score: inf
ROOT
ATOM      1  C   UNL A   1      37.373  21.368  24.866  1.00  0.00     0.202 C 
ENDROOT
BRANCH   1   2
ATOM      2  O   UNL A   1      36.609  20.168  24.818  1.00  0.00    -0.374 OA
BRANCH   2   3
ATOM      3  C   UNL A   1      35.182  20.262  24.861  1.00  0.00     0.202 C 
BRANCH   3   4
ATOM      4  C   UNL A   1      34.610  20.956  26.095  1.00  0.00     0.261 C 
BRANCH   4   5
ATOM      5  O   UNL A   1      33.285  20.458  26.354  1.00  0.00    -0.462 OA
BRANCH   5   6
ATOM      6  C   UNL A   1      32.394  20.566  25.340  1.00  0.00     0.328 C 
ATOM      7  O   UNL A   1      31.985  19.627  24.666  1.00  0.00    -0.250 OA
BRANCH   6   8
ATOM      8  C   UNL A   1      31.942  22.016  25.081  1.00  0.00     0.192 C 
BRANCH   8   9
ATOM      9  N   UNL A   1      30.840  22.290  26.005  1.00  0.00    -0.338 N 
ATOM     10  C   UNL A   1      30.426  23.391  26.709  1.00  0.00     0.262 C 
ATOM     11  O   UNL A   1      29.525  23.184  27.526  1.00  0.00    -0.268 OA
ATOM     12  H   UNL A   1      30.266  21.504  26.155  1.00  0.00     0.164 HD
BRANCH  10  13
ATOM     13  C   UNL A   1      30.967  24.706  26.435  1.00  0.00     0.093 A 
ATOM     14  C   UNL A   1      33.786  27.030  25.618  1.00  0.00     0.046 C 
ATOM     15  C   UNL A   1      32.433  26.448  25.868  1.00  0.00    -0.025 A 
ATOM     16  C   UNL A   1      32.206  25.274  26.673  1.00  0.00     0.030 A 
ATOM     17  C   UNL A   1      31.231  26.899  25.368  1.00  0.00     0.074 A 
ATOM     18  S   UNL A   1      29.936  25.851  25.671  1.00  0.00    -0.123 S 
ATOM     19  Br  UNL A   1      30.998  28.489  24.397  1.00  0.00    -0.039 Br
ENDBRANCH  10  13
ENDBRANCH   8   9
BRANCH   8  20
ATOM     20  C   UNL A   1      31.801  22.446  23.610  1.00  0.00     0.040 C 
BRANCH  20  21
ATOM     21  C   UNL A   1      32.639  23.558  22.970  1.00  0.00    -0.015 C 
ATOM     22  C   UNL A   1      33.444  23.157  21.746  1.00  0.00     0.007 C 
ATOM     23  C   UNL A   1      31.674  24.697  22.582  1.00  0.00     0.007 C 
ENDBRANCH  20  21
ENDBRANCH   8  20
ENDBRANCH   6   8
ENDBRANCH   5   6
ENDBRANCH   4   5
ENDBRANCH   3   4
ENDBRANCH   2   3
ENDBRANCH   1   2
BRANCH   1  24
ATOM     24  C   UNL A   1      38.717  21.294  25.579  1.00  0.00     0.261 C 
BRANCH  24  25
ATOM     25  O   UNL A   1      38.991  22.491  26.294  1.00  0.00    -0.460 OA
BRANCH  25  26
ATOM     26  C   UNL A   1      40.068  22.459  27.122  1.00  0.00     0.338 C 
ATOM     27  O   UNL A   1      40.489  21.512  27.744  1.00  0.00    -0.246 OA
BRANCH  26  28
ATOM     28  C   UNL A   1      40.586  23.835  27.218  1.00  0.00     0.060 A 
ATOM     29  C   UNL A   1      41.766  24.058  27.920  1.00  0.00     0.016 A 
ATOM     30  C   UNL A   1      39.762  24.896  26.828  1.00  0.00     0.016 A 
ATOM     31  C   UNL A   1      41.977  25.319  28.442  1.00  0.00     0.010 A 
ATOM     32  C   UNL A   1      39.982  26.154  27.313  1.00  0.00     0.010 A 
ATOM     33  C   UNL A   1      41.013  26.312  28.221  1.00  0.00    -0.014 A 
BRANCH  33  34
ATOM     34  C   UNL A   1      41.110  27.582  28.899  1.00  0.00     0.031 A 
ATOM     35  C   UNL A   1      42.209  28.399  28.359  1.00  0.00     0.074 A 
ATOM     36  C   UNL A   1      40.203  27.997  29.806  1.00  0.00     0.049 A 
ATOM     37  N   UNL A   1      43.395  28.512  28.857  1.00  0.00    -0.248 NA
ATOM     38  C   UNL A   1      42.077  28.920  26.988  1.00  0.00     0.031 C 
ATOM     39  C   UNL A   1      38.923  27.386  30.180  1.00  0.00     0.029 A 
ATOM     40  N   UNL A   1      40.209  29.136  30.541  1.00  0.00    -0.354 N 
ATOM     41  C   UNL A   1      44.063  29.362  27.993  1.00  0.00     0.074 A 
ATOM     42  C   UNL A   1      43.323  29.338  26.758  1.00  0.00     0.031 C 
ATOM     43  C   UNL A   1      38.188  28.277  30.889  1.00  0.00     0.029 A 
ATOM     44  C   UNL A   1      38.997  29.459  31.142  1.00  0.00     0.049 A 
ATOM     45  H   UNL A   1      41.014  29.695  30.644  1.00  0.00     0.167 HD
ATOM     46  C   UNL A   1      44.950  30.277  28.471  1.00  0.00     0.031 A 
ATOM     47  C   UNL A   1      38.689  30.634  31.756  1.00  0.00     0.031 A 
ATOM     48  C   UNL A   1      45.299  29.998  29.844  1.00  0.00     0.049 A 
ATOM     49  C   UNL A   1      39.980  31.292  32.093  1.00  0.00     0.074 A 
ATOM     50  C   UNL A   1      45.876  28.929  30.501  1.00  0.00     0.029 A 
ATOM     51  N   UNL A   1      44.644  30.736  30.805  1.00  0.00    -0.354 N 
ATOM     52  N   UNL A   1      40.822  30.800  32.960  1.00  0.00    -0.248 NA
ATOM     53  C   UNL A   1      40.561  32.191  31.106  1.00  0.00     0.031 C 
ATOM     54  C   UNL A   1      45.167  28.829  31.734  1.00  0.00     0.029 A 
ATOM     55  C   UNL A   1      44.258  29.888  31.811  1.00  0.00     0.049 A 
ATOM     56  H   UNL A   1      44.480  31.705  30.773  1.00  0.00     0.167 HD
ATOM     57  C   UNL A   1      42.073  30.961  32.376  1.00  0.00     0.074 A 
ATOM     58  C   UNL A   1      41.855  31.898  31.273  1.00  0.00     0.031 C 
ATOM     59  C   UNL A   1      43.096  30.098  32.652  1.00  0.00     0.031 A 
BRANCH  46  60
ATOM     60  C   UNL A   1      45.116  31.648  27.867  1.00  0.00    -0.014 A 
ATOM     61  C   UNL A   1      46.381  32.261  27.938  1.00  0.00     0.010 A 
ATOM     62  C   UNL A   1      44.031  32.463  27.482  1.00  0.00     0.010 A 
ATOM     63  C   UNL A   1      46.535  33.632  27.704  1.00  0.00     0.020 A 
ATOM     64  C   UNL A   1      44.179  33.820  27.202  1.00  0.00     0.020 A 
ATOM     65  C   UNL A   1      45.428  34.403  27.347  1.00  0.00     0.054 A 
BRANCH  65  66
ATOM     66  S   UNL A   1      45.620  36.186  27.130  1.00  0.00     0.124 S 
ATOM     67  O   UNL A   1      46.496  36.253  25.965  1.00  0.00    -0.237 OA
ATOM     68  O   UNL A   1      44.241  36.617  26.918  1.00  0.00    -0.237 OA
ATOM     69  O   UNL A   1      46.217  36.620  28.391  1.00  0.00    -0.744 OA
ENDBRANCH  65  66
ENDBRANCH  46  60
BRANCH  47  70
ATOM     70  C   UNL A   1      37.395  31.370  31.745  1.00  0.00    -0.014 A 
ATOM     71  C   UNL A   1      36.604  31.507  32.904  1.00  0.00     0.010 A 
ATOM     72  C   UNL A   1      37.074  32.192  30.644  1.00  0.00     0.010 A 
ATOM     73  C   UNL A   1      35.563  32.456  32.973  1.00  0.00     0.020 A 
ATOM     74  C   UNL A   1      36.040  33.138  30.704  1.00  0.00     0.020 A 
ATOM     75  C   UNL A   1      35.299  33.279  31.874  1.00  0.00     0.054 A 
BRANCH  75  76
ATOM     76  S   UNL A   1      34.056  34.603  32.011  1.00  0.00     0.124 S 
ATOM     77  O   UNL A   1      34.853  35.730  32.485  1.00  0.00    -0.237 OA
ATOM     78  O   UNL A   1      33.555  34.715  30.644  1.00  0.00    -0.237 OA
ATOM     79  O   UNL A   1      33.096  34.075  32.979  1.00  0.00    -0.744 OA
ENDBRANCH  75  76
ENDBRANCH  47  70
BRANCH  59  80
ATOM     80  C   UNL A   1      42.940  29.149  33.822  1.00  0.00    -0.014 A 
ATOM     81  C   UNL A   1      43.142  29.503  35.171  1.00  0.00     0.010 A 
ATOM     82  C   UNL A   1      42.414  27.877  33.538  1.00  0.00     0.010 A 
ATOM     83  C   UNL A   1      42.850  28.594  36.202  1.00  0.00     0.020 A 
ATOM     84  C   UNL A   1      42.104  26.977  34.557  1.00  0.00     0.020 A 
ATOM     85  C   UNL A   1      42.333  27.333  35.887  1.00  0.00     0.054 A 
BRANCH  85  86
ATOM     86  S   UNL A   1      41.927  26.165  37.215  1.00  0.00     0.124 S 
ATOM     87  O   UNL A   1      40.589  26.592  37.615  1.00  0.00    -0.237 OA
ATOM     88  O   UNL A   1      42.000  24.869  36.542  1.00  0.00    -0.237 OA
ATOM     89  O   UNL A   1      42.972  26.393  38.212  1.00  0.00    -0.744 OA
ENDBRANCH  85  86
ENDBRANCH  59  80
ENDBRANCH  33  34
ENDBRANCH  26  28
ENDBRANCH  25  26
ENDBRANCH  24  25
ENDBRANCH   1  24
TORSDOF 21
ENDMDL
MODEL 2
REMARK VINA RESULT:     -10.8      3.236      9.591
REMARK SMILES Cc1cc(C(=O)N[C@H](CC(C)C)C(=O)OCCOCCOC(=O)c2ccc(-c3c4nc(c(-c5ccc(S(=O)(=O)[O-])cc5)c5ccc([nH]5)c(-c5ccc(S(=O)(=O)[O-])cc5)c5nc(c(-c6ccc(S(=O)(=O)[O-])cc6)c6ccc3[nH]6)C=C5)C=C4)cc2)sc1Br
REMARK SMILES IDX 19 1 18 2 17 3 16 4 15 5 13 6 14 7 8 8 7 9 5 10 6 11 4 13
REMARK SMILES IDX 1 14 2 15 3 16 85 17 84 18 86 19 9 20 10 21 11 22 12 23
REMARK SMILES IDX 20 24 21 25 22 26 23 27 24 28 25 29 83 30 26 31 82 32 27 33
REMARK SMILES IDX 28 34 29 35 76 36 30 37 81 38 75 39 77 40 31 41 80 42 74 43
REMARK SMILES IDX 73 44 32 46 62 47 43 48 61 49 44 50 47 51 60 52 78 53 45 54
REMARK SMILES IDX 46 55 59 57 79 58 48 59 33 60 34 61 42 62 35 63 41 64 36 65
REMARK SMILES IDX 37 66 38 67 39 68 40 69 63 70 64 71 72 72 65 73 71 74 66 75
REMARK SMILES IDX 67 76 68 77 69 78 70 79 49 80 50 81 58 82 51 83 57 84 52 85
REMARK SMILES IDX 53 86 54 87 55 88 56 89
REMARK H PARENT 7 12 77 45 47 56
REMARK Flexibility Score: inf
ROOT
ATOM      1  C   UNL A   1      31.707  30.203  26.836  1.00  0.00     0.202 C 
ENDROOT
BRANCH   1   2
ATOM      2  O   UNL A   1      31.870  29.072  25.986  1.00  0.00    -0.374 OA
BRANCH   2   3
ATOM      3  C   UNL A   1      32.923  29.089  25.017  1.00  0.00     0.202 C 
BRANCH   3   4
ATOM      4  C   UNL A   1      32.469  29.112  23.560  1.00  0.00     0.261 C 
BRANCH   4   5
ATOM      5  O   UNL A   1      32.749  27.838  22.951  1.00  0.00    -0.462 OA
BRANCH   5   6
ATOM      6  C   UNL A   1      31.676  27.100  22.583  1.00  0.00     0.328 C 
ATOM      7  O   UNL A   1      30.695  27.538  21.992  1.00  0.00    -0.250 OA
BRANCH   6   8
ATOM      8  C   UNL A   1      31.783  25.621  23.003  1.00  0.00     0.192 C 
BRANCH   8   9
ATOM      9  N   UNL A   1      32.282  24.883  21.841  1.00  0.00    -0.338 N 
ATOM     10  C   UNL A   1      33.094  23.793  21.671  1.00  0.00     0.262 C 
ATOM     11  O   UNL A   1      33.422  23.559  20.505  1.00  0.00    -0.268 OA
ATOM     12  H   UNL A   1      31.960  25.255  20.988  1.00  0.00     0.164 HD
BRANCH  10  13
ATOM     13  C   UNL A   1      33.461  22.946  22.788  1.00  0.00     0.093 A 
ATOM     14  C   UNL A   1      33.347  19.721  24.685  1.00  0.00     0.046 C 
ATOM     15  C   UNL A   1      33.695  21.094  24.209  1.00  0.00    -0.025 A 
ATOM     16  C   UNL A   1      32.799  21.923  23.441  1.00  0.00     0.030 A 
ATOM     17  C   UNL A   1      34.889  21.757  24.389  1.00  0.00     0.074 A 
ATOM     18  S   UNL A   1      35.003  23.197  23.507  1.00  0.00    -0.123 S 
ATOM     19  Br  UNL A   1      36.306  21.148  25.459  1.00  0.00    -0.039 Br
ENDBRANCH  10  13
ENDBRANCH   8   9
BRANCH   8  20
ATOM     20  C   UNL A   1      30.603  25.039  23.801  1.00  0.00     0.040 C 
BRANCH  20  21
ATOM     21  C   UNL A   1      30.648  24.778  25.310  1.00  0.00    -0.015 C 
ATOM     22  C   UNL A   1      32.019  24.476  25.887  1.00  0.00     0.007 C 
ATOM     23  C   UNL A   1      30.075  26.026  26.011  1.00  0.00     0.007 C 
ENDBRANCH  20  21
ENDBRANCH   8  20
ENDBRANCH   6   8
ENDBRANCH   5   6
ENDBRANCH   4   5
ENDBRANCH   3   4
ENDBRANCH   2   3
ENDBRANCH   1   2
BRANCH   1  24
ATOM     24  C   UNL A   1      32.907  31.131  26.974  1.00  0.00     0.261 C 
BRANCH  24  25
ATOM     25  O   UNL A   1      33.766  30.714  28.025  1.00  0.00    -0.460 OA
BRANCH  25  26
ATOM     26  C   UNL A   1      34.537  31.682  28.587  1.00  0.00     0.338 C 
ATOM     27  O   UNL A   1      34.163  32.668  29.179  1.00  0.00    -0.246 OA
BRANCH  26  28
ATOM     28  C   UNL A   1      35.938  31.374  28.253  1.00  0.00     0.060 A 
ATOM     29  C   UNL A   1      36.221  30.187  27.586  1.00  0.00     0.016 A 
ATOM     30  C   UNL A   1      36.955  32.144  28.827  1.00  0.00     0.016 A 
ATOM     31  C   UNL A   1      37.490  29.657  27.724  1.00  0.00     0.010 A 
ATOM     32  C   UNL A   1      38.221  31.642  28.938  1.00  0.00     0.010 A 
ATOM     33  C   UNL A   1      38.431  30.348  28.500  1.00  0.00    -0.014 A 
BRANCH  33  34
ATOM     34  C   UNL A   1      39.700  29.739  28.813  1.00  0.00     0.031 A 
ATOM     35  C   UNL A   1      39.932  29.690  30.266  1.00  0.00     0.074 A 
ATOM     36  C   UNL A   1      40.485  29.166  27.879  1.00  0.00     0.049 A 
ATOM     37  N   UNL A   1      40.631  30.524  30.958  1.00  0.00    -0.248 NA
ATOM     38  C   UNL A   1      39.083  28.796  31.073  1.00  0.00     0.031 C 
ATOM     39  C   UNL A   1      40.198  28.903  26.464  1.00  0.00     0.029 A 
ATOM     40  N   UNL A   1      41.711  28.609  28.036  1.00  0.00    -0.354 N 
ATOM     41  C   UNL A   1      40.533  30.072  32.263  1.00  0.00     0.074 A 
ATOM     42  C   UNL A   1      39.373  29.219  32.304  1.00  0.00     0.031 C 
ATOM     43  C   UNL A   1      41.119  28.041  25.969  1.00  0.00     0.029 A 
ATOM     44  C   UNL A   1      42.137  27.807  26.983  1.00  0.00     0.049 A 
ATOM     45  H   UNL A   1      42.262  28.761  28.838  1.00  0.00     0.167 HD
ATOM     46  C   UNL A   1      41.600  30.148  33.104  1.00  0.00     0.031 A 
ATOM     47  C   UNL A   1      43.222  26.987  26.981  1.00  0.00     0.031 A 
ATOM     48  C   UNL A   1      42.627  31.010  32.568  1.00  0.00     0.049 A 
ATOM     49  C   UNL A   1      44.113  27.453  28.077  1.00  0.00     0.074 A 
ATOM     50  C   UNL A   1      42.683  32.338  32.195  1.00  0.00     0.029 A 
ATOM     51  N   UNL A   1      43.684  30.388  31.940  1.00  0.00    -0.354 N 
ATOM     52  N   UNL A   1      44.710  28.614  28.060  1.00  0.00    -0.248 NA
ATOM     53  C   UNL A   1      43.925  26.872  29.398  1.00  0.00     0.031 C 
ATOM     54  C   UNL A   1      43.487  32.358  31.017  1.00  0.00     0.029 A 
ATOM     55  C   UNL A   1      43.954  31.063  30.778  1.00  0.00     0.049 A 
ATOM     56  H   UNL A   1      44.162  29.593  32.269  1.00  0.00     0.167 HD
ATOM     57  C   UNL A   1      44.573  29.106  29.352  1.00  0.00     0.074 A 
ATOM     58  C   UNL A   1      44.154  27.953  30.151  1.00  0.00     0.031 C 
ATOM     59  C   UNL A   1      44.522  30.450  29.593  1.00  0.00     0.031 A 
BRANCH  46  60
ATOM     60  C   UNL A   1      41.902  29.096  34.141  1.00  0.00    -0.014 A 
ATOM     61  C   UNL A   1      41.858  27.744  33.754  1.00  0.00     0.010 A 
ATOM     62  C   UNL A   1      41.959  29.365  35.525  1.00  0.00     0.010 A 
ATOM     63  C   UNL A   1      41.802  26.721  34.706  1.00  0.00     0.020 A 
ATOM     64  C   UNL A   1      41.949  28.352  36.482  1.00  0.00     0.020 A 
ATOM     65  C   UNL A   1      41.838  27.036  36.066  1.00  0.00     0.054 A 
BRANCH  65  66
ATOM     66  S   UNL A   1      41.678  25.715  37.287  1.00  0.00     0.124 S 
ATOM     67  O   UNL A   1      41.966  24.530  36.486  1.00  0.00    -0.237 OA
ATOM     68  O   UNL A   1      42.694  26.084  38.269  1.00  0.00    -0.237 OA
ATOM     69  O   UNL A   1      40.298  25.842  37.749  1.00  0.00    -0.744 OA
ENDBRANCH  65  66
ENDBRANCH  46  60
BRANCH  47  70
ATOM     70  C   UNL A   1      43.365  25.644  26.351  1.00  0.00    -0.014 A 
ATOM     71  C   UNL A   1      44.183  25.433  25.223  1.00  0.00     0.010 A 
ATOM     72  C   UNL A   1      42.912  24.502  27.043  1.00  0.00     0.010 A 
ATOM     73  C   UNL A   1      44.566  24.134  24.829  1.00  0.00     0.020 A 
ATOM     74  C   UNL A   1      43.288  23.207  26.659  1.00  0.00     0.020 A 
ATOM     75  C   UNL A   1      44.127  23.027  25.562  1.00  0.00     0.054 A 
BRANCH  75  76
ATOM     76  S   UNL A   1      44.740  21.363  25.147  1.00  0.00     0.124 S 
ATOM     77  O   UNL A   1      46.073  21.365  25.741  1.00  0.00    -0.237 OA
ATOM     78  O   UNL A   1      43.762  20.491  25.792  1.00  0.00    -0.237 OA
ATOM     79  O   UNL A   1      44.714  21.343  23.685  1.00  0.00    -0.744 OA
ENDBRANCH  75  76
ENDBRANCH  47  70
BRANCH  59  80
ATOM     80  C   UNL A   1      44.914  31.395  28.476  1.00  0.00    -0.014 A 
ATOM     81  C   UNL A   1      44.134  31.644  27.329  1.00  0.00     0.010 A 
ATOM     82  C   UNL A   1      46.062  32.179  28.685  1.00  0.00     0.010 A 
ATOM     83  C   UNL A   1      44.514  32.633  26.405  1.00  0.00     0.020 A 
ATOM     84  C   UNL A   1      46.434  33.175  27.783  1.00  0.00     0.020 A 
ATOM     85  C   UNL A   1      45.665  33.392  26.639  1.00  0.00     0.054 A 
BRANCH  85  86
ATOM     86  S   UNL A   1      46.145  34.691  25.464  1.00  0.00     0.124 S 
ATOM     87  O   UNL A   1      45.844  35.914  26.203  1.00  0.00    -0.237 OA
ATOM     88  O   UNL A   1      47.564  34.420  25.244  1.00  0.00    -0.237 OA
ATOM     89  O   UNL A   1      45.289  34.445  24.304  1.00  0.00    -0.744 OA
ENDBRANCH  85  86
ENDBRANCH  59  80
ENDBRANCH  33  34
ENDBRANCH  26  28
ENDBRANCH  25  26
ENDBRANCH  24  25
ENDBRANCH   1  24
TORSDOF 21
ENDMDL
MODEL 3
REMARK VINA RESULT:     -10.6      3.607      7.706
REMARK SMILES Cc1cc(C(=O)N[C@H](CC(C)C)C(=O)OCCOCCOC(=O)c2ccc(-c3c4nc(c(-c5ccc(S(=O)(=O)[O-])cc5)c5ccc([nH]5)c(-c5ccc(S(=O)(=O)[O-])cc5)c5nc(c(-c6ccc(S(=O)(=O)[O-])cc6)c6ccc3[nH]6)C=C5)C=C4)cc2)sc1Br
REMARK SMILES IDX 19 1 18 2 17 3 16 4 15 5 13 6 14 7 8 8 7 9 5 10 6 11 4 13
REMARK SMILES IDX 1 14 2 15 3 16 85 17 84 18 86 19 9 20 10 21 11 22 12 23
REMARK SMILES IDX 20 24 21 25 22 26 23 27 24 28 25 29 83 30 26 31 82 32 27 33
REMARK SMILES IDX 28 34 29 35 76 36 30 37 81 38 75 39 77 40 31 41 80 42 74 43
REMARK SMILES IDX 73 44 32 46 62 47 43 48 61 49 44 50 47 51 60 52 78 53 45 54
REMARK SMILES IDX 46 55 59 57 79 58 48 59 33 60 34 61 42 62 35 63 41 64 36 65
REMARK SMILES IDX 37 66 38 67 39 68 40 69 63 70 64 71 72 72 65 73 71 74 66 75
REMARK SMILES IDX 67 76 68 77 69 78 70 79 49 80 50 81 58 82 51 83 57 84 52 85
REMARK SMILES IDX 53 86 54 87 55 88 56 89
REMARK H PARENT 7 12 77 45 47 56
REMARK Flexibility Score: inf
ROOT
ATOM      1  C   UNL A   1      36.355  21.128  25.376  1.00  0.00     0.202 C 
ENDROOT
BRANCH   1   2
ATOM      2  O   UNL A   1      35.053  20.577  25.202  1.00  0.00    -0.374 OA
BRANCH   2   3
ATOM      3  C   UNL A   1      33.928  21.309  25.696  1.00  0.00     0.202 C 
BRANCH   3   4
ATOM      4  C   UNL A   1      34.265  22.515  26.569  1.00  0.00     0.261 C 
BRANCH   4   5
ATOM      5  O   UNL A   1      33.625  23.688  26.034  1.00  0.00    -0.462 OA
BRANCH   5   6
ATOM      6  C   UNL A   1      34.435  24.590  25.430  1.00  0.00     0.328 C 
ATOM      7  O   UNL A   1      35.653  24.481  25.331  1.00  0.00    -0.250 OA
BRANCH   6   8
ATOM      8  C   UNL A   1      33.677  25.813  24.880  1.00  0.00     0.192 C 
BRANCH   8   9
ATOM      9  N   UNL A   1      33.903  25.839  23.433  1.00  0.00    -0.338 N 
ATOM     10  C   UNL A   1      33.139  26.175  22.346  1.00  0.00     0.262 C 
ATOM     11  O   UNL A   1      33.638  25.908  21.250  1.00  0.00    -0.268 OA
ATOM     12  H   UNL A   1      34.811  25.550  23.186  1.00  0.00     0.164 HD
BRANCH  10  13
ATOM     13  C   UNL A   1      31.875  26.866  22.500  1.00  0.00     0.093 A 
ATOM     14  C   UNL A   1      28.355  27.107  23.752  1.00  0.00     0.046 C 
ATOM     15  C   UNL A   1      29.693  27.416  23.161  1.00  0.00    -0.025 A 
ATOM     16  C   UNL A   1      30.572  26.416  22.610  1.00  0.00     0.030 A 
ATOM     17  C   UNL A   1      30.295  28.653  23.075  1.00  0.00     0.074 A 
ATOM     18  S   UNL A   1      31.907  28.584  22.560  1.00  0.00    -0.123 S 
ATOM     19  Br  UNL A   1      29.475  30.282  23.515  1.00  0.00    -0.039 Br
ENDBRANCH  10  13
ENDBRANCH   8   9
BRANCH   8  20
ATOM     20  C   UNL A   1      33.807  27.124  25.675  1.00  0.00     0.040 C 
BRANCH  20  21
ATOM     21  C   UNL A   1      32.903  27.490  26.856  1.00  0.00    -0.015 C 
ATOM     22  C   UNL A   1      33.107  28.876  27.440  1.00  0.00     0.007 C 
ATOM     23  C   UNL A   1      31.443  27.359  26.378  1.00  0.00     0.007 C 
ENDBRANCH  20  21
ENDBRANCH   8  20
ENDBRANCH   6   8
ENDBRANCH   5   6
ENDBRANCH   4   5
ENDBRANCH   3   4
ENDBRANCH   2   3
ENDBRANCH   1   2
BRANCH   1  24
ATOM     24  C   UNL A   1      37.531  20.227  25.026  1.00  0.00     0.261 C 
BRANCH  24  25
ATOM     25  O   UNL A   1      38.770  20.857  25.315  1.00  0.00    -0.460 OA
BRANCH  25  26
ATOM     26  C   UNL A   1      39.784  20.036  25.697  1.00  0.00     0.338 C 
ATOM     27  O   UNL A   1      39.853  18.838  25.551  1.00  0.00    -0.246 OA
BRANCH  26  28
ATOM     28  C   UNL A   1      40.760  20.858  26.432  1.00  0.00     0.060 A 
ATOM     29  C   UNL A   1      40.802  20.767  27.820  1.00  0.00     0.016 A 
ATOM     30  C   UNL A   1      41.433  21.878  25.752  1.00  0.00     0.016 A 
ATOM     31  C   UNL A   1      41.306  21.845  28.521  1.00  0.00     0.010 A 
ATOM     32  C   UNL A   1      41.964  22.932  26.439  1.00  0.00     0.010 A 
ATOM     33  C   UNL A   1      41.771  22.959  27.807  1.00  0.00    -0.014 A 
BRANCH  33  34
ATOM     34  C   UNL A   1      42.134  24.168  28.506  1.00  0.00     0.031 A 
ATOM     35  C   UNL A   1      41.247  25.286  28.146  1.00  0.00     0.074 A 
ATOM     36  C   UNL A   1      43.077  24.200  29.469  1.00  0.00     0.049 A 
ATOM     37  N   UNL A   1      41.492  26.208  27.277  1.00  0.00    -0.248 NA
ATOM     38  C   UNL A   1      39.841  25.223  28.582  1.00  0.00     0.031 C 
ATOM     39  C   UNL A   1      43.794  23.085  30.099  1.00  0.00     0.029 A 
ATOM     40  N   UNL A   1      43.539  25.271  30.159  1.00  0.00    -0.354 N 
ATOM     41  C   UNL A   1      40.362  27.008  27.281  1.00  0.00     0.074 A 
ATOM     42  C   UNL A   1      39.310  26.211  27.859  1.00  0.00     0.031 C 
ATOM     43  C   UNL A   1      44.414  23.524  31.221  1.00  0.00     0.029 A 
ATOM     44  C   UNL A   1      44.261  24.969  31.308  1.00  0.00     0.049 A 
ATOM     45  H   UNL A   1      43.376  26.198  29.868  1.00  0.00     0.167 HD
ATOM     46  C   UNL A   1      40.468  28.357  27.140  1.00  0.00     0.031 A 
ATOM     47  C   UNL A   1      44.655  25.849  32.268  1.00  0.00     0.031 A 
ATOM     48  C   UNL A   1      41.785  28.732  26.682  1.00  0.00     0.049 A 
ATOM     49  C   UNL A   1      44.609  27.203  31.653  1.00  0.00     0.074 A 
ATOM     50  C   UNL A   1      42.543  28.443  25.565  1.00  0.00     0.029 A 
ATOM     51  N   UNL A   1      42.666  29.172  27.645  1.00  0.00    -0.354 N 
ATOM     52  N   UNL A   1      45.399  27.565  30.680  1.00  0.00    -0.248 NA
ATOM     53  C   UNL A   1      43.367  27.953  31.756  1.00  0.00     0.031 C 
ATOM     54  C   UNL A   1      43.875  28.291  26.052  1.00  0.00     0.029 A 
ATOM     55  C   UNL A   1      43.883  28.580  27.420  1.00  0.00     0.049 A 
ATOM     56  H   UNL A   1      42.458  29.802  28.371  1.00  0.00     0.167 HD
ATOM     57  C   UNL A   1      44.582  28.262  29.797  1.00  0.00     0.074 A 
ATOM     58  C   UNL A   1      43.361  28.540  30.555  1.00  0.00     0.031 C 
ATOM     59  C   UNL A   1      44.852  28.288  28.458  1.00  0.00     0.031 A 
BRANCH  46  60
ATOM     60  C   UNL A   1      39.566  29.328  27.858  1.00  0.00    -0.014 A 
ATOM     61  C   UNL A   1      39.933  29.754  29.148  1.00  0.00     0.010 A 
ATOM     62  C   UNL A   1      38.253  29.625  27.435  1.00  0.00     0.010 A 
ATOM     63  C   UNL A   1      39.010  30.379  29.993  1.00  0.00     0.020 A 
ATOM     64  C   UNL A   1      37.339  30.288  28.251  1.00  0.00     0.020 A 
ATOM     65  C   UNL A   1      37.715  30.632  29.539  1.00  0.00     0.054 A 
BRANCH  65  66
ATOM     66  S   UNL A   1      36.506  31.362  30.666  1.00  0.00     0.124 S 
ATOM     67  O   UNL A   1      36.071  30.199  31.432  1.00  0.00    -0.237 OA
ATOM     68  O   UNL A   1      37.316  32.337  31.391  1.00  0.00    -0.237 OA
ATOM     69  O   UNL A   1      35.505  31.934  29.769  1.00  0.00    -0.744 OA
ENDBRANCH  65  66
ENDBRANCH  46  60
BRANCH  47  70
ATOM     70  C   UNL A   1      44.716  25.642  33.742  1.00  0.00    -0.014 A 
ATOM     71  C   UNL A   1      45.935  25.426  34.416  1.00  0.00     0.010 A 
ATOM     72  C   UNL A   1      43.587  25.945  34.532  1.00  0.00     0.010 A 
ATOM     73  C   UNL A   1      46.029  25.549  35.817  1.00  0.00     0.020 A 
ATOM     74  C   UNL A   1      43.671  26.070  35.926  1.00  0.00     0.020 A 
ATOM     75  C   UNL A   1      44.896  25.888  36.563  1.00  0.00     0.054 A 
BRANCH  75  76
ATOM     76  S   UNL A   1      45.046  26.194  38.353  1.00  0.00     0.124 S 
ATOM     77  O   UNL A   1      45.835  27.422  38.394  1.00  0.00    -0.237 OA
ATOM     78  O   UNL A   1      43.654  26.322  38.774  1.00  0.00    -0.237 OA
ATOM     79  O   UNL A   1      45.734  25.002  38.848  1.00  0.00    -0.744 OA
ENDBRANCH  75  76
ENDBRANCH  47  70
BRANCH  59  80
ATOM     80  C   UNL A   1      46.206  27.800  27.988  1.00  0.00    -0.014 A 
ATOM     81  C   UNL A   1      47.350  28.614  27.863  1.00  0.00     0.010 A 
ATOM     82  C   UNL A   1      46.352  26.413  27.811  1.00  0.00     0.010 A 
ATOM     83  C   UNL A   1      48.598  28.052  27.543  1.00  0.00     0.020 A 
ATOM     84  C   UNL A   1      47.591  25.847  27.512  1.00  0.00     0.020 A 
ATOM     85  C   UNL A   1      48.709  26.669  27.368  1.00  0.00     0.054 A 
BRANCH  85  86
ATOM     86  S   UNL A   1      50.323  25.934  26.982  1.00  0.00     0.124 S 
ATOM     87  O   UNL A   1      50.100  24.517  27.258  1.00  0.00    -0.237 OA
ATOM     88  O   UNL A   1      50.509  26.279  25.574  1.00  0.00    -0.237 OA
ATOM     89  O   UNL A   1      51.241  26.605  27.901  1.00  0.00    -0.744 OA
ENDBRANCH  85  86
ENDBRANCH  59  80
ENDBRANCH  33  34
ENDBRANCH  26  28
ENDBRANCH  25  26
ENDBRANCH  24  25
ENDBRANCH   1  24
TORSDOF 21
ENDMDL
