MODEL 1
REMARK VINA RESULT:      -8.2      0.000      0.000
REMARK SMILES CC[NH2+][C@@]1(C(=O)OCCOCCOC(=O)c2ccc(-c3c4nc(c(-c5ccc(S(=O)(=O)[O-])cc5)c5ccc([nH]5)c(-c5ccc(S(=O)(=O)[O-])cc5)c5nc(c(-c6ccc(S(=O)(=O)[O-])cc6)c6ccc3[nH]6)C=C5)C=C4)cc2)CC[C@@H](OCCOC)C1
REMARK SMILES IDX 9 1 8 2 7 3 5 4 6 5 4 6 76 7 84 8 77 9 78 10 3 11 2 14 1 15
REMARK SMILES IDX 79 16 80 17 81 18 82 19 83 20 10 21 11 22 12 23 13 24 14 25
REMARK SMILES IDX 15 26 16 27 17 28 75 29 18 30 74 31 19 32 20 33 21 34 68 35
REMARK SMILES IDX 22 36 73 37 67 38 69 39 23 40 72 41 66 42 65 43 24 45 54 46
REMARK SMILES IDX 35 47 53 48 36 49 39 50 52 51 70 52 37 53 38 54 51 56 71 57
REMARK SMILES IDX 40 58 25 59 26 60 34 61 27 62 33 63 28 64 29 65 30 66 31 67
REMARK SMILES IDX 32 68 55 69 56 70 64 71 57 72 63 73 58 74 59 75 60 76 61 77
REMARK SMILES IDX 62 78 41 79 42 80 50 81 43 82 49 83 44 84 45 85 46 86 47 87
REMARK SMILES IDX 48 88
REMARK H PARENT 3 12 3 13 69 44 39 55
REMARK Flexibility Score: inf
ROOT
ATOM      1  C   UNL A   1      33.303  29.178  27.076  1.00  0.00     0.202 C 
ENDROOT
BRANCH   1   2
ATOM      2  C   UNL A   1      33.869  27.887  26.473  1.00  0.00     0.261 C 
BRANCH   2   3
ATOM      3  O   UNL A   1      32.997  26.761  26.628  1.00  0.00    -0.459 OA
BRANCH   3   4
ATOM      4  C   UNL A   1      31.757  26.903  26.076  1.00  0.00     0.368 C 
ATOM      5  O   UNL A   1      30.762  27.230  26.716  1.00  0.00    -0.245 OA
BRANCH   4   6
ATOM      6  C   UNL A   1      31.726  26.533  24.557  1.00  0.00     0.196 C 
ATOM      7  C   UNL A   1      32.455  27.646  23.792  1.00  0.00     0.084 C 
ATOM      8  C   UNL A   1      30.333  26.589  23.893  1.00  0.00     0.113 C 
ATOM      9  C   UNL A   1      31.426  28.774  23.707  1.00  0.00     0.039 C 
ATOM     10  C   UNL A   1      30.056  28.078  23.656  1.00  0.00     0.125 C 
BRANCH   6  11
ATOM     11  N   UNL A   1      32.284  25.165  24.349  1.00  0.00    -0.332 N 
ATOM     12  H   UNL A   1      32.781  25.157  23.459  1.00  0.00     0.347 HD
ATOM     13  H   UNL A   1      32.889  24.976  25.149  1.00  0.00     0.347 HD
BRANCH  11  14
ATOM     14  C   UNL A   1      31.285  24.093  24.323  1.00  0.00     0.257 C 
ATOM     15  C   UNL A   1      31.389  23.259  25.593  1.00  0.00     0.071 C 
ENDBRANCH  11  14
ENDBRANCH   6  11
BRANCH  10  16
ATOM     16  O   UNL A   1      29.262  28.292  22.488  1.00  0.00    -0.376 OA
BRANCH  16  17
ATOM     17  C   UNL A   1      28.381  29.408  22.506  1.00  0.00     0.189 C 
BRANCH  17  18
ATOM     18  C   UNL A   1      28.726  30.467  21.448  1.00  0.00     0.188 C 
BRANCH  18  19
ATOM     19  O   UNL A   1      28.226  31.779  21.701  1.00  0.00    -0.382 OA
ATOM     20  C   UNL A   1      28.920  32.459  22.745  1.00  0.00     0.195 C 
ENDBRANCH  18  19
ENDBRANCH  17  18
ENDBRANCH  16  17
ENDBRANCH  10  16
ENDBRANCH   4   6
ENDBRANCH   3   4
ENDBRANCH   2   3
ENDBRANCH   1   2
BRANCH   1  21
ATOM     21  O   UNL A   1      33.639  30.411  26.448  1.00  0.00    -0.374 OA
BRANCH  21  22
ATOM     22  C   UNL A   1      33.953  31.522  27.288  1.00  0.00     0.202 C 
BRANCH  22  23
ATOM     23  C   UNL A   1      32.809  32.469  27.678  1.00  0.00     0.261 C 
BRANCH  23  24
ATOM     24  O   UNL A   1      33.232  33.839  27.825  1.00  0.00    -0.460 OA
BRANCH  24  25
ATOM     25  C   UNL A   1      33.482  34.217  29.107  1.00  0.00     0.338 C 
ATOM     26  O   UNL A   1      32.756  34.867  29.839  1.00  0.00    -0.246 OA
BRANCH  25  27
ATOM     27  C   UNL A   1      34.720  33.584  29.596  1.00  0.00     0.060 A 
ATOM     28  C   UNL A   1      34.601  32.560  30.545  1.00  0.00     0.016 A 
ATOM     29  C   UNL A   1      35.976  34.066  29.227  1.00  0.00     0.016 A 
ATOM     30  C   UNL A   1      35.742  32.031  31.148  1.00  0.00     0.010 A 
ATOM     31  C   UNL A   1      37.119  33.542  29.845  1.00  0.00     0.010 A 
ATOM     32  C   UNL A   1      37.007  32.540  30.826  1.00  0.00    -0.014 A 
BRANCH  32  33
ATOM     33  C   UNL A   1      38.198  32.087  31.588  1.00  0.00     0.031 A 
ATOM     34  C   UNL A   1      39.128  31.075  30.977  1.00  0.00     0.074 A 
ATOM     35  C   UNL A   1      38.460  32.597  32.805  1.00  0.00     0.049 A 
ATOM     36  N   UNL A   1      40.212  30.541  31.481  1.00  0.00    -0.248 NA
ATOM     37  C   UNL A   1      38.800  30.605  29.621  1.00  0.00     0.031 C 
ATOM     38  C   UNL A   1      37.660  33.615  33.486  1.00  0.00     0.029 A 
ATOM     39  N   UNL A   1      39.476  32.323  33.687  1.00  0.00    -0.354 N 
ATOM     40  C   UNL A   1      40.693  29.671  30.510  1.00  0.00     0.074 A 
ATOM     41  C   UNL A   1      39.775  29.734  29.392  1.00  0.00     0.031 C 
ATOM     42  C   UNL A   1      38.210  33.873  34.685  1.00  0.00     0.029 A 
ATOM     43  C   UNL A   1      39.381  33.018  34.869  1.00  0.00     0.049 A 
ATOM     44  H   UNL A   1      40.202  31.689  33.491  1.00  0.00     0.167 HD
ATOM     45  C   UNL A   1      41.800  28.891  30.544  1.00  0.00     0.031 A 
ATOM     46  C   UNL A   1      40.139  32.956  35.982  1.00  0.00     0.031 A 
ATOM     47  C   UNL A   1      42.709  28.821  31.658  1.00  0.00     0.049 A 
ATOM     48  C   UNL A   1      41.315  32.017  36.026  1.00  0.00     0.074 A 
ATOM     49  C   UNL A   1      43.875  28.082  31.770  1.00  0.00     0.029 A 
ATOM     50  N   UNL A   1      42.550  29.500  32.855  1.00  0.00    -0.354 N 
ATOM     51  N   UNL A   1      41.777  31.230  35.083  1.00  0.00    -0.248 NA
ATOM     52  C   UNL A   1      42.073  31.957  37.285  1.00  0.00     0.031 C 
ATOM     53  C   UNL A   1      44.391  28.272  33.056  1.00  0.00     0.029 A 
ATOM     54  C   UNL A   1      43.574  29.170  33.726  1.00  0.00     0.049 A 
ATOM     55  H   UNL A   1      41.817  30.126  33.056  1.00  0.00     0.167 HD
ATOM     56  C   UNL A   1      42.889  30.597  35.630  1.00  0.00     0.074 A 
ATOM     57  C   UNL A   1      43.041  31.105  36.978  1.00  0.00     0.031 C 
ATOM     58  C   UNL A   1      43.710  29.677  35.067  1.00  0.00     0.031 A 
BRANCH  45  59
ATOM     59  C   UNL A   1      42.084  28.020  29.350  1.00  0.00    -0.014 A 
ATOM     60  C   UNL A   1      42.940  28.452  28.323  1.00  0.00     0.010 A 
ATOM     61  C   UNL A   1      41.544  26.722  29.294  1.00  0.00     0.010 A 
ATOM     62  C   UNL A   1      43.237  27.606  27.250  1.00  0.00     0.020 A 
ATOM     63  C   UNL A   1      41.854  25.867  28.233  1.00  0.00     0.020 A 
ATOM     64  C   UNL A   1      42.691  26.319  27.212  1.00  0.00     0.054 A 
BRANCH  64  65
ATOM     65  S   UNL A   1      43.131  25.226  25.832  1.00  0.00     0.124 S 
ATOM     66  O   UNL A   1      42.533  23.960  26.248  1.00  0.00    -0.237 OA
ATOM     67  O   UNL A   1      42.494  25.877  24.691  1.00  0.00    -0.237 OA
ATOM     68  O   UNL A   1      44.592  25.251  25.823  1.00  0.00    -0.744 OA
ENDBRANCH  64  65
ENDBRANCH  45  59
BRANCH  46  69
ATOM     69  C   UNL A   1      39.788  33.778  37.172  1.00  0.00    -0.014 A 
ATOM     70  C   UNL A   1      40.339  35.059  37.350  1.00  0.00     0.010 A 
ATOM     71  C   UNL A   1      38.917  33.266  38.151  1.00  0.00     0.010 A 
ATOM     72  C   UNL A   1      40.045  35.803  38.496  1.00  0.00     0.020 A 
ATOM     73  C   UNL A   1      38.601  34.016  39.286  1.00  0.00     0.020 A 
ATOM     74  C   UNL A   1      39.179  35.275  39.459  1.00  0.00     0.054 A 
BRANCH  74  75
ATOM     75  S   UNL A   1      38.785  36.266  40.926  1.00  0.00     0.124 S 
ATOM     76  O   UNL A   1      38.457  37.561  40.338  1.00  0.00    -0.237 OA
ATOM     77  O   UNL A   1      37.664  35.534  41.513  1.00  0.00    -0.237 OA
ATOM     78  O   UNL A   1      40.020  36.225  41.705  1.00  0.00    -0.744 OA
ENDBRANCH  74  75
ENDBRANCH  46  69
BRANCH  58  79
ATOM     79  C   UNL A   1      44.858  29.170  35.899  1.00  0.00    -0.014 A 
ATOM     80  C   UNL A   1      44.717  28.028  36.706  1.00  0.00     0.010 A 
ATOM     81  C   UNL A   1      46.106  29.815  35.832  1.00  0.00     0.010 A 
ATOM     82  C   UNL A   1      45.798  27.556  37.455  1.00  0.00     0.020 A 
ATOM     83  C   UNL A   1      47.196  29.331  36.561  1.00  0.00     0.020 A 
ATOM     84  C   UNL A   1      47.030  28.212  37.379  1.00  0.00     0.054 A 
BRANCH  84  85
ATOM     85  S   UNL A   1      48.431  27.557  38.329  1.00  0.00     0.124 S 
ATOM     86  O   UNL A   1      49.151  28.775  38.688  1.00  0.00    -0.237 OA
ATOM     87  O   UNL A   1      47.775  26.865  39.436  1.00  0.00    -0.237 OA
ATOM     88  O   UNL A   1      49.116  26.684  37.377  1.00  0.00    -0.744 OA
ENDBRANCH  84  85
ENDBRANCH  58  79
ENDBRANCH  32  33
ENDBRANCH  25  27
ENDBRANCH  24  25
ENDBRANCH  23  24
ENDBRANCH  22  23
ENDBRANCH  21  22
ENDBRANCH   1  21
TORSDOF 23
ENDMDL
MODEL 2
REMARK VINA RESULT:      -7.6      5.322     11.123
REMARK SMILES CC[NH2+][C@@]1(C(=O)OCCOCCOC(=O)c2ccc(-c3c4nc(c(-c5ccc(S(=O)(=O)[O-])cc5)c5ccc([nH]5)c(-c5ccc(S(=O)(=O)[O-])cc5)c5nc(c(-c6ccc(S(=O)(=O)[O-])cc6)c6ccc3[nH]6)C=C5)C=C4)cc2)CC[C@@H](OCCOC)C1
REMARK SMILES IDX 9 1 8 2 7 3 5 4 6 5 4 6 76 7 84 8 77 9 78 10 3 11 2 14 1 15
REMARK SMILES IDX 79 16 80 17 81 18 82 19 83 20 10 21 11 22 12 23 13 24 14 25
REMARK SMILES IDX 15 26 16 27 17 28 75 29 18 30 74 31 19 32 20 33 21 34 68 35
REMARK SMILES IDX 22 36 73 37 67 38 69 39 23 40 72 41 66 42 65 43 24 45 54 46
REMARK SMILES IDX 35 47 53 48 36 49 39 50 52 51 70 52 37 53 38 54 51 56 71 57
REMARK SMILES IDX 40 58 25 59 26 60 34 61 27 62 33 63 28 64 29 65 30 66 31 67
REMARK SMILES IDX 32 68 55 69 56 70 64 71 57 72 63 73 58 74 59 75 60 76 61 77
REMARK SMILES IDX 62 78 41 79 42 80 50 81 43 82 49 83 44 84 45 85 46 86 47 87
REMARK SMILES IDX 48 88
REMARK H PARENT 3 12 3 13 69 44 39 55
REMARK Flexibility Score: inf
ROOT
ATOM      1  C   UNL A   1      45.728  23.615  27.574  1.00  0.00     0.202 C 
ENDROOT
BRANCH   1   2
ATOM      2  C   UNL A   1      46.574  24.793  28.073  1.00  0.00     0.261 C 
BRANCH   2   3
ATOM      3  O   UNL A   1      45.935  25.549  29.109  1.00  0.00    -0.459 OA
BRANCH   3   4
ATOM      4  C   UNL A   1      46.696  26.533  29.666  1.00  0.00     0.368 C 
ATOM      5  O   UNL A   1      47.785  26.885  29.221  1.00  0.00    -0.245 OA
BRANCH   4   6
ATOM      6  C   UNL A   1      46.070  27.114  30.977  1.00  0.00     0.196 C 
ATOM      7  C   UNL A   1      47.199  27.258  32.007  1.00  0.00     0.084 C 
ATOM      8  C   UNL A   1      45.112  26.162  31.727  1.00  0.00     0.113 C 
ATOM      9  C   UNL A   1      47.402  25.838  32.537  1.00  0.00     0.039 C 
ATOM     10  C   UNL A   1      46.020  25.168  32.461  1.00  0.00     0.125 C 
BRANCH   6  11
ATOM     11  N   UNL A   1      45.332  28.375  30.680  1.00  0.00    -0.332 N 
ATOM     12  H   UNL A   1      44.783  28.229  29.833  1.00  0.00     0.347 HD
ATOM     13  H   UNL A   1      44.760  28.575  31.500  1.00  0.00     0.347 HD
BRANCH  11  14
ATOM     14  C   UNL A   1      46.185  29.550  30.473  1.00  0.00     0.257 C 
ATOM     15  C   UNL A   1      45.819  30.635  31.476  1.00  0.00     0.071 C 
ENDBRANCH  11  14
ENDBRANCH   6  11
BRANCH  10  16
ATOM     16  O   UNL A   1      45.442  24.730  33.692  1.00  0.00    -0.376 OA
BRANCH  16  17
ATOM     17  C   UNL A   1      44.036  24.514  33.699  1.00  0.00     0.189 C 
BRANCH  17  18
ATOM     18  C   UNL A   1      43.473  24.254  35.105  1.00  0.00     0.188 C 
BRANCH  18  19
ATOM     19  O   UNL A   1      42.667  25.297  35.650  1.00  0.00    -0.382 OA
ATOM     20  C   UNL A   1      41.301  24.926  35.825  1.00  0.00     0.195 C 
ENDBRANCH  18  19
ENDBRANCH  17  18
ENDBRANCH  16  17
ENDBRANCH  10  16
ENDBRANCH   4   6
ENDBRANCH   3   4
ENDBRANCH   2   3
ENDBRANCH   1   2
BRANCH   1  21
ATOM     21  O   UNL A   1      44.381  23.522  28.027  1.00  0.00    -0.374 OA
BRANCH  21  22
ATOM     22  C   UNL A   1      43.348  23.484  27.042  1.00  0.00     0.202 C 
BRANCH  22  23
ATOM     23  C   UNL A   1      41.997  24.121  27.398  1.00  0.00     0.261 C 
BRANCH  23  24
ATOM     24  O   UNL A   1      42.051  25.559  27.478  1.00  0.00    -0.460 OA
BRANCH  24  25
ATOM     25  C   UNL A   1      40.862  26.180  27.257  1.00  0.00     0.338 C 
ATOM     26  O   UNL A   1      40.059  25.941  26.373  1.00  0.00    -0.246 OA
BRANCH  25  27
ATOM     27  C   UNL A   1      40.559  27.114  28.357  1.00  0.00     0.060 A 
ATOM     28  C   UNL A   1      41.266  28.322  28.405  1.00  0.00     0.016 A 
ATOM     29  C   UNL A   1      39.689  26.760  29.390  1.00  0.00     0.016 A 
ATOM     30  C   UNL A   1      41.125  29.171  29.502  1.00  0.00     0.010 A 
ATOM     31  C   UNL A   1      39.560  27.609  30.497  1.00  0.00     0.010 A 
ATOM     32  C   UNL A   1      40.295  28.806  30.570  1.00  0.00    -0.014 A 
BRANCH  32  33
ATOM     33  C   UNL A   1      40.275  29.634  31.802  1.00  0.00     0.031 A 
ATOM     34  C   UNL A   1      41.341  29.438  32.845  1.00  0.00     0.074 A 
ATOM     35  C   UNL A   1      39.326  30.573  31.975  1.00  0.00     0.049 A 
ATOM     36  N   UNL A   1      41.494  30.047  33.993  1.00  0.00    -0.248 NA
ATOM     37  C   UNL A   1      42.373  28.427  32.558  1.00  0.00     0.031 C 
ATOM     38  C   UNL A   1      38.266  30.889  31.018  1.00  0.00     0.029 A 
ATOM     39  N   UNL A   1      39.103  31.433  33.021  1.00  0.00    -0.354 N 
ATOM     40  C   UNL A   1      42.633  29.495  34.567  1.00  0.00     0.074 A 
ATOM     41  C   UNL A   1      43.124  28.488  33.651  1.00  0.00     0.031 C 
ATOM     42  C   UNL A   1      37.497  31.867  31.527  1.00  0.00     0.029 A 
ATOM     43  C   UNL A   1      37.991  32.224  32.855  1.00  0.00     0.049 A 
ATOM     44  H   UNL A   1      39.683  31.477  33.814  1.00  0.00     0.167 HD
ATOM     45  C   UNL A   1      43.219  29.799  35.750  1.00  0.00     0.031 A 
ATOM     46  C   UNL A   1      37.423  33.118  33.688  1.00  0.00     0.031 A 
ATOM     47  C   UNL A   1      42.727  30.794  36.667  1.00  0.00     0.049 A 
ATOM     48  C   UNL A   1      38.047  33.376  35.035  1.00  0.00     0.074 A 
ATOM     49  C   UNL A   1      43.273  31.193  37.876  1.00  0.00     0.029 A 
ATOM     50  N   UNL A   1      41.571  31.536  36.486  1.00  0.00    -0.354 N 
ATOM     51  N   UNL A   1      39.146  32.872  35.544  1.00  0.00    -0.248 NA
ATOM     52  C   UNL A   1      37.353  34.324  35.919  1.00  0.00     0.031 C 
ATOM     53  C   UNL A   1      42.416  32.137  38.452  1.00  0.00     0.029 A 
ATOM     54  C   UNL A   1      41.364  32.363  37.578  1.00  0.00     0.049 A 
ATOM     55  H   UNL A   1      40.984  31.483  35.698  1.00  0.00     0.167 HD
ATOM     56  C   UNL A   1      39.282  33.455  36.800  1.00  0.00     0.074 A 
ATOM     57  C   UNL A   1      38.166  34.363  36.965  1.00  0.00     0.031 C 
ATOM     58  C   UNL A   1      40.246  33.257  37.733  1.00  0.00     0.031 A 
BRANCH  45  59
ATOM     59  C   UNL A   1      44.448  29.028  36.145  1.00  0.00    -0.014 A 
ATOM     60  C   UNL A   1      45.732  29.476  35.791  1.00  0.00     0.010 A 
ATOM     61  C   UNL A   1      44.319  27.878  36.945  1.00  0.00     0.010 A 
ATOM     62  C   UNL A   1      46.866  28.776  36.216  1.00  0.00     0.020 A 
ATOM     63  C   UNL A   1      45.450  27.187  37.388  1.00  0.00     0.020 A 
ATOM     64  C   UNL A   1      46.717  27.636  37.012  1.00  0.00     0.054 A 
BRANCH  64  65
ATOM     65  S   UNL A   1      48.207  26.775  37.589  1.00  0.00     0.124 S 
ATOM     66  O   UNL A   1      47.715  25.412  37.773  1.00  0.00    -0.237 OA
ATOM     67  O   UNL A   1      49.136  26.961  36.477  1.00  0.00    -0.237 OA
ATOM     68  O   UNL A   1      48.561  27.481  38.818  1.00  0.00    -0.744 OA
ENDBRANCH  64  65
ENDBRANCH  45  59
BRANCH  46  69
ATOM     69  C   UNL A   1      36.166  33.812  33.297  1.00  0.00    -0.014 A 
ATOM     70  C   UNL A   1      36.204  35.027  32.591  1.00  0.00     0.010 A 
ATOM     71  C   UNL A   1      34.919  33.267  33.656  1.00  0.00     0.010 A 
ATOM     72  C   UNL A   1      35.019  35.697  32.273  1.00  0.00     0.020 A 
ATOM     73  C   UNL A   1      33.733  33.922  33.318  1.00  0.00     0.020 A 
ATOM     74  C   UNL A   1      33.790  35.141  32.641  1.00  0.00     0.054 A 
BRANCH  74  75
ATOM     75  S   UNL A   1      32.262  36.010  32.194  1.00  0.00     0.124 S 
ATOM     76  O   UNL A   1      32.483  36.305  30.782  1.00  0.00    -0.237 OA
ATOM     77  O   UNL A   1      31.234  35.013  32.480  1.00  0.00    -0.237 OA
ATOM     78  O   UNL A   1      32.258  37.170  33.084  1.00  0.00    -0.744 OA
ENDBRANCH  74  75
ENDBRANCH  46  69
BRANCH  58  79
ATOM     79  C   UNL A   1      40.148  34.047  39.010  1.00  0.00    -0.014 A 
ATOM     80  C   UNL A   1      39.445  33.545  40.119  1.00  0.00     0.010 A 
ATOM     81  C   UNL A   1      40.810  35.284  39.119  1.00  0.00     0.010 A 
ATOM     82  C   UNL A   1      39.382  34.280  41.306  1.00  0.00     0.020 A 
ATOM     83  C   UNL A   1      40.769  36.010  40.312  1.00  0.00     0.020 A 
ATOM     84  C   UNL A   1      40.043  35.509  41.395  1.00  0.00     0.054 A 
BRANCH  84  85
ATOM     85  S   UNL A   1      39.982  36.425  42.959  1.00  0.00     0.124 S 
ATOM     86  O   UNL A   1      38.817  35.835  43.611  1.00  0.00    -0.237 OA
ATOM     87  O   UNL A   1      41.271  36.109  43.569  1.00  0.00    -0.237 OA
ATOM     88  O   UNL A   1      39.824  37.816  42.539  1.00  0.00    -0.744 OA
ENDBRANCH  84  85
ENDBRANCH  58  79
ENDBRANCH  32  33
ENDBRANCH  25  27
ENDBRANCH  24  25
ENDBRANCH  23  24
ENDBRANCH  22  23
ENDBRANCH  21  22
ENDBRANCH   1  21
TORSDOF 23
ENDMDL
MODEL 3
REMARK VINA RESULT:      -7.5      7.092     12.303
REMARK SMILES CC[NH2+][C@@]1(C(=O)OCCOCCOC(=O)c2ccc(-c3c4nc(c(-c5ccc(S(=O)(=O)[O-])cc5)c5ccc([nH]5)c(-c5ccc(S(=O)(=O)[O-])cc5)c5nc(c(-c6ccc(S(=O)(=O)[O-])cc6)c6ccc3[nH]6)C=C5)C=C4)cc2)CC[C@@H](OCCOC)C1
REMARK SMILES IDX 9 1 8 2 7 3 5 4 6 5 4 6 76 7 84 8 77 9 78 10 3 11 2 14 1 15
REMARK SMILES IDX 79 16 80 17 81 18 82 19 83 20 10 21 11 22 12 23 13 24 14 25
REMARK SMILES IDX 15 26 16 27 17 28 75 29 18 30 74 31 19 32 20 33 21 34 68 35
REMARK SMILES IDX 22 36 73 37 67 38 69 39 23 40 72 41 66 42 65 43 24 45 54 46
REMARK SMILES IDX 35 47 53 48 36 49 39 50 52 51 70 52 37 53 38 54 51 56 71 57
REMARK SMILES IDX 40 58 25 59 26 60 34 61 27 62 33 63 28 64 29 65 30 66 31 67
REMARK SMILES IDX 32 68 55 69 56 70 64 71 57 72 63 73 58 74 59 75 60 76 61 77
REMARK SMILES IDX 62 78 41 79 42 80 50 81 43 82 49 83 44 84 45 85 46 86 47 87
REMARK SMILES IDX 48 88
REMARK H PARENT 3 12 3 13 69 44 39 55
REMARK Flexibility Score: inf
ROOT
ATOM      1  C   UNL A   1      43.697  22.348  24.786  1.00  0.00     0.202 C 
ENDROOT
BRANCH   1   2
ATOM      2  C   UNL A   1      43.085  23.735  25.014  1.00  0.00     0.261 C 
BRANCH   2   3
ATOM      3  O   UNL A   1      42.567  23.914  26.338  1.00  0.00    -0.459 OA
BRANCH   3   4
ATOM      4  C   UNL A   1      41.972  25.119  26.573  1.00  0.00     0.368 C 
ATOM      5  O   UNL A   1      42.375  26.179  26.103  1.00  0.00    -0.245 OA
BRANCH   4   6
ATOM      6  C   UNL A   1      40.768  25.015  27.565  1.00  0.00     0.196 C 
ATOM      7  C   UNL A   1      40.670  23.554  28.026  1.00  0.00     0.084 C 
ATOM      8  C   UNL A   1      39.373  25.214  26.932  1.00  0.00     0.113 C 
ATOM      9  C   UNL A   1      39.984  22.842  26.860  1.00  0.00     0.039 C 
ATOM     10  C   UNL A   1      39.056  23.891  26.225  1.00  0.00     0.125 C 
BRANCH   6  11
ATOM     11  N   UNL A   1      40.922  26.007  28.668  1.00  0.00    -0.332 N 
ATOM     12  H   UNL A   1      41.299  25.521  29.481  1.00  0.00     0.347 HD
ATOM     13  H   UNL A   1      41.540  26.737  28.314  1.00  0.00     0.347 HD
BRANCH  11  14
ATOM     14  C   UNL A   1      39.680  26.675  29.071  1.00  0.00     0.257 C 
ATOM     15  C   UNL A   1      39.833  28.182  28.920  1.00  0.00     0.071 C 
ENDBRANCH  11  14
ENDBRANCH   6  11
BRANCH  10  16
ATOM     16  O   UNL A   1      37.656  23.608  26.230  1.00  0.00    -0.376 OA
BRANCH  16  17
ATOM     17  C   UNL A   1      37.226  22.484  25.471  1.00  0.00     0.189 C 
BRANCH  17  18
ATOM     18  C   UNL A   1      35.739  22.547  25.089  1.00  0.00     0.188 C 
BRANCH  18  19
ATOM     19  O   UNL A   1      34.946  21.437  25.506  1.00  0.00    -0.382 OA
ATOM     20  C   UNL A   1      35.382  20.193  24.963  1.00  0.00     0.195 C 
ENDBRANCH  18  19
ENDBRANCH  17  18
ENDBRANCH  16  17
ENDBRANCH  10  16
ENDBRANCH   4   6
ENDBRANCH   3   4
ENDBRANCH   2   3
ENDBRANCH   1   2
BRANCH   1  21
ATOM     21  O   UNL A   1      44.964  22.073  25.376  1.00  0.00    -0.374 OA
BRANCH  21  22
ATOM     22  C   UNL A   1      46.114  22.698  24.805  1.00  0.00     0.202 C 
BRANCH  22  23
ATOM     23  C   UNL A   1      46.638  23.977  25.474  1.00  0.00     0.261 C 
BRANCH  23  24
ATOM     24  O   UNL A   1      46.921  25.034  24.535  1.00  0.00    -0.460 OA
BRANCH  24  25
ATOM     25  C   UNL A   1      47.913  25.879  24.920  1.00  0.00     0.338 C 
ATOM     26  O   UNL A   1      49.084  25.844  24.585  1.00  0.00    -0.246 OA
BRANCH  25  27
ATOM     27  C   UNL A   1      47.358  27.000  25.701  1.00  0.00     0.060 A 
ATOM     28  C   UNL A   1      46.524  27.910  25.038  1.00  0.00     0.016 A 
ATOM     29  C   UNL A   1      47.745  27.226  27.023  1.00  0.00     0.016 A 
ATOM     30  C   UNL A   1      46.093  29.065  25.690  1.00  0.00     0.010 A 
ATOM     31  C   UNL A   1      47.322  28.394  27.670  1.00  0.00     0.010 A 
ATOM     32  C   UNL A   1      46.515  29.331  27.000  1.00  0.00    -0.014 A 
BRANCH  32  33
ATOM     33  C   UNL A   1      46.187  30.636  27.627  1.00  0.00     0.031 A 
ATOM     34  C   UNL A   1      44.910  30.784  28.409  1.00  0.00     0.074 A 
ATOM     35  C   UNL A   1      47.037  31.674  27.521  1.00  0.00     0.049 A 
ATOM     36  N   UNL A   1      44.434  31.838  29.020  1.00  0.00    -0.248 NA
ATOM     37  C   UNL A   1      44.058  29.587  28.522  1.00  0.00     0.031 C 
ATOM     38  C   UNL A   1      48.325  31.644  26.828  1.00  0.00     0.029 A 
ATOM     39  N   UNL A   1      46.940  32.958  27.997  1.00  0.00    -0.354 N 
ATOM     40  C   UNL A   1      43.229  31.437  29.587  1.00  0.00     0.074 A 
ATOM     41  C   UNL A   1      43.037  30.047  29.232  1.00  0.00     0.031 C 
ATOM     42  C   UNL A   1      48.895  32.859  26.915  1.00  0.00     0.029 A 
ATOM     43  C   UNL A   1      48.000  33.758  27.641  1.00  0.00     0.049 A 
ATOM     44  H   UNL A   1      46.184  33.275  28.539  1.00  0.00     0.167 HD
ATOM     45  C   UNL A   1      42.363  32.160  30.335  1.00  0.00     0.031 A 
ATOM     46  C   UNL A   1      48.215  35.071  27.857  1.00  0.00     0.031 A 
ATOM     47  C   UNL A   1      42.549  33.545  30.680  1.00  0.00     0.049 A 
ATOM     48  C   UNL A   1      47.193  35.873  28.619  1.00  0.00     0.074 A 
ATOM     49  C   UNL A   1      41.738  34.352  31.462  1.00  0.00     0.029 A 
ATOM     50  N   UNL A   1      43.607  34.332  30.258  1.00  0.00    -0.354 N 
ATOM     51  N   UNL A   1      46.078  35.467  29.180  1.00  0.00    -0.248 NA
ATOM     52  C   UNL A   1      47.459  37.310  28.778  1.00  0.00     0.031 C 
ATOM     53  C   UNL A   1      42.279  35.642  31.465  1.00  0.00     0.029 A 
ATOM     54  C   UNL A   1      43.453  35.625  30.730  1.00  0.00     0.049 A 
ATOM     55  H   UNL A   1      44.359  34.018  29.705  1.00  0.00     0.167 HD
ATOM     56  C   UNL A   1      45.520  36.596  29.772  1.00  0.00     0.074 A 
ATOM     57  C   UNL A   1      46.428  37.695  29.518  1.00  0.00     0.031 C 
ATOM     58  C   UNL A   1      44.361  36.712  30.464  1.00  0.00     0.031 A 
BRANCH  45  59
ATOM     59  C   UNL A   1      41.109  31.480  30.813  1.00  0.00    -0.014 A 
ATOM     60  C   UNL A   1      41.104  30.712  31.990  1.00  0.00     0.010 A 
ATOM     61  C   UNL A   1      39.904  31.673  30.114  1.00  0.00     0.010 A 
ATOM     62  C   UNL A   1      39.916  30.134  32.450  1.00  0.00     0.020 A 
ATOM     63  C   UNL A   1      38.712  31.113  30.581  1.00  0.00     0.020 A 
ATOM     64  C   UNL A   1      38.727  30.339  31.742  1.00  0.00     0.054 A 
BRANCH  64  65
ATOM     65  S   UNL A   1      37.193  29.617  32.387  1.00  0.00     0.124 S 
ATOM     66  O   UNL A   1      37.685  28.421  33.066  1.00  0.00    -0.237 OA
ATOM     67  O   UNL A   1      36.684  30.671  33.261  1.00  0.00    -0.237 OA
ATOM     68  O   UNL A   1      36.396  29.368  31.187  1.00  0.00    -0.744 OA
ENDBRANCH  64  65
ENDBRANCH  45  59
BRANCH  46  69
ATOM     69  C   UNL A   1      49.430  35.730  27.307  1.00  0.00    -0.014 A 
ATOM     70  C   UNL A   1      49.439  36.250  26.001  1.00  0.00     0.010 A 
ATOM     71  C   UNL A   1      50.599  35.816  28.087  1.00  0.00     0.010 A 
ATOM     72  C   UNL A   1      50.602  36.821  25.475  1.00  0.00     0.020 A 
ATOM     73  C   UNL A   1      51.754  36.409  27.573  1.00  0.00     0.020 A 
ATOM     74  C   UNL A   1      51.753  36.895  26.265  1.00  0.00     0.054 A 
BRANCH  74  75
ATOM     75  S   UNL A   1      53.244  37.666  25.577  1.00  0.00     0.124 S 
ATOM     76  O   UNL A   1      53.076  37.428  24.146  1.00  0.00    -0.237 OA
ATOM     77  O   UNL A   1      53.111  39.056  26.008  1.00  0.00    -0.237 OA
ATOM     78  O   UNL A   1      54.333  36.927  26.211  1.00  0.00    -0.744 OA
ENDBRANCH  74  75
ENDBRANCH  46  69
BRANCH  58  79
ATOM     79  C   UNL A   1      44.012  38.070  31.011  1.00  0.00    -0.014 A 
ATOM     80  C   UNL A   1      43.427  39.052  30.193  1.00  0.00     0.010 A 
ATOM     81  C   UNL A   1      44.226  38.350  32.373  1.00  0.00     0.010 A 
ATOM     82  C   UNL A   1      43.088  40.300  30.721  1.00  0.00     0.020 A 
ATOM     83  C   UNL A   1      43.865  39.589  32.910  1.00  0.00     0.020 A 
ATOM     84  C   UNL A   1      43.311  40.561  32.076  1.00  0.00     0.054 A 
BRANCH  84  85
ATOM     85  S   UNL A   1      42.824  42.175  32.748  1.00  0.00     0.124 S 
ATOM     86  O   UNL A   1      44.087  42.673  33.286  1.00  0.00    -0.237 OA
ATOM     87  O   UNL A   1      42.323  42.878  31.569  1.00  0.00    -0.237 OA
ATOM     88  O   UNL A   1      41.809  41.842  33.745  1.00  0.00    -0.744 OA
ENDBRANCH  84  85
ENDBRANCH  58  79
ENDBRANCH  32  33
ENDBRANCH  25  27
ENDBRANCH  24  25
ENDBRANCH  23  24
ENDBRANCH  22  23
ENDBRANCH  21  22
ENDBRANCH   1  21
TORSDOF 23
ENDMDL
