MODEL 1
REMARK VINA RESULT:      -8.7      0.000      0.000
REMARK SMILES CCC1(CC)C[NH+]([C@H](CCS(C)(=O)=O)C(=O)OCCOCCOC(=O)c2ccc(-c3c4nc(c(-c5ccc(S(=O)(=O)[O-])cc5)c5ccc([nH]5)c(-c5ccc(S(=O)(=O)[O-])cc5)c5nc(c(-c6ccc(S(=O)(=O)[O-])cc6)c6ccc3[nH]6)C=C5)C=C4)cc2)C1
REMARK SMILES IDX 20 1 19 2 18 3 17 4 15 5 16 6 8 7 7 8 3 9 6 10 86 11 2 13
REMARK SMILES IDX 1 14 4 15 5 16 9 17 10 18 11 19 12 20 13 21 14 22 21 23
REMARK SMILES IDX 22 24 23 25 24 26 25 27 26 28 27 29 85 30 28 31 84 32 29 33
REMARK SMILES IDX 30 34 31 35 78 36 32 37 83 38 77 39 79 40 33 41 82 42 76 43
REMARK SMILES IDX 75 44 34 46 64 47 45 48 63 49 46 50 49 51 62 52 80 53 47 54
REMARK SMILES IDX 48 55 61 57 81 58 50 59 35 60 36 61 44 62 37 63 43 64 38 65
REMARK SMILES IDX 39 66 40 67 41 68 42 69 65 70 66 71 74 72 67 73 73 74 68 75
REMARK SMILES IDX 69 76 70 77 71 78 72 79 51 80 52 81 60 82 53 83 59 84 54 85
REMARK SMILES IDX 55 86 56 87 57 88 58 89
REMARK H PARENT 7 12 79 45 49 56
REMARK Flexibility Score: inf
ROOT
ATOM      1  O   UNL A   1      35.117  20.769  25.093  1.00  0.00    -0.374 OA
ENDROOT
BRANCH   1   2
ATOM      2  C   UNL A   1      34.265  21.717  25.728  1.00  0.00     0.202 C 
BRANCH   2   3
ATOM      3  C   UNL A   1      32.885  21.235  26.196  1.00  0.00     0.261 C 
BRANCH   3   4
ATOM      4  O   UNL A   1      31.783  22.068  25.786  1.00  0.00    -0.459 OA
BRANCH   4   5
ATOM      5  C   UNL A   1      31.752  23.310  26.359  1.00  0.00     0.365 C 
ATOM      6  O   UNL A   1      31.689  23.519  27.566  1.00  0.00    -0.245 OA
BRANCH   5   7
ATOM      7  C   UNL A   1      31.810  24.451  25.308  1.00  0.00     0.296 C 
BRANCH   7   8
ATOM      8  N   UNL A   1      31.648  25.707  26.045  1.00  0.00    -0.322 N 
ATOM      9  C   UNL A   1      31.698  27.823  25.829  1.00  0.00     0.068 C 
ATOM     10  C   UNL A   1      30.639  26.665  25.608  1.00  0.00     0.275 C 
ATOM     11  C   UNL A   1      32.735  26.648  25.854  1.00  0.00     0.275 C 
ATOM     12  H   UNL A   1      31.483  25.271  26.951  1.00  0.00     0.348 HD
BRANCH   9  13
ATOM     13  C   UNL A   1      31.823  28.936  24.762  1.00  0.00     0.015 C 
ATOM     14  C   UNL A   1      30.555  29.420  24.084  1.00  0.00     0.005 C 
ENDBRANCH   9  13
BRANCH   9  15
ATOM     15  C   UNL A   1      31.665  28.473  27.244  1.00  0.00     0.015 C 
ATOM     16  C   UNL A   1      32.227  29.898  27.227  1.00  0.00     0.005 C 
ENDBRANCH   9  15
ENDBRANCH   7   8
BRANCH   7  17
ATOM     17  C   UNL A   1      31.147  24.008  23.960  1.00  0.00     0.094 C 
BRANCH  17  18
ATOM     18  C   UNL A   1      31.829  24.029  22.597  1.00  0.00     0.143 C 
BRANCH  18  19
ATOM     19  S   UNL A   1      32.546  25.540  21.926  1.00  0.00     0.147 S 
ATOM     20  C   UNL A   1      32.554  25.386  20.159  1.00  0.00     0.158 C 
ATOM     21  O   UNL A   1      31.625  26.618  22.237  1.00  0.00    -0.229 OA
ATOM     22  O   UNL A   1      33.930  25.668  22.335  1.00  0.00    -0.229 OA
ENDBRANCH  18  19
ENDBRANCH  17  18
ENDBRANCH   7  17
ENDBRANCH   5   7
ENDBRANCH   4   5
ENDBRANCH   3   4
ENDBRANCH   2   3
ENDBRANCH   1   2
BRANCH   1  23
ATOM     23  C   UNL A   1      36.512  21.050  25.059  1.00  0.00     0.202 C 
BRANCH  23  24
ATOM     24  C   UNL A   1      36.978  22.370  25.684  1.00  0.00     0.261 C 
BRANCH  24  25
ATOM     25  O   UNL A   1      38.343  22.693  25.357  1.00  0.00    -0.460 OA
BRANCH  25  26
ATOM     26  C   UNL A   1      39.195  22.652  26.410  1.00  0.00     0.338 C 
ATOM     27  O   UNL A   1      39.757  21.658  26.861  1.00  0.00    -0.246 OA
BRANCH  26  28
ATOM     28  C   UNL A   1      39.521  24.007  26.883  1.00  0.00     0.060 A 
ATOM     29  C   UNL A   1      40.044  24.909  25.948  1.00  0.00     0.016 A 
ATOM     30  C   UNL A   1      39.445  24.352  28.235  1.00  0.00     0.016 A 
ATOM     31  C   UNL A   1      40.550  26.138  26.368  1.00  0.00     0.010 A 
ATOM     32  C   UNL A   1      39.961  25.584  28.655  1.00  0.00     0.010 A 
ATOM     33  C   UNL A   1      40.556  26.461  27.731  1.00  0.00    -0.014 A 
BRANCH  33  34
ATOM     34  C   UNL A   1      41.332  27.638  28.194  1.00  0.00     0.031 A 
ATOM     35  C   UNL A   1      40.597  28.813  28.783  1.00  0.00     0.074 A 
ATOM     36  C   UNL A   1      42.676  27.647  28.136  1.00  0.00     0.049 A 
ATOM     37  N   UNL A   1      41.073  29.936  29.256  1.00  0.00    -0.248 NA
ATOM     38  C   UNL A   1      39.131  28.703  28.851  1.00  0.00     0.031 C 
ATOM     39  C   UNL A   1      43.507  26.553  27.638  1.00  0.00     0.029 A 
ATOM     40  N   UNL A   1      43.576  28.614  28.507  1.00  0.00    -0.354 N 
ATOM     41  C   UNL A   1      39.967  30.670  29.672  1.00  0.00     0.074 A 
ATOM     42  C   UNL A   1      38.795  29.875  29.370  1.00  0.00     0.031 C 
ATOM     43  C   UNL A   1      44.800  26.910  27.734  1.00  0.00     0.029 A 
ATOM     44  C   UNL A   1      44.885  28.268  28.272  1.00  0.00     0.049 A 
ATOM     45  H   UNL A   1      43.309  29.474  28.904  1.00  0.00     0.167 HD
ATOM     46  C   UNL A   1      39.928  31.891  30.257  1.00  0.00     0.031 A 
ATOM     47  C   UNL A   1      46.020  28.968  28.458  1.00  0.00     0.031 A 
ATOM     48  C   UNL A   1      41.090  32.691  30.540  1.00  0.00     0.049 A 
ATOM     49  C   UNL A   1      45.949  30.356  29.036  1.00  0.00     0.074 A 
ATOM     50  C   UNL A   1      41.154  33.938  31.135  1.00  0.00     0.029 A 
ATOM     51  N   UNL A   1      42.393  32.324  30.239  1.00  0.00    -0.354 N 
ATOM     52  N   UNL A   1      44.897  31.029  29.439  1.00  0.00    -0.248 NA
ATOM     53  C   UNL A   1      47.222  31.076  29.193  1.00  0.00     0.031 C 
ATOM     54  C   UNL A   1      42.492  34.349  31.148  1.00  0.00     0.029 A 
ATOM     55  C   UNL A   1      43.266  33.333  30.610  1.00  0.00     0.049 A 
ATOM     56  H   UNL A   1      42.658  31.473  29.820  1.00  0.00     0.167 HD
ATOM     57  C   UNL A   1      45.382  32.242  29.917  1.00  0.00     0.074 A 
ATOM     58  C   UNL A   1      46.822  32.205  29.764  1.00  0.00     0.031 C 
ATOM     59  C   UNL A   1      44.698  33.287  30.444  1.00  0.00     0.031 A 
BRANCH  46  60
ATOM     60  C   UNL A   1      38.570  32.450  30.588  1.00  0.00    -0.014 A 
ATOM     61  C   UNL A   1      37.999  32.272  31.861  1.00  0.00     0.010 A 
ATOM     62  C   UNL A   1      37.854  33.164  29.611  1.00  0.00     0.010 A 
ATOM     63  C   UNL A   1      36.714  32.753  32.134  1.00  0.00     0.020 A 
ATOM     64  C   UNL A   1      36.580  33.669  29.888  1.00  0.00     0.020 A 
ATOM     65  C   UNL A   1      36.009  33.439  31.141  1.00  0.00     0.054 A 
BRANCH  65  66
ATOM     66  S   UNL A   1      34.339  34.042  31.512  1.00  0.00     0.124 S 
ATOM     67  O   UNL A   1      33.777  34.210  30.173  1.00  0.00    -0.237 OA
ATOM     68  O   UNL A   1      33.769  32.950  32.298  1.00  0.00    -0.237 OA
ATOM     69  O   UNL A   1      34.574  35.280  32.250  1.00  0.00    -0.744 OA
ENDBRANCH  65  66
ENDBRANCH  46  60
BRANCH  47  70
ATOM     70  C   UNL A   1      47.327  28.364  28.083  1.00  0.00    -0.014 A 
ATOM     71  C   UNL A   1      48.079  27.645  29.028  1.00  0.00     0.010 A 
ATOM     72  C   UNL A   1      47.810  28.483  26.767  1.00  0.00     0.010 A 
ATOM     73  C   UNL A   1      49.295  27.057  28.663  1.00  0.00     0.020 A 
ATOM     74  C   UNL A   1      49.012  27.877  26.393  1.00  0.00     0.020 A 
ATOM     75  C   UNL A   1      49.750  27.172  27.345  1.00  0.00     0.054 A 
BRANCH  75  76
ATOM     76  S   UNL A   1      51.289  26.334  26.874  1.00  0.00     0.124 S 
ATOM     77  O   UNL A   1      52.239  26.880  27.838  1.00  0.00    -0.237 OA
ATOM     78  O   UNL A   1      50.947  24.924  27.050  1.00  0.00    -0.237 OA
ATOM     79  O   UNL A   1      51.492  26.748  25.488  1.00  0.00    -0.744 OA
ENDBRANCH  75  76
ENDBRANCH  47  70
BRANCH  59  80
ATOM     80  C   UNL A   1      45.496  34.471  30.920  1.00  0.00    -0.014 A 
ATOM     81  C   UNL A   1      45.792  35.544  30.062  1.00  0.00     0.010 A 
ATOM     82  C   UNL A   1      45.907  34.534  32.265  1.00  0.00     0.010 A 
ATOM     83  C   UNL A   1      46.510  36.648  30.532  1.00  0.00     0.020 A 
ATOM     84  C   UNL A   1      46.603  35.647  32.744  1.00  0.00     0.020 A 
ATOM     85  C   UNL A   1      46.913  36.690  31.870  1.00  0.00     0.054 A 
BRANCH  85  86
ATOM     86  S   UNL A   1      47.806  38.153  32.470  1.00  0.00     0.124 S 
ATOM     87  O   UNL A   1      46.897  39.235  32.102  1.00  0.00    -0.237 OA
ATOM     88  O   UNL A   1      47.926  37.892  33.902  1.00  0.00    -0.237 OA
ATOM     89  O   UNL A   1      49.064  38.116  31.730  1.00  0.00    -0.744 OA
ENDBRANCH  85  86
ENDBRANCH  59  80
ENDBRANCH  33  34
ENDBRANCH  26  28
ENDBRANCH  25  26
ENDBRANCH  24  25
ENDBRANCH  23  24
ENDBRANCH   1  23
TORSDOF 23
ENDMDL
MODEL 2
REMARK VINA RESULT:      -8.4      1.402      8.416
REMARK SMILES CCC1(CC)C[NH+]([C@H](CCS(C)(=O)=O)C(=O)OCCOCCOC(=O)c2ccc(-c3c4nc(c(-c5ccc(S(=O)(=O)[O-])cc5)c5ccc([nH]5)c(-c5ccc(S(=O)(=O)[O-])cc5)c5nc(c(-c6ccc(S(=O)(=O)[O-])cc6)c6ccc3[nH]6)C=C5)C=C4)cc2)C1
REMARK SMILES IDX 20 1 19 2 18 3 17 4 15 5 16 6 8 7 7 8 3 9 6 10 86 11 2 13
REMARK SMILES IDX 1 14 4 15 5 16 9 17 10 18 11 19 12 20 13 21 14 22 21 23
REMARK SMILES IDX 22 24 23 25 24 26 25 27 26 28 27 29 85 30 28 31 84 32 29 33
REMARK SMILES IDX 30 34 31 35 78 36 32 37 83 38 77 39 79 40 33 41 82 42 76 43
REMARK SMILES IDX 75 44 34 46 64 47 45 48 63 49 46 50 49 51 62 52 80 53 47 54
REMARK SMILES IDX 48 55 61 57 81 58 50 59 35 60 36 61 44 62 37 63 43 64 38 65
REMARK SMILES IDX 39 66 40 67 41 68 42 69 65 70 66 71 74 72 67 73 73 74 68 75
REMARK SMILES IDX 69 76 70 77 71 78 72 79 51 80 52 81 60 82 53 83 59 84 54 85
REMARK SMILES IDX 55 86 56 87 57 88 58 89
REMARK H PARENT 7 12 79 45 49 56
REMARK Flexibility Score: inf
ROOT
ATOM      1  O   UNL A   1      36.469  22.449  25.472  1.00  0.00    -0.374 OA
ENDROOT
BRANCH   1   2
ATOM      2  C   UNL A   1      35.568  23.517  25.201  1.00  0.00     0.202 C 
BRANCH   2   3
ATOM      3  C   UNL A   1      34.117  23.365  25.679  1.00  0.00     0.261 C 
BRANCH   3   4
ATOM      4  O   UNL A   1      33.452  24.604  25.996  1.00  0.00    -0.459 OA
BRANCH   4   5
ATOM      5  C   UNL A   1      33.113  25.370  24.915  1.00  0.00     0.365 C 
ATOM      6  O   UNL A   1      33.323  25.061  23.746  1.00  0.00    -0.245 OA
BRANCH   5   7
ATOM      7  C   UNL A   1      32.418  26.697  25.322  1.00  0.00     0.296 C 
BRANCH   7   8
ATOM      8  N   UNL A   1      33.354  27.410  26.195  1.00  0.00    -0.322 N 
ATOM      9  C   UNL A   1      33.870  29.344  26.916  1.00  0.00     0.068 C 
ATOM     10  C   UNL A   1      32.835  28.207  27.300  1.00  0.00     0.275 C 
ATOM     11  C   UNL A   1      33.992  28.553  25.568  1.00  0.00     0.275 C 
ATOM     12  H   UNL A   1      33.894  26.586  26.456  1.00  0.00     0.348 HD
BRANCH   9  13
ATOM     13  C   UNL A   1      33.394  30.816  26.904  1.00  0.00     0.015 C 
ATOM     14  C   UNL A   1      31.903  31.082  26.822  1.00  0.00     0.005 C 
ENDBRANCH   9  13
BRANCH   9  15
ATOM     15  C   UNL A   1      35.237  29.255  27.656  1.00  0.00     0.015 C 
ATOM     16  C   UNL A   1      35.813  30.644  27.954  1.00  0.00     0.005 C 
ENDBRANCH   9  15
ENDBRANCH   7   8
BRANCH   7  17
ATOM     17  C   UNL A   1      30.874  26.494  25.494  1.00  0.00     0.094 C 
BRANCH  17  18
ATOM     18  C   UNL A   1      29.851  26.537  24.365  1.00  0.00     0.143 C 
BRANCH  18  19
ATOM     19  S   UNL A   1      29.782  27.918  23.209  1.00  0.00     0.147 S 
ATOM     20  C   UNL A   1      30.614  29.288  23.967  1.00  0.00     0.158 C 
ATOM     21  O   UNL A   1      30.582  27.543  22.056  1.00  0.00    -0.229 OA
ATOM     22  O   UNL A   1      28.411  28.333  22.998  1.00  0.00    -0.229 OA
ENDBRANCH  18  19
ENDBRANCH  17  18
ENDBRANCH   7  17
ENDBRANCH   5   7
ENDBRANCH   4   5
ENDBRANCH   3   4
ENDBRANCH   2   3
ENDBRANCH   1   2
BRANCH   1  23
ATOM     23  C   UNL A   1      37.822  22.781  25.762  1.00  0.00     0.202 C 
BRANCH  23  24
ATOM     24  C   UNL A   1      38.845  21.638  25.753  1.00  0.00     0.261 C 
BRANCH  24  25
ATOM     25  O   UNL A   1      39.856  21.784  26.768  1.00  0.00    -0.460 OA
BRANCH  25  26
ATOM     26  C   UNL A   1      40.959  22.460  26.364  1.00  0.00     0.338 C 
ATOM     27  O   UNL A   1      41.763  22.107  25.507  1.00  0.00    -0.246 OA
BRANCH  26  28
ATOM     28  C   UNL A   1      41.014  23.799  26.973  1.00  0.00     0.060 A 
ATOM     29  C   UNL A   1      40.882  24.902  26.119  1.00  0.00     0.016 A 
ATOM     30  C   UNL A   1      41.322  23.981  28.323  1.00  0.00     0.016 A 
ATOM     31  C   UNL A   1      41.116  26.190  26.598  1.00  0.00     0.010 A 
ATOM     32  C   UNL A   1      41.565  25.275  28.800  1.00  0.00     0.010 A 
ATOM     33  C   UNL A   1      41.507  26.379  27.930  1.00  0.00    -0.014 A 
BRANCH  33  34
ATOM     34  C   UNL A   1      42.012  27.708  28.356  1.00  0.00     0.031 A 
ATOM     35  C   UNL A   1      43.489  27.989  28.273  1.00  0.00     0.074 A 
ATOM     36  C   UNL A   1      41.167  28.669  28.768  1.00  0.00     0.049 A 
ATOM     37  N   UNL A   1      44.143  29.078  28.584  1.00  0.00    -0.248 NA
ATOM     38  C   UNL A   1      44.338  26.898  27.769  1.00  0.00     0.031 C 
ATOM     39  C   UNL A   1      39.712  28.540  28.844  1.00  0.00     0.029 A 
ATOM     40  N   UNL A   1      41.416  29.949  29.197  1.00  0.00    -0.354 N 
ATOM     41  C   UNL A   1      45.481  28.803  28.319  1.00  0.00     0.074 A 
ATOM     42  C   UNL A   1      45.546  27.436  27.849  1.00  0.00     0.031 C 
ATOM     43  C   UNL A   1      39.196  29.698  29.293  1.00  0.00     0.029 A 
ATOM     44  C   UNL A   1      40.285  30.637  29.564  1.00  0.00     0.049 A 
ATOM     45  H   UNL A   1      42.320  30.337  29.237  1.00  0.00     0.167 HD
ATOM     46  C   UNL A   1      46.558  29.615  28.450  1.00  0.00     0.031 A 
ATOM     47  C   UNL A   1      40.143  31.877  30.072  1.00  0.00     0.031 A 
ATOM     48  C   UNL A   1      46.498  30.968  28.935  1.00  0.00     0.049 A 
ATOM     49  C   UNL A   1      41.362  32.735  30.284  1.00  0.00     0.074 A 
ATOM     50  C   UNL A   1      47.533  31.872  29.099  1.00  0.00     0.029 A 
ATOM     51  N   UNL A   1      45.339  31.608  29.345  1.00  0.00    -0.354 N 
ATOM     52  N   UNL A   1      42.617  32.466  30.014  1.00  0.00    -0.248 NA
ATOM     53  C   UNL A   1      41.141  34.069  30.862  1.00  0.00     0.031 C 
ATOM     54  C   UNL A   1      47.006  33.043  29.655  1.00  0.00     0.029 A 
ATOM     55  C   UNL A   1      45.635  32.887  29.787  1.00  0.00     0.049 A 
ATOM     56  H   UNL A   1      44.438  31.212  29.327  1.00  0.00     0.167 HD
ATOM     57  C   UNL A   1      43.334  33.604  30.368  1.00  0.00     0.074 A 
ATOM     58  C   UNL A   1      42.371  34.568  30.861  1.00  0.00     0.031 C 
ATOM     59  C   UNL A   1      44.668  33.834  30.284  1.00  0.00     0.031 A 
BRANCH  46  60
ATOM     60  C   UNL A   1      47.902  29.034  28.098  1.00  0.00    -0.014 A 
ATOM     61  C   UNL A   1      48.404  29.100  26.786  1.00  0.00     0.010 A 
ATOM     62  C   UNL A   1      48.674  28.413  29.096  1.00  0.00     0.010 A 
ATOM     63  C   UNL A   1      49.630  28.508  26.467  1.00  0.00     0.020 A 
ATOM     64  C   UNL A   1      49.912  27.842  28.787  1.00  0.00     0.020 A 
ATOM     65  C   UNL A   1      50.371  27.873  27.468  1.00  0.00     0.054 A 
BRANCH  65  66
ATOM     66  S   UNL A   1      51.952  27.101  27.029  1.00  0.00     0.124 S 
ATOM     67  O   UNL A   1      52.869  28.237  27.099  1.00  0.00    -0.237 OA
ATOM     68  O   UNL A   1      52.121  26.095  28.075  1.00  0.00    -0.237 OA
ATOM     69  O   UNL A   1      51.719  26.570  25.689  1.00  0.00    -0.744 OA
ENDBRANCH  65  66
ENDBRANCH  46  60
BRANCH  47  70
ATOM     70  C   UNL A   1      38.787  32.377  30.422  1.00  0.00    -0.014 A 
ATOM     71  C   UNL A   1      38.097  33.241  29.554  1.00  0.00     0.010 A 
ATOM     72  C   UNL A   1      38.168  31.967  31.618  1.00  0.00     0.010 A 
ATOM     73  C   UNL A   1      36.812  33.688  29.876  1.00  0.00     0.020 A 
ATOM     74  C   UNL A   1      36.875  32.393  31.932  1.00  0.00     0.020 A 
ATOM     75  C   UNL A   1      36.207  33.256  31.061  1.00  0.00     0.054 A 
BRANCH  75  76
ATOM     76  S   UNL A   1      34.508  33.783  31.421  1.00  0.00     0.124 S 
ATOM     77  O   UNL A   1      34.037  32.712  32.292  1.00  0.00    -0.237 OA
ATOM     78  O   UNL A   1      34.710  35.080  32.063  1.00  0.00    -0.237 OA
ATOM     79  O   UNL A   1      33.883  33.842  30.102  1.00  0.00    -0.744 OA
ENDBRANCH  75  76
ENDBRANCH  47  70
BRANCH  59  80
ATOM     80  C   UNL A   1      45.168  35.188  30.709  1.00  0.00    -0.014 A 
ATOM     81  C   UNL A   1      45.605  35.425  32.024  1.00  0.00     0.010 A 
ATOM     82  C   UNL A   1      45.254  36.225  29.760  1.00  0.00     0.010 A 
ATOM     83  C   UNL A   1      46.092  36.682  32.391  1.00  0.00     0.020 A 
ATOM     84  C   UNL A   1      45.764  37.475  30.118  1.00  0.00     0.020 A 
ATOM     85  C   UNL A   1      46.167  37.701  31.435  1.00  0.00     0.054 A 
BRANCH  85  86
ATOM     86  S   UNL A   1      46.845  39.312  31.923  1.00  0.00     0.124 S 
ATOM     87  O   UNL A   1      47.077  39.948  30.630  1.00  0.00    -0.237 OA
ATOM     88  O   UNL A   1      45.765  39.888  32.721  1.00  0.00    -0.237 OA
ATOM     89  O   UNL A   1      48.049  38.967  32.674  1.00  0.00    -0.744 OA
ENDBRANCH  85  86
ENDBRANCH  59  80
ENDBRANCH  33  34
ENDBRANCH  26  28
ENDBRANCH  25  26
ENDBRANCH  24  25
ENDBRANCH  23  24
ENDBRANCH   1  23
TORSDOF 23
ENDMDL
MODEL 3
REMARK VINA RESULT:      -8.4      2.649      3.966
REMARK SMILES CCC1(CC)C[NH+]([C@H](CCS(C)(=O)=O)C(=O)OCCOCCOC(=O)c2ccc(-c3c4nc(c(-c5ccc(S(=O)(=O)[O-])cc5)c5ccc([nH]5)c(-c5ccc(S(=O)(=O)[O-])cc5)c5nc(c(-c6ccc(S(=O)(=O)[O-])cc6)c6ccc3[nH]6)C=C5)C=C4)cc2)C1
REMARK SMILES IDX 20 1 19 2 18 3 17 4 15 5 16 6 8 7 7 8 3 9 6 10 86 11 2 13
REMARK SMILES IDX 1 14 4 15 5 16 9 17 10 18 11 19 12 20 13 21 14 22 21 23
REMARK SMILES IDX 22 24 23 25 24 26 25 27 26 28 27 29 85 30 28 31 84 32 29 33
REMARK SMILES IDX 30 34 31 35 78 36 32 37 83 38 77 39 79 40 33 41 82 42 76 43
REMARK SMILES IDX 75 44 34 46 64 47 45 48 63 49 46 50 49 51 62 52 80 53 47 54
REMARK SMILES IDX 48 55 61 57 81 58 50 59 35 60 36 61 44 62 37 63 43 64 38 65
REMARK SMILES IDX 39 66 40 67 41 68 42 69 65 70 66 71 74 72 67 73 73 74 68 75
REMARK SMILES IDX 69 76 70 77 71 78 72 79 51 80 52 81 60 82 53 83 59 84 54 85
REMARK SMILES IDX 55 86 56 87 57 88 58 89
REMARK H PARENT 7 12 79 45 49 56
REMARK Flexibility Score: inf
ROOT
ATOM      1  O   UNL A   1      38.871  21.524  25.772  1.00  0.00    -0.374 OA
ENDROOT
BRANCH   1   2
ATOM      2  C   UNL A   1      37.914  22.429  25.232  1.00  0.00     0.202 C 
BRANCH   2   3
ATOM      3  C   UNL A   1      36.931  21.887  24.185  1.00  0.00     0.261 C 
BRANCH   3   4
ATOM      4  O   UNL A   1      35.545  21.937  24.575  1.00  0.00    -0.459 OA
BRANCH   4   5
ATOM      5  C   UNL A   1      34.724  22.600  23.705  1.00  0.00     0.365 C 
ATOM      6  O   UNL A   1      35.091  23.118  22.655  1.00  0.00    -0.245 OA
BRANCH   5   7
ATOM      7  C   UNL A   1      33.248  22.630  24.187  1.00  0.00     0.296 C 
BRANCH   7   8
ATOM      8  N   UNL A   1      33.085  23.863  24.960  1.00  0.00    -0.322 N 
ATOM      9  C   UNL A   1      32.891  25.973  24.774  1.00  0.00     0.068 C 
ATOM     10  C   UNL A   1      31.929  24.716  24.708  1.00  0.00     0.275 C 
ATOM     11  C   UNL A   1      34.029  24.908  24.612  1.00  0.00     0.275 C 
ATOM     12  H   UNL A   1      33.113  23.413  25.874  1.00  0.00     0.348 HD
BRANCH   9  13
ATOM     13  C   UNL A   1      32.732  27.094  23.719  1.00  0.00     0.015 C 
ATOM     14  C   UNL A   1      31.415  27.187  22.972  1.00  0.00     0.005 C 
ENDBRANCH   9  13
BRANCH   9  15
ATOM     15  C   UNL A   1      33.025  26.617  26.186  1.00  0.00     0.015 C 
ATOM     16  C   UNL A   1      31.783  27.431  26.559  1.00  0.00     0.005 C 
ENDBRANCH   9  15
ENDBRANCH   7   8
BRANCH   7  17
ATOM     17  C   UNL A   1      32.735  21.187  24.516  1.00  0.00     0.094 C 
BRANCH  17  18
ATOM     18  C   UNL A   1      32.399  20.116  23.485  1.00  0.00     0.143 C 
BRANCH  18  19
ATOM     19  S   UNL A   1      32.760  18.376  23.781  1.00  0.00     0.147 S 
ATOM     20  C   UNL A   1      34.424  18.274  24.385  1.00  0.00     0.158 C 
ATOM     21  O   UNL A   1      31.903  17.947  24.872  1.00  0.00    -0.229 OA
ATOM     22  O   UNL A   1      32.726  17.634  22.538  1.00  0.00    -0.229 OA
ENDBRANCH  18  19
ENDBRANCH  17  18
ENDBRANCH   7  17
ENDBRANCH   5   7
ENDBRANCH   4   5
ENDBRANCH   3   4
ENDBRANCH   2   3
ENDBRANCH   1   2
BRANCH   1  23
ATOM     23  C   UNL A   1      38.694  20.137  25.509  1.00  0.00     0.202 C 
BRANCH  23  24
ATOM     24  C   UNL A   1      39.847  19.197  25.881  1.00  0.00     0.261 C 
BRANCH  24  25
ATOM     25  O   UNL A   1      41.112  19.622  25.340  1.00  0.00    -0.460 OA
BRANCH  25  26
ATOM     26  C   UNL A   1      42.105  19.727  26.256  1.00  0.00     0.338 C 
ATOM     27  O   UNL A   1      42.847  18.828  26.640  1.00  0.00    -0.246 OA
BRANCH  26  28
ATOM     28  C   UNL A   1      42.322  21.130  26.647  1.00  0.00     0.060 A 
ATOM     29  C   UNL A   1      42.363  22.087  25.624  1.00  0.00     0.016 A 
ATOM     30  C   UNL A   1      42.612  21.489  27.965  1.00  0.00     0.016 A 
ATOM     31  C   UNL A   1      42.754  23.394  25.905  1.00  0.00     0.010 A 
ATOM     32  C   UNL A   1      43.012  22.801  28.244  1.00  0.00     0.010 A 
ATOM     33  C   UNL A   1      43.128  23.747  27.208  1.00  0.00    -0.014 A 
BRANCH  33  34
ATOM     34  C   UNL A   1      43.794  25.052  27.444  1.00  0.00     0.031 A 
ATOM     35  C   UNL A   1      42.981  26.200  27.981  1.00  0.00     0.074 A 
ATOM     36  C   UNL A   1      45.112  25.205  27.229  1.00  0.00     0.049 A 
ATOM     37  N   UNL A   1      43.358  27.419  28.267  1.00  0.00    -0.248 NA
ATOM     38  C   UNL A   1      41.555  25.935  28.232  1.00  0.00     0.031 C 
ATOM     39  C   UNL A   1      46.019  24.158  26.761  1.00  0.00     0.029 A 
ATOM     40  N   UNL A   1      45.917  26.305  27.382  1.00  0.00    -0.354 N 
ATOM     41  C   UNL A   1      42.217  28.070  28.726  1.00  0.00     0.074 A 
ATOM     42  C   UNL A   1      41.130  27.118  28.653  1.00  0.00     0.031 C 
ATOM     43  C   UNL A   1      47.259  24.668  26.665  1.00  0.00     0.029 A 
ATOM     44  C   UNL A   1      47.228  26.082  27.036  1.00  0.00     0.049 A 
ATOM     45  H   UNL A   1      45.587  27.173  27.710  1.00  0.00     0.167 HD
ATOM     46  C   UNL A   1      42.085  29.343  29.173  1.00  0.00     0.031 A 
ATOM     47  C   UNL A   1      48.279  26.924  27.010  1.00  0.00     0.031 A 
ATOM     48  C   UNL A   1      43.160  30.297  29.227  1.00  0.00     0.049 A 
ATOM     49  C   UNL A   1      48.094  28.356  27.434  1.00  0.00     0.074 A 
ATOM     50  C   UNL A   1      43.127  31.608  29.669  1.00  0.00     0.029 A 
ATOM     51  N   UNL A   1      44.461  30.045  28.818  1.00  0.00    -0.354 N 
ATOM     52  N   UNL A   1      47.013  28.950  27.880  1.00  0.00    -0.248 NA
ATOM     53  C   UNL A   1      49.275  29.228  27.360  1.00  0.00     0.031 C 
ATOM     54  C   UNL A   1      44.397  32.165  29.479  1.00  0.00     0.029 A 
ATOM     55  C   UNL A   1      45.234  31.184  28.971  1.00  0.00     0.049 A 
ATOM     56  H   UNL A   1      44.786  29.184  28.469  1.00  0.00     0.167 HD
ATOM     57  C   UNL A   1      47.388  30.260  28.161  1.00  0.00     0.074 A 
ATOM     58  C   UNL A   1      48.798  30.368  27.845  1.00  0.00     0.031 C 
ATOM     59  C   UNL A   1      46.635  31.279  28.645  1.00  0.00     0.031 A 
BRANCH  46  60
ATOM     60  C   UNL A   1      40.708  29.781  29.596  1.00  0.00    -0.014 A 
ATOM     61  C   UNL A   1      40.375  29.925  30.955  1.00  0.00     0.010 A 
ATOM     62  C   UNL A   1      39.735  30.056  28.619  1.00  0.00     0.010 A 
ATOM     63  C   UNL A   1      39.077  30.282  31.331  1.00  0.00     0.020 A 
ATOM     64  C   UNL A   1      38.442  30.439  28.990  1.00  0.00     0.020 A 
ATOM     65  C   UNL A   1      38.115  30.526  30.345  1.00  0.00     0.054 A 
BRANCH  65  66
ATOM     66  S   UNL A   1      36.434  30.976  30.856  1.00  0.00     0.124 S 
ATOM     67  O   UNL A   1      35.739  31.038  29.572  1.00  0.00    -0.237 OA
ATOM     68  O   UNL A   1      36.051  29.864  31.722  1.00  0.00    -0.237 OA
ATOM     69  O   UNL A   1      36.608  32.258  31.532  1.00  0.00    -0.744 OA
ENDBRANCH  65  66
ENDBRANCH  46  60
BRANCH  47  70
ATOM     70  C   UNL A   1      49.606  26.429  26.553  1.00  0.00    -0.014 A 
ATOM     71  C   UNL A   1      49.965  26.494  25.196  1.00  0.00     0.010 A 
ATOM     72  C   UNL A   1      50.527  25.914  27.484  1.00  0.00     0.010 A 
ATOM     73  C   UNL A   1      51.222  26.050  24.775  1.00  0.00     0.020 A 
ATOM     74  C   UNL A   1      51.794  25.491  27.071  1.00  0.00     0.020 A 
ATOM     75  C   UNL A   1      52.131  25.557  25.718  1.00  0.00     0.054 A 
BRANCH  75  76
ATOM     76  S   UNL A   1      53.786  25.062  25.162  1.00  0.00     0.124 S 
ATOM     77  O   UNL A   1      54.019  25.978  24.051  1.00  0.00    -0.237 OA
ATOM     78  O   UNL A   1      54.601  25.292  26.354  1.00  0.00    -0.237 OA
ATOM     79  O   UNL A   1      53.618  23.658  24.795  1.00  0.00    -0.744 OA
ENDBRANCH  75  76
ENDBRANCH  47  70
BRANCH  59  80
ATOM     80  C   UNL A   1      47.323  32.596  28.890  1.00  0.00    -0.014 A 
ATOM     81  C   UNL A   1      47.305  33.619  27.926  1.00  0.00     0.010 A 
ATOM     82  C   UNL A   1      47.948  32.831  30.129  1.00  0.00     0.010 A 
ATOM     83  C   UNL A   1      47.926  34.844  28.185  1.00  0.00     0.020 A 
ATOM     84  C   UNL A   1      48.548  34.063  30.400  1.00  0.00     0.020 A 
ATOM     85  C   UNL A   1      48.545  35.058  29.421  1.00  0.00     0.054 A 
BRANCH  85  86
ATOM     86  S   UNL A   1      49.306  36.672  29.752  1.00  0.00     0.124 S 
ATOM     87  O   UNL A   1      50.630  36.511  29.161  1.00  0.00    -0.237 OA
ATOM     88  O   UNL A   1      48.415  37.597  29.056  1.00  0.00    -0.237 OA
ATOM     89  O   UNL A   1      49.281  36.772  31.209  1.00  0.00    -0.744 OA
ENDBRANCH  85  86
ENDBRANCH  59  80
ENDBRANCH  33  34
ENDBRANCH  26  28
ENDBRANCH  25  26
ENDBRANCH  24  25
ENDBRANCH  23  24
ENDBRANCH   1  23
TORSDOF 23
ENDMDL
