MODEL 1
REMARK VINA RESULT:      -9.6      0.000      0.000
REMARK SMILES COc1ccc(NC(C)(C)C2=N[C@@H](C(=O)OCCOCCOC(=O)c3ccc(-c4c5nc(c(-c6ccc(S(=O)(=O)[O-])cc6)c6ccc([nH]6)c(-c6ccc(S(=O)(=O)[O-])cc6)c6nc(c(-c7ccc(S(=O)(=O)[O-])cc7)c7ccc4[nH]7)C=C6)C=C5)cc3)CS2)cc1
REMARK SMILES IDX 18 1 17 2 16 3 14 4 15 5 13 6 11 7 12 8 86 9 85 10 8 11 9 12
REMARK SMILES IDX 10 13 7 14 6 16 3 17 4 18 88 19 5 20 87 21 2 22 1 23 19 24
REMARK SMILES IDX 20 25 21 26 22 27 23 28 24 29 25 30 26 31 84 32 27 33 83 34
REMARK SMILES IDX 28 35 29 36 30 37 77 38 31 39 82 40 76 41 78 42 32 43 81 44
REMARK SMILES IDX 75 45 74 46 33 48 63 49 44 50 62 51 45 52 48 53 61 54 79 55
REMARK SMILES IDX 46 56 47 57 60 59 80 60 49 61 34 62 35 63 43 64 36 65 42 66
REMARK SMILES IDX 37 67 38 68 39 69 40 70 41 71 64 72 65 73 73 74 66 75 72 76
REMARK SMILES IDX 67 77 68 78 69 79 70 80 71 81 50 82 51 83 59 84 52 85 58 86
REMARK SMILES IDX 53 87 54 88 55 89 56 90 57 91
REMARK H PARENT 7 15 78 47 48 58
REMARK Flexibility Score: inf
ROOT
ATOM      1  C   UNL A   1      32.867  30.065  25.810  1.00  0.00     0.202 C 
ENDROOT
BRANCH   1   2
ATOM      2  C   UNL A   1      33.383  28.860  25.018  1.00  0.00     0.261 C 
BRANCH   2   3
ATOM      3  O   UNL A   1      32.973  28.958  23.647  1.00  0.00    -0.462 OA
BRANCH   3   4
ATOM      4  C   UNL A   1      31.730  28.489  23.361  1.00  0.00     0.331 C 
ATOM      5  O   UNL A   1      30.701  29.152  23.431  1.00  0.00    -0.250 OA
BRANCH   4   6
ATOM      6  C   UNL A   1      31.766  27.055  22.843  1.00  0.00     0.226 C 
ATOM      7  C   UNL A   1      32.437  25.132  23.907  1.00  0.00     0.094 C 
ATOM      8  N   UNL A   1      31.619  26.130  23.979  1.00  0.00    -0.264 NA
ATOM      9  S   UNL A   1      33.645  25.179  22.641  1.00  0.00    -0.106 SA
ATOM     10  C   UNL A   1      32.942  26.678  21.945  1.00  0.00     0.115 C 
BRANCH   7  11
ATOM     11  C   UNL A   1      32.332  23.924  24.852  1.00  0.00     0.080 C 
ATOM     12  C   UNL A   1      30.957  23.275  24.568  1.00  0.00     0.042 C 
ATOM     13  C   UNL A   1      32.370  24.295  26.344  1.00  0.00     0.042 C 
BRANCH  11  14
ATOM     14  N   UNL A   1      33.364  22.873  24.631  1.00  0.00    -0.374 N 
ATOM     15  H   UNL A   1      33.035  22.111  24.103  1.00  0.00     0.161 HD
BRANCH  14  16
ATOM     16  C   UNL A   1      34.682  22.741  25.012  1.00  0.00     0.035 A 
ATOM     17  C   UNL A   1      37.448  22.335  25.602  1.00  0.00     0.119 A 
ATOM     18  C   UNL A   1      36.799  23.499  25.985  1.00  0.00     0.048 A 
ATOM     19  C   UNL A   1      36.715  21.345  24.962  1.00  0.00     0.048 A 
ATOM     20  C   UNL A   1      35.437  23.685  25.704  1.00  0.00     0.029 A 
ATOM     21  C   UNL A   1      35.355  21.556  24.670  1.00  0.00     0.029 A 
BRANCH  17  22
ATOM     22  O   UNL A   1      38.767  22.262  25.951  1.00  0.00    -0.497 OA
ATOM     23  C   UNL A   1      39.277  23.380  26.667  1.00  0.00     0.278 C 
ENDBRANCH  17  22
ENDBRANCH  14  16
ENDBRANCH  11  14
ENDBRANCH   7  11
ENDBRANCH   4   6
ENDBRANCH   3   4
ENDBRANCH   2   3
ENDBRANCH   1   2
BRANCH   1  24
ATOM     24  O   UNL A   1      33.063  30.031  27.224  1.00  0.00    -0.374 OA
BRANCH  24  25
ATOM     25  C   UNL A   1      33.826  31.074  27.827  1.00  0.00     0.202 C 
BRANCH  25  26
ATOM     26  C   UNL A   1      35.354  30.967  27.748  1.00  0.00     0.261 C 
BRANCH  26  27
ATOM     27  O   UNL A   1      35.838  29.700  28.229  1.00  0.00    -0.460 OA
BRANCH  27  28
ATOM     28  C   UNL A   1      36.505  29.765  29.407  1.00  0.00     0.338 C 
ATOM     29  O   UNL A   1      36.031  29.641  30.529  1.00  0.00    -0.246 OA
BRANCH  28  30
ATOM     30  C   UNL A   1      37.960  29.812  29.172  1.00  0.00     0.060 A 
ATOM     31  C   UNL A   1      38.400  29.701  27.847  1.00  0.00     0.016 A 
ATOM     32  C   UNL A   1      38.876  29.862  30.224  1.00  0.00     0.016 A 
ATOM     33  C   UNL A   1      39.759  29.587  27.571  1.00  0.00     0.010 A 
ATOM     34  C   UNL A   1      40.242  29.735  29.945  1.00  0.00     0.010 A 
ATOM     35  C   UNL A   1      40.685  29.557  28.621  1.00  0.00    -0.014 A 
BRANCH  35  36
ATOM     36  C   UNL A   1      42.091  29.180  28.332  1.00  0.00     0.031 A 
ATOM     37  C   UNL A   1      42.402  27.753  27.968  1.00  0.00     0.074 A 
ATOM     38  C   UNL A   1      43.067  30.104  28.340  1.00  0.00     0.049 A 
ATOM     39  N   UNL A   1      43.553  27.208  27.668  1.00  0.00    -0.248 NA
ATOM     40  C   UNL A   1      41.266  26.818  27.933  1.00  0.00     0.031 C 
ATOM     41  C   UNL A   1      42.885  31.527  28.629  1.00  0.00     0.029 A 
ATOM     42  N   UNL A   1      44.412  29.981  28.095  1.00  0.00    -0.354 N 
ATOM     43  C   UNL A   1      43.282  25.868  27.417  1.00  0.00     0.074 A 
ATOM     44  C   UNL A   1      41.864  25.676  27.627  1.00  0.00     0.031 C 
ATOM     45  C   UNL A   1      44.077  32.144  28.548  1.00  0.00     0.029 A 
ATOM     46  C   UNL A   1      45.108  31.158  28.231  1.00  0.00     0.049 A 
ATOM     47  H   UNL A   1      44.838  29.129  27.843  1.00  0.00     0.167 HD
ATOM     48  C   UNL A   1      44.136  24.886  27.041  1.00  0.00     0.031 A 
ATOM     49  C   UNL A   1      46.429  31.408  28.129  1.00  0.00     0.031 A 
ATOM     50  C   UNL A   1      45.549  25.075  26.844  1.00  0.00     0.049 A 
ATOM     51  C   UNL A   1      47.369  30.286  27.778  1.00  0.00     0.074 A 
ATOM     52  C   UNL A   1      46.495  24.144  26.450  1.00  0.00     0.029 A 
ATOM     53  N   UNL A   1      46.220  26.273  27.034  1.00  0.00    -0.354 N 
ATOM     54  N   UNL A   1      47.093  29.029  27.522  1.00  0.00    -0.248 NA
ATOM     55  C   UNL A   1      48.798  30.618  27.694  1.00  0.00     0.031 C 
ATOM     56  C   UNL A   1      47.747  24.768  26.455  1.00  0.00     0.029 A 
ATOM     57  C   UNL A   1      47.573  26.100  26.793  1.00  0.00     0.049 A 
ATOM     58  H   UNL A   1      45.798  27.121  27.301  1.00  0.00     0.167 HD
ATOM     59  C   UNL A   1      48.312  28.428  27.222  1.00  0.00     0.074 A 
ATOM     60  C   UNL A   1      49.322  29.461  27.315  1.00  0.00     0.031 C 
ATOM     61  C   UNL A   1      48.569  27.137  26.892  1.00  0.00     0.031 A 
BRANCH  48  62
ATOM     62  C   UNL A   1      43.566  23.505  26.853  1.00  0.00    -0.014 A 
ATOM     63  C   UNL A   1      43.593  22.867  25.600  1.00  0.00     0.010 A 
ATOM     64  C   UNL A   1      43.026  22.822  27.957  1.00  0.00     0.010 A 
ATOM     65  C   UNL A   1      43.056  21.586  25.447  1.00  0.00     0.020 A 
ATOM     66  C   UNL A   1      42.511  21.530  27.814  1.00  0.00     0.020 A 
ATOM     67  C   UNL A   1      42.513  20.928  26.554  1.00  0.00     0.054 A 
BRANCH  67  68
ATOM     68  S   UNL A   1      41.839  19.258  26.332  1.00  0.00     0.124 S 
ATOM     69  O   UNL A   1      42.328  18.575  27.528  1.00  0.00    -0.237 OA
ATOM     70  O   UNL A   1      40.399  19.495  26.291  1.00  0.00    -0.237 OA
ATOM     71  O   UNL A   1      42.430  18.810  25.074  1.00  0.00    -0.744 OA
ENDBRANCH  67  68
ENDBRANCH  48  62
BRANCH  49  72
ATOM     72  C   UNL A   1      46.943  32.782  28.383  1.00  0.00    -0.014 A 
ATOM     73  C   UNL A   1      47.333  33.177  29.675  1.00  0.00     0.010 A 
ATOM     74  C   UNL A   1      47.049  33.703  27.325  1.00  0.00     0.010 A 
ATOM     75  C   UNL A   1      47.807  34.473  29.905  1.00  0.00     0.020 A 
ATOM     76  C   UNL A   1      47.547  34.990  27.546  1.00  0.00     0.020 A 
ATOM     77  C   UNL A   1      47.914  35.370  28.837  1.00  0.00     0.054 A 
BRANCH  77  78
ATOM     78  S   UNL A   1      48.584  37.027  29.147  1.00  0.00     0.124 S 
ATOM     79  O   UNL A   1      47.537  37.631  29.963  1.00  0.00    -0.237 OA
ATOM     80  O   UNL A   1      49.839  36.735  29.838  1.00  0.00    -0.237 OA
ATOM     81  O   UNL A   1      48.738  37.589  27.807  1.00  0.00    -0.744 OA
ENDBRANCH  77  78
ENDBRANCH  49  72
BRANCH  61  82
ATOM     82  C   UNL A   1      49.995  26.770  26.576  1.00  0.00    -0.014 A 
ATOM     83  C   UNL A   1      50.886  26.364  27.585  1.00  0.00     0.010 A 
ATOM     84  C   UNL A   1      50.431  26.776  25.238  1.00  0.00     0.010 A 
ATOM     85  C   UNL A   1      52.197  26.000  27.264  1.00  0.00     0.020 A 
ATOM     86  C   UNL A   1      51.732  26.387  24.910  1.00  0.00     0.020 A 
ATOM     87  C   UNL A   1      52.612  26.015  25.929  1.00  0.00     0.054 A 
BRANCH  87  88
ATOM     88  S   UNL A   1      54.305  25.497  25.534  1.00  0.00     0.124 S 
ATOM     89  O   UNL A   1      54.786  26.617  24.730  1.00  0.00    -0.237 OA
ATOM     90  O   UNL A   1      54.917  25.362  26.853  1.00  0.00    -0.237 OA
ATOM     91  O   UNL A   1      54.123  24.241  24.808  1.00  0.00    -0.744 OA
ENDBRANCH  87  88
ENDBRANCH  61  82
ENDBRANCH  35  36
ENDBRANCH  28  30
ENDBRANCH  27  28
ENDBRANCH  26  27
ENDBRANCH  25  26
ENDBRANCH  24  25
ENDBRANCH   1  24
TORSDOF 21
ENDMDL
MODEL 2
REMARK VINA RESULT:      -9.6      5.347      6.861
REMARK SMILES COc1ccc(NC(C)(C)C2=N[C@@H](C(=O)OCCOCCOC(=O)c3ccc(-c4c5nc(c(-c6ccc(S(=O)(=O)[O-])cc6)c6ccc([nH]6)c(-c6ccc(S(=O)(=O)[O-])cc6)c6nc(c(-c7ccc(S(=O)(=O)[O-])cc7)c7ccc4[nH]7)C=C6)C=C5)cc3)CS2)cc1
REMARK SMILES IDX 18 1 17 2 16 3 14 4 15 5 13 6 11 7 12 8 86 9 85 10 8 11 9 12
REMARK SMILES IDX 10 13 7 14 6 16 3 17 4 18 88 19 5 20 87 21 2 22 1 23 19 24
REMARK SMILES IDX 20 25 21 26 22 27 23 28 24 29 25 30 26 31 84 32 27 33 83 34
REMARK SMILES IDX 28 35 29 36 30 37 77 38 31 39 82 40 76 41 78 42 32 43 81 44
REMARK SMILES IDX 75 45 74 46 33 48 63 49 44 50 62 51 45 52 48 53 61 54 79 55
REMARK SMILES IDX 46 56 47 57 60 59 80 60 49 61 34 62 35 63 43 64 36 65 42 66
REMARK SMILES IDX 37 67 38 68 39 69 40 70 41 71 64 72 65 73 73 74 66 75 72 76
REMARK SMILES IDX 67 77 68 78 69 79 70 80 71 81 50 82 51 83 59 84 52 85 58 86
REMARK SMILES IDX 53 87 54 88 55 89 56 90 57 91
REMARK H PARENT 7 15 78 47 48 58
REMARK Flexibility Score: inf
ROOT
ATOM      1  C   UNL A   1      30.639  29.540  24.014  1.00  0.00     0.202 C 
ENDROOT
BRANCH   1   2
ATOM      2  C   UNL A   1      30.535  28.803  22.676  1.00  0.00     0.261 C 
BRANCH   2   3
ATOM      3  O   UNL A   1      30.333  27.400  22.901  1.00  0.00    -0.462 OA
BRANCH   3   4
ATOM      4  C   UNL A   1      31.378  26.590  22.588  1.00  0.00     0.331 C 
ATOM      5  O   UNL A   1      31.834  26.443  21.459  1.00  0.00    -0.250 OA
BRANCH   4   6
ATOM      6  C   UNL A   1      31.995  25.950  23.827  1.00  0.00     0.226 C 
ATOM      7  C   UNL A   1      32.398  23.734  24.280  1.00  0.00     0.094 C 
ATOM      8  N   UNL A   1      32.644  24.685  23.442  1.00  0.00    -0.264 NA
ATOM      9  S   UNL A   1      31.229  24.062  25.542  1.00  0.00    -0.106 SA
ATOM     10  C   UNL A   1      31.083  25.780  25.039  1.00  0.00     0.115 C 
BRANCH   7  11
ATOM     11  C   UNL A   1      33.131  22.384  24.217  1.00  0.00     0.080 C 
ATOM     12  C   UNL A   1      32.370  21.530  23.177  1.00  0.00     0.042 C 
ATOM     13  C   UNL A   1      33.126  21.609  25.545  1.00  0.00     0.042 C 
BRANCH  11  14
ATOM     14  N   UNL A   1      34.547  22.468  23.760  1.00  0.00    -0.374 N 
ATOM     15  H   UNL A   1      34.636  22.530  22.782  1.00  0.00     0.161 HD
BRANCH  14  16
ATOM     16  C   UNL A   1      35.758  22.475  24.418  1.00  0.00     0.035 A 
ATOM     17  C   UNL A   1      38.176  22.657  25.929  1.00  0.00     0.119 A 
ATOM     18  C   UNL A   1      37.800  21.468  25.322  1.00  0.00     0.048 A 
ATOM     19  C   UNL A   1      37.375  23.776  25.751  1.00  0.00     0.048 A 
ATOM     20  C   UNL A   1      36.618  21.390  24.571  1.00  0.00     0.029 A 
ATOM     21  C   UNL A   1      36.183  23.676  25.010  1.00  0.00     0.029 A 
BRANCH  17  22
ATOM     22  O   UNL A   1      39.356  22.613  26.615  1.00  0.00    -0.497 OA
ATOM     23  C   UNL A   1      40.177  21.481  26.355  1.00  0.00     0.278 C 
ENDBRANCH  17  22
ENDBRANCH  14  16
ENDBRANCH  11  14
ENDBRANCH   7  11
ENDBRANCH   4   6
ENDBRANCH   3   4
ENDBRANCH   2   3
ENDBRANCH   1   2
BRANCH   1  24
ATOM     24  O   UNL A   1      31.881  29.427  24.710  1.00  0.00    -0.374 OA
BRANCH  24  25
ATOM     25  C   UNL A   1      31.856  29.379  26.136  1.00  0.00     0.202 C 
BRANCH  25  26
ATOM     26  C   UNL A   1      32.445  30.576  26.893  1.00  0.00     0.261 C 
BRANCH  26  27
ATOM     27  O   UNL A   1      33.879  30.507  26.991  1.00  0.00    -0.460 OA
BRANCH  27  28
ATOM     28  C   UNL A   1      34.430  31.429  27.817  1.00  0.00     0.338 C 
ATOM     29  O   UNL A   1      33.883  32.422  28.281  1.00  0.00    -0.246 OA
BRANCH  28  30
ATOM     30  C   UNL A   1      35.760  30.984  28.271  1.00  0.00     0.060 A 
ATOM     31  C   UNL A   1      35.845  29.718  28.864  1.00  0.00     0.016 A 
ATOM     32  C   UNL A   1      36.877  31.819  28.213  1.00  0.00     0.016 A 
ATOM     33  C   UNL A   1      37.037  29.300  29.449  1.00  0.00     0.010 A 
ATOM     34  C   UNL A   1      38.071  31.402  28.812  1.00  0.00     0.010 A 
ATOM     35  C   UNL A   1      38.144  30.158  29.467  1.00  0.00    -0.014 A 
BRANCH  35  36
ATOM     36  C   UNL A   1      39.314  29.808  30.310  1.00  0.00     0.031 A 
ATOM     37  C   UNL A   1      40.277  28.760  29.821  1.00  0.00     0.074 A 
ATOM     38  C   UNL A   1      39.544  30.451  31.469  1.00  0.00     0.049 A 
ATOM     39  N   UNL A   1      41.366  28.308  30.388  1.00  0.00    -0.248 NA
ATOM     40  C   UNL A   1      39.976  28.142  28.519  1.00  0.00     0.031 C 
ATOM     41  C   UNL A   1      38.713  31.517  32.026  1.00  0.00     0.029 A 
ATOM     42  N   UNL A   1      40.555  30.298  32.385  1.00  0.00    -0.354 N 
ATOM     43  C   UNL A   1      41.875  27.350  29.518  1.00  0.00     0.074 A 
ATOM     44  C   UNL A   1      40.962  27.266  28.399  1.00  0.00     0.031 C 
ATOM     45  C   UNL A   1      39.246  31.921  33.192  1.00  0.00     0.029 A 
ATOM     46  C   UNL A   1      40.437  31.124  33.478  1.00  0.00     0.049 A 
ATOM     47  H   UNL A   1      41.295  29.659  32.270  1.00  0.00     0.167 HD
ATOM     48  C   UNL A   1      43.004  26.611  29.637  1.00  0.00     0.031 A 
ATOM     49  C   UNL A   1      41.193  31.213  34.590  1.00  0.00     0.031 A 
ATOM     50  C   UNL A   1      43.905  26.687  30.756  1.00  0.00     0.049 A 
ATOM     51  C   UNL A   1      42.405  30.331  34.732  1.00  0.00     0.074 A 
ATOM     52  C   UNL A   1      45.082  25.988  30.962  1.00  0.00     0.029 A 
ATOM     53  N   UNL A   1      43.727  27.504  31.861  1.00  0.00    -0.354 N 
ATOM     54  N   UNL A   1      42.885  29.446  33.890  1.00  0.00    -0.248 NA
ATOM     55  C   UNL A   1      43.183  30.466  35.973  1.00  0.00     0.031 C 
ATOM     56  C   UNL A   1      45.586  26.343  32.218  1.00  0.00     0.029 A 
ATOM     57  C   UNL A   1      44.756  27.308  32.767  1.00  0.00     0.049 A 
ATOM     58  H   UNL A   1      42.979  28.132  31.985  1.00  0.00     0.167 HD
ATOM     59  C   UNL A   1      44.034  28.939  34.489  1.00  0.00     0.074 A 
ATOM     60  C   UNL A   1      44.184  29.624  35.756  1.00  0.00     0.031 C 
ATOM     61  C   UNL A   1      44.891  27.995  34.026  1.00  0.00     0.031 A 
BRANCH  48  62
ATOM     62  C   UNL A   1      43.307  25.625  28.540  1.00  0.00    -0.014 A 
ATOM     63  C   UNL A   1      42.877  24.289  28.619  1.00  0.00     0.010 A 
ATOM     64  C   UNL A   1      44.004  26.054  27.396  1.00  0.00     0.010 A 
ATOM     65  C   UNL A   1      43.171  23.390  27.590  1.00  0.00     0.020 A 
ATOM     66  C   UNL A   1      44.278  25.165  26.353  1.00  0.00     0.020 A 
ATOM     67  C   UNL A   1      43.875  23.833  26.465  1.00  0.00     0.054 A 
BRANCH  67  68
ATOM     68  S   UNL A   1      44.228  22.650  25.136  1.00  0.00     0.124 S 
ATOM     69  O   UNL A   1      42.964  22.636  24.403  1.00  0.00    -0.237 OA
ATOM     70  O   UNL A   1      45.349  23.273  24.440  1.00  0.00    -0.237 OA
ATOM     71  O   UNL A   1      44.547  21.415  25.847  1.00  0.00    -0.744 OA
ENDBRANCH  67  68
ENDBRANCH  48  62
BRANCH  49  72
ATOM     72  C   UNL A   1      40.812  32.165  35.669  1.00  0.00    -0.014 A 
ATOM     73  C   UNL A   1      41.496  33.383  35.830  1.00  0.00     0.010 A 
ATOM     74  C   UNL A   1      39.752  31.854  36.541  1.00  0.00     0.010 A 
ATOM     75  C   UNL A   1      41.134  34.266  36.853  1.00  0.00     0.020 A 
ATOM     76  C   UNL A   1      39.372  32.746  37.547  1.00  0.00     0.020 A 
ATOM     77  C   UNL A   1      40.072  33.943  37.703  1.00  0.00     0.054 A 
BRANCH  77  78
ATOM     78  S   UNL A   1      39.583  35.128  38.986  1.00  0.00     0.124 S 
ATOM     79  O   UNL A   1      38.462  34.444  39.621  1.00  0.00    -0.237 OA
ATOM     80  O   UNL A   1      40.798  35.239  39.792  1.00  0.00    -0.237 OA
ATOM     81  O   UNL A   1      39.238  36.329  38.228  1.00  0.00    -0.744 OA
ENDBRANCH  77  78
ENDBRANCH  49  72
BRANCH  61  82
ATOM     82  C   UNL A   1      46.089  27.665  34.878  1.00  0.00    -0.014 A 
ATOM     83  C   UNL A   1      46.048  26.626  35.825  1.00  0.00     0.010 A 
ATOM     84  C   UNL A   1      47.292  28.368  34.684  1.00  0.00     0.010 A 
ATOM     85  C   UNL A   1      47.181  26.318  36.584  1.00  0.00     0.020 A 
ATOM     86  C   UNL A   1      48.434  28.046  35.421  1.00  0.00     0.020 A 
ATOM     87  C   UNL A   1      48.367  27.031  36.378  1.00  0.00     0.054 A 
BRANCH  87  88
ATOM     88  S   UNL A   1      49.835  26.584  37.345  1.00  0.00     0.124 S 
ATOM     89  O   UNL A   1      49.370  26.789  38.714  1.00  0.00    -0.237 OA
ATOM     90  O   UNL A   1      50.063  25.194  36.960  1.00  0.00    -0.237 OA
ATOM     91  O   UNL A   1      50.853  27.526  36.885  1.00  0.00    -0.744 OA
ENDBRANCH  87  88
ENDBRANCH  61  82
ENDBRANCH  35  36
ENDBRANCH  28  30
ENDBRANCH  27  28
ENDBRANCH  26  27
ENDBRANCH  25  26
ENDBRANCH  24  25
ENDBRANCH   1  24
TORSDOF 21
ENDMDL
MODEL 3
REMARK VINA RESULT:      -9.6      6.167     10.507
REMARK SMILES COc1ccc(NC(C)(C)C2=N[C@@H](C(=O)OCCOCCOC(=O)c3ccc(-c4c5nc(c(-c6ccc(S(=O)(=O)[O-])cc6)c6ccc([nH]6)c(-c6ccc(S(=O)(=O)[O-])cc6)c6nc(c(-c7ccc(S(=O)(=O)[O-])cc7)c7ccc4[nH]7)C=C6)C=C5)cc3)CS2)cc1
REMARK SMILES IDX 18 1 17 2 16 3 14 4 15 5 13 6 11 7 12 8 86 9 85 10 8 11 9 12
REMARK SMILES IDX 10 13 7 14 6 16 3 17 4 18 88 19 5 20 87 21 2 22 1 23 19 24
REMARK SMILES IDX 20 25 21 26 22 27 23 28 24 29 25 30 26 31 84 32 27 33 83 34
REMARK SMILES IDX 28 35 29 36 30 37 77 38 31 39 82 40 76 41 78 42 32 43 81 44
REMARK SMILES IDX 75 45 74 46 33 48 63 49 44 50 62 51 45 52 48 53 61 54 79 55
REMARK SMILES IDX 46 56 47 57 60 59 80 60 49 61 34 62 35 63 43 64 36 65 42 66
REMARK SMILES IDX 37 67 38 68 39 69 40 70 41 71 64 72 65 73 73 74 66 75 72 76
REMARK SMILES IDX 67 77 68 78 69 79 70 80 71 81 50 82 51 83 59 84 52 85 58 86
REMARK SMILES IDX 53 87 54 88 55 89 56 90 57 91
REMARK H PARENT 7 15 78 47 48 58
REMARK Flexibility Score: inf
ROOT
ATOM      1  C   UNL A   1      31.993  29.485  26.428  1.00  0.00     0.202 C 
ENDROOT
BRANCH   1   2
ATOM      2  C   UNL A   1      31.429  29.532  25.006  1.00  0.00     0.261 C 
BRANCH   2   3
ATOM      3  O   UNL A   1      31.079  28.211  24.570  1.00  0.00    -0.462 OA
BRANCH   3   4
ATOM      4  C   UNL A   1      30.793  28.076  23.248  1.00  0.00     0.331 C 
ATOM      5  O   UNL A   1      30.225  28.922  22.567  1.00  0.00    -0.250 OA
BRANCH   4   6
ATOM      6  C   UNL A   1      31.351  26.778  22.673  1.00  0.00     0.226 C 
ATOM      7  C   UNL A   1      32.304  24.989  23.756  1.00  0.00     0.094 C 
ATOM      8  N   UNL A   1      31.237  25.716  23.687  1.00  0.00    -0.264 NA
ATOM      9  S   UNL A   1      33.689  25.512  22.822  1.00  0.00    -0.106 SA
ATOM     10  C   UNL A   1      32.749  26.841  22.064  1.00  0.00     0.115 C 
BRANCH   7  11
ATOM     11  C   UNL A   1      32.352  23.692  24.578  1.00  0.00     0.080 C 
ATOM     12  C   UNL A   1      30.926  23.096  24.525  1.00  0.00     0.042 C 
ATOM     13  C   UNL A   1      32.709  23.904  26.059  1.00  0.00     0.042 C 
BRANCH  11  14
ATOM     14  N   UNL A   1      33.278  22.653  24.045  1.00  0.00    -0.374 N 
ATOM     15  H   UNL A   1      34.115  23.027  23.688  1.00  0.00     0.161 HD
BRANCH  14  16
ATOM     16  C   UNL A   1      33.210  21.281  23.946  1.00  0.00     0.035 A 
ATOM     17  C   UNL A   1      33.142  18.424  23.970  1.00  0.00     0.119 A 
ATOM     18  C   UNL A   1      32.257  19.154  23.190  1.00  0.00     0.048 A 
ATOM     19  C   UNL A   1      34.097  19.109  24.709  1.00  0.00     0.048 A 
ATOM     20  C   UNL A   1      32.305  20.555  23.173  1.00  0.00     0.029 A 
ATOM     21  C   UNL A   1      34.119  20.516  24.696  1.00  0.00     0.029 A 
BRANCH  17  22
ATOM     22  O   UNL A   1      33.011  17.067  23.886  1.00  0.00    -0.497 OA
ATOM     23  C   UNL A   1      33.275  16.349  25.085  1.00  0.00     0.278 C 
ENDBRANCH  17  22
ENDBRANCH  14  16
ENDBRANCH  11  14
ENDBRANCH   7  11
ENDBRANCH   4   6
ENDBRANCH   3   4
ENDBRANCH   2   3
ENDBRANCH   1   2
BRANCH   1  24
ATOM     24  O   UNL A   1      33.378  29.802  26.576  1.00  0.00    -0.374 OA
BRANCH  24  25
ATOM     25  C   UNL A   1      33.737  30.891  27.425  1.00  0.00     0.202 C 
BRANCH  25  26
ATOM     26  C   UNL A   1      32.868  32.153  27.359  1.00  0.00     0.261 C 
BRANCH  26  27
ATOM     27  O   UNL A   1      33.657  33.355  27.294  1.00  0.00    -0.460 OA
BRANCH  27  28
ATOM     28  C   UNL A   1      33.565  34.147  28.390  1.00  0.00     0.338 C 
ATOM     29  O   UNL A   1      32.653  34.916  28.668  1.00  0.00    -0.246 OA
BRANCH  28  30
ATOM     30  C   UNL A   1      34.637  33.826  29.349  1.00  0.00     0.060 A 
ATOM     31  C   UNL A   1      35.932  34.254  29.030  1.00  0.00     0.016 A 
ATOM     32  C   UNL A   1      34.407  33.040  30.480  1.00  0.00     0.016 A 
ATOM     33  C   UNL A   1      37.012  33.856  29.813  1.00  0.00     0.010 A 
ATOM     34  C   UNL A   1      35.495  32.631  31.259  1.00  0.00     0.010 A 
ATOM     35  C   UNL A   1      36.805  33.004  30.906  1.00  0.00    -0.014 A 
BRANCH  35  36
ATOM     36  C   UNL A   1      37.979  32.386  31.570  1.00  0.00     0.031 A 
ATOM     37  C   UNL A   1      38.413  32.903  32.914  1.00  0.00     0.074 A 
ATOM     38  C   UNL A   1      38.617  31.343  31.008  1.00  0.00     0.049 A 
ATOM     39  N   UNL A   1      39.400  32.506  33.675  1.00  0.00    -0.248 NA
ATOM     40  C   UNL A   1      37.628  34.014  33.479  1.00  0.00     0.031 C 
ATOM     41  C   UNL A   1      38.262  30.720  29.734  1.00  0.00     0.029 A 
ATOM     42  N   UNL A   1      39.700  30.622  31.446  1.00  0.00    -0.354 N 
ATOM     43  C   UNL A   1      39.360  33.319  34.802  1.00  0.00     0.074 A 
ATOM     44  C   UNL A   1      38.270  34.251  34.613  1.00  0.00     0.031 C 
ATOM     45  C   UNL A   1      39.116  29.711  29.490  1.00  0.00     0.029 A 
ATOM     46  C   UNL A   1      40.094  29.635  30.574  1.00  0.00     0.049 A 
ATOM     47  H   UNL A   1      40.151  30.794  32.304  1.00  0.00     0.167 HD
ATOM     48  C   UNL A   1      40.156  33.290  35.898  1.00  0.00     0.031 A 
ATOM     49  C   UNL A   1      41.134  28.780  30.636  1.00  0.00     0.031 A 
ATOM     50  C   UNL A   1      41.248  32.371  36.079  1.00  0.00     0.049 A 
ATOM     51  C   UNL A   1      42.048  28.813  31.831  1.00  0.00     0.074 A 
ATOM     52  C   UNL A   1      42.104  32.254  37.161  1.00  0.00     0.029 A 
ATOM     53  N   UNL A   1      41.640  31.416  35.154  1.00  0.00    -0.354 N 
ATOM     54  N   UNL A   1      41.983  29.574  32.899  1.00  0.00    -0.248 NA
ATOM     55  C   UNL A   1      43.172  27.865  31.835  1.00  0.00     0.031 C 
ATOM     56  C   UNL A   1      43.048  31.265  36.865  1.00  0.00     0.029 A 
ATOM     57  C   UNL A   1      42.743  30.724  35.626  1.00  0.00     0.049 A 
ATOM     58  H   UNL A   1      41.200  31.253  34.289  1.00  0.00     0.167 HD
ATOM     59  C   UNL A   1      43.042  29.178  33.711  1.00  0.00     0.074 A 
ATOM     60  C   UNL A   1      43.721  28.103  33.018  1.00  0.00     0.031 C 
ATOM     61  C   UNL A   1      43.412  29.658  34.924  1.00  0.00     0.031 A 
BRANCH  48  62
ATOM     62  C   UNL A   1      39.895  34.312  36.973  1.00  0.00    -0.014 A 
ATOM     63  C   UNL A   1      39.100  34.008  38.092  1.00  0.00     0.010 A 
ATOM     64  C   UNL A   1      40.484  35.586  36.876  1.00  0.00     0.010 A 
ATOM     65  C   UNL A   1      38.868  34.972  39.077  1.00  0.00     0.020 A 
ATOM     66  C   UNL A   1      40.275  36.544  37.872  1.00  0.00     0.020 A 
ATOM     67  C   UNL A   1      39.453  36.236  38.958  1.00  0.00     0.054 A 
BRANCH  67  68
ATOM     68  S   UNL A   1      39.151  37.463  40.259  1.00  0.00     0.124 S 
ATOM     69  O   UNL A   1      38.512  36.652  41.293  1.00  0.00    -0.237 OA
ATOM     70  O   UNL A   1      40.495  37.936  40.574  1.00  0.00    -0.237 OA
ATOM     71  O   UNL A   1      38.283  38.446  39.615  1.00  0.00    -0.744 OA
ENDBRANCH  67  68
ENDBRANCH  48  62
BRANCH  49  72
ATOM     72  C   UNL A   1      41.378  27.831  29.515  1.00  0.00    -0.014 A 
ATOM     73  C   UNL A   1      42.415  28.057  28.593  1.00  0.00     0.010 A 
ATOM     74  C   UNL A   1      40.571  26.687  29.370  1.00  0.00     0.010 A 
ATOM     75  C   UNL A   1      42.630  27.163  27.539  1.00  0.00     0.020 A 
ATOM     76  C   UNL A   1      40.800  25.779  28.334  1.00  0.00     0.020 A 
ATOM     77  C   UNL A   1      41.823  26.028  27.419  1.00  0.00     0.054 A 
BRANCH  77  78
ATOM     78  S   UNL A   1      42.157  24.852  26.078  1.00  0.00     0.124 S 
ATOM     79  O   UNL A   1      42.202  25.726  24.911  1.00  0.00    -0.237 OA
ATOM     80  O   UNL A   1      43.433  24.265  26.482  1.00  0.00    -0.237 OA
ATOM     81  O   UNL A   1      41.017  23.939  26.134  1.00  0.00    -0.744 OA
ENDBRANCH  77  78
ENDBRANCH  49  72
BRANCH  61  82
ATOM     82  C   UNL A   1      44.590  29.006  35.601  1.00  0.00    -0.014 A 
ATOM     83  C   UNL A   1      44.426  27.883  36.431  1.00  0.00     0.010 A 
ATOM     84  C   UNL A   1      45.887  29.491  35.351  1.00  0.00     0.010 A 
ATOM     85  C   UNL A   1      45.536  27.277  37.026  1.00  0.00     0.020 A 
ATOM     86  C   UNL A   1      47.002  28.871  35.921  1.00  0.00     0.020 A 
ATOM     87  C   UNL A   1      46.817  27.776  36.768  1.00  0.00     0.054 A 
BRANCH  87  88
ATOM     88  S   UNL A   1      48.246  26.945  37.516  1.00  0.00     0.124 S 
ATOM     89  O   UNL A   1      48.754  26.151  36.401  1.00  0.00    -0.237 OA
ATOM     90  O   UNL A   1      49.090  28.064  37.926  1.00  0.00    -0.237 OA
ATOM     91  O   UNL A   1      47.663  26.177  38.615  1.00  0.00    -0.744 OA
ENDBRANCH  87  88
ENDBRANCH  61  82
ENDBRANCH  35  36
ENDBRANCH  28  30
ENDBRANCH  27  28
ENDBRANCH  26  27
ENDBRANCH  25  26
ENDBRANCH  24  25
ENDBRANCH   1  24
TORSDOF 21
ENDMDL
