MODEL 1
REMARK VINA RESULT:     -10.9      0.000      0.000
REMARK SMILES CC[C@@H](C(=O)OCCOCCOC(=O)c1ccc(-c2c3nc(c(-c4ccc(S(=O)(=O)[O-])cc4)c4ccc([nH]4)c(-c4ccc(S(=O)(=O)[O-])cc4)c4nc(c(-c5ccc(S(=O)(=O)[O-])cc5)c5ccc2[nH]5)C=C4)C=C3)cc1)N1C(=O)/C(=C/C(C)=C/c2ccccc2)SC1=S
REMARK SMILES IDX 9 1 8 2 7 3 6 4 4 5 5 6 3 7 2 8 1 9 75 10 76 11 90 12 77 13
REMARK SMILES IDX 78 14 89 15 91 16 79 17 80 18 81 19 82 20 83 21 84 22 88 23
REMARK SMILES IDX 85 24 87 25 86 26 10 27 11 28 12 29 13 30 14 31 15 32 16 33
REMARK SMILES IDX 74 34 17 35 73 36 18 37 19 38 20 39 67 40 21 41 72 42 66 43
REMARK SMILES IDX 68 44 22 45 71 46 65 47 64 48 23 50 53 51 34 52 52 53 35 54
REMARK SMILES IDX 38 55 51 56 69 57 36 58 37 59 50 61 70 62 39 63 24 64 25 65
REMARK SMILES IDX 33 66 26 67 32 68 27 69 28 70 29 71 30 72 31 73 54 74 55 75
REMARK SMILES IDX 63 76 56 77 62 78 57 79 58 80 59 81 60 82 61 83 40 84 41 85
REMARK SMILES IDX 49 86 42 87 48 88 43 89 44 90 45 91 46 92 47 93
REMARK H PARENT 68 49 38 60
REMARK Flexibility Score: inf
ROOT
ATOM      1  O   UNL A   1      30.899  29.561  24.815  1.00  0.00    -0.374 OA
ENDROOT
BRANCH   1   2
ATOM      2  C   UNL A   1      29.882  29.975  23.894  1.00  0.00     0.202 C 
BRANCH   2   3
ATOM      3  C   UNL A   1      29.840  29.231  22.550  1.00  0.00     0.261 C 
BRANCH   3   4
ATOM      4  O   UNL A   1      31.059  28.487  22.389  1.00  0.00    -0.462 OA
BRANCH   4   5
ATOM      5  C   UNL A   1      31.149  27.304  23.044  1.00  0.00     0.329 C 
ATOM      6  O   UNL A   1      30.205  26.559  23.286  1.00  0.00    -0.250 OA
BRANCH   5   7
ATOM      7  C   UNL A   1      32.612  26.958  23.386  1.00  0.00     0.201 C 
BRANCH   7   8
ATOM      8  C   UNL A   1      33.725  27.739  22.651  1.00  0.00     0.034 C 
ATOM      9  C   UNL A   1      34.038  29.106  23.252  1.00  0.00     0.007 C 
ENDBRANCH   7   8
BRANCH   7  10
ATOM     10  N   UNL A   1      32.851  25.486  23.324  1.00  0.00    -0.278 N 
ATOM     11  C   UNL A   1      33.023  24.732  24.479  1.00  0.00     0.266 C 
ATOM     12  C   UNL A   1      32.766  24.762  22.153  1.00  0.00     0.149 C 
ATOM     13  O   UNL A   1      32.986  25.141  25.631  1.00  0.00    -0.268 OA
ATOM     14  C   UNL A   1      33.255  23.290  24.152  1.00  0.00     0.080 C 
ATOM     15  S   UNL A   1      32.899  23.052  22.493  1.00  0.00    -0.054 SA
ATOM     16  S   UNL A   1      32.548  25.307  20.590  1.00  0.00    -0.052 S 
ATOM     17  C   UNL A   1      33.709  22.418  25.072  1.00  0.00     0.024 C 
BRANCH  17  18
ATOM     18  C   UNL A   1      34.046  20.983  25.005  1.00  0.00    -0.049 C 
ATOM     19  C   UNL A   1      35.527  20.683  25.107  1.00  0.00     0.044 C 
ATOM     20  C   UNL A   1      33.132  20.002  24.858  1.00  0.00     0.011 C 
BRANCH  20  21
ATOM     21  C   UNL A   1      33.275  18.538  24.825  1.00  0.00    -0.025 A 
ATOM     22  C   UNL A   1      33.695  17.953  23.620  1.00  0.00     0.008 A 
ATOM     23  C   UNL A   1      32.835  17.709  25.861  1.00  0.00     0.008 A 
ATOM     24  C   UNL A   1      33.675  16.568  23.452  1.00  0.00     0.001 A 
ATOM     25  C   UNL A   1      32.823  16.320  25.695  1.00  0.00     0.001 A 
ATOM     26  C   UNL A   1      33.235  15.752  24.490  1.00  0.00     0.000 A 
ENDBRANCH  20  21
ENDBRANCH  17  18
ENDBRANCH   7  10
ENDBRANCH   5   7
ENDBRANCH   4   5
ENDBRANCH   3   4
ENDBRANCH   2   3
ENDBRANCH   1   2
BRANCH   1  27
ATOM     27  C   UNL A   1      31.538  30.580  25.577  1.00  0.00     0.202 C 
BRANCH  27  28
ATOM     28  C   UNL A   1      32.318  30.123  26.815  1.00  0.00     0.261 C 
BRANCH  28  29
ATOM     29  O   UNL A   1      33.738  30.258  26.647  1.00  0.00    -0.460 OA
BRANCH  29  30
ATOM     30  C   UNL A   1      34.298  31.173  27.472  1.00  0.00     0.338 C 
ATOM     31  O   UNL A   1      33.745  32.141  27.983  1.00  0.00    -0.246 OA
BRANCH  30  32
ATOM     32  C   UNL A   1      35.669  30.784  27.836  1.00  0.00     0.060 A 
ATOM     33  C   UNL A   1      35.908  29.415  28.002  1.00  0.00     0.016 A 
ATOM     34  C   UNL A   1      36.669  31.720  28.113  1.00  0.00     0.016 A 
ATOM     35  C   UNL A   1      37.123  28.980  28.521  1.00  0.00     0.010 A 
ATOM     36  C   UNL A   1      37.893  31.279  28.634  1.00  0.00     0.010 A 
ATOM     37  C   UNL A   1      38.105  29.911  28.886  1.00  0.00    -0.014 A 
BRANCH  37  38
ATOM     38  C   UNL A   1      39.271  29.428  29.669  1.00  0.00     0.031 A 
ATOM     39  C   UNL A   1      39.416  29.846  31.109  1.00  0.00     0.074 A 
ATOM     40  C   UNL A   1      40.127  28.538  29.136  1.00  0.00     0.049 A 
ATOM     41  N   UNL A   1      40.277  29.439  32.005  1.00  0.00    -0.248 NA
ATOM     42  C   UNL A   1      38.462  30.851  31.605  1.00  0.00     0.031 C 
ATOM     43  C   UNL A   1      40.070  28.028  27.765  1.00  0.00     0.029 A 
ATOM     44  N   UNL A   1      41.197  27.885  29.694  1.00  0.00    -0.354 N 
ATOM     45  C   UNL A   1      39.967  30.130  33.171  1.00  0.00     0.074 A 
ATOM     46  C   UNL A   1      38.864  31.014  32.857  1.00  0.00     0.031 C 
ATOM     47  C   UNL A   1      41.053  27.126  27.596  1.00  0.00     0.029 A 
ATOM     48  C   UNL A   1      41.816  27.009  28.836  1.00  0.00     0.049 A 
ATOM     49  H   UNL A   1      41.492  28.031  30.622  1.00  0.00     0.167 HD
ATOM     50  C   UNL A   1      40.537  30.032  34.397  1.00  0.00     0.031 A 
ATOM     51  C   UNL A   1      42.875  26.198  29.029  1.00  0.00     0.031 A 
ATOM     52  C   UNL A   1      41.643  29.164  34.707  1.00  0.00     0.049 A 
ATOM     53  C   UNL A   1      43.523  26.140  30.387  1.00  0.00     0.074 A 
ATOM     54  C   UNL A   1      42.286  28.987  35.919  1.00  0.00     0.029 A 
ATOM     55  N   UNL A   1      42.275  28.331  33.795  1.00  0.00    -0.354 N 
ATOM     56  N   UNL A   1      43.199  26.782  31.485  1.00  0.00    -0.248 NA
ATOM     57  C   UNL A   1      44.668  25.231  30.535  1.00  0.00     0.031 C 
ATOM     58  C   UNL A   1      43.340  28.087  35.729  1.00  0.00     0.029 A 
ATOM     59  C   UNL A   1      43.314  27.655  34.413  1.00  0.00     0.049 A 
ATOM     60  H   UNL A   1      42.022  28.234  32.849  1.00  0.00     0.167 HD
ATOM     61  C   UNL A   1      44.082  26.332  32.461  1.00  0.00     0.074 A 
ATOM     62  C   UNL A   1      44.940  25.352  31.827  1.00  0.00     0.031 C 
ATOM     63  C   UNL A   1      44.170  26.692  33.767  1.00  0.00     0.031 A 
BRANCH  50  64
ATOM     64  C   UNL A   1      39.989  30.913  35.489  1.00  0.00    -0.014 A 
ATOM     65  C   UNL A   1      38.693  30.720  36.003  1.00  0.00     0.010 A 
ATOM     66  C   UNL A   1      40.793  31.933  36.030  1.00  0.00     0.010 A 
ATOM     67  C   UNL A   1      38.197  31.557  37.007  1.00  0.00     0.020 A 
ATOM     68  C   UNL A   1      40.311  32.754  37.054  1.00  0.00     0.020 A 
ATOM     69  C   UNL A   1      39.009  32.572  37.523  1.00  0.00     0.054 A 
BRANCH  69  70
ATOM     70  S   UNL A   1      38.347  33.635  38.835  1.00  0.00     0.124 S 
ATOM     71  O   UNL A   1      39.138  33.216  39.990  1.00  0.00    -0.237 OA
ATOM     72  O   UNL A   1      38.630  34.978  38.334  1.00  0.00    -0.237 OA
ATOM     73  O   UNL A   1      36.931  33.280  38.890  1.00  0.00    -0.744 OA
ENDBRANCH  69  70
ENDBRANCH  50  64
BRANCH  51  74
ATOM     74  C   UNL A   1      43.385  25.367  27.904  1.00  0.00    -0.014 A 
ATOM     75  C   UNL A   1      42.867  24.083  27.662  1.00  0.00     0.010 A 
ATOM     76  C   UNL A   1      44.397  25.867  27.063  1.00  0.00     0.010 A 
ATOM     77  C   UNL A   1      43.363  23.307  26.609  1.00  0.00     0.020 A 
ATOM     78  C   UNL A   1      44.874  25.107  25.992  1.00  0.00     0.020 A 
ATOM     79  C   UNL A   1      44.361  23.826  25.778  1.00  0.00     0.054 A 
BRANCH  79  80
ATOM     80  S   UNL A   1      44.948  22.827  24.382  1.00  0.00     0.124 S 
ATOM     81  O   UNL A   1      45.961  23.696  23.792  1.00  0.00    -0.237 OA
ATOM     82  O   UNL A   1      45.451  21.625  25.044  1.00  0.00    -0.237 OA
ATOM     83  O   UNL A   1      43.745  22.627  23.576  1.00  0.00    -0.744 OA
ENDBRANCH  79  80
ENDBRANCH  51  74
BRANCH  63  84
ATOM     84  C   UNL A   1      45.211  25.993  34.604  1.00  0.00    -0.014 A 
ATOM     85  C   UNL A   1      46.465  26.579  34.855  1.00  0.00     0.010 A 
ATOM     86  C   UNL A   1      44.921  24.735  35.161  1.00  0.00     0.010 A 
ATOM     87  C   UNL A   1      47.430  25.893  35.598  1.00  0.00     0.020 A 
ATOM     88  C   UNL A   1      45.871  24.058  35.931  1.00  0.00     0.020 A 
ATOM     89  C   UNL A   1      47.129  24.632  36.123  1.00  0.00     0.054 A 
BRANCH  89  90
ATOM     90  S   UNL A   1      48.395  23.758  37.083  1.00  0.00     0.124 S 
ATOM     91  O   UNL A   1      47.650  23.355  38.272  1.00  0.00    -0.237 OA
ATOM     92  O   UNL A   1      48.787  22.671  36.189  1.00  0.00    -0.237 OA
ATOM     93  O   UNL A   1      49.423  24.773  37.307  1.00  0.00    -0.744 OA
ENDBRANCH  89  90
ENDBRANCH  63  84
ENDBRANCH  37  38
ENDBRANCH  30  32
ENDBRANCH  29  30
ENDBRANCH  28  29
ENDBRANCH  27  28
ENDBRANCH   1  27
TORSDOF 21
ENDMDL
MODEL 2
REMARK VINA RESULT:     -10.8      2.406      3.527
REMARK SMILES CC[C@@H](C(=O)OCCOCCOC(=O)c1ccc(-c2c3nc(c(-c4ccc(S(=O)(=O)[O-])cc4)c4ccc([nH]4)c(-c4ccc(S(=O)(=O)[O-])cc4)c4nc(c(-c5ccc(S(=O)(=O)[O-])cc5)c5ccc2[nH]5)C=C4)C=C3)cc1)N1C(=O)/C(=C/C(C)=C/c2ccccc2)SC1=S
REMARK SMILES IDX 9 1 8 2 7 3 6 4 4 5 5 6 3 7 2 8 1 9 75 10 76 11 90 12 77 13
REMARK SMILES IDX 78 14 89 15 91 16 79 17 80 18 81 19 82 20 83 21 84 22 88 23
REMARK SMILES IDX 85 24 87 25 86 26 10 27 11 28 12 29 13 30 14 31 15 32 16 33
REMARK SMILES IDX 74 34 17 35 73 36 18 37 19 38 20 39 67 40 21 41 72 42 66 43
REMARK SMILES IDX 68 44 22 45 71 46 65 47 64 48 23 50 53 51 34 52 52 53 35 54
REMARK SMILES IDX 38 55 51 56 69 57 36 58 37 59 50 61 70 62 39 63 24 64 25 65
REMARK SMILES IDX 33 66 26 67 32 68 27 69 28 70 29 71 30 72 31 73 54 74 55 75
REMARK SMILES IDX 63 76 56 77 62 78 57 79 58 80 59 81 60 82 61 83 40 84 41 85
REMARK SMILES IDX 49 86 42 87 48 88 43 89 44 90 45 91 46 92 47 93
REMARK H PARENT 68 49 38 60
REMARK Flexibility Score: inf
ROOT
ATOM      1  O   UNL A   1      32.079  29.842  27.304  1.00  0.00    -0.374 OA
ENDROOT
BRANCH   1   2
ATOM      2  C   UNL A   1      32.755  28.582  27.391  1.00  0.00     0.202 C 
BRANCH   2   3
ATOM      3  C   UNL A   1      33.878  28.342  26.371  1.00  0.00     0.261 C 
BRANCH   3   4
ATOM      4  O   UNL A   1      33.431  27.383  25.397  1.00  0.00    -0.462 OA
BRANCH   4   5
ATOM      5  C   UNL A   1      32.986  27.871  24.213  1.00  0.00     0.329 C 
ATOM      6  O   UNL A   1      33.362  28.917  23.697  1.00  0.00    -0.250 OA
BRANCH   5   7
ATOM      7  C   UNL A   1      31.995  26.901  23.540  1.00  0.00     0.201 C 
BRANCH   7   8
ATOM      8  C   UNL A   1      30.500  27.299  23.525  1.00  0.00     0.034 C 
ATOM      9  C   UNL A   1      30.138  28.344  22.476  1.00  0.00     0.007 C 
ENDBRANCH   7   8
BRANCH   7  10
ATOM     10  N   UNL A   1      32.180  25.505  24.034  1.00  0.00    -0.278 N 
ATOM     11  C   UNL A   1      33.198  24.694  23.547  1.00  0.00     0.266 C 
ATOM     12  C   UNL A   1      31.466  24.985  25.093  1.00  0.00     0.149 C 
ATOM     13  O   UNL A   1      34.041  25.001  22.715  1.00  0.00    -0.268 OA
ATOM     14  C   UNL A   1      33.167  23.344  24.191  1.00  0.00     0.080 C 
ATOM     15  S   UNL A   1      32.090  23.409  25.522  1.00  0.00    -0.054 SA
ATOM     16  S   UNL A   1      30.197  25.660  25.943  1.00  0.00    -0.052 S 
ATOM     17  C   UNL A   1      33.874  22.308  23.701  1.00  0.00     0.024 C 
BRANCH  17  18
ATOM     18  C   UNL A   1      33.992  20.896  24.116  1.00  0.00    -0.049 C 
ATOM     19  C   UNL A   1      35.203  20.596  24.975  1.00  0.00     0.044 C 
ATOM     20  C   UNL A   1      33.112  19.934  23.768  1.00  0.00     0.011 C 
BRANCH  20  21
ATOM     21  C   UNL A   1      33.040  18.509  24.126  1.00  0.00    -0.025 A 
ATOM     22  C   UNL A   1      32.521  18.181  25.388  1.00  0.00     0.008 A 
ATOM     23  C   UNL A   1      33.630  17.503  23.357  1.00  0.00     0.008 A 
ATOM     24  C   UNL A   1      32.591  16.876  25.874  1.00  0.00     0.001 A 
ATOM     25  C   UNL A   1      33.693  16.192  23.840  1.00  0.00     0.001 A 
ATOM     26  C   UNL A   1      33.182  15.881  25.100  1.00  0.00     0.000 A 
ENDBRANCH  20  21
ENDBRANCH  17  18
ENDBRANCH   7  10
ENDBRANCH   5   7
ENDBRANCH   4   5
ENDBRANCH   3   4
ENDBRANCH   2   3
ENDBRANCH   1   2
BRANCH   1  27
ATOM     27  C   UNL A   1      32.816  30.938  26.769  1.00  0.00     0.202 C 
BRANCH  27  28
ATOM     28  C   UNL A   1      33.617  31.778  27.770  1.00  0.00     0.261 C 
BRANCH  28  29
ATOM     29  O   UNL A   1      33.664  33.166  27.403  1.00  0.00    -0.460 OA
BRANCH  29  30
ATOM     30  C   UNL A   1      33.570  34.010  28.457  1.00  0.00     0.338 C 
ATOM     31  O   UNL A   1      32.643  34.773  28.710  1.00  0.00    -0.246 OA
BRANCH  30  32
ATOM     32  C   UNL A   1      34.678  33.799  29.401  1.00  0.00     0.060 A 
ATOM     33  C   UNL A   1      35.952  34.182  28.968  1.00  0.00     0.016 A 
ATOM     34  C   UNL A   1      34.508  33.151  30.628  1.00  0.00     0.016 A 
ATOM     35  C   UNL A   1      37.071  33.851  29.723  1.00  0.00     0.010 A 
ATOM     36  C   UNL A   1      35.639  32.819  31.388  1.00  0.00     0.010 A 
ATOM     37  C   UNL A   1      36.927  33.124  30.913  1.00  0.00    -0.014 A 
BRANCH  37  38
ATOM     38  C   UNL A   1      38.150  32.570  31.548  1.00  0.00     0.031 A 
ATOM     39  C   UNL A   1      38.593  33.108  32.884  1.00  0.00     0.074 A 
ATOM     40  C   UNL A   1      38.791  31.525  30.994  1.00  0.00     0.049 A 
ATOM     41  N   UNL A   1      39.547  32.681  33.671  1.00  0.00    -0.248 NA
ATOM     42  C   UNL A   1      37.864  34.275  33.403  1.00  0.00     0.031 C 
ATOM     43  C   UNL A   1      38.435  30.894  29.723  1.00  0.00     0.029 A 
ATOM     44  N   UNL A   1      39.861  30.795  31.447  1.00  0.00    -0.354 N 
ATOM     45  C   UNL A   1      39.529  33.520  34.779  1.00  0.00     0.074 A 
ATOM     46  C   UNL A   1      38.497  34.507  34.543  1.00  0.00     0.031 C 
ATOM     47  C   UNL A   1      39.262  29.856  29.507  1.00  0.00     0.029 A 
ATOM     48  C   UNL A   1      40.214  29.762  30.612  1.00  0.00     0.049 A 
ATOM     49  H   UNL A   1      40.330  30.991  32.289  1.00  0.00     0.167 HD
ATOM     50  C   UNL A   1      40.291  33.469  35.898  1.00  0.00     0.031 A 
ATOM     51  C   UNL A   1      41.191  28.841  30.726  1.00  0.00     0.031 A 
ATOM     52  C   UNL A   1      41.328  32.497  36.127  1.00  0.00     0.049 A 
ATOM     53  C   UNL A   1      42.057  28.833  31.958  1.00  0.00     0.074 A 
ATOM     54  C   UNL A   1      42.150  32.358  37.231  1.00  0.00     0.029 A 
ATOM     55  N   UNL A   1      41.689  31.500  35.233  1.00  0.00    -0.354 N 
ATOM     56  N   UNL A   1      42.007  29.618  33.008  1.00  0.00    -0.248 NA
ATOM     57  C   UNL A   1      43.098  27.798  32.027  1.00  0.00     0.031 C 
ATOM     58  C   UNL A   1      43.044  31.310  36.983  1.00  0.00     0.029 A 
ATOM     59  C   UNL A   1      42.737  30.756  35.751  1.00  0.00     0.049 A 
ATOM     60  H   UNL A   1      41.264  31.344  34.360  1.00  0.00     0.167 HD
ATOM     61  C   UNL A   1      42.991  29.154  33.875  1.00  0.00     0.074 A 
ATOM     62  C   UNL A   1      43.606  28.010  33.233  1.00  0.00     0.031 C 
ATOM     63  C   UNL A   1      43.349  29.628  35.096  1.00  0.00     0.031 A 
BRANCH  50  64
ATOM     64  C   UNL A   1      40.049  34.521  36.951  1.00  0.00    -0.014 A 
ATOM     65  C   UNL A   1      39.123  34.314  37.990  1.00  0.00     0.010 A 
ATOM     66  C   UNL A   1      40.780  35.722  36.915  1.00  0.00     0.010 A 
ATOM     67  C   UNL A   1      38.903  35.307  38.949  1.00  0.00     0.020 A 
ATOM     68  C   UNL A   1      40.583  36.705  37.889  1.00  0.00     0.020 A 
ATOM     69  C   UNL A   1      39.631  36.499  38.889  1.00  0.00     0.054 A 
BRANCH  69  70
ATOM     70  S   UNL A   1      39.337  37.766  40.154  1.00  0.00     0.124 S 
ATOM     71  O   UNL A   1      40.581  38.529  40.111  1.00  0.00    -0.237 OA
ATOM     72  O   UNL A   1      38.157  38.461  39.644  1.00  0.00    -0.237 OA
ATOM     73  O   UNL A   1      39.122  36.994  41.376  1.00  0.00    -0.744 OA
ENDBRANCH  69  70
ENDBRANCH  50  64
BRANCH  51  74
ATOM     74  C   UNL A   1      41.396  27.841  29.643  1.00  0.00    -0.014 A 
ATOM     75  C   UNL A   1      40.441  26.840  29.393  1.00  0.00     0.010 A 
ATOM     76  C   UNL A   1      42.556  27.893  28.849  1.00  0.00     0.010 A 
ATOM     77  C   UNL A   1      40.650  25.899  28.379  1.00  0.00     0.020 A 
ATOM     78  C   UNL A   1      42.755  26.973  27.816  1.00  0.00     0.020 A 
ATOM     79  C   UNL A   1      41.805  25.974  27.595  1.00  0.00     0.054 A 
BRANCH  79  80
ATOM     80  S   UNL A   1      42.030  24.781  26.247  1.00  0.00     0.124 S 
ATOM     81  O   UNL A   1      40.975  23.811  26.520  1.00  0.00    -0.237 OA
ATOM     82  O   UNL A   1      41.838  25.609  25.058  1.00  0.00    -0.237 OA
ATOM     83  O   UNL A   1      43.395  24.298  26.444  1.00  0.00    -0.744 OA
ENDBRANCH  79  80
ENDBRANCH  51  74
BRANCH  63  84
ATOM     84  C   UNL A   1      44.435  28.883  35.831  1.00  0.00    -0.014 A 
ATOM     85  C   UNL A   1      45.790  29.229  35.684  1.00  0.00     0.010 A 
ATOM     86  C   UNL A   1      44.088  27.829  36.695  1.00  0.00     0.010 A 
ATOM     87  C   UNL A   1      46.782  28.496  36.343  1.00  0.00     0.020 A 
ATOM     88  C   UNL A   1      45.074  27.113  37.379  1.00  0.00     0.020 A 
ATOM     89  C   UNL A   1      46.417  27.437  37.179  1.00  0.00     0.054 A 
BRANCH  89  90
ATOM     90  S   UNL A   1      47.719  26.498  38.023  1.00  0.00     0.124 S 
ATOM     91  O   UNL A   1      47.014  25.987  39.195  1.00  0.00    -0.237 OA
ATOM     92  O   UNL A   1      48.092  25.496  37.028  1.00  0.00    -0.237 OA
ATOM     93  O   UNL A   1      48.745  27.502  38.302  1.00  0.00    -0.744 OA
ENDBRANCH  89  90
ENDBRANCH  63  84
ENDBRANCH  37  38
ENDBRANCH  30  32
ENDBRANCH  29  30
ENDBRANCH  28  29
ENDBRANCH  27  28
ENDBRANCH   1  27
TORSDOF 21
ENDMDL
MODEL 3
REMARK VINA RESULT:     -10.7      3.253      9.626
REMARK SMILES CC[C@@H](C(=O)OCCOCCOC(=O)c1ccc(-c2c3nc(c(-c4ccc(S(=O)(=O)[O-])cc4)c4ccc([nH]4)c(-c4ccc(S(=O)(=O)[O-])cc4)c4nc(c(-c5ccc(S(=O)(=O)[O-])cc5)c5ccc2[nH]5)C=C4)C=C3)cc1)N1C(=O)/C(=C/C(C)=C/c2ccccc2)SC1=S
REMARK SMILES IDX 9 1 8 2 7 3 6 4 4 5 5 6 3 7 2 8 1 9 75 10 76 11 90 12 77 13
REMARK SMILES IDX 78 14 89 15 91 16 79 17 80 18 81 19 82 20 83 21 84 22 88 23
REMARK SMILES IDX 85 24 87 25 86 26 10 27 11 28 12 29 13 30 14 31 15 32 16 33
REMARK SMILES IDX 74 34 17 35 73 36 18 37 19 38 20 39 67 40 21 41 72 42 66 43
REMARK SMILES IDX 68 44 22 45 71 46 65 47 64 48 23 50 53 51 34 52 52 53 35 54
REMARK SMILES IDX 38 55 51 56 69 57 36 58 37 59 50 61 70 62 39 63 24 64 25 65
REMARK SMILES IDX 33 66 26 67 32 68 27 69 28 70 29 71 30 72 31 73 54 74 55 75
REMARK SMILES IDX 63 76 56 77 62 78 57 79 58 80 59 81 60 82 61 83 40 84 41 85
REMARK SMILES IDX 49 86 42 87 48 88 43 89 44 90 45 91 46 92 47 93
REMARK H PARENT 68 49 38 60
REMARK Flexibility Score: inf
ROOT
ATOM      1  O   UNL A   1      38.730  21.951  26.161  1.00  0.00    -0.374 OA
ENDROOT
BRANCH   1   2
ATOM      2  C   UNL A   1      38.270  21.052  25.144  1.00  0.00     0.202 C 
BRANCH   2   3
ATOM      3  C   UNL A   1      36.801  21.202  24.720  1.00  0.00     0.261 C 
BRANCH   3   4
ATOM      4  O   UNL A   1      36.093  21.931  25.737  1.00  0.00    -0.462 OA
BRANCH   4   5
ATOM      5  C   UNL A   1      35.588  23.140  25.389  1.00  0.00     0.329 C 
ATOM      6  O   UNL A   1      36.065  23.884  24.539  1.00  0.00    -0.250 OA
BRANCH   5   7
ATOM      7  C   UNL A   1      34.276  23.442  26.141  1.00  0.00     0.201 C 
BRANCH   7   8
ATOM      8  C   UNL A   1      33.559  22.261  26.836  1.00  0.00     0.034 C 
ATOM      9  C   UNL A   1      32.359  22.666  27.686  1.00  0.00     0.007 C 
ENDBRANCH   7   8
BRANCH   7  10
ATOM     10  N   UNL A   1      33.331  24.226  25.292  1.00  0.00    -0.278 N 
ATOM     11  C   UNL A   1      33.054  25.561  25.562  1.00  0.00     0.266 C 
ATOM     12  C   UNL A   1      32.798  23.737  24.118  1.00  0.00     0.149 C 
ATOM     13  O   UNL A   1      33.530  26.238  26.462  1.00  0.00    -0.268 OA
ATOM     14  C   UNL A   1      32.074  26.118  24.577  1.00  0.00     0.080 C 
ATOM     15  S   UNL A   1      31.909  24.996  23.293  1.00  0.00    -0.054 SA
ATOM     16  S   UNL A   1      32.925  22.209  23.458  1.00  0.00    -0.052 S 
ATOM     17  C   UNL A   1      31.452  27.294  24.783  1.00  0.00     0.024 C 
BRANCH  17  18
ATOM     18  C   UNL A   1      30.441  28.037  24.005  1.00  0.00    -0.049 C 
ATOM     19  C   UNL A   1      29.236  27.214  23.598  1.00  0.00     0.044 C 
ATOM     20  C   UNL A   1      30.560  29.338  23.668  1.00  0.00     0.011 C 
BRANCH  20  21
ATOM     21  C   UNL A   1      29.646  30.243  22.955  1.00  0.00    -0.025 A 
ATOM     22  C   UNL A   1      28.855  31.108  23.726  1.00  0.00     0.008 A 
ATOM     23  C   UNL A   1      29.398  30.145  21.583  1.00  0.00     0.008 A 
ATOM     24  C   UNL A   1      27.836  31.860  23.141  1.00  0.00     0.001 A 
ATOM     25  C   UNL A   1      28.382  30.905  20.995  1.00  0.00     0.001 A 
ATOM     26  C   UNL A   1      27.597  31.755  21.774  1.00  0.00     0.000 A 
ENDBRANCH  20  21
ENDBRANCH  17  18
ENDBRANCH   7  10
ENDBRANCH   5   7
ENDBRANCH   4   5
ENDBRANCH   3   4
ENDBRANCH   2   3
ENDBRANCH   1   2
BRANCH   1  27
ATOM     27  C   UNL A   1      40.089  21.826  26.571  1.00  0.00     0.202 C 
BRANCH  27  28
ATOM     28  C   UNL A   1      40.899  23.123  26.661  1.00  0.00     0.261 C 
BRANCH  28  29
ATOM     29  O   UNL A   1      40.067  24.293  26.604  1.00  0.00    -0.460 OA
BRANCH  29  30
ATOM     30  C   UNL A   1      40.754  25.439  26.391  1.00  0.00     0.338 C 
ATOM     31  O   UNL A   1      41.036  25.940  25.308  1.00  0.00    -0.246 OA
BRANCH  30  32
ATOM     32  C   UNL A   1      41.009  26.142  27.659  1.00  0.00     0.060 A 
ATOM     33  C   UNL A   1      39.980  26.118  28.606  1.00  0.00     0.016 A 
ATOM     34  C   UNL A   1      42.167  26.892  27.883  1.00  0.00     0.016 A 
ATOM     35  C   UNL A   1      40.069  26.906  29.748  1.00  0.00     0.010 A 
ATOM     36  C   UNL A   1      42.254  27.685  29.036  1.00  0.00     0.010 A 
ATOM     37  C   UNL A   1      41.183  27.732  29.947  1.00  0.00    -0.014 A 
BRANCH  37  38
ATOM     38  C   UNL A   1      41.122  28.741  31.036  1.00  0.00     0.031 A 
ATOM     39  C   UNL A   1      40.057  29.805  30.993  1.00  0.00     0.074 A 
ATOM     40  C   UNL A   1      41.934  28.640  32.103  1.00  0.00     0.049 A 
ATOM     41  N   UNL A   1      39.743  30.697  31.898  1.00  0.00    -0.248 NA
ATOM     42  C   UNL A   1      39.235  29.872  29.774  1.00  0.00     0.031 C 
ATOM     43  C   UNL A   1      42.979  27.632  32.278  1.00  0.00     0.029 A 
ATOM     44  N   UNL A   1      41.986  29.383  33.256  1.00  0.00    -0.354 N 
ATOM     45  C   UNL A   1      38.685  31.424  31.363  1.00  0.00     0.074 A 
ATOM     46  C   UNL A   1      38.439  30.897  30.038  1.00  0.00     0.031 C 
ATOM     47  C   UNL A   1      43.558  27.808  33.478  1.00  0.00     0.029 A 
ATOM     48  C   UNL A   1      42.937  28.949  34.147  1.00  0.00     0.049 A 
ATOM     49  H   UNL A   1      41.397  30.152  33.428  1.00  0.00     0.167 HD
ATOM     50  C   UNL A   1      37.973  32.430  31.926  1.00  0.00     0.031 A 
ATOM     51  C   UNL A   1      43.269  29.415  35.367  1.00  0.00     0.031 A 
ATOM     52  C   UNL A   1      38.226  32.964  33.238  1.00  0.00     0.049 A 
ATOM     53  C   UNL A   1      42.494  30.566  35.954  1.00  0.00     0.074 A 
ATOM     54  C   UNL A   1      37.557  33.978  33.900  1.00  0.00     0.029 A 
ATOM     55  N   UNL A   1      39.234  32.532  34.088  1.00  0.00    -0.354 N 
ATOM     56  N   UNL A   1      41.480  31.224  35.444  1.00  0.00    -0.248 NA
ATOM     57  C   UNL A   1      42.899  31.022  37.291  1.00  0.00     0.031 C 
ATOM     58  C   UNL A   1      38.191  34.194  35.128  1.00  0.00     0.029 A 
ATOM     59  C   UNL A   1      39.218  33.273  35.258  1.00  0.00     0.049 A 
ATOM     60  H   UNL A   1      39.867  31.805  33.889  1.00  0.00     0.167 HD
ATOM     61  C   UNL A   1      41.106  32.152  36.410  1.00  0.00     0.074 A 
ATOM     62  C   UNL A   1      41.992  31.957  37.540  1.00  0.00     0.031 C 
ATOM     63  C   UNL A   1      40.114  33.078  36.370  1.00  0.00     0.031 A 
BRANCH  50  64
ATOM     64  C   UNL A   1      36.867  33.040  31.104  1.00  0.00    -0.014 A 
ATOM     65  C   UNL A   1      37.147  33.879  30.009  1.00  0.00     0.010 A 
ATOM     66  C   UNL A   1      35.527  32.749  31.416  1.00  0.00     0.010 A 
ATOM     67  C   UNL A   1      36.107  34.447  29.268  1.00  0.00     0.020 A 
ATOM     68  C   UNL A   1      34.484  33.292  30.659  1.00  0.00     0.020 A 
ATOM     69  C   UNL A   1      34.782  34.153  29.601  1.00  0.00     0.054 A 
BRANCH  69  70
ATOM     70  S   UNL A   1      33.450  34.892  28.615  1.00  0.00     0.124 S 
ATOM     71  O   UNL A   1      34.158  35.948  27.896  1.00  0.00    -0.237 OA
ATOM     72  O   UNL A   1      32.997  33.770  27.796  1.00  0.00    -0.237 OA
ATOM     73  O   UNL A   1      32.492  35.355  29.616  1.00  0.00    -0.744 OA
ENDBRANCH  69  70
ENDBRANCH  50  64
BRANCH  51  74
ATOM     74  C   UNL A   1      44.386  28.785  36.122  1.00  0.00    -0.014 A 
ATOM     75  C   UNL A   1      44.167  27.654  36.928  1.00  0.00     0.010 A 
ATOM     76  C   UNL A   1      45.685  29.318  36.030  1.00  0.00     0.010 A 
ATOM     77  C   UNL A   1      45.223  27.077  37.641  1.00  0.00     0.020 A 
ATOM     78  C   UNL A   1      46.749  28.727  36.718  1.00  0.00     0.020 A 
ATOM     79  C   UNL A   1      46.508  27.615  37.528  1.00  0.00     0.054 A 
BRANCH  79  80
ATOM     80  S   UNL A   1      47.876  26.817  38.414  1.00  0.00     0.124 S 
ATOM     81  O   UNL A   1      48.580  26.134  37.335  1.00  0.00    -0.237 OA
ATOM     82  O   UNL A   1      48.574  27.956  39.007  1.00  0.00    -0.237 OA
ATOM     83  O   UNL A   1      47.198  25.946  39.373  1.00  0.00    -0.744 OA
ENDBRANCH  79  80
ENDBRANCH  51  74
BRANCH  63  84
ATOM     84  C   UNL A   1      39.915  33.926  37.599  1.00  0.00    -0.014 A 
ATOM     85  C   UNL A   1      40.540  35.179  37.736  1.00  0.00     0.010 A 
ATOM     86  C   UNL A   1      39.074  33.466  38.629  1.00  0.00     0.010 A 
ATOM     87  C   UNL A   1      40.375  35.928  38.905  1.00  0.00     0.020 A 
ATOM     88  C   UNL A   1      38.881  34.226  39.786  1.00  0.00     0.020 A 
ATOM     89  C   UNL A   1      39.552  35.441  39.926  1.00  0.00     0.054 A 
BRANCH  89  90
ATOM     90  S   UNL A   1      39.352  36.428  41.435  1.00  0.00     0.124 S 
ATOM     91  O   UNL A   1      40.688  36.361  42.020  1.00  0.00    -0.237 OA
ATOM     92  O   UNL A   1      38.959  37.736  40.915  1.00  0.00    -0.237 OA
ATOM     93  O   UNL A   1      38.310  35.720  42.176  1.00  0.00    -0.744 OA
ENDBRANCH  89  90
ENDBRANCH  63  84
ENDBRANCH  37  38
ENDBRANCH  30  32
ENDBRANCH  29  30
ENDBRANCH  28  29
ENDBRANCH  27  28
ENDBRANCH   1  27
TORSDOF 21
ENDMDL
