MODEL 1
REMARK VINA RESULT:     -10.5      0.000      0.000
REMARK SMILES O=C(OCCOCCOC(=O)c1cc([N+](=O)[O-])c(NCCC2=CCCCC2)c([N+](=O)[O-])c1)c1ccc(-c2c3nc(c(-c4ccc(S(=O)(=O)[O-])cc4)c4ccc([nH]4)c(-c4ccc(S(=O)(=O)[O-])cc4)c4nc(c(-c5ccc(S(=O)(=O)[O-])cc5)c5ccc2[nH]5)C=C4)C=C3)cc1
REMARK SMILES IDX 7 1 6 2 5 3 4 4 3 5 2 6 1 7 33 8 34 9 92 10 35 11 91 12
REMARK SMILES IDX 36 13 37 14 38 15 85 16 39 17 90 18 84 19 86 20 40 21 89 22
REMARK SMILES IDX 83 23 82 24 41 26 71 27 52 28 70 29 53 30 56 31 69 32 87 33
REMARK SMILES IDX 54 34 55 35 68 37 88 38 57 39 42 40 43 41 51 42 44 43 50 44
REMARK SMILES IDX 45 45 46 46 47 47 48 48 49 49 72 50 73 51 81 52 74 53 80 54
REMARK SMILES IDX 75 55 76 56 77 57 78 58 79 59 58 60 59 61 67 62 60 63 66 64
REMARK SMILES IDX 61 65 62 66 63 67 64 68 65 69 8 70 9 71 10 72 11 73 12 74
REMARK SMILES IDX 13 75 32 76 14 77 28 78 18 79 15 80 16 81 17 82 29 83 30 84
REMARK SMILES IDX 31 85 19 86 20 88 21 89 22 90 23 91 27 92 24 93 26 94 25 95
REMARK H PARENT 86 25 56 36 19 87
REMARK Flexibility Score: inf
ROOT
ATOM      1  C   UNL A   1      37.849  21.158  25.136  1.00  0.00     0.202 C 
ENDROOT
BRANCH   1   2
ATOM      2  O   UNL A   1      38.536  21.905  26.148  1.00  0.00    -0.374 OA
BRANCH   2   3
ATOM      3  C   UNL A   1      39.916  21.588  26.338  1.00  0.00     0.202 C 
BRANCH   3   4
ATOM      4  C   UNL A   1      40.835  22.779  26.637  1.00  0.00     0.261 C 
BRANCH   4   5
ATOM      5  O   UNL A   1      40.236  24.009  26.188  1.00  0.00    -0.460 OA
BRANCH   5   6
ATOM      6  C   UNL A   1      40.762  25.258  26.223  1.00  0.00     0.338 C 
ATOM      7  O   UNL A   1      41.386  25.664  25.245  1.00  0.00    -0.246 OA
BRANCH   6   8
ATOM      8  C   UNL A   1      40.635  26.163  27.405  1.00  0.00     0.060 A 
ATOM      9  C   UNL A   1      39.729  25.963  28.444  1.00  0.00     0.016 A 
ATOM     10  C   UNL A   1      41.541  27.231  27.519  1.00  0.00     0.016 A 
ATOM     11  C   UNL A   1      39.645  26.832  29.513  1.00  0.00     0.010 A 
ATOM     12  C   UNL A   1      41.513  28.077  28.635  1.00  0.00     0.010 A 
ATOM     13  C   UNL A   1      40.548  27.884  29.629  1.00  0.00    -0.014 A 
BRANCH  13  14
ATOM     14  C   UNL A   1      40.364  28.780  30.782  1.00  0.00     0.031 A 
ATOM     15  C   UNL A   1      41.346  28.707  31.909  1.00  0.00     0.074 A 
ATOM     16  C   UNL A   1      39.458  29.774  30.688  1.00  0.00     0.049 A 
ATOM     17  N   UNL A   1      41.420  29.443  32.982  1.00  0.00    -0.248 NA
ATOM     18  C   UNL A   1      42.402  27.684  31.802  1.00  0.00     0.031 C 
ATOM     19  C   UNL A   1      38.557  29.987  29.549  1.00  0.00     0.029 A 
ATOM     20  N   UNL A   1      39.187  30.824  31.523  1.00  0.00    -0.354 N 
ATOM     21  C   UNL A   1      42.520  28.967  33.685  1.00  0.00     0.074 A 
ATOM     22  C   UNL A   1      43.075  27.869  32.928  1.00  0.00     0.031 C 
ATOM     23  C   UNL A   1      37.866  31.122  29.738  1.00  0.00     0.029 A 
ATOM     24  C   UNL A   1      38.216  31.672  31.041  1.00  0.00     0.049 A 
ATOM     25  H   UNL A   1      39.642  30.959  32.385  1.00  0.00     0.167 HD
ATOM     26  C   UNL A   1      43.016  29.416  34.860  1.00  0.00     0.031 A 
ATOM     27  C   UNL A   1      37.653  32.753  31.612  1.00  0.00     0.031 A 
ATOM     28  C   UNL A   1      42.426  30.500  35.597  1.00  0.00     0.049 A 
ATOM     29  C   UNL A   1      38.150  33.157  32.973  1.00  0.00     0.074 A 
ATOM     30  C   UNL A   1      42.765  30.986  36.845  1.00  0.00     0.029 A 
ATOM     31  N   UNL A   1      41.368  31.274  35.134  1.00  0.00    -0.354 N 
ATOM     32  N   UNL A   1      39.132  32.639  33.674  1.00  0.00    -0.248 NA
ATOM     33  C   UNL A   1      37.463  34.277  33.624  1.00  0.00     0.031 C 
ATOM     34  C   UNL A   1      41.879  32.024  37.157  1.00  0.00     0.029 A 
ATOM     35  C   UNL A   1      41.031  32.226  36.077  1.00  0.00     0.049 A 
ATOM     36  H   UNL A   1      40.925  31.161  34.263  1.00  0.00     0.167 HD
ATOM     37  C   UNL A   1      39.186  33.375  34.850  1.00  0.00     0.074 A 
ATOM     38  C   UNL A   1      38.161  34.397  34.745  1.00  0.00     0.031 C 
ATOM     39  C   UNL A   1      39.996  33.220  35.928  1.00  0.00     0.031 A 
BRANCH  26  40
ATOM     40  C   UNL A   1      44.198  28.683  35.431  1.00  0.00    -0.014 A 
ATOM     41  C   UNL A   1      45.513  28.995  35.041  1.00  0.00     0.010 A 
ATOM     42  C   UNL A   1      43.988  27.647  36.360  1.00  0.00     0.010 A 
ATOM     43  C   UNL A   1      46.593  28.261  35.542  1.00  0.00     0.020 A 
ATOM     44  C   UNL A   1      45.066  26.927  36.882  1.00  0.00     0.020 A 
ATOM     45  C   UNL A   1      46.361  27.228  36.456  1.00  0.00     0.054 A 
BRANCH  45  46
ATOM     46  S   UNL A   1      47.780  26.299  37.099  1.00  0.00     0.124 S 
ATOM     47  O   UNL A   1      47.201  25.630  38.261  1.00  0.00    -0.237 OA
ATOM     48  O   UNL A   1      48.124  25.426  35.980  1.00  0.00    -0.237 OA
ATOM     49  O   UNL A   1      48.766  27.334  37.405  1.00  0.00    -0.744 OA
ENDBRANCH  45  46
ENDBRANCH  26  40
BRANCH  27  50
ATOM     50  C   UNL A   1      36.514  33.454  30.950  1.00  0.00    -0.014 A 
ATOM     51  C   UNL A   1      36.627  33.999  29.660  1.00  0.00     0.010 A 
ATOM     52  C   UNL A   1      35.293  33.603  31.640  1.00  0.00     0.010 A 
ATOM     53  C   UNL A   1      35.560  34.704  29.089  1.00  0.00     0.020 A 
ATOM     54  C   UNL A   1      34.214  34.274  31.062  1.00  0.00     0.020 A 
ATOM     55  C   UNL A   1      34.361  34.840  29.796  1.00  0.00     0.054 A 
BRANCH  55  56
ATOM     56  S   UNL A   1      32.987  35.754  29.042  1.00  0.00     0.124 S 
ATOM     57  O   UNL A   1      32.368  34.731  28.203  1.00  0.00    -0.237 OA
ATOM     58  O   UNL A   1      32.211  36.176  30.204  1.00  0.00    -0.237 OA
ATOM     59  O   UNL A   1      33.652  36.836  28.320  1.00  0.00    -0.744 OA
ENDBRANCH  55  56
ENDBRANCH  27  50
BRANCH  39  60
ATOM     60  C   UNL A   1      39.813  34.199  37.053  1.00  0.00    -0.014 A 
ATOM     61  C   UNL A   1      39.101  33.846  38.212  1.00  0.00     0.010 A 
ATOM     62  C   UNL A   1      40.395  35.475  36.959  1.00  0.00     0.010 A 
ATOM     63  C   UNL A   1      38.936  34.772  39.243  1.00  0.00     0.020 A 
ATOM     64  C   UNL A   1      40.260  36.392  38.001  1.00  0.00     0.020 A 
ATOM     65  C   UNL A   1      39.516  36.040  39.130  1.00  0.00     0.054 A 
BRANCH  65  66
ATOM     66  S   UNL A   1      39.314  37.215  40.493  1.00  0.00     0.124 S 
ATOM     67  O   UNL A   1      40.695  37.425  40.919  1.00  0.00    -0.237 OA
ATOM     68  O   UNL A   1      38.676  38.356  39.840  1.00  0.00    -0.237 OA
ATOM     69  O   UNL A   1      38.469  36.498  41.446  1.00  0.00    -0.744 OA
ENDBRANCH  65  66
ENDBRANCH  39  60
ENDBRANCH  13  14
ENDBRANCH   6   8
ENDBRANCH   5   6
ENDBRANCH   4   5
ENDBRANCH   3   4
ENDBRANCH   2   3
ENDBRANCH   1   2
BRANCH   1  70
ATOM     70  C   UNL A   1      37.023  22.114  24.270  1.00  0.00     0.261 C 
BRANCH  70  71
ATOM     71  O   UNL A   1      35.762  22.334  24.923  1.00  0.00    -0.460 OA
BRANCH  71  72
ATOM     72  C   UNL A   1      35.589  23.588  25.407  1.00  0.00     0.338 C 
ATOM     73  O   UNL A   1      36.389  24.289  25.999  1.00  0.00    -0.246 OA
BRANCH  72  74
ATOM     74  C   UNL A   1      34.313  24.093  24.860  1.00  0.00     0.073 A 
ATOM     75  C   UNL A   1      33.298  24.432  25.745  1.00  0.00     0.104 A 
ATOM     76  C   UNL A   1      34.154  24.329  23.500  1.00  0.00     0.104 A 
ATOM     77  C   UNL A   1      32.146  25.085  25.264  1.00  0.00     0.300 A 
ATOM     78  C   UNL A   1      32.981  24.958  23.034  1.00  0.00     0.300 A 
ATOM     79  C   UNL A   1      31.935  25.398  23.903  1.00  0.00     0.192 A 
BRANCH  77  80
ATOM     80  N   UNL A   1      31.184  25.427  26.288  1.00  0.00     0.065 N 
ATOM     81  O   UNL A   1      31.377  26.488  26.899  1.00  0.00    -0.258 OA
ATOM     82  O   UNL A   1      30.261  24.628  26.493  1.00  0.00    -0.258 OA
ENDBRANCH  77  80
BRANCH  78  83
ATOM     83  N   UNL A   1      32.901  25.158  21.575  1.00  0.00     0.065 N 
ATOM     84  O   UNL A   1      32.598  26.284  21.152  1.00  0.00    -0.258 OA
ATOM     85  O   UNL A   1      33.116  24.178  20.846  1.00  0.00    -0.258 OA
ENDBRANCH  78  83
BRANCH  79  86
ATOM     86  N   UNL A   1      30.913  26.176  23.391  1.00  0.00    -0.374 N 
ATOM     87  H   UNL A   1      30.335  25.707  22.746  1.00  0.00     0.161 HD
BRANCH  86  88
ATOM     88  C   UNL A   1      30.531  27.565  23.631  1.00  0.00     0.118 C 
BRANCH  88  89
ATOM     89  C   UNL A   1      31.762  28.485  23.483  1.00  0.00     0.052 C 
BRANCH  89  90
ATOM     90  C   UNL A   1      32.488  28.899  24.750  1.00  0.00    -0.072 C 
ATOM     91  C   UNL A   1      33.705  28.441  25.099  1.00  0.00    -0.028 C 
ATOM     92  C   UNL A   1      31.721  29.853  25.641  1.00  0.00     0.031 C 
ATOM     93  C   UNL A   1      34.383  28.776  26.398  1.00  0.00     0.027 C 
ATOM     94  C   UNL A   1      32.561  30.469  26.759  1.00  0.00     0.005 C 
ATOM     95  C   UNL A   1      33.447  29.422  27.419  1.00  0.00     0.004 C 
ENDBRANCH  89  90
ENDBRANCH  88  89
ENDBRANCH  86  88
ENDBRANCH  79  86
ENDBRANCH  72  74
ENDBRANCH  71  72
ENDBRANCH  70  71
ENDBRANCH   1  70
TORSDOF 23
ENDMDL
MODEL 2
REMARK VINA RESULT:     -10.1      3.541      4.465
REMARK SMILES O=C(OCCOCCOC(=O)c1cc([N+](=O)[O-])c(NCCC2=CCCCC2)c([N+](=O)[O-])c1)c1ccc(-c2c3nc(c(-c4ccc(S(=O)(=O)[O-])cc4)c4ccc([nH]4)c(-c4ccc(S(=O)(=O)[O-])cc4)c4nc(c(-c5ccc(S(=O)(=O)[O-])cc5)c5ccc2[nH]5)C=C4)C=C3)cc1
REMARK SMILES IDX 7 1 6 2 5 3 4 4 3 5 2 6 1 7 33 8 34 9 92 10 35 11 91 12
REMARK SMILES IDX 36 13 37 14 38 15 85 16 39 17 90 18 84 19 86 20 40 21 89 22
REMARK SMILES IDX 83 23 82 24 41 26 71 27 52 28 70 29 53 30 56 31 69 32 87 33
REMARK SMILES IDX 54 34 55 35 68 37 88 38 57 39 42 40 43 41 51 42 44 43 50 44
REMARK SMILES IDX 45 45 46 46 47 47 48 48 49 49 72 50 73 51 81 52 74 53 80 54
REMARK SMILES IDX 75 55 76 56 77 57 78 58 79 59 58 60 59 61 67 62 60 63 66 64
REMARK SMILES IDX 61 65 62 66 63 67 64 68 65 69 8 70 9 71 10 72 11 73 12 74
REMARK SMILES IDX 13 75 32 76 14 77 28 78 18 79 15 80 16 81 17 82 29 83 30 84
REMARK SMILES IDX 31 85 19 86 20 88 21 89 22 90 23 91 27 92 24 93 26 94 25 95
REMARK H PARENT 86 25 56 36 19 87
REMARK Flexibility Score: inf
ROOT
ATOM      1  C   UNL A   1      34.882  21.202  26.424  1.00  0.00     0.202 C 
ENDROOT
BRANCH   1   2
ATOM      2  O   UNL A   1      35.145  22.610  26.379  1.00  0.00    -0.374 OA
BRANCH   2   3
ATOM      3  C   UNL A   1      35.348  23.172  25.081  1.00  0.00     0.202 C 
BRANCH   3   4
ATOM      4  C   UNL A   1      36.611  24.028  24.919  1.00  0.00     0.261 C 
BRANCH   4   5
ATOM      5  O   UNL A   1      37.795  23.222  25.070  1.00  0.00    -0.460 OA
BRANCH   5   6
ATOM      6  C   UNL A   1      38.610  23.125  26.148  1.00  0.00     0.338 C 
ATOM      7  O   UNL A   1      38.927  22.007  26.551  1.00  0.00    -0.246 OA
BRANCH   6   8
ATOM      8  C   UNL A   1      39.130  24.315  26.886  1.00  0.00     0.060 A 
ATOM      9  C   UNL A   1      38.938  24.529  28.250  1.00  0.00     0.016 A 
ATOM     10  C   UNL A   1      39.934  25.229  26.185  1.00  0.00     0.016 A 
ATOM     11  C   UNL A   1      39.434  25.649  28.887  1.00  0.00     0.010 A 
ATOM     12  C   UNL A   1      40.504  26.330  26.837  1.00  0.00     0.010 A 
ATOM     13  C   UNL A   1      40.237  26.548  28.192  1.00  0.00    -0.014 A 
BRANCH  13  14
ATOM     14  C   UNL A   1      40.694  27.730  28.941  1.00  0.00     0.031 A 
ATOM     15  C   UNL A   1      42.137  27.820  29.325  1.00  0.00     0.074 A 
ATOM     16  C   UNL A   1      39.857  28.780  29.063  1.00  0.00     0.049 A 
ATOM     17  N   UNL A   1      42.770  28.792  29.919  1.00  0.00    -0.248 NA
ATOM     18  C   UNL A   1      42.989  26.670  28.973  1.00  0.00     0.031 C 
ATOM     19  C   UNL A   1      38.469  28.810  28.583  1.00  0.00     0.029 A 
ATOM     20  N   UNL A   1      40.060  30.038  29.560  1.00  0.00    -0.354 N 
ATOM     21  C   UNL A   1      44.089  28.371  30.023  1.00  0.00     0.074 A 
ATOM     22  C   UNL A   1      44.166  27.047  29.448  1.00  0.00     0.031 C 
ATOM     23  C   UNL A   1      37.963  30.039  28.772  1.00  0.00     0.029 A 
ATOM     24  C   UNL A   1      38.958  30.856  29.453  1.00  0.00     0.049 A 
ATOM     25  H   UNL A   1      40.912  30.330  29.959  1.00  0.00     0.167 HD
ATOM     26  C   UNL A   1      45.139  29.037  30.554  1.00  0.00     0.031 A 
ATOM     27  C   UNL A   1      38.771  32.115  29.890  1.00  0.00     0.031 A 
ATOM     28  C   UNL A   1      45.021  30.346  31.136  1.00  0.00     0.049 A 
ATOM     29  C   UNL A   1      39.926  32.787  30.581  1.00  0.00     0.074 A 
ATOM     30  C   UNL A   1      45.978  31.089  31.799  1.00  0.00     0.029 A 
ATOM     31  N   UNL A   1      43.860  31.110  31.112  1.00  0.00    -0.354 N 
ATOM     32  N   UNL A   1      41.148  32.341  30.760  1.00  0.00    -0.248 NA
ATOM     33  C   UNL A   1      39.679  34.122  31.138  1.00  0.00     0.031 C 
ATOM     34  C   UNL A   1      45.382  32.284  32.218  1.00  0.00     0.029 A 
ATOM     35  C   UNL A   1      44.071  32.313  31.761  1.00  0.00     0.049 A 
ATOM     36  H   UNL A   1      43.012  30.836  30.695  1.00  0.00     0.167 HD
ATOM     37  C   UNL A   1      41.821  33.343  31.446  1.00  0.00     0.074 A 
ATOM     38  C   UNL A   1      40.877  34.433  31.614  1.00  0.00     0.031 C 
ATOM     39  C   UNL A   1      43.097  33.365  31.908  1.00  0.00     0.031 A 
BRANCH  26  40
ATOM     40  C   UNL A   1      46.462  28.324  30.585  1.00  0.00    -0.014 A 
ATOM     41  C   UNL A   1      46.843  27.534  31.686  1.00  0.00     0.010 A 
ATOM     42  C   UNL A   1      47.349  28.462  29.503  1.00  0.00     0.010 A 
ATOM     43  C   UNL A   1      48.102  26.927  31.718  1.00  0.00     0.020 A 
ATOM     44  C   UNL A   1      48.599  27.836  29.520  1.00  0.00     0.020 A 
ATOM     45  C   UNL A   1      48.974  27.086  30.637  1.00  0.00     0.054 A 
BRANCH  45  46
ATOM     46  S   UNL A   1      50.596  26.278  30.700  1.00  0.00     0.124 S 
ATOM     47  O   UNL A   1      50.841  26.206  32.138  1.00  0.00    -0.237 OA
ATOM     48  O   UNL A   1      50.344  25.000  30.041  1.00  0.00    -0.237 OA
ATOM     49  O   UNL A   1      51.470  27.193  29.967  1.00  0.00    -0.744 OA
ENDBRANCH  45  46
ENDBRANCH  26  40
BRANCH  27  50
ATOM     50  C   UNL A   1      37.435  32.768  29.774  1.00  0.00    -0.014 A 
ATOM     51  C   UNL A   1      37.046  33.460  28.614  1.00  0.00     0.010 A 
ATOM     52  C   UNL A   1      36.540  32.719  30.862  1.00  0.00     0.010 A 
ATOM     53  C   UNL A   1      35.810  34.115  28.558  1.00  0.00     0.020 A 
ATOM     54  C   UNL A   1      35.290  33.340  30.798  1.00  0.00     0.020 A 
ATOM     55  C   UNL A   1      34.941  34.054  29.652  1.00  0.00     0.054 A 
BRANCH  55  56
ATOM     56  S   UNL A   1      33.341  34.905  29.562  1.00  0.00     0.124 S 
ATOM     57  O   UNL A   1      33.723  36.212  29.037  1.00  0.00    -0.237 OA
ATOM     58  O   UNL A   1      32.580  34.054  28.652  1.00  0.00    -0.237 OA
ATOM     59  O   UNL A   1      32.872  34.899  30.946  1.00  0.00    -0.744 OA
ENDBRANCH  55  56
ENDBRANCH  27  50
BRANCH  39  60
ATOM     60  C   UNL A   1      43.536  34.619  32.610  1.00  0.00    -0.014 A 
ATOM     61  C   UNL A   1      43.329  34.788  33.990  1.00  0.00     0.010 A 
ATOM     62  C   UNL A   1      44.197  35.622  31.880  1.00  0.00     0.010 A 
ATOM     63  C   UNL A   1      43.739  35.963  34.621  1.00  0.00     0.020 A 
ATOM     64  C   UNL A   1      44.637  36.784  32.514  1.00  0.00     0.020 A 
ATOM     65  C   UNL A   1      44.389  36.954  33.878  1.00  0.00     0.054 A 
BRANCH  65  66
ATOM     66  S   UNL A   1      44.938  38.458  34.725  1.00  0.00     0.124 S 
ATOM     67  O   UNL A   1      43.691  39.207  34.851  1.00  0.00    -0.237 OA
ATOM     68  O   UNL A   1      45.489  37.938  35.975  1.00  0.00    -0.237 OA
ATOM     69  O   UNL A   1      45.921  39.032  33.810  1.00  0.00    -0.744 OA
ENDBRANCH  65  66
ENDBRANCH  39  60
ENDBRANCH  13  14
ENDBRANCH   6   8
ENDBRANCH   5   6
ENDBRANCH   4   5
ENDBRANCH   3   4
ENDBRANCH   2   3
ENDBRANCH   1   2
BRANCH   1  70
ATOM     70  C   UNL A   1      34.487  20.713  25.027  1.00  0.00     0.261 C 
BRANCH  70  71
ATOM     71  O   UNL A   1      33.055  20.596  24.981  1.00  0.00    -0.460 OA
BRANCH  71  72
ATOM     72  C   UNL A   1      32.505  20.892  23.778  1.00  0.00     0.338 C 
ATOM     73  O   UNL A   1      32.110  20.127  22.917  1.00  0.00    -0.246 OA
BRANCH  72  74
ATOM     74  C   UNL A   1      32.211  22.339  23.779  1.00  0.00     0.073 A 
ATOM     75  C   UNL A   1      31.586  22.890  24.891  1.00  0.00     0.104 A 
ATOM     76  C   UNL A   1      32.637  23.164  22.745  1.00  0.00     0.104 A 
ATOM     77  C   UNL A   1      31.461  24.289  24.996  1.00  0.00     0.300 A 
ATOM     78  C   UNL A   1      32.478  24.560  22.856  1.00  0.00     0.300 A 
ATOM     79  C   UNL A   1      31.912  25.191  24.007  1.00  0.00     0.192 A 
BRANCH  77  80
ATOM     80  N   UNL A   1      30.837  24.741  26.219  1.00  0.00     0.065 N 
ATOM     81  O   UNL A   1      31.310  24.306  27.279  1.00  0.00    -0.258 OA
ATOM     82  O   UNL A   1      29.867  25.503  26.115  1.00  0.00    -0.258 OA
ENDBRANCH  77  80
BRANCH  78  83
ATOM     83  N   UNL A   1      32.955  25.350  21.705  1.00  0.00     0.065 N 
ATOM     84  O   UNL A   1      34.024  25.968  21.819  1.00  0.00    -0.258 OA
ATOM     85  O   UNL A   1      32.244  25.374  20.689  1.00  0.00    -0.258 OA
ENDBRANCH  78  83
BRANCH  79  86
ATOM     86  N   UNL A   1      31.969  26.568  24.120  1.00  0.00    -0.374 N 
ATOM     87  H   UNL A   1      32.478  26.886  24.900  1.00  0.00     0.161 HD
BRANCH  86  88
ATOM     88  C   UNL A   1      31.413  27.637  23.295  1.00  0.00     0.118 C 
BRANCH  88  89
ATOM     89  C   UNL A   1      29.903  27.790  23.573  1.00  0.00     0.052 C 
BRANCH  89  90
ATOM     90  C   UNL A   1      29.291  29.169  23.401  1.00  0.00    -0.072 C 
ATOM     91  C   UNL A   1      29.791  30.286  23.962  1.00  0.00    -0.028 C 
ATOM     92  C   UNL A   1      28.027  29.205  22.567  1.00  0.00     0.031 C 
ATOM     93  C   UNL A   1      29.133  31.634  23.869  1.00  0.00     0.027 C 
ATOM     94  C   UNL A   1      27.581  30.613  22.176  1.00  0.00     0.005 C 
ATOM     95  C   UNL A   1      27.695  31.571  23.354  1.00  0.00     0.004 C 
ENDBRANCH  89  90
ENDBRANCH  88  89
ENDBRANCH  86  88
ENDBRANCH  79  86
ENDBRANCH  72  74
ENDBRANCH  71  72
ENDBRANCH  70  71
ENDBRANCH   1  70
TORSDOF 23
ENDMDL
MODEL 3
REMARK VINA RESULT:      -9.6      1.740      2.967
REMARK SMILES O=C(OCCOCCOC(=O)c1cc([N+](=O)[O-])c(NCCC2=CCCCC2)c([N+](=O)[O-])c1)c1ccc(-c2c3nc(c(-c4ccc(S(=O)(=O)[O-])cc4)c4ccc([nH]4)c(-c4ccc(S(=O)(=O)[O-])cc4)c4nc(c(-c5ccc(S(=O)(=O)[O-])cc5)c5ccc2[nH]5)C=C4)C=C3)cc1
REMARK SMILES IDX 7 1 6 2 5 3 4 4 3 5 2 6 1 7 33 8 34 9 92 10 35 11 91 12
REMARK SMILES IDX 36 13 37 14 38 15 85 16 39 17 90 18 84 19 86 20 40 21 89 22
REMARK SMILES IDX 83 23 82 24 41 26 71 27 52 28 70 29 53 30 56 31 69 32 87 33
REMARK SMILES IDX 54 34 55 35 68 37 88 38 57 39 42 40 43 41 51 42 44 43 50 44
REMARK SMILES IDX 45 45 46 46 47 47 48 48 49 49 72 50 73 51 81 52 74 53 80 54
REMARK SMILES IDX 75 55 76 56 77 57 78 58 79 59 58 60 59 61 67 62 60 63 66 64
REMARK SMILES IDX 61 65 62 66 63 67 64 68 65 69 8 70 9 71 10 72 11 73 12 74
REMARK SMILES IDX 13 75 32 76 14 77 28 78 18 79 15 80 16 81 17 82 29 83 30 84
REMARK SMILES IDX 31 85 19 86 20 88 21 89 22 90 23 91 27 92 24 93 26 94 25 95
REMARK H PARENT 86 25 56 36 19 87
REMARK Flexibility Score: inf
ROOT
ATOM      1  C   UNL A   1      38.895  23.737  26.595  1.00  0.00     0.202 C 
ENDROOT
BRANCH   1   2
ATOM      2  O   UNL A   1      40.130  23.061  26.859  1.00  0.00    -0.374 OA
BRANCH   2   3
ATOM      3  C   UNL A   1      41.249  23.892  27.171  1.00  0.00     0.202 C 
BRANCH   3   4
ATOM      4  C   UNL A   1      41.805  24.721  26.006  1.00  0.00     0.261 C 
BRANCH   4   5
ATOM      5  O   UNL A   1      42.283  25.996  26.472  1.00  0.00    -0.460 OA
BRANCH   5   6
ATOM      6  C   UNL A   1      41.578  27.140  26.654  1.00  0.00     0.338 C 
ATOM      7  O   UNL A   1      41.053  27.672  25.678  1.00  0.00    -0.246 OA
BRANCH   6   8
ATOM      8  C   UNL A   1      41.422  27.798  27.985  1.00  0.00     0.060 A 
ATOM      9  C   UNL A   1      40.880  27.170  29.104  1.00  0.00     0.016 A 
ATOM     10  C   UNL A   1      41.931  29.098  28.144  1.00  0.00     0.016 A 
ATOM     11  C   UNL A   1      40.750  27.823  30.314  1.00  0.00     0.010 A 
ATOM     12  C   UNL A   1      41.871  29.744  29.385  1.00  0.00     0.010 A 
ATOM     13  C   UNL A   1      41.262  29.107  30.471  1.00  0.00    -0.014 A 
BRANCH  13  14
ATOM     14  C   UNL A   1      41.050  29.739  31.783  1.00  0.00     0.031 A 
ATOM     15  C   UNL A   1      42.126  29.623  32.816  1.00  0.00     0.074 A 
ATOM     16  C   UNL A   1      40.003  30.576  31.934  1.00  0.00     0.049 A 
ATOM     17  N   UNL A   1      42.185  30.155  34.004  1.00  0.00    -0.248 NA
ATOM     18  C   UNL A   1      43.307  28.818  32.454  1.00  0.00     0.031 C 
ATOM     19  C   UNL A   1      38.985  30.844  30.911  1.00  0.00     0.029 A 
ATOM     20  N   UNL A   1      39.655  31.402  32.968  1.00  0.00    -0.354 N 
ATOM     21  C   UNL A   1      43.399  29.743  34.538  1.00  0.00     0.074 A 
ATOM     22  C   UNL A   1      44.040  28.902  33.553  1.00  0.00     0.031 C 
ATOM     23  C   UNL A   1      38.155  31.801  31.354  1.00  0.00     0.029 A 
ATOM     24  C   UNL A   1      38.532  32.156  32.715  1.00  0.00     0.049 A 
ATOM     25  H   UNL A   1      40.159  31.451  33.813  1.00  0.00     0.167 HD
ATOM     26  C   UNL A   1      43.925  30.047  35.746  1.00  0.00     0.031 A 
ATOM     27  C   UNL A   1      37.869  33.013  33.514  1.00  0.00     0.031 A 
ATOM     28  C   UNL A   1      43.249  30.872  36.710  1.00  0.00     0.049 A 
ATOM     29  C   UNL A   1      38.418  33.239  34.896  1.00  0.00     0.074 A 
ATOM     30  C   UNL A   1      43.620  31.173  38.006  1.00  0.00     0.029 A 
ATOM     31  N   UNL A   1      42.053  31.537  36.466  1.00  0.00    -0.354 N 
ATOM     32  N   UNL A   1      39.523  32.767  35.427  1.00  0.00    -0.248 NA
ATOM     33  C   UNL A   1      37.634  34.099  35.788  1.00  0.00     0.031 C 
ATOM     34  C   UNL A   1      42.623  31.982  38.562  1.00  0.00     0.029 A 
ATOM     35  C   UNL A   1      41.663  32.237  37.592  1.00  0.00     0.049 A 
ATOM     36  H   UNL A   1      41.557  31.513  35.617  1.00  0.00     0.167 HD
ATOM     37  C   UNL A   1      39.571  33.278  36.717  1.00  0.00     0.074 A 
ATOM     38  C   UNL A   1      38.402  34.125  36.868  1.00  0.00     0.031 C 
ATOM     39  C   UNL A   1      40.485  33.063  37.696  1.00  0.00     0.031 A 
BRANCH  26  40
ATOM     40  C   UNL A   1      45.246  29.421  36.097  1.00  0.00    -0.014 A 
ATOM     41  C   UNL A   1      45.318  28.177  36.750  1.00  0.00     0.010 A 
ATOM     42  C   UNL A   1      46.439  30.100  35.786  1.00  0.00     0.010 A 
ATOM     43  C   UNL A   1      46.556  27.642  37.118  1.00  0.00     0.020 A 
ATOM     44  C   UNL A   1      47.680  29.557  36.130  1.00  0.00     0.020 A 
ATOM     45  C   UNL A   1      47.729  28.338  36.809  1.00  0.00     0.054 A 
BRANCH  45  46
ATOM     46  S   UNL A   1      49.323  27.617  37.289  1.00  0.00     0.124 S 
ATOM     47  O   UNL A   1      48.916  26.325  37.838  1.00  0.00    -0.237 OA
ATOM     48  O   UNL A   1      50.043  27.560  36.020  1.00  0.00    -0.237 OA
ATOM     49  O   UNL A   1      49.856  28.566  38.264  1.00  0.00    -0.744 OA
ENDBRANCH  45  46
ENDBRANCH  26  40
BRANCH  27  50
ATOM     50  C   UNL A   1      36.587  33.630  33.066  1.00  0.00    -0.014 A 
ATOM     51  C   UNL A   1      36.527  34.949  32.584  1.00  0.00     0.010 A 
ATOM     52  C   UNL A   1      35.391  32.887  33.149  1.00  0.00     0.010 A 
ATOM     53  C   UNL A   1      35.299  35.521  32.229  1.00  0.00     0.020 A 
ATOM     54  C   UNL A   1      34.169  33.441  32.761  1.00  0.00     0.020 A 
ATOM     55  C   UNL A   1      34.127  34.764  32.323  1.00  0.00     0.054 A 
BRANCH  55  56
ATOM     56  S   UNL A   1      32.545  35.518  31.855  1.00  0.00     0.124 S 
ATOM     57  O   UNL A   1      32.797  36.933  32.111  1.00  0.00    -0.237 OA
ATOM     58  O   UNL A   1      32.417  35.141  30.451  1.00  0.00    -0.237 OA
ATOM     59  O   UNL A   1      31.584  34.882  32.753  1.00  0.00    -0.744 OA
ENDBRANCH  55  56
ENDBRANCH  27  50
BRANCH  39  60
ATOM     60  C   UNL A   1      40.259  33.781  38.996  1.00  0.00    -0.014 A 
ATOM     61  C   UNL A   1      40.699  35.104  39.180  1.00  0.00     0.010 A 
ATOM     62  C   UNL A   1      39.565  33.132  40.032  1.00  0.00     0.010 A 
ATOM     63  C   UNL A   1      40.485  35.750  40.398  1.00  0.00     0.020 A 
ATOM     64  C   UNL A   1      39.320  33.787  41.238  1.00  0.00     0.020 A 
ATOM     65  C   UNL A   1      39.798  35.087  41.420  1.00  0.00     0.054 A 
BRANCH  65  66
ATOM     66  S   UNL A   1      39.506  35.957  42.981  1.00  0.00     0.124 S 
ATOM     67  O   UNL A   1      40.528  35.377  43.847  1.00  0.00    -0.237 OA
ATOM     68  O   UNL A   1      39.714  37.356  42.612  1.00  0.00    -0.237 OA
ATOM     69  O   UNL A   1      38.128  35.608  43.320  1.00  0.00    -0.744 OA
ENDBRANCH  65  66
ENDBRANCH  39  60
ENDBRANCH  13  14
ENDBRANCH   6   8
ENDBRANCH   5   6
ENDBRANCH   4   5
ENDBRANCH   3   4
ENDBRANCH   2   3
ENDBRANCH   1   2
BRANCH   1  70
ATOM     70  C   UNL A   1      37.947  22.793  25.849  1.00  0.00     0.261 C 
BRANCH  70  71
ATOM     71  O   UNL A   1      36.782  23.541  25.461  1.00  0.00    -0.460 OA
BRANCH  71  72
ATOM     72  C   UNL A   1      35.604  22.918  25.710  1.00  0.00     0.338 C 
ATOM     73  O   UNL A   1      35.399  21.926  26.384  1.00  0.00    -0.246 OA
BRANCH  72  74
ATOM     74  C   UNL A   1      34.531  23.811  25.226  1.00  0.00     0.073 A 
ATOM     75  C   UNL A   1      34.527  24.181  23.887  1.00  0.00     0.104 A 
ATOM     76  C   UNL A   1      33.483  24.195  26.054  1.00  0.00     0.104 A 
ATOM     77  C   UNL A   1      33.420  24.876  23.362  1.00  0.00     0.300 A 
ATOM     78  C   UNL A   1      32.398  24.915  25.516  1.00  0.00     0.300 A 
ATOM     79  C   UNL A   1      32.300  25.259  24.132  1.00  0.00     0.192 A 
BRANCH  77  80
ATOM     80  N   UNL A   1      33.513  25.162  21.948  1.00  0.00     0.065 N 
ATOM     81  O   UNL A   1      33.779  26.332  21.634  1.00  0.00    -0.258 OA
ATOM     82  O   UNL A   1      33.297  24.231  21.162  1.00  0.00    -0.258 OA
ENDBRANCH  77  80
BRANCH  78  83
ATOM     83  N   UNL A   1      31.338  25.284  26.474  1.00  0.00     0.065 N 
ATOM     84  O   UNL A   1      30.457  24.448  26.726  1.00  0.00    -0.258 OA
ATOM     85  O   UNL A   1      31.373  26.424  26.959  1.00  0.00    -0.258 OA
ENDBRANCH  78  83
BRANCH  79  86
ATOM     86  N   UNL A   1      31.119  25.793  23.649  1.00  0.00    -0.374 N 
ATOM     87  H   UNL A   1      30.328  25.227  23.807  1.00  0.00     0.161 HD
BRANCH  86  88
ATOM     88  C   UNL A   1      30.827  27.041  22.949  1.00  0.00     0.118 C 
BRANCH  88  89
ATOM     89  C   UNL A   1      30.747  28.207  23.957  1.00  0.00     0.052 C 
BRANCH  89  90
ATOM     90  C   UNL A   1      29.757  29.321  23.668  1.00  0.00    -0.072 C 
ATOM     91  C   UNL A   1      29.965  30.611  23.990  1.00  0.00    -0.028 C 
ATOM     92  C   UNL A   1      28.468  28.872  23.010  1.00  0.00     0.031 C 
ATOM     93  C   UNL A   1      28.946  31.697  23.790  1.00  0.00     0.027 C 
ATOM     94  C   UNL A   1      27.609  30.020  22.480  1.00  0.00     0.005 C 
ATOM     95  C   UNL A   1      27.547  31.165  23.482  1.00  0.00     0.004 C 
ENDBRANCH  89  90
ENDBRANCH  88  89
ENDBRANCH  86  88
ENDBRANCH  79  86
ENDBRANCH  72  74
ENDBRANCH  71  72
ENDBRANCH  70  71
ENDBRANCH   1  70
TORSDOF 23
ENDMDL
