MODEL 1
REMARK VINA RESULT:     -10.6      0.000      0.000
REMARK SMILES O=C1NC(=S)S/C1=C\c1ccc(OCc2cn(-c3ccc(C(=O)OCCOCCOC(=O)c4ccc(-c5c6nc(c(-c7ccc(S(=O)(=O)[O-])cc7)c7ccc([nH]7)c(-c7ccc(S(=O)(=O)[O-])cc7)c7nc(c(-c8ccc(S(=O)(=O)[O-])cc8)c8ccc5[nH]8)C=C7)C=C6)cc4)cc3)nn2)cc1
REMARK SMILES IDX 26 1 25 2 24 3 22 4 23 5 21 6 18 7 19 8 94 9 20 10 93 11
REMARK SMILES IDX 17 12 15 13 16 14 96 15 95 16 14 17 13 18 12 19 9 20 10 21
REMARK SMILES IDX 98 22 11 23 97 24 8 25 1 26 2 27 3 28 7 29 4 30 6 32 5 33
REMARK SMILES IDX 27 34 28 35 29 36 30 37 31 38 32 39 33 40 34 41 92 42 35 43
REMARK SMILES IDX 91 44 36 45 37 46 38 47 85 48 39 49 90 50 84 51 86 52 40 53
REMARK SMILES IDX 89 54 83 55 82 56 41 58 71 59 52 60 70 61 53 62 56 63 69 64
REMARK SMILES IDX 87 65 54 66 55 67 68 69 88 70 57 71 42 72 43 73 51 74 44 75
REMARK SMILES IDX 50 76 45 77 46 78 47 79 48 80 49 81 72 82 73 83 81 84 74 85
REMARK SMILES IDX 80 86 75 87 76 88 77 89 78 90 79 91 58 92 59 93 67 94 60 95
REMARK SMILES IDX 66 96 61 97 62 98 63 99 64 100 65 101
REMARK H PARENT 3 31 86 57 56 68
REMARK Flexibility Score: inf
ROOT
ATOM      1  C   UNL A   1      44.234  21.638  25.359  1.00  0.00     0.202 C 
ENDROOT
BRANCH   1   2
ATOM      2  C   UNL A   1      43.193  22.071  26.393  1.00  0.00     0.261 C 
BRANCH   2   3
ATOM      3  O   UNL A   1      41.888  22.254  25.827  1.00  0.00    -0.460 OA
BRANCH   3   4
ATOM      4  C   UNL A   1      40.889  22.256  26.740  1.00  0.00     0.338 C 
ATOM      5  O   UNL A   1      40.941  22.656  27.893  1.00  0.00    -0.246 OA
BRANCH   4   6
ATOM      6  C   UNL A   1      39.621  21.847  26.111  1.00  0.00     0.060 A 
ATOM      7  C   UNL A   1      37.074  21.110  25.287  1.00  0.00     0.066 A 
ATOM      8  C   UNL A   1      37.343  22.454  25.585  1.00  0.00     0.029 A 
ATOM      9  C   UNL A   1      38.104  20.159  25.295  1.00  0.00     0.029 A 
ATOM     10  C   UNL A   1      38.609  22.812  26.031  1.00  0.00     0.018 A 
ATOM     11  C   UNL A   1      39.393  20.537  25.686  1.00  0.00     0.018 A 
BRANCH   7  12
ATOM     12  N   UNL A   1      35.728  20.725  25.099  1.00  0.00    -0.220 N 
ATOM     13  C   UNL A   1      33.621  20.680  24.536  1.00  0.00     0.120 A 
ATOM     14  C   UNL A   1      34.630  21.538  24.918  1.00  0.00     0.144 A 
ATOM     15  N   UNL A   1      34.116  19.404  24.517  1.00  0.00    -0.131 NA
ATOM     16  N   UNL A   1      35.390  19.440  24.856  1.00  0.00    -0.062 NA
BRANCH  13  17
ATOM     17  C   UNL A   1      32.234  20.959  24.053  1.00  0.00     0.289 C 
BRANCH  17  18
ATOM     18  O   UNL A   1      31.328  21.482  25.037  1.00  0.00    -0.487 OA
BRANCH  18  19
ATOM     19  C   UNL A   1      31.197  22.841  25.135  1.00  0.00     0.119 A 
ATOM     20  C   UNL A   1      31.303  25.646  25.168  1.00  0.00    -0.024 A 
ATOM     21  C   UNL A   1      31.540  24.950  23.982  1.00  0.00     0.012 A 
ATOM     22  C   UNL A   1      30.920  24.937  26.309  1.00  0.00     0.012 A 
ATOM     23  C   UNL A   1      31.490  23.552  23.969  1.00  0.00     0.047 A 
ATOM     24  C   UNL A   1      30.840  23.544  26.284  1.00  0.00     0.047 A 
BRANCH  20  25
ATOM     25  C   UNL A   1      31.468  27.099  25.234  1.00  0.00     0.029 C 
ATOM     26  O   UNL A   1      31.937  29.971  25.208  1.00  0.00    -0.268 OA
ATOM     27  C   UNL A   1      31.051  29.441  24.556  1.00  0.00     0.263 C 
ATOM     28  N   UNL A   1      30.204  30.101  23.711  1.00  0.00    -0.307 N 
ATOM     29  C   UNL A   1      30.773  27.981  24.503  1.00  0.00     0.080 C 
ATOM     30  C   UNL A   1      29.321  29.365  22.981  1.00  0.00     0.145 C 
ATOM     31  H   UNL A   1      30.231  31.082  23.631  1.00  0.00     0.171 HD
ATOM     32  S   UNL A   1      29.499  27.672  23.376  1.00  0.00    -0.055 SA
ATOM     33  S   UNL A   1      28.286  30.019  21.867  1.00  0.00    -0.052 S 
ENDBRANCH  20  25
ENDBRANCH  18  19
ENDBRANCH  17  18
ENDBRANCH  13  17
ENDBRANCH   7  12
ENDBRANCH   4   6
ENDBRANCH   3   4
ENDBRANCH   2   3
ENDBRANCH   1   2
BRANCH   1  34
ATOM     34  O   UNL A   1      44.776  22.615  24.471  1.00  0.00    -0.374 OA
BRANCH  34  35
ATOM     35  C   UNL A   1      45.976  23.306  24.801  1.00  0.00     0.202 C 
BRANCH  35  36
ATOM     36  C   UNL A   1      45.915  24.788  25.137  1.00  0.00     0.261 C 
BRANCH  36  37
ATOM     37  O   UNL A   1      44.628  25.177  25.581  1.00  0.00    -0.460 OA
BRANCH  37  38
ATOM     38  C   UNL A   1      44.616  25.675  26.834  1.00  0.00     0.338 C 
ATOM     39  O   UNL A   1      44.452  25.050  27.879  1.00  0.00    -0.246 OA
BRANCH  38  40
ATOM     40  C   UNL A   1      44.679  27.132  26.757  1.00  0.00     0.060 A 
ATOM     41  C   UNL A   1      45.525  27.742  27.684  1.00  0.00     0.016 A 
ATOM     42  C   UNL A   1      43.643  27.821  26.108  1.00  0.00     0.016 A 
ATOM     43  C   UNL A   1      45.131  28.952  28.198  1.00  0.00     0.010 A 
ATOM     44  C   UNL A   1      43.240  29.015  26.639  1.00  0.00     0.010 A 
ATOM     45  C   UNL A   1      43.928  29.504  27.746  1.00  0.00    -0.014 A 
BRANCH  45  46
ATOM     46  C   UNL A   1      43.458  30.710  28.380  1.00  0.00     0.031 A 
ATOM     47  C   UNL A   1      44.243  31.877  27.929  1.00  0.00     0.074 A 
ATOM     48  C   UNL A   1      42.376  30.732  29.180  1.00  0.00     0.049 A 
ATOM     49  N   UNL A   1      45.153  32.507  28.593  1.00  0.00    -0.248 NA
ATOM     50  C   UNL A   1      44.208  32.204  26.491  1.00  0.00     0.031 C 
ATOM     51  C   UNL A   1      41.410  29.661  29.444  1.00  0.00     0.029 A 
ATOM     52  N   UNL A   1      41.843  31.779  29.854  1.00  0.00    -0.354 N 
ATOM     53  C   UNL A   1      45.608  33.489  27.725  1.00  0.00     0.074 A 
ATOM     54  C   UNL A   1      45.209  33.080  26.405  1.00  0.00     0.031 C 
ATOM     55  C   UNL A   1      40.292  30.196  29.993  1.00  0.00     0.029 A 
ATOM     56  C   UNL A   1      40.517  31.613  30.236  1.00  0.00     0.049 A 
ATOM     57  H   UNL A   1      42.356  32.596  30.057  1.00  0.00     0.167 HD
ATOM     58  C   UNL A   1      45.952  34.721  28.186  1.00  0.00     0.031 A 
ATOM     59  C   UNL A   1      39.666  32.597  30.633  1.00  0.00     0.031 A 
ATOM     60  C   UNL A   1      46.163  34.710  29.612  1.00  0.00     0.049 A 
ATOM     61  C   UNL A   1      40.508  33.763  31.018  1.00  0.00     0.074 A 
ATOM     62  C   UNL A   1      47.013  34.027  30.459  1.00  0.00     0.029 A 
ATOM     63  N   UNL A   1      45.129  35.173  30.393  1.00  0.00    -0.354 N 
ATOM     64  N   UNL A   1      41.320  33.749  32.038  1.00  0.00    -0.248 NA
ATOM     65  C   UNL A   1      40.828  34.737  29.982  1.00  0.00     0.031 C 
ATOM     66  C   UNL A   1      46.224  33.722  31.606  1.00  0.00     0.029 A 
ATOM     67  C   UNL A   1      44.965  34.303  31.441  1.00  0.00     0.049 A 
ATOM     68  H   UNL A   1      44.600  35.986  30.228  1.00  0.00     0.167 HD
ATOM     69  C   UNL A   1      42.474  34.377  31.586  1.00  0.00     0.074 A 
ATOM     70  C   UNL A   1      42.084  35.032  30.336  1.00  0.00     0.031 C 
ATOM     71  C   UNL A   1      43.699  34.061  32.103  1.00  0.00     0.031 A 
BRANCH  58  72
ATOM     72  C   UNL A   1      45.623  35.983  27.429  1.00  0.00    -0.014 A 
ATOM     73  C   UNL A   1      46.671  36.692  26.815  1.00  0.00     0.010 A 
ATOM     74  C   UNL A   1      44.378  36.643  27.531  1.00  0.00     0.010 A 
ATOM     75  C   UNL A   1      46.495  38.014  26.388  1.00  0.00     0.020 A 
ATOM     76  C   UNL A   1      44.179  37.941  27.069  1.00  0.00     0.020 A 
ATOM     77  C   UNL A   1      45.251  38.630  26.528  1.00  0.00     0.054 A 
BRANCH  77  78
ATOM     78  S   UNL A   1      45.055  40.362  26.051  1.00  0.00     0.124 S 
ATOM     79  O   UNL A   1      45.492  41.056  27.260  1.00  0.00    -0.237 OA
ATOM     80  O   UNL A   1      45.947  40.464  24.901  1.00  0.00    -0.237 OA
ATOM     81  O   UNL A   1      43.632  40.473  25.743  1.00  0.00    -0.744 OA
ENDBRANCH  77  78
ENDBRANCH  58  72
BRANCH  59  82
ATOM     82  C   UNL A   1      38.215  32.731  30.321  1.00  0.00    -0.014 A 
ATOM     83  C   UNL A   1      37.329  33.378  31.206  1.00  0.00     0.010 A 
ATOM     84  C   UNL A   1      37.748  32.474  29.015  1.00  0.00     0.010 A 
ATOM     85  C   UNL A   1      36.053  33.805  30.782  1.00  0.00     0.020 A 
ATOM     86  C   UNL A   1      36.481  32.890  28.587  1.00  0.00     0.020 A 
ATOM     87  C   UNL A   1      35.645  33.575  29.466  1.00  0.00     0.054 A 
BRANCH  87  88
ATOM     88  S   UNL A   1      34.078  34.282  28.866  1.00  0.00     0.124 S 
ATOM     89  O   UNL A   1      33.529  33.191  28.068  1.00  0.00    -0.237 OA
ATOM     90  O   UNL A   1      33.367  34.580  30.106  1.00  0.00    -0.237 OA
ATOM     91  O   UNL A   1      34.501  35.455  28.103  1.00  0.00    -0.744 OA
ENDBRANCH  87  88
ENDBRANCH  59  82
BRANCH  71  92
ATOM     92  C   UNL A   1      43.757  33.230  33.364  1.00  0.00    -0.014 A 
ATOM     93  C   UNL A   1      43.588  31.830  33.408  1.00  0.00     0.010 A 
ATOM     94  C   UNL A   1      44.157  33.891  34.539  1.00  0.00     0.010 A 
ATOM     95  C   UNL A   1      43.791  31.121  34.604  1.00  0.00     0.020 A 
ATOM     96  C   UNL A   1      44.378  33.190  35.725  1.00  0.00     0.020 A 
ATOM     97  C   UNL A   1      44.184  31.809  35.757  1.00  0.00     0.054 A 
BRANCH  97  98
ATOM     98  S   UNL A   1      44.475  30.896  37.298  1.00  0.00     0.124 S 
ATOM     99  O   UNL A   1      44.541  31.963  38.293  1.00  0.00    -0.237 OA
ATOM    100  O   UNL A   1      43.305  30.025  37.386  1.00  0.00    -0.237 OA
ATOM    101  O   UNL A   1      45.738  30.198  37.057  1.00  0.00    -0.744 OA
ENDBRANCH  97  98
ENDBRANCH  71  92
ENDBRANCH  45  46
ENDBRANCH  38  40
ENDBRANCH  37  38
ENDBRANCH  36  37
ENDBRANCH  35  36
ENDBRANCH  34  35
ENDBRANCH   1  34
TORSDOF 22
ENDMDL
MODEL 2
REMARK VINA RESULT:     -10.5      2.393      3.671
REMARK SMILES O=C1NC(=S)S/C1=C\c1ccc(OCc2cn(-c3ccc(C(=O)OCCOCCOC(=O)c4ccc(-c5c6nc(c(-c7ccc(S(=O)(=O)[O-])cc7)c7ccc([nH]7)c(-c7ccc(S(=O)(=O)[O-])cc7)c7nc(c(-c8ccc(S(=O)(=O)[O-])cc8)c8ccc5[nH]8)C=C7)C=C6)cc4)cc3)nn2)cc1
REMARK SMILES IDX 26 1 25 2 24 3 22 4 23 5 21 6 18 7 19 8 94 9 20 10 93 11
REMARK SMILES IDX 17 12 15 13 16 14 96 15 95 16 14 17 13 18 12 19 9 20 10 21
REMARK SMILES IDX 98 22 11 23 97 24 8 25 1 26 2 27 3 28 7 29 4 30 6 32 5 33
REMARK SMILES IDX 27 34 28 35 29 36 30 37 31 38 32 39 33 40 34 41 92 42 35 43
REMARK SMILES IDX 91 44 36 45 37 46 38 47 85 48 39 49 90 50 84 51 86 52 40 53
REMARK SMILES IDX 89 54 83 55 82 56 41 58 71 59 52 60 70 61 53 62 56 63 69 64
REMARK SMILES IDX 87 65 54 66 55 67 68 69 88 70 57 71 42 72 43 73 51 74 44 75
REMARK SMILES IDX 50 76 45 77 46 78 47 79 48 80 49 81 72 82 73 83 81 84 74 85
REMARK SMILES IDX 80 86 75 87 76 88 77 89 78 90 79 91 58 92 59 93 67 94 60 95
REMARK SMILES IDX 66 96 61 97 62 98 63 99 64 100 65 101
REMARK H PARENT 3 31 86 57 56 68
REMARK Flexibility Score: inf
ROOT
ATOM      1  C   UNL A   1      41.305  22.113  26.373  1.00  0.00     0.202 C 
ENDROOT
BRANCH   1   2
ATOM      2  C   UNL A   1      40.163  21.101  26.261  1.00  0.00     0.261 C 
BRANCH   2   3
ATOM      3  O   UNL A   1      38.946  21.685  25.777  1.00  0.00    -0.460 OA
BRANCH   3   4
ATOM      4  C   UNL A   1      38.060  20.785  25.293  1.00  0.00     0.338 C 
ATOM      5  O   UNL A   1      38.275  19.618  25.001  1.00  0.00    -0.246 OA
BRANCH   4   6
ATOM      6  C   UNL A   1      36.699  21.348  25.308  1.00  0.00     0.060 A 
ATOM      7  C   UNL A   1      34.141  22.364  24.944  1.00  0.00     0.066 A 
ATOM      8  C   UNL A   1      34.359  20.983  24.833  1.00  0.00     0.029 A 
ATOM      9  C   UNL A   1      35.177  23.219  25.345  1.00  0.00     0.029 A 
ATOM     10  C   UNL A   1      35.647  20.484  24.980  1.00  0.00     0.018 A 
ATOM     11  C   UNL A   1      36.460  22.702  25.553  1.00  0.00     0.018 A 
BRANCH   7  12
ATOM     12  N   UNL A   1      32.892  22.878  24.528  1.00  0.00    -0.220 N 
ATOM     13  C   UNL A   1      31.221  24.201  24.062  1.00  0.00     0.120 A 
ATOM     14  C   UNL A   1      32.274  24.039  24.938  1.00  0.00     0.144 A 
ATOM     15  N   UNL A   1      31.219  23.151  23.183  1.00  0.00    -0.131 NA
ATOM     16  N   UNL A   1      32.233  22.358  23.470  1.00  0.00    -0.062 NA
BRANCH  13  17
ATOM     17  C   UNL A   1      30.267  25.337  23.884  1.00  0.00     0.289 C 
BRANCH  17  18
ATOM     18  O   UNL A   1      29.945  26.070  25.076  1.00  0.00    -0.487 OA
BRANCH  18  19
ATOM     19  C   UNL A   1      30.756  27.114  25.430  1.00  0.00     0.119 A 
ATOM     20  C   UNL A   1      32.141  29.331  26.453  1.00  0.00    -0.024 A 
ATOM     21  C   UNL A   1      31.765  28.288  27.301  1.00  0.00     0.012 A 
ATOM     22  C   UNL A   1      31.905  29.213  25.081  1.00  0.00     0.012 A 
ATOM     23  C   UNL A   1      31.072  27.186  26.789  1.00  0.00     0.047 A 
ATOM     24  C   UNL A   1      31.241  28.096  24.570  1.00  0.00     0.047 A 
BRANCH  20  25
ATOM     25  C   UNL A   1      32.759  30.547  26.984  1.00  0.00     0.029 C 
ATOM     26  O   UNL A   1      33.933  32.899  28.233  1.00  0.00    -0.268 OA
ATOM     27  C   UNL A   1      34.574  31.887  27.999  1.00  0.00     0.263 C 
ATOM     28  N   UNL A   1      35.889  31.705  28.321  1.00  0.00    -0.307 N 
ATOM     29  C   UNL A   1      34.033  30.644  27.388  1.00  0.00     0.080 C 
ATOM     30  C   UNL A   1      36.450  30.488  28.077  1.00  0.00     0.145 C 
ATOM     31  H   UNL A   1      36.418  32.434  28.719  1.00  0.00     0.171 HD
ATOM     32  S   UNL A   1      35.268  29.435  27.338  1.00  0.00    -0.055 SA
ATOM     33  S   UNL A   1      38.008  30.101  28.478  1.00  0.00    -0.052 S 
ENDBRANCH  20  25
ENDBRANCH  18  19
ENDBRANCH  17  18
ENDBRANCH  13  17
ENDBRANCH   7  12
ENDBRANCH   4   6
ENDBRANCH   3   4
ENDBRANCH   2   3
ENDBRANCH   1   2
BRANCH   1  34
ATOM     34  O   UNL A   1      42.283  22.170  25.336  1.00  0.00    -0.374 OA
BRANCH  34  35
ATOM     35  C   UNL A   1      43.671  22.103  25.645  1.00  0.00     0.202 C 
BRANCH  35  36
ATOM     36  C   UNL A   1      44.228  22.965  26.768  1.00  0.00     0.261 C 
BRANCH  36  37
ATOM     37  O   UNL A   1      44.677  24.222  26.296  1.00  0.00    -0.460 OA
BRANCH  37  38
ATOM     38  C   UNL A   1      43.677  25.068  25.977  1.00  0.00     0.338 C 
ATOM     39  O   UNL A   1      43.329  25.416  24.852  1.00  0.00    -0.246 OA
BRANCH  38  40
ATOM     40  C   UNL A   1      43.145  25.645  27.210  1.00  0.00     0.060 A 
ATOM     41  C   UNL A   1      41.965  26.375  27.066  1.00  0.00     0.016 A 
ATOM     42  C   UNL A   1      44.003  25.801  28.309  1.00  0.00     0.016 A 
ATOM     43  C   UNL A   1      41.808  27.485  27.857  1.00  0.00     0.010 A 
ATOM     44  C   UNL A   1      43.857  26.921  29.080  1.00  0.00     0.010 A 
ATOM     45  C   UNL A   1      42.823  27.799  28.767  1.00  0.00    -0.014 A 
BRANCH  45  46
ATOM     46  C   UNL A   1      42.712  29.032  29.504  1.00  0.00     0.031 A 
ATOM     47  C   UNL A   1      43.550  30.084  28.892  1.00  0.00     0.074 A 
ATOM     48  C   UNL A   1      41.863  29.184  30.537  1.00  0.00     0.049 A 
ATOM     49  N   UNL A   1      44.678  30.534  29.328  1.00  0.00    -0.248 NA
ATOM     50  C   UNL A   1      43.237  30.479  27.505  1.00  0.00     0.031 C 
ATOM     51  C   UNL A   1      40.825  28.265  31.011  1.00  0.00     0.029 A 
ATOM     52  N   UNL A   1      41.677  30.269  31.327  1.00  0.00    -0.354 N 
ATOM     53  C   UNL A   1      45.073  31.473  28.387  1.00  0.00     0.074 A 
ATOM     54  C   UNL A   1      44.319  31.192  27.194  1.00  0.00     0.031 C 
ATOM     55  C   UNL A   1      39.965  28.940  31.813  1.00  0.00     0.029 A 
ATOM     56  C   UNL A   1      40.466  30.292  32.009  1.00  0.00     0.049 A 
ATOM     57  H   UNL A   1      42.347  30.986  31.410  1.00  0.00     0.167 HD
ATOM     58  C   UNL A   1      45.709  32.614  28.764  1.00  0.00     0.031 A 
ATOM     59  C   UNL A   1      39.900  31.377  32.603  1.00  0.00     0.031 A 
ATOM     60  C   UNL A   1      46.238  32.504  30.100  1.00  0.00     0.049 A 
ATOM     61  C   UNL A   1      40.985  32.379  32.790  1.00  0.00     0.074 A 
ATOM     62  C   UNL A   1      47.139  31.659  30.717  1.00  0.00     0.029 A 
ATOM     63  N   UNL A   1      45.501  33.084  31.107  1.00  0.00    -0.354 N 
ATOM     64  N   UNL A   1      41.997  32.192  33.590  1.00  0.00    -0.248 NA
ATOM     65  C   UNL A   1      41.209  33.339  31.717  1.00  0.00     0.031 C 
ATOM     66  C   UNL A   1      46.598  31.427  32.015  1.00  0.00     0.029 A 
ATOM     67  C   UNL A   1      45.446  32.203  32.156  1.00  0.00     0.049 A 
ATOM     68  H   UNL A   1      45.087  33.977  31.079  1.00  0.00     0.167 HD
ATOM     69  C   UNL A   1      43.101  32.655  32.884  1.00  0.00     0.074 A 
ATOM     70  C   UNL A   1      42.544  33.419  31.768  1.00  0.00     0.031 C 
ATOM     71  C   UNL A   1      44.345  32.129  33.096  1.00  0.00     0.031 A 
BRANCH  58  72
ATOM     72  C   UNL A   1      45.421  33.946  28.117  1.00  0.00    -0.014 A 
ATOM     73  C   UNL A   1      46.503  34.787  27.800  1.00  0.00     0.010 A 
ATOM     74  C   UNL A   1      44.130  34.517  28.065  1.00  0.00     0.010 A 
ATOM     75  C   UNL A   1      46.302  36.142  27.511  1.00  0.00     0.020 A 
ATOM     76  C   UNL A   1      43.915  35.852  27.735  1.00  0.00     0.020 A 
ATOM     77  C   UNL A   1      45.009  36.665  27.490  1.00  0.00     0.054 A 
BRANCH  77  78
ATOM     78  S   UNL A   1      44.766  38.431  27.199  1.00  0.00     0.124 S 
ATOM     79  O   UNL A   1      45.727  38.693  26.131  1.00  0.00    -0.237 OA
ATOM     80  O   UNL A   1      43.359  38.486  26.816  1.00  0.00    -0.237 OA
ATOM     81  O   UNL A   1      45.080  39.038  28.490  1.00  0.00    -0.744 OA
ENDBRANCH  77  78
ENDBRANCH  58  72
BRANCH  59  82
ATOM     82  C   UNL A   1      38.457  31.748  32.644  1.00  0.00    -0.014 A 
ATOM     83  C   UNL A   1      37.742  31.792  33.858  1.00  0.00     0.010 A 
ATOM     84  C   UNL A   1      37.851  32.342  31.517  1.00  0.00     0.010 A 
ATOM     85  C   UNL A   1      36.501  32.455  33.952  1.00  0.00     0.020 A 
ATOM     86  C   UNL A   1      36.616  32.999  31.601  1.00  0.00     0.020 A 
ATOM     87  C   UNL A   1      35.956  33.074  32.825  1.00  0.00     0.054 A 
BRANCH  87  88
ATOM     88  S   UNL A   1      34.449  34.082  32.984  1.00  0.00     0.124 S 
ATOM     89  O   UNL A   1      33.423  33.074  33.237  1.00  0.00    -0.237 OA
ATOM     90  O   UNL A   1      34.767  34.958  34.108  1.00  0.00    -0.237 OA
ATOM     91  O   UNL A   1      34.347  34.756  31.689  1.00  0.00    -0.744 OA
ENDBRANCH  87  88
ENDBRANCH  59  82
BRANCH  71  92
ATOM     92  C   UNL A   1      44.558  31.241  34.300  1.00  0.00    -0.014 A 
ATOM     93  C   UNL A   1      44.558  31.692  35.637  1.00  0.00     0.010 A 
ATOM     94  C   UNL A   1      44.606  29.856  34.064  1.00  0.00     0.010 A 
ATOM     95  C   UNL A   1      44.630  30.778  36.701  1.00  0.00     0.020 A 
ATOM     96  C   UNL A   1      44.658  28.942  35.117  1.00  0.00     0.020 A 
ATOM     97  C   UNL A   1      44.681  29.406  36.432  1.00  0.00     0.054 A 
BRANCH  97  98
ATOM     98  S   UNL A   1      44.746  28.218  37.803  1.00  0.00     0.124 S 
ATOM     99  O   UNL A   1      44.912  29.084  38.967  1.00  0.00    -0.237 OA
ATOM    100  O   UNL A   1      43.458  27.536  37.703  1.00  0.00    -0.237 OA
ATOM    101  O   UNL A   1      45.905  27.383  37.485  1.00  0.00    -0.744 OA
ENDBRANCH  97  98
ENDBRANCH  71  92
ENDBRANCH  45  46
ENDBRANCH  38  40
ENDBRANCH  37  38
ENDBRANCH  36  37
ENDBRANCH  35  36
ENDBRANCH  34  35
ENDBRANCH   1  34
TORSDOF 22
ENDMDL
MODEL 3
REMARK VINA RESULT:     -10.4      5.619     12.748
REMARK SMILES O=C1NC(=S)S/C1=C\c1ccc(OCc2cn(-c3ccc(C(=O)OCCOCCOC(=O)c4ccc(-c5c6nc(c(-c7ccc(S(=O)(=O)[O-])cc7)c7ccc([nH]7)c(-c7ccc(S(=O)(=O)[O-])cc7)c7nc(c(-c8ccc(S(=O)(=O)[O-])cc8)c8ccc5[nH]8)C=C7)C=C6)cc4)cc3)nn2)cc1
REMARK SMILES IDX 26 1 25 2 24 3 22 4 23 5 21 6 18 7 19 8 94 9 20 10 93 11
REMARK SMILES IDX 17 12 15 13 16 14 96 15 95 16 14 17 13 18 12 19 9 20 10 21
REMARK SMILES IDX 98 22 11 23 97 24 8 25 1 26 2 27 3 28 7 29 4 30 6 32 5 33
REMARK SMILES IDX 27 34 28 35 29 36 30 37 31 38 32 39 33 40 34 41 92 42 35 43
REMARK SMILES IDX 91 44 36 45 37 46 38 47 85 48 39 49 90 50 84 51 86 52 40 53
REMARK SMILES IDX 89 54 83 55 82 56 41 58 71 59 52 60 70 61 53 62 56 63 69 64
REMARK SMILES IDX 87 65 54 66 55 67 68 69 88 70 57 71 42 72 43 73 51 74 44 75
REMARK SMILES IDX 50 76 45 77 46 78 47 79 48 80 49 81 72 82 73 83 81 84 74 85
REMARK SMILES IDX 80 86 75 87 76 88 77 89 78 90 79 91 58 92 59 93 67 94 60 95
REMARK SMILES IDX 66 96 61 97 62 98 63 99 64 100 65 101
REMARK H PARENT 3 31 86 57 56 68
REMARK Flexibility Score: inf
ROOT
ATOM      1  C   UNL A   1      43.351  39.832  28.737  1.00  0.00     0.202 C 
ENDROOT
BRANCH   1   2
ATOM      2  C   UNL A   1      42.799  38.513  28.192  1.00  0.00     0.261 C 
BRANCH   2   3
ATOM      3  O   UNL A   1      43.520  37.368  28.666  1.00  0.00    -0.460 OA
BRANCH   3   4
ATOM      4  C   UNL A   1      42.780  36.238  28.723  1.00  0.00     0.338 C 
ATOM      5  O   UNL A   1      41.563  36.153  28.785  1.00  0.00    -0.246 OA
BRANCH   4   6
ATOM      6  C   UNL A   1      43.636  35.055  28.531  1.00  0.00     0.060 A 
ATOM      7  C   UNL A   1      45.203  32.889  27.782  1.00  0.00     0.066 A 
ATOM      8  C   UNL A   1      45.711  34.188  27.650  1.00  0.00     0.029 A 
ATOM      9  C   UNL A   1      43.959  32.669  28.391  1.00  0.00     0.029 A 
ATOM     10  C   UNL A   1      44.910  35.271  27.992  1.00  0.00     0.018 A 
ATOM     11  C   UNL A   1      43.182  33.760  28.792  1.00  0.00     0.018 A 
BRANCH   7  12
ATOM     12  N   UNL A   1      45.918  31.828  27.183  1.00  0.00    -0.220 N 
ATOM     13  C   UNL A   1      46.923  29.928  26.806  1.00  0.00     0.120 A 
ATOM     14  C   UNL A   1      46.642  30.834  27.806  1.00  0.00     0.144 A 
ATOM     15  N   UNL A   1      46.395  30.395  25.633  1.00  0.00    -0.131 NA
ATOM     16  N   UNL A   1      45.787  31.542  25.870  1.00  0.00    -0.062 NA
BRANCH  13  17
ATOM     17  C   UNL A   1      47.547  28.571  26.866  1.00  0.00     0.289 C 
BRANCH  17  18
ATOM     18  O   UNL A   1      47.196  27.777  28.009  1.00  0.00    -0.487 OA
BRANCH  18  19
ATOM     19  C   UNL A   1      46.426  26.663  27.809  1.00  0.00     0.119 A 
ATOM     20  C   UNL A   1      44.585  24.632  27.204  1.00  0.00    -0.024 A 
ATOM     21  C   UNL A   1      45.082  25.453  26.190  1.00  0.00     0.012 A 
ATOM     22  C   UNL A   1      45.087  24.772  28.500  1.00  0.00     0.012 A 
ATOM     23  C   UNL A   1      45.996  26.467  26.495  1.00  0.00     0.047 A 
ATOM     24  C   UNL A   1      46.023  25.764  28.794  1.00  0.00     0.047 A 
BRANCH  20  25
ATOM     25  C   UNL A   1      43.538  23.646  26.929  1.00  0.00     0.029 C 
ATOM     26  O   UNL A   1      41.427  21.782  26.199  1.00  0.00    -0.268 OA
ATOM     27  C   UNL A   1      42.605  21.571  25.959  1.00  0.00     0.263 C 
ATOM     28  N   UNL A   1      43.081  20.477  25.293  1.00  0.00    -0.307 N 
ATOM     29  C   UNL A   1      43.729  22.489  26.281  1.00  0.00     0.080 C 
ATOM     30  C   UNL A   1      44.414  20.419  25.021  1.00  0.00     0.145 C 
ATOM     31  H   UNL A   1      42.477  19.750  25.017  1.00  0.00     0.171 HD
ATOM     32  S   UNL A   1      45.208  21.834  25.670  1.00  0.00    -0.055 SA
ATOM     33  S   UNL A   1      45.121  19.193  24.162  1.00  0.00    -0.052 S 
ENDBRANCH  20  25
ENDBRANCH  18  19
ENDBRANCH  17  18
ENDBRANCH  13  17
ENDBRANCH   7  12
ENDBRANCH   4   6
ENDBRANCH   3   4
ENDBRANCH   2   3
ENDBRANCH   1   2
BRANCH   1  34
ATOM     34  O   UNL A   1      44.759  39.970  28.919  1.00  0.00    -0.374 OA
BRANCH  34  35
ATOM     35  C   UNL A   1      45.277  40.812  29.943  1.00  0.00     0.202 C 
BRANCH  35  36
ATOM     36  C   UNL A   1      44.571  40.872  31.289  1.00  0.00     0.261 C 
BRANCH  36  37
ATOM     37  O   UNL A   1      44.845  39.730  32.081  1.00  0.00    -0.460 OA
BRANCH  37  38
ATOM     38  C   UNL A   1      43.927  39.507  33.044  1.00  0.00     0.338 C 
ATOM     39  O   UNL A   1      43.310  40.350  33.690  1.00  0.00    -0.246 OA
BRANCH  38  40
ATOM     40  C   UNL A   1      43.881  38.073  33.319  1.00  0.00     0.060 A 
ATOM     41  C   UNL A   1      43.566  37.266  32.226  1.00  0.00     0.016 A 
ATOM     42  C   UNL A   1      43.729  37.644  34.647  1.00  0.00     0.016 A 
ATOM     43  C   UNL A   1      42.802  36.152  32.462  1.00  0.00     0.010 A 
ATOM     44  C   UNL A   1      42.947  36.547  34.878  1.00  0.00     0.010 A 
ATOM     45  C   UNL A   1      42.408  35.885  33.777  1.00  0.00    -0.014 A 
BRANCH  45  46
ATOM     46  C   UNL A   1      41.502  34.787  34.003  1.00  0.00     0.031 A 
ATOM     47  C   UNL A   1      41.946  33.585  33.269  1.00  0.00     0.074 A 
ATOM     48  C   UNL A   1      40.468  34.867  34.861  1.00  0.00     0.049 A 
ATOM     49  N   UNL A   1      41.436  33.099  32.188  1.00  0.00    -0.248 NA
ATOM     50  C   UNL A   1      43.265  33.024  33.621  1.00  0.00     0.031 C 
ATOM     51  C   UNL A   1      40.143  35.938  35.806  1.00  0.00     0.029 A 
ATOM     52  N   UNL A   1      39.532  33.930  35.147  1.00  0.00    -0.354 N 
ATOM     53  C   UNL A   1      42.228  32.001  31.885  1.00  0.00     0.074 A 
ATOM     54  C   UNL A   1      43.458  32.175  32.612  1.00  0.00     0.031 C 
ATOM     55  C   UNL A   1      39.263  35.470  36.724  1.00  0.00     0.029 A 
ATOM     56  C   UNL A   1      38.869  34.119  36.354  1.00  0.00     0.049 A 
ATOM     57  H   UNL A   1      39.338  33.173  34.547  1.00  0.00     0.167 HD
ATOM     58  C   UNL A   1      41.682  30.871  31.360  1.00  0.00     0.031 A 
ATOM     59  C   UNL A   1      38.130  33.190  37.019  1.00  0.00     0.031 A 
ATOM     60  C   UNL A   1      40.370  31.123  30.819  1.00  0.00     0.049 A 
ATOM     61  C   UNL A   1      37.789  32.127  36.033  1.00  0.00     0.074 A 
ATOM     62  C   UNL A   1      39.870  31.960  29.841  1.00  0.00     0.029 A 
ATOM     63  N   UNL A   1      39.299  30.766  31.606  1.00  0.00    -0.354 N 
ATOM     64  N   UNL A   1      37.012  32.332  35.005  1.00  0.00    -0.248 NA
ATOM     65  C   UNL A   1      38.709  31.006  35.902  1.00  0.00     0.031 C 
ATOM     66  C   UNL A   1      38.627  32.427  30.355  1.00  0.00     0.029 A 
ATOM     67  C   UNL A   1      38.389  31.791  31.576  1.00  0.00     0.049 A 
ATOM     68  H   UNL A   1      39.203  29.922  32.103  1.00  0.00     0.167 HD
ATOM     69  C   UNL A   1      37.631  31.671  33.952  1.00  0.00     0.074 A 
ATOM     70  C   UNL A   1      38.632  30.809  34.581  1.00  0.00     0.031 C 
ATOM     71  C   UNL A   1      37.482  32.103  32.663  1.00  0.00     0.031 A 
BRANCH  58  72
ATOM     72  C   UNL A   1      42.134  29.493  31.773  1.00  0.00    -0.014 A 
ATOM     73  C   UNL A   1      41.980  29.111  33.118  1.00  0.00     0.010 A 
ATOM     74  C   UNL A   1      42.950  28.672  30.964  1.00  0.00     0.010 A 
ATOM     75  C   UNL A   1      42.661  28.002  33.635  1.00  0.00     0.020 A 
ATOM     76  C   UNL A   1      43.595  27.541  31.456  1.00  0.00     0.020 A 
ATOM     77  C   UNL A   1      43.471  27.232  32.800  1.00  0.00     0.054 A 
BRANCH  77  78
ATOM     78  S   UNL A   1      44.411  25.854  33.494  1.00  0.00     0.124 S 
ATOM     79  O   UNL A   1      43.583  25.470  34.634  1.00  0.00    -0.237 OA
ATOM     80  O   UNL A   1      44.437  24.911  32.380  1.00  0.00    -0.237 OA
ATOM     81  O   UNL A   1      45.701  26.452  33.828  1.00  0.00    -0.744 OA
ENDBRANCH  77  78
ENDBRANCH  58  72
BRANCH  59  82
ATOM     82  C   UNL A   1      38.054  32.965  38.490  1.00  0.00    -0.014 A 
ATOM     83  C   UNL A   1      36.913  32.392  39.089  1.00  0.00     0.010 A 
ATOM     84  C   UNL A   1      39.222  33.049  39.276  1.00  0.00     0.010 A 
ATOM     85  C   UNL A   1      36.959  31.871  40.398  1.00  0.00     0.020 A 
ATOM     86  C   UNL A   1      39.274  32.538  40.580  1.00  0.00     0.020 A 
ATOM     87  C   UNL A   1      38.148  31.929  41.129  1.00  0.00     0.054 A 
BRANCH  87  88
ATOM     88  S   UNL A   1      38.261  31.099  42.745  1.00  0.00     0.124 S 
ATOM     89  O   UNL A   1      39.345  31.828  43.396  1.00  0.00    -0.237 OA
ATOM     90  O   UNL A   1      36.929  31.309  43.306  1.00  0.00    -0.237 OA
ATOM     91  O   UNL A   1      38.569  29.712  42.397  1.00  0.00    -0.744 OA
ENDBRANCH  87  88
ENDBRANCH  59  82
BRANCH  71  92
ATOM     92  C   UNL A   1      36.416  33.132  32.365  1.00  0.00    -0.014 A 
ATOM     93  C   UNL A   1      35.219  32.865  31.667  1.00  0.00     0.010 A 
ATOM     94  C   UNL A   1      36.573  34.395  32.961  1.00  0.00     0.010 A 
ATOM     95  C   UNL A   1      34.223  33.848  31.551  1.00  0.00     0.020 A 
ATOM     96  C   UNL A   1      35.579  35.370  32.865  1.00  0.00     0.020 A 
ATOM     97  C   UNL A   1      34.412  35.098  32.152  1.00  0.00     0.054 A 
BRANCH  97  98
ATOM     98  S   UNL A   1      33.117  36.364  32.029  1.00  0.00     0.124 S 
ATOM     99  O   UNL A   1      33.256  36.830  30.653  1.00  0.00    -0.237 OA
ATOM    100  O   UNL A   1      31.899  35.612  32.320  1.00  0.00    -0.237 OA
ATOM    101  O   UNL A   1      33.488  37.342  33.052  1.00  0.00    -0.744 OA
ENDBRANCH  97  98
ENDBRANCH  71  92
ENDBRANCH  45  46
ENDBRANCH  38  40
ENDBRANCH  37  38
ENDBRANCH  36  37
ENDBRANCH  35  36
ENDBRANCH  34  35
ENDBRANCH   1  34
TORSDOF 22
ENDMDL
