MODEL 1
REMARK VINA RESULT:     -10.1      0.000      0.000
REMARK SMILES C[C@@H](CC1CC1)NC(=O)c1cccn1CC(=O)OCCOCCOC(=O)c1ccc(-c2c3nc(c(-c4ccc(S(=O)(=O)[O-])cc4)c4ccc([nH]4)c(-c4ccc(S(=O)(=O)[O-])cc4)c4nc(c(-c5ccc(S(=O)(=O)[O-])cc5)c5ccc2[nH]5)C=C4)C=C3)cc1
REMARK SMILES IDX 20 1 19 2 18 3 16 4 17 5 15 6 14 7 10 8 11 9 12 10 13 11
REMARK SMILES IDX 8 12 7 13 9 15 2 16 1 17 3 18 4 19 5 20 6 21 21 22 22 23
REMARK SMILES IDX 23 24 24 25 25 26 26 27 27 28 28 29 86 30 29 31 85 32 30 33
REMARK SMILES IDX 31 34 32 35 79 36 33 37 84 38 78 39 80 40 34 41 83 42 77 43
REMARK SMILES IDX 76 44 35 46 65 47 46 48 64 49 47 50 50 51 63 52 81 53 48 54
REMARK SMILES IDX 49 55 62 57 82 58 51 59 36 60 37 61 45 62 38 63 44 64 39 65
REMARK SMILES IDX 40 66 41 67 42 68 43 69 66 70 67 71 75 72 68 73 74 74 69 75
REMARK SMILES IDX 70 76 71 77 72 78 73 79 52 80 53 81 61 82 54 83 60 84 55 85
REMARK SMILES IDX 56 86 57 87 58 88 59 89
REMARK H PARENT 7 14 80 45 50 56
REMARK Flexibility Score: inf
ROOT
ATOM      1  C   UNL A   1      33.082  28.660  23.662  1.00  0.00     0.202 C 
ENDROOT
BRANCH   1   2
ATOM      2  C   UNL A   1      33.243  27.590  22.581  1.00  0.00     0.261 C 
BRANCH   2   3
ATOM      3  O   UNL A   1      33.302  26.251  23.110  1.00  0.00    -0.462 OA
BRANCH   3   4
ATOM      4  C   UNL A   1      33.046  25.263  22.211  1.00  0.00     0.326 C 
ATOM      5  O   UNL A   1      33.428  25.284  21.042  1.00  0.00    -0.250 OA
BRANCH   4   6
ATOM      6  C   UNL A   1      32.301  24.071  22.751  1.00  0.00     0.244 C 
BRANCH   6   7
ATOM      7  N   UNL A   1      32.150  23.947  24.199  1.00  0.00    -0.332 N 
ATOM      8  C   UNL A   1      32.975  23.240  25.061  1.00  0.00     0.107 A 
ATOM      9  C   UNL A   1      32.549  23.552  26.347  1.00  0.00     0.033 A 
ATOM     10  C   UNL A   1      31.461  24.447  26.264  1.00  0.00     0.020 A 
ATOM     11  C   UNL A   1      31.267  24.709  24.931  1.00  0.00     0.087 A 
BRANCH   8  12
ATOM     12  C   UNL A   1      34.109  22.443  24.643  1.00  0.00     0.268 C 
ATOM     13  N   UNL A   1      33.971  21.101  24.427  1.00  0.00    -0.348 N 
ATOM     14  H   UNL A   1      34.819  20.627  24.268  1.00  0.00     0.164 HD
ATOM     15  O   UNL A   1      35.226  22.922  24.452  1.00  0.00    -0.268 OA
BRANCH  13  16
ATOM     16  C   UNL A   1      32.788  20.247  24.389  1.00  0.00     0.079 C 
ATOM     17  C   UNL A   1      32.240  20.202  22.965  1.00  0.00     0.031 C 
BRANCH  16  18
ATOM     18  C   UNL A   1      33.103  18.853  24.965  1.00  0.00     0.028 C 
BRANCH  18  19
ATOM     19  C   UNL A   1      34.099  18.066  24.153  1.00  0.00    -0.009 C 
ATOM     20  C   UNL A   1      34.605  16.744  24.671  1.00  0.00     0.004 C 
ATOM     21  C   UNL A   1      33.697  16.782  23.474  1.00  0.00     0.004 C 
ENDBRANCH  18  19
ENDBRANCH  16  18
ENDBRANCH  13  16
ENDBRANCH   8  12
ENDBRANCH   6   7
ENDBRANCH   4   6
ENDBRANCH   3   4
ENDBRANCH   2   3
ENDBRANCH   1   2
BRANCH   1  22
ATOM     22  O   UNL A   1      33.913  28.573  24.817  1.00  0.00    -0.374 OA
BRANCH  22  23
ATOM     23  C   UNL A   1      33.486  29.190  26.025  1.00  0.00     0.202 C 
BRANCH  23  24
ATOM     24  C   UNL A   1      34.160  28.792  27.333  1.00  0.00     0.261 C 
BRANCH  24  25
ATOM     25  O   UNL A   1      35.554  29.067  27.376  1.00  0.00    -0.460 OA
BRANCH  25  26
ATOM     26  C   UNL A   1      35.837  30.085  28.222  1.00  0.00     0.338 C 
ATOM     27  O   UNL A   1      35.241  31.142  28.316  1.00  0.00    -0.246 OA
BRANCH  26  28
ATOM     28  C   UNL A   1      37.116  29.846  28.889  1.00  0.00     0.060 A 
ATOM     29  C   UNL A   1      38.243  30.294  28.196  1.00  0.00     0.016 A 
ATOM     30  C   UNL A   1      37.203  28.934  29.950  1.00  0.00     0.016 A 
ATOM     31  C   UNL A   1      39.451  29.692  28.448  1.00  0.00     0.010 A 
ATOM     32  C   UNL A   1      38.410  28.310  30.186  1.00  0.00     0.010 A 
ATOM     33  C   UNL A   1      39.512  28.667  29.402  1.00  0.00    -0.014 A 
BRANCH  33  34
ATOM     34  C   UNL A   1      40.844  28.143  29.718  1.00  0.00     0.031 A 
ATOM     35  C   UNL A   1      41.036  26.821  28.907  1.00  0.00     0.074 A 
ATOM     36  C   UNL A   1      41.520  28.847  30.688  1.00  0.00     0.049 A 
ATOM     37  N   UNL A   1      41.726  25.757  29.178  1.00  0.00    -0.248 NA
ATOM     38  C   UNL A   1      40.255  26.615  27.639  1.00  0.00     0.031 C 
ATOM     39  C   UNL A   1      41.093  30.143  31.293  1.00  0.00     0.029 A 
ATOM     40  N   UNL A   1      42.687  28.642  31.385  1.00  0.00    -0.354 N 
ATOM     41  C   UNL A   1      41.616  24.874  28.073  1.00  0.00     0.074 A 
ATOM     42  C   UNL A   1      40.621  25.408  27.204  1.00  0.00     0.031 C 
ATOM     43  C   UNL A   1      41.912  30.519  32.310  1.00  0.00     0.029 A 
ATOM     44  C   UNL A   1      42.955  29.531  32.478  1.00  0.00     0.049 A 
ATOM     45  H   UNL A   1      43.311  27.919  31.145  1.00  0.00     0.167 HD
ATOM     46  C   UNL A   1      42.444  23.809  27.882  1.00  0.00     0.031 A 
ATOM     47  C   UNL A   1      43.899  29.395  33.476  1.00  0.00     0.031 A 
ATOM     48  C   UNL A   1      43.310  23.677  28.994  1.00  0.00     0.049 A 
ATOM     49  C   UNL A   1      44.556  28.130  33.119  1.00  0.00     0.074 A 
ATOM     50  C   UNL A   1      43.224  23.039  30.197  1.00  0.00     0.029 A 
ATOM     51  N   UNL A   1      44.410  24.495  28.996  1.00  0.00    -0.354 N 
ATOM     52  N   UNL A   1      45.337  27.930  32.106  1.00  0.00    -0.248 NA
ATOM     53  C   UNL A   1      44.069  26.947  33.815  1.00  0.00     0.031 C 
ATOM     54  C   UNL A   1      44.132  23.733  31.026  1.00  0.00     0.029 A 
ATOM     55  C   UNL A   1      44.654  24.814  30.308  1.00  0.00     0.049 A 
ATOM     56  H   UNL A   1      44.922  24.793  28.211  1.00  0.00     0.167 HD
ATOM     57  C   UNL A   1      45.176  26.591  31.833  1.00  0.00     0.074 A 
ATOM     58  C   UNL A   1      44.526  26.012  32.996  1.00  0.00     0.031 C 
ATOM     59  C   UNL A   1      45.231  26.111  30.564  1.00  0.00     0.031 A 
BRANCH  46  60
ATOM     60  C   UNL A   1      42.750  22.942  26.689  1.00  0.00    -0.014 A 
ATOM     61  C   UNL A   1      42.394  21.571  26.789  1.00  0.00     0.010 A 
ATOM     62  C   UNL A   1      43.659  23.299  25.683  1.00  0.00     0.010 A 
ATOM     63  C   UNL A   1      43.016  20.584  26.026  1.00  0.00     0.020 A 
ATOM     64  C   UNL A   1      44.262  22.311  24.878  1.00  0.00     0.020 A 
ATOM     65  C   UNL A   1      43.970  20.959  25.088  1.00  0.00     0.054 A 
BRANCH  65  66
ATOM     66  S   UNL A   1      44.852  19.641  24.208  1.00  0.00     0.124 S 
ATOM     67  O   UNL A   1      44.260  18.435  24.776  1.00  0.00    -0.237 OA
ATOM     68  O   UNL A   1      44.504  19.911  22.814  1.00  0.00    -0.237 OA
ATOM     69  O   UNL A   1      46.253  19.878  24.549  1.00  0.00    -0.744 OA
ENDBRANCH  65  66
ENDBRANCH  46  60
BRANCH  47  70
ATOM     70  C   UNL A   1      44.266  29.943  34.855  1.00  0.00    -0.014 A 
ATOM     71  C   UNL A   1      43.428  30.592  35.770  1.00  0.00     0.010 A 
ATOM     72  C   UNL A   1      45.596  29.707  35.333  1.00  0.00     0.010 A 
ATOM     73  C   UNL A   1      43.855  30.848  37.110  1.00  0.00     0.020 A 
ATOM     74  C   UNL A   1      46.011  29.898  36.657  1.00  0.00     0.020 A 
ATOM     75  C   UNL A   1      45.124  30.452  37.557  1.00  0.00     0.054 A 
BRANCH  75  76
ATOM     76  S   UNL A   1      45.591  30.538  39.316  1.00  0.00     0.124 S 
ATOM     77  O   UNL A   1      47.046  30.443  39.264  1.00  0.00    -0.237 OA
ATOM     78  O   UNL A   1      45.055  31.834  39.727  1.00  0.00    -0.237 OA
ATOM     79  O   UNL A   1      44.914  29.385  39.912  1.00  0.00    -0.744 OA
ENDBRANCH  75  76
ENDBRANCH  47  70
BRANCH  59  80
ATOM     80  C   UNL A   1      45.566  27.153  29.476  1.00  0.00    -0.014 A 
ATOM     81  C   UNL A   1      46.898  27.502  29.210  1.00  0.00     0.010 A 
ATOM     82  C   UNL A   1      44.574  27.866  28.758  1.00  0.00     0.010 A 
ATOM     83  C   UNL A   1      47.228  28.486  28.257  1.00  0.00     0.020 A 
ATOM     84  C   UNL A   1      44.889  28.856  27.803  1.00  0.00     0.020 A 
ATOM     85  C   UNL A   1      46.225  29.153  27.548  1.00  0.00     0.054 A 
BRANCH  85  86
ATOM     86  S   UNL A   1      46.695  30.391  26.297  1.00  0.00     0.124 S 
ATOM     87  O   UNL A   1      48.119  30.590  26.555  1.00  0.00    -0.237 OA
ATOM     88  O   UNL A   1      46.377  29.710  25.045  1.00  0.00    -0.237 OA
ATOM     89  O   UNL A   1      45.850  31.545  26.605  1.00  0.00    -0.744 OA
ENDBRANCH  85  86
ENDBRANCH  59  80
ENDBRANCH  33  34
ENDBRANCH  26  28
ENDBRANCH  25  26
ENDBRANCH  24  25
ENDBRANCH  23  24
ENDBRANCH  22  23
ENDBRANCH   1  22
TORSDOF 22
ENDMDL
MODEL 2
REMARK VINA RESULT:     -10.0      4.148      5.944
REMARK SMILES C[C@@H](CC1CC1)NC(=O)c1cccn1CC(=O)OCCOCCOC(=O)c1ccc(-c2c3nc(c(-c4ccc(S(=O)(=O)[O-])cc4)c4ccc([nH]4)c(-c4ccc(S(=O)(=O)[O-])cc4)c4nc(c(-c5ccc(S(=O)(=O)[O-])cc5)c5ccc2[nH]5)C=C4)C=C3)cc1
REMARK SMILES IDX 20 1 19 2 18 3 16 4 17 5 15 6 14 7 10 8 11 9 12 10 13 11
REMARK SMILES IDX 8 12 7 13 9 15 2 16 1 17 3 18 4 19 5 20 6 21 21 22 22 23
REMARK SMILES IDX 23 24 24 25 25 26 26 27 27 28 28 29 86 30 29 31 85 32 30 33
REMARK SMILES IDX 31 34 32 35 79 36 33 37 84 38 78 39 80 40 34 41 83 42 77 43
REMARK SMILES IDX 76 44 35 46 65 47 46 48 64 49 47 50 50 51 63 52 81 53 48 54
REMARK SMILES IDX 49 55 62 57 82 58 51 59 36 60 37 61 45 62 38 63 44 64 39 65
REMARK SMILES IDX 40 66 41 67 42 68 43 69 66 70 67 71 75 72 68 73 74 74 69 75
REMARK SMILES IDX 70 76 71 77 72 78 73 79 52 80 53 81 61 82 54 83 60 84 55 85
REMARK SMILES IDX 56 86 57 87 58 88 59 89
REMARK H PARENT 7 14 80 45 50 56
REMARK Flexibility Score: inf
ROOT
ATOM      1  C   UNL A   1      32.261  30.151  26.763  1.00  0.00     0.202 C 
ENDROOT
BRANCH   1   2
ATOM      2  C   UNL A   1      31.749  28.889  27.460  1.00  0.00     0.261 C 
BRANCH   2   3
ATOM      3  O   UNL A   1      32.348  27.679  26.956  1.00  0.00    -0.462 OA
BRANCH   3   4
ATOM      4  C   UNL A   1      31.492  26.829  26.328  1.00  0.00     0.326 C 
ATOM      5  O   UNL A   1      30.947  25.874  26.880  1.00  0.00    -0.250 OA
BRANCH   4   6
ATOM      6  C   UNL A   1      31.181  27.162  24.893  1.00  0.00     0.244 C 
BRANCH   6   7
ATOM      7  N   UNL A   1      32.261  27.075  23.913  1.00  0.00    -0.332 N 
ATOM      8  C   UNL A   1      32.714  25.927  23.277  1.00  0.00     0.107 A 
ATOM      9  C   UNL A   1      33.621  26.352  22.312  1.00  0.00     0.033 A 
ATOM     10  C   UNL A   1      33.720  27.759  22.366  1.00  0.00     0.020 A 
ATOM     11  C   UNL A   1      32.838  28.180  23.329  1.00  0.00     0.087 A 
BRANCH   8  12
ATOM     12  C   UNL A   1      32.215  24.594  23.537  1.00  0.00     0.268 C 
ATOM     13  N   UNL A   1      32.844  23.782  24.438  1.00  0.00    -0.348 N 
ATOM     14  H   UNL A   1      32.508  22.857  24.454  1.00  0.00     0.164 HD
ATOM     15  O   UNL A   1      31.215  24.136  22.985  1.00  0.00    -0.268 OA
BRANCH  13  16
ATOM     16  C   UNL A   1      33.926  24.045  25.382  1.00  0.00     0.079 C 
ATOM     17  C   UNL A   1      33.576  23.436  26.737  1.00  0.00     0.031 C 
BRANCH  16  18
ATOM     18  C   UNL A   1      35.272  23.548  24.821  1.00  0.00     0.028 C 
BRANCH  18  19
ATOM     19  C   UNL A   1      36.304  23.250  25.878  1.00  0.00    -0.009 C 
ATOM     20  C   UNL A   1      37.638  22.676  25.477  1.00  0.00     0.004 C 
ATOM     21  C   UNL A   1      37.554  24.085  25.993  1.00  0.00     0.004 C 
ENDBRANCH  18  19
ENDBRANCH  16  18
ENDBRANCH  13  16
ENDBRANCH   8  12
ENDBRANCH   6   7
ENDBRANCH   4   6
ENDBRANCH   3   4
ENDBRANCH   2   3
ENDBRANCH   1   2
BRANCH   1  22
ATOM     22  O   UNL A   1      33.581  30.594  27.070  1.00  0.00    -0.374 OA
BRANCH  22  23
ATOM     23  C   UNL A   1      33.755  31.831  27.749  1.00  0.00     0.202 C 
BRANCH  23  24
ATOM     24  C   UNL A   1      32.644  32.871  27.680  1.00  0.00     0.261 C 
BRANCH  24  25
ATOM     25  O   UNL A   1      33.101  34.198  27.455  1.00  0.00    -0.460 OA
BRANCH  25  26
ATOM     26  C   UNL A   1      33.030  34.949  28.578  1.00  0.00     0.338 C 
ATOM     27  O   UNL A   1      32.249  35.856  28.801  1.00  0.00    -0.246 OA
BRANCH  26  28
ATOM     28  C   UNL A   1      34.177  34.675  29.442  1.00  0.00     0.060 A 
ATOM     29  C   UNL A   1      35.423  34.724  28.812  1.00  0.00     0.016 A 
ATOM     30  C   UNL A   1      33.993  34.072  30.695  1.00  0.00     0.016 A 
ATOM     31  C   UNL A   1      36.462  34.008  29.357  1.00  0.00     0.010 A 
ATOM     32  C   UNL A   1      35.028  33.333  31.228  1.00  0.00     0.010 A 
ATOM     33  C   UNL A   1      36.239  33.275  30.530  1.00  0.00    -0.014 A 
BRANCH  33  34
ATOM     34  C   UNL A   1      37.409  32.629  31.132  1.00  0.00     0.031 A 
ATOM     35  C   UNL A   1      37.655  31.289  30.367  1.00  0.00     0.074 A 
ATOM     36  C   UNL A   1      37.909  33.272  32.241  1.00  0.00     0.049 A 
ATOM     37  N   UNL A   1      38.162  30.166  30.771  1.00  0.00    -0.248 NA
ATOM     38  C   UNL A   1      37.167  31.149  28.951  1.00  0.00     0.031 C 
ATOM     39  C   UNL A   1      37.480  34.607  32.752  1.00  0.00     0.029 A 
ATOM     40  N   UNL A   1      38.863  32.962  33.182  1.00  0.00    -0.354 N 
ATOM     41  C   UNL A   1      38.224  29.290  29.658  1.00  0.00     0.074 A 
ATOM     42  C   UNL A   1      37.508  29.911  28.593  1.00  0.00     0.031 C 
ATOM     43  C   UNL A   1      38.077  34.911  33.934  1.00  0.00     0.029 A 
ATOM     44  C   UNL A   1      38.957  33.829  34.320  1.00  0.00     0.049 A 
ATOM     45  H   UNL A   1      39.454  32.182  33.078  1.00  0.00     0.167 HD
ATOM     46  C   UNL A   1      38.970  28.150  29.643  1.00  0.00     0.031 A 
ATOM     47  C   UNL A   1      39.632  33.612  35.504  1.00  0.00     0.031 A 
ATOM     48  C   UNL A   1      39.544  27.945  30.921  1.00  0.00     0.049 A 
ATOM     49  C   UNL A   1      40.231  32.287  35.287  1.00  0.00     0.074 A 
ATOM     50  C   UNL A   1      39.127  27.326  32.063  1.00  0.00     0.029 A 
ATOM     51  N   UNL A   1      40.686  28.654  31.184  1.00  0.00    -0.354 N 
ATOM     52  N   UNL A   1      41.201  32.008  34.475  1.00  0.00    -0.248 NA
ATOM     53  C   UNL A   1      39.490  31.161  35.837  1.00  0.00     0.031 C 
ATOM     54  C   UNL A   1      39.883  27.936  33.087  1.00  0.00     0.029 A 
ATOM     55  C   UNL A   1      40.655  28.957  32.522  1.00  0.00     0.049 A 
ATOM     56  H   UNL A   1      41.390  28.897  30.541  1.00  0.00     0.167 HD
ATOM     57  C   UNL A   1      40.981  30.688  34.152  1.00  0.00     0.074 A 
ATOM     58  C   UNL A   1      40.032  30.181  35.128  1.00  0.00     0.031 C 
ATOM     59  C   UNL A   1      41.278  30.196  32.923  1.00  0.00     0.031 A 
BRANCH  46  60
ATOM     60  C   UNL A   1      39.456  27.250  28.538  1.00  0.00    -0.014 A 
ATOM     61  C   UNL A   1      39.625  25.878  28.862  1.00  0.00     0.010 A 
ATOM     62  C   UNL A   1      40.083  27.719  27.374  1.00  0.00     0.010 A 
ATOM     63  C   UNL A   1      40.487  25.046  28.148  1.00  0.00     0.020 A 
ATOM     64  C   UNL A   1      40.924  26.872  26.623  1.00  0.00     0.020 A 
ATOM     65  C   UNL A   1      41.155  25.558  27.043  1.00  0.00     0.054 A 
BRANCH  65  66
ATOM     66  S   UNL A   1      42.367  24.490  26.219  1.00  0.00     0.124 S 
ATOM     67  O   UNL A   1      43.454  24.441  27.192  1.00  0.00    -0.237 OA
ATOM     68  O   UNL A   1      41.622  23.243  26.053  1.00  0.00    -0.237 OA
ATOM     69  O   UNL A   1      42.663  25.200  24.977  1.00  0.00    -0.744 OA
ENDBRANCH  65  66
ENDBRANCH  46  60
BRANCH  47  70
ATOM     70  C   UNL A   1      39.725  34.131  36.939  1.00  0.00    -0.014 A 
ATOM     71  C   UNL A   1      40.655  35.037  37.464  1.00  0.00     0.010 A 
ATOM     72  C   UNL A   1      38.705  33.727  37.860  1.00  0.00     0.010 A 
ATOM     73  C   UNL A   1      40.483  35.602  38.766  1.00  0.00     0.020 A 
ATOM     74  C   UNL A   1      38.489  34.313  39.114  1.00  0.00     0.020 A 
ATOM     75  C   UNL A   1      39.373  35.275  39.558  1.00  0.00     0.054 A 
BRANCH  75  76
ATOM     76  S   UNL A   1      39.001  36.169  41.103  1.00  0.00     0.124 S 
ATOM     77  O   UNL A   1      38.813  37.539  40.640  1.00  0.00    -0.237 OA
ATOM     78  O   UNL A   1      37.800  35.492  41.584  1.00  0.00    -0.237 OA
ATOM     79  O   UNL A   1      40.192  35.949  41.925  1.00  0.00    -0.744 OA
ENDBRANCH  75  76
ENDBRANCH  47  70
BRANCH  59  80
ATOM     80  C   UNL A   1      41.947  31.194  31.955  1.00  0.00    -0.014 A 
ATOM     81  C   UNL A   1      43.339  31.364  31.958  1.00  0.00     0.010 A 
ATOM     82  C   UNL A   1      41.212  32.040  31.087  1.00  0.00     0.010 A 
ATOM     83  C   UNL A   1      43.972  32.304  31.119  1.00  0.00     0.020 A 
ATOM     84  C   UNL A   1      41.831  32.987  30.244  1.00  0.00     0.020 A 
ATOM     85  C   UNL A   1      43.218  33.106  30.257  1.00  0.00     0.054 A 
BRANCH  85  86
ATOM     86  S   UNL A   1      44.077  34.281  29.162  1.00  0.00     0.124 S 
ATOM     87  O   UNL A   1      44.855  35.090  30.097  1.00  0.00    -0.237 OA
ATOM     88  O   UNL A   1      44.857  33.397  28.301  1.00  0.00    -0.237 OA
ATOM     89  O   UNL A   1      42.991  34.997  28.490  1.00  0.00    -0.744 OA
ENDBRANCH  85  86
ENDBRANCH  59  80
ENDBRANCH  33  34
ENDBRANCH  26  28
ENDBRANCH  25  26
ENDBRANCH  24  25
ENDBRANCH  23  24
ENDBRANCH  22  23
ENDBRANCH   1  22
TORSDOF 22
ENDMDL
MODEL 3
REMARK VINA RESULT:      -9.9      3.518      9.464
REMARK SMILES C[C@@H](CC1CC1)NC(=O)c1cccn1CC(=O)OCCOCCOC(=O)c1ccc(-c2c3nc(c(-c4ccc(S(=O)(=O)[O-])cc4)c4ccc([nH]4)c(-c4ccc(S(=O)(=O)[O-])cc4)c4nc(c(-c5ccc(S(=O)(=O)[O-])cc5)c5ccc2[nH]5)C=C4)C=C3)cc1
REMARK SMILES IDX 20 1 19 2 18 3 16 4 17 5 15 6 14 7 10 8 11 9 12 10 13 11
REMARK SMILES IDX 8 12 7 13 9 15 2 16 1 17 3 18 4 19 5 20 6 21 21 22 22 23
REMARK SMILES IDX 23 24 24 25 25 26 26 27 27 28 28 29 86 30 29 31 85 32 30 33
REMARK SMILES IDX 31 34 32 35 79 36 33 37 84 38 78 39 80 40 34 41 83 42 77 43
REMARK SMILES IDX 76 44 35 46 65 47 46 48 64 49 47 50 50 51 63 52 81 53 48 54
REMARK SMILES IDX 49 55 62 57 82 58 51 59 36 60 37 61 45 62 38 63 44 64 39 65
REMARK SMILES IDX 40 66 41 67 42 68 43 69 66 70 67 71 75 72 68 73 74 74 69 75
REMARK SMILES IDX 70 76 71 77 72 78 73 79 52 80 53 81 61 82 54 83 60 84 55 85
REMARK SMILES IDX 56 86 57 87 58 88 59 89
REMARK H PARENT 7 14 80 45 50 56
REMARK Flexibility Score: inf
ROOT
ATOM      1  C   UNL A   1      37.296  21.353  24.767  1.00  0.00     0.202 C 
ENDROOT
BRANCH   1   2
ATOM      2  C   UNL A   1      36.049  22.085  24.270  1.00  0.00     0.261 C 
BRANCH   2   3
ATOM      3  O   UNL A   1      34.998  22.149  25.253  1.00  0.00    -0.462 OA
BRANCH   3   4
ATOM      4  C   UNL A   1      34.503  23.394  25.489  1.00  0.00     0.326 C 
ATOM      5  O   UNL A   1      34.353  23.870  26.613  1.00  0.00    -0.250 OA
BRANCH   4   6
ATOM      6  C   UNL A   1      34.196  24.213  24.263  1.00  0.00     0.244 C 
BRANCH   6   7
ATOM      7  N   UNL A   1      32.800  24.348  23.852  1.00  0.00    -0.332 N 
ATOM      8  C   UNL A   1      32.270  25.329  23.027  1.00  0.00     0.107 A 
ATOM      9  C   UNL A   1      30.955  24.953  22.776  1.00  0.00     0.033 A 
ATOM     10  C   UNL A   1      30.687  23.745  23.454  1.00  0.00     0.020 A 
ATOM     11  C   UNL A   1      31.854  23.371  24.071  1.00  0.00     0.087 A 
BRANCH   8  12
ATOM     12  C   UNL A   1      33.024  26.436  22.479  1.00  0.00     0.268 C 
ATOM     13  N   UNL A   1      32.923  27.682  23.029  1.00  0.00    -0.348 N 
ATOM     14  H   UNL A   1      33.373  28.390  22.513  1.00  0.00     0.164 HD
ATOM     15  O   UNL A   1      33.787  26.314  21.521  1.00  0.00    -0.268 OA
BRANCH  13  16
ATOM     16  C   UNL A   1      32.266  28.150  24.246  1.00  0.00     0.079 C 
ATOM     17  C   UNL A   1      33.311  28.729  25.195  1.00  0.00     0.031 C 
BRANCH  16  18
ATOM     18  C   UNL A   1      31.134  29.140  23.909  1.00  0.00     0.028 C 
BRANCH  18  19
ATOM     19  C   UNL A   1      30.158  28.628  22.883  1.00  0.00    -0.009 C 
ATOM     20  C   UNL A   1      28.955  27.835  23.327  1.00  0.00     0.004 C 
ATOM     21  C   UNL A   1      28.776  29.219  22.770  1.00  0.00     0.004 C 
ENDBRANCH  18  19
ENDBRANCH  16  18
ENDBRANCH  13  16
ENDBRANCH   8  12
ENDBRANCH   6   7
ENDBRANCH   4   6
ENDBRANCH   3   4
ENDBRANCH   2   3
ENDBRANCH   1   2
BRANCH   1  22
ATOM     22  O   UNL A   1      38.310  22.122  25.411  1.00  0.00    -0.374 OA
BRANCH  22  23
ATOM     23  C   UNL A   1      39.373  21.449  26.074  1.00  0.00     0.202 C 
BRANCH  23  24
ATOM     24  C   UNL A   1      39.667  19.999  25.708  1.00  0.00     0.261 C 
BRANCH  24  25
ATOM     25  O   UNL A   1      40.521  19.329  26.626  1.00  0.00    -0.460 OA
BRANCH  25  26
ATOM     26  C   UNL A   1      41.770  19.177  26.127  1.00  0.00     0.338 C 
ATOM     27  O   UNL A   1      42.248  18.163  25.653  1.00  0.00    -0.246 OA
BRANCH  26  28
ATOM     28  C   UNL A   1      42.579  20.358  26.426  1.00  0.00     0.060 A 
ATOM     29  C   UNL A   1      42.519  20.803  27.749  1.00  0.00     0.016 A 
ATOM     30  C   UNL A   1      43.076  21.159  25.388  1.00  0.00     0.016 A 
ATOM     31  C   UNL A   1      42.792  22.123  28.010  1.00  0.00     0.010 A 
ATOM     32  C   UNL A   1      43.325  22.490  25.644  1.00  0.00     0.010 A 
ATOM     33  C   UNL A   1      43.139  22.968  26.946  1.00  0.00    -0.014 A 
BRANCH  33  34
ATOM     34  C   UNL A   1      43.535  24.335  27.296  1.00  0.00     0.031 A 
ATOM     35  C   UNL A   1      42.231  25.182  27.448  1.00  0.00     0.074 A 
ATOM     36  C   UNL A   1      44.894  24.554  27.292  1.00  0.00     0.049 A 
ATOM     37  N   UNL A   1      42.013  26.441  27.235  1.00  0.00    -0.248 NA
ATOM     38  C   UNL A   1      40.942  24.491  27.798  1.00  0.00     0.031 C 
ATOM     39  C   UNL A   1      45.953  23.513  27.137  1.00  0.00     0.029 A 
ATOM     40  N   UNL A   1      45.687  25.671  27.405  1.00  0.00    -0.354 N 
ATOM     41  C   UNL A   1      40.669  26.717  27.594  1.00  0.00     0.074 A 
ATOM     42  C   UNL A   1      40.032  25.465  27.835  1.00  0.00     0.031 C 
ATOM     43  C   UNL A   1      47.193  24.062  27.053  1.00  0.00     0.029 A 
ATOM     44  C   UNL A   1      47.088  25.502  27.151  1.00  0.00     0.049 A 
ATOM     45  H   UNL A   1      45.310  26.547  27.650  1.00  0.00     0.167 HD
ATOM     46  C   UNL A   1      40.189  27.978  27.787  1.00  0.00     0.031 A 
ATOM     47  C   UNL A   1      48.042  26.479  26.948  1.00  0.00     0.031 A 
ATOM     48  C   UNL A   1      41.193  28.920  27.460  1.00  0.00     0.049 A 
ATOM     49  C   UNL A   1      47.259  27.716  27.078  1.00  0.00     0.074 A 
ATOM     50  C   UNL A   1      41.576  29.543  26.308  1.00  0.00     0.029 A 
ATOM     51  N   UNL A   1      42.129  29.159  28.433  1.00  0.00    -0.354 N 
ATOM     52  N   UNL A   1      46.747  28.190  28.169  1.00  0.00    -0.248 NA
ATOM     53  C   UNL A   1      46.803  28.308  25.828  1.00  0.00     0.031 C 
ATOM     54  C   UNL A   1      42.921  29.904  26.536  1.00  0.00     0.029 A 
ATOM     55  C   UNL A   1      43.312  29.401  27.781  1.00  0.00     0.049 A 
ATOM     56  H   UNL A   1      41.980  29.157  29.405  1.00  0.00     0.167 HD
ATOM     57  C   UNL A   1      45.661  28.911  27.729  1.00  0.00     0.074 A 
ATOM     58  C   UNL A   1      45.837  29.083  26.297  1.00  0.00     0.031 C 
ATOM     59  C   UNL A   1      44.521  29.000  28.460  1.00  0.00     0.031 A 
BRANCH  46  60
ATOM     60  C   UNL A   1      38.954  28.519  28.457  1.00  0.00    -0.014 A 
ATOM     61  C   UNL A   1      38.285  29.584  27.797  1.00  0.00     0.010 A 
ATOM     62  C   UNL A   1      38.650  28.309  29.810  1.00  0.00     0.010 A 
ATOM     63  C   UNL A   1      37.465  30.482  28.477  1.00  0.00     0.020 A 
ATOM     64  C   UNL A   1      37.788  29.189  30.496  1.00  0.00     0.020 A 
ATOM     65  C   UNL A   1      37.241  30.294  29.835  1.00  0.00     0.054 A 
BRANCH  65  66
ATOM     66  S   UNL A   1      36.278  31.554  30.715  1.00  0.00     0.124 S 
ATOM     67  O   UNL A   1      37.234  32.650  30.835  1.00  0.00    -0.237 OA
ATOM     68  O   UNL A   1      35.166  31.794  29.797  1.00  0.00    -0.237 OA
ATOM     69  O   UNL A   1      35.911  30.896  31.966  1.00  0.00    -0.744 OA
ENDBRANCH  65  66
ENDBRANCH  46  60
BRANCH  47  70
ATOM     70  C   UNL A   1      49.461  26.669  26.414  1.00  0.00    -0.014 A 
ATOM     71  C   UNL A   1      50.656  26.697  27.143  1.00  0.00     0.010 A 
ATOM     72  C   UNL A   1      49.632  26.749  24.993  1.00  0.00     0.010 A 
ATOM     73  C   UNL A   1      51.924  26.659  26.486  1.00  0.00     0.020 A 
ATOM     74  C   UNL A   1      50.864  26.653  24.333  1.00  0.00     0.020 A 
ATOM     75  C   UNL A   1      52.017  26.583  25.088  1.00  0.00     0.054 A 
BRANCH  75  76
ATOM     76  S   UNL A   1      53.604  26.279  24.247  1.00  0.00     0.124 S 
ATOM     77  O   UNL A   1      53.252  26.423  22.839  1.00  0.00    -0.237 OA
ATOM     78  O   UNL A   1      54.464  27.325  24.795  1.00  0.00    -0.237 OA
ATOM     79  O   UNL A   1      53.961  24.921  24.662  1.00  0.00    -0.744 OA
ENDBRANCH  75  76
ENDBRANCH  47  70
BRANCH  59  80
ATOM     80  C   UNL A   1      44.565  28.309  29.840  1.00  0.00    -0.014 A 
ATOM     81  C   UNL A   1      45.053  28.993  30.963  1.00  0.00     0.010 A 
ATOM     82  C   UNL A   1      44.205  26.953  30.036  1.00  0.00     0.010 A 
ATOM     83  C   UNL A   1      45.149  28.370  32.224  1.00  0.00     0.020 A 
ATOM     84  C   UNL A   1      44.300  26.315  31.292  1.00  0.00     0.020 A 
ATOM     85  C   UNL A   1      44.764  27.037  32.388  1.00  0.00     0.054 A 
BRANCH  85  86
ATOM     86  S   UNL A   1      44.868  26.280  34.042  1.00  0.00     0.124 S 
ATOM     87  O   UNL A   1      45.600  27.282  34.813  1.00  0.00    -0.237 OA
ATOM     88  O   UNL A   1      43.463  26.118  34.404  1.00  0.00    -0.237 OA
ATOM     89  O   UNL A   1      45.596  25.032  33.815  1.00  0.00    -0.744 OA
ENDBRANCH  85  86
ENDBRANCH  59  80
ENDBRANCH  33  34
ENDBRANCH  26  28
ENDBRANCH  25  26
ENDBRANCH  24  25
ENDBRANCH  23  24
ENDBRANCH  22  23
ENDBRANCH   1  22
TORSDOF 22
ENDMDL
