MODEL 1
REMARK VINA RESULT:      -9.8      0.000      0.000
REMARK SMILES O=C(OCCOCCOC(=O)[C@@H]1CC(=O)N(CCCCc2ccccn2)C1)c1ccc(-c2c3nc(c(-c4ccc(S(=O)(=O)[O-])cc4)c4ccc([nH]4)c(-c4ccc(S(=O)(=O)[O-])cc4)c4nc(c(-c5ccc(S(=O)(=O)[O-])cc5)c5ccc2[nH]5)C=C4)C=C3)cc1
REMARK SMILES IDX 7 1 6 2 5 3 4 4 3 5 2 6 1 7 28 8 29 9 87 10 30 11 86 12
REMARK SMILES IDX 31 13 32 14 33 15 80 16 34 17 85 18 79 19 81 20 35 21 84 22
REMARK SMILES IDX 78 23 77 24 36 26 66 27 47 28 65 29 48 30 51 31 64 32 82 33
REMARK SMILES IDX 49 34 50 35 63 37 83 38 52 39 37 40 38 41 46 42 39 43 45 44
REMARK SMILES IDX 40 45 41 46 42 47 43 48 44 49 67 50 68 51 76 52 69 53 75 54
REMARK SMILES IDX 70 55 71 56 72 57 73 58 74 59 53 60 54 61 62 62 55 63 61 64
REMARK SMILES IDX 56 65 57 66 58 67 59 68 60 69 8 70 9 71 10 72 11 73 12 74
REMARK SMILES IDX 13 75 27 76 14 77 16 78 15 79 17 80 18 81 19 82 20 83 21 84
REMARK SMILES IDX 22 85 26 86 23 87 25 88 24 89
REMARK H PARENT 81 25 51 36
REMARK Flexibility Score: inf
ROOT
ATOM      1  C   UNL A   1      30.918  28.039  23.693  1.00  0.00     0.202 C 
ENDROOT
BRANCH   1   2
ATOM      2  O   UNL A   1      32.059  28.640  24.306  1.00  0.00    -0.374 OA
BRANCH   2   3
ATOM      3  C   UNL A   1      31.777  29.462  25.430  1.00  0.00     0.202 C 
BRANCH   3   4
ATOM      4  C   UNL A   1      32.577  29.161  26.702  1.00  0.00     0.261 C 
BRANCH   4   5
ATOM      5  O   UNL A   1      33.880  29.773  26.667  1.00  0.00    -0.460 OA
BRANCH   5   6
ATOM      6  C   UNL A   1      34.303  30.748  27.516  1.00  0.00     0.338 C 
ATOM      7  O   UNL A   1      33.638  31.763  27.688  1.00  0.00    -0.246 OA
BRANCH   6   8
ATOM      8  C   UNL A   1      35.582  30.576  28.245  1.00  0.00     0.060 A 
ATOM      9  C   UNL A   1      35.789  29.469  29.062  1.00  0.00     0.016 A 
ATOM     10  C   UNL A   1      36.617  31.494  28.082  1.00  0.00     0.016 A 
ATOM     11  C   UNL A   1      36.905  29.356  29.858  1.00  0.00     0.010 A 
ATOM     12  C   UNL A   1      37.829  31.291  28.752  1.00  0.00     0.010 A 
ATOM     13  C   UNL A   1      37.971  30.218  29.649  1.00  0.00    -0.014 A 
BRANCH  13  14
ATOM     14  C   UNL A   1      39.232  29.932  30.361  1.00  0.00     0.031 A 
ATOM     15  C   UNL A   1      40.154  28.894  29.811  1.00  0.00     0.074 A 
ATOM     16  C   UNL A   1      39.547  30.661  31.453  1.00  0.00     0.049 A 
ATOM     17  N   UNL A   1      41.205  28.359  30.367  1.00  0.00    -0.248 NA
ATOM     18  C   UNL A   1      39.850  28.378  28.466  1.00  0.00     0.031 C 
ATOM     19  C   UNL A   1      38.752  31.774  31.996  1.00  0.00     0.029 A 
ATOM     20  N   UNL A   1      40.626  30.602  32.292  1.00  0.00    -0.354 N 
ATOM     21  C   UNL A   1      41.649  27.397  29.470  1.00  0.00     0.074 A 
ATOM     22  C   UNL A   1      40.760  27.425  28.331  1.00  0.00     0.031 C 
ATOM     23  C   UNL A   1      39.396  32.319  33.035  1.00  0.00     0.029 A 
ATOM     24  C   UNL A   1      40.578  31.521  33.316  1.00  0.00     0.049 A 
ATOM     25  H   UNL A   1      41.367  29.964  32.175  1.00  0.00     0.167 HD
ATOM     26  C   UNL A   1      42.700  26.559  29.613  1.00  0.00     0.031 A 
ATOM     27  C   UNL A   1      41.364  31.658  34.400  1.00  0.00     0.031 A 
ATOM     28  C   UNL A   1      43.568  26.585  30.759  1.00  0.00     0.049 A 
ATOM     29  C   UNL A   1      42.479  30.666  34.566  1.00  0.00     0.074 A 
ATOM     30  C   UNL A   1      44.643  25.767  31.048  1.00  0.00     0.029 A 
ATOM     31  N   UNL A   1      43.460  27.497  31.804  1.00  0.00    -0.354 N 
ATOM     32  N   UNL A   1      42.842  29.697  33.756  1.00  0.00    -0.248 NA
ATOM     33  C   UNL A   1      43.274  30.764  35.792  1.00  0.00     0.031 C 
ATOM     34  C   UNL A   1      45.154  26.153  32.293  1.00  0.00     0.029 A 
ATOM     35  C   UNL A   1      44.440  27.253  32.747  1.00  0.00     0.049 A 
ATOM     36  H   UNL A   1      42.785  28.210  31.862  1.00  0.00     0.167 HD
ATOM     37  C   UNL A   1      43.924  29.082  34.367  1.00  0.00     0.074 A 
ATOM     38  C   UNL A   1      44.168  29.804  35.603  1.00  0.00     0.031 C 
ATOM     39  C   UNL A   1      44.649  28.013  33.955  1.00  0.00     0.031 A 
BRANCH  26  40
ATOM     40  C   UNL A   1      42.906  25.515  28.551  1.00  0.00    -0.014 A 
ATOM     41  C   UNL A   1      43.672  25.771  27.398  1.00  0.00     0.010 A 
ATOM     42  C   UNL A   1      42.317  24.247  28.712  1.00  0.00     0.010 A 
ATOM     43  C   UNL A   1      43.814  24.790  26.413  1.00  0.00     0.020 A 
ATOM     44  C   UNL A   1      42.479  23.254  27.743  1.00  0.00     0.020 A 
ATOM     45  C   UNL A   1      43.215  23.538  26.591  1.00  0.00     0.054 A 
BRANCH  45  46
ATOM     46  S   UNL A   1      43.434  22.278  25.306  1.00  0.00     0.124 S 
ATOM     47  O   UNL A   1      43.378  23.079  24.085  1.00  0.00    -0.237 OA
ATOM     48  O   UNL A   1      44.744  21.718  25.627  1.00  0.00    -0.237 OA
ATOM     49  O   UNL A   1      42.306  21.372  25.508  1.00  0.00    -0.744 OA
ENDBRANCH  45  46
ENDBRANCH  26  40
BRANCH  27  50
ATOM     50  C   UNL A   1      41.071  32.694  35.431  1.00  0.00    -0.014 A 
ATOM     51  C   UNL A   1      41.677  33.962  35.375  1.00  0.00     0.010 A 
ATOM     52  C   UNL A   1      40.185  32.415  36.491  1.00  0.00     0.010 A 
ATOM     53  C   UNL A   1      41.431  34.913  36.371  1.00  0.00     0.020 A 
ATOM     54  C   UNL A   1      39.908  33.375  37.469  1.00  0.00     0.020 A 
ATOM     55  C   UNL A   1      40.550  34.612  37.415  1.00  0.00     0.054 A 
BRANCH  55  56
ATOM     56  S   UNL A   1      40.241  35.862  38.693  1.00  0.00     0.124 S 
ATOM     57  O   UNL A   1      39.725  36.978  37.906  1.00  0.00    -0.237 OA
ATOM     58  O   UNL A   1      39.271  35.196  39.559  1.00  0.00    -0.237 OA
ATOM     59  O   UNL A   1      41.557  36.073  39.291  1.00  0.00    -0.744 OA
ENDBRANCH  55  56
ENDBRANCH  27  50
BRANCH  39  60
ATOM     60  C   UNL A   1      45.803  27.606  34.824  1.00  0.00    -0.014 A 
ATOM     61  C   UNL A   1      47.075  28.182  34.663  1.00  0.00     0.010 A 
ATOM     62  C   UNL A   1      45.587  26.677  35.857  1.00  0.00     0.010 A 
ATOM     63  C   UNL A   1      48.121  27.813  35.510  1.00  0.00     0.020 A 
ATOM     64  C   UNL A   1      46.620  26.332  36.725  1.00  0.00     0.020 A 
ATOM     65  C   UNL A   1      47.885  26.894  36.539  1.00  0.00     0.054 A 
BRANCH  65  66
ATOM     66  S   UNL A   1      49.243  26.478  37.661  1.00  0.00     0.124 S 
ATOM     67  O   UNL A   1      50.060  27.688  37.611  1.00  0.00    -0.237 OA
ATOM     68  O   UNL A   1      48.551  26.238  38.926  1.00  0.00    -0.237 OA
ATOM     69  O   UNL A   1      49.846  25.294  37.053  1.00  0.00    -0.744 OA
ENDBRANCH  65  66
ENDBRANCH  39  60
ENDBRANCH  13  14
ENDBRANCH   6   8
ENDBRANCH   5   6
ENDBRANCH   4   5
ENDBRANCH   3   4
ENDBRANCH   2   3
ENDBRANCH   1   2
BRANCH   1  70
ATOM     70  C   UNL A   1      30.353  26.974  24.625  1.00  0.00     0.261 C 
BRANCH  70  71
ATOM     71  O   UNL A   1      31.151  25.779  24.507  1.00  0.00    -0.463 OA
BRANCH  71  72
ATOM     72  C   UNL A   1      31.890  25.444  25.597  1.00  0.00     0.311 C 
ATOM     73  O   UNL A   1      31.436  25.137  26.693  1.00  0.00    -0.252 OA
BRANCH  72  74
ATOM     74  C   UNL A   1      33.382  25.474  25.331  1.00  0.00     0.128 C 
ATOM     75  C   UNL A   1      33.805  25.516  23.866  1.00  0.00     0.117 C 
ATOM     76  C   UNL A   1      34.064  24.240  25.923  1.00  0.00     0.135 C 
ATOM     77  C   UNL A   1      34.336  24.140  23.585  1.00  0.00     0.223 C 
ATOM     78  N   UNL A   1      34.529  23.474  24.785  1.00  0.00    -0.342 N 
ATOM     79  O   UNL A   1      34.591  23.707  22.469  1.00  0.00    -0.275 OA
BRANCH  78  80
ATOM     80  C   UNL A   1      35.053  22.110  24.822  1.00  0.00     0.119 C 
BRANCH  80  81
ATOM     81  C   UNL A   1      34.049  20.958  24.927  1.00  0.00     0.022 C 
BRANCH  81  82
ATOM     82  C   UNL A   1      32.788  21.033  24.053  1.00  0.00     0.008 C 
BRANCH  82  83
ATOM     83  C   UNL A   1      32.273  19.731  23.425  1.00  0.00     0.056 C 
BRANCH  83  84
ATOM     84  C   UNL A   1      32.774  18.420  23.974  1.00  0.00     0.040 A 
ATOM     85  C   UNL A   1      33.699  17.633  23.297  1.00  0.00     0.024 A 
ATOM     86  N   UNL A   1      32.170  17.995  25.111  1.00  0.00    -0.261 NA
ATOM     87  C   UNL A   1      34.036  16.385  23.819  1.00  0.00     0.003 A 
ATOM     88  C   UNL A   1      32.507  16.777  25.593  1.00  0.00     0.111 A 
ATOM     89  C   UNL A   1      33.429  15.944  24.988  1.00  0.00     0.020 A 
ENDBRANCH  83  84
ENDBRANCH  82  83
ENDBRANCH  81  82
ENDBRANCH  80  81
ENDBRANCH  78  80
ENDBRANCH  72  74
ENDBRANCH  71  72
ENDBRANCH  70  71
ENDBRANCH   1  70
TORSDOF 22
ENDMDL
MODEL 2
REMARK VINA RESULT:      -9.3      5.750     10.601
REMARK SMILES O=C(OCCOCCOC(=O)[C@@H]1CC(=O)N(CCCCc2ccccn2)C1)c1ccc(-c2c3nc(c(-c4ccc(S(=O)(=O)[O-])cc4)c4ccc([nH]4)c(-c4ccc(S(=O)(=O)[O-])cc4)c4nc(c(-c5ccc(S(=O)(=O)[O-])cc5)c5ccc2[nH]5)C=C4)C=C3)cc1
REMARK SMILES IDX 7 1 6 2 5 3 4 4 3 5 2 6 1 7 28 8 29 9 87 10 30 11 86 12
REMARK SMILES IDX 31 13 32 14 33 15 80 16 34 17 85 18 79 19 81 20 35 21 84 22
REMARK SMILES IDX 78 23 77 24 36 26 66 27 47 28 65 29 48 30 51 31 64 32 82 33
REMARK SMILES IDX 49 34 50 35 63 37 83 38 52 39 37 40 38 41 46 42 39 43 45 44
REMARK SMILES IDX 40 45 41 46 42 47 43 48 44 49 67 50 68 51 76 52 69 53 75 54
REMARK SMILES IDX 70 55 71 56 72 57 73 58 74 59 53 60 54 61 62 62 55 63 61 64
REMARK SMILES IDX 56 65 57 66 58 67 59 68 60 69 8 70 9 71 10 72 11 73 12 74
REMARK SMILES IDX 13 75 27 76 14 77 16 78 15 79 17 80 18 81 19 82 20 83 21 84
REMARK SMILES IDX 22 85 26 86 23 87 25 88 24 89
REMARK H PARENT 81 25 51 36
REMARK Flexibility Score: inf
ROOT
ATOM      1  C   UNL A   1      32.018  29.617  25.888  1.00  0.00     0.202 C 
ENDROOT
BRANCH   1   2
ATOM      2  O   UNL A   1      33.431  29.710  26.069  1.00  0.00    -0.374 OA
BRANCH   2   3
ATOM      3  C   UNL A   1      33.853  29.967  27.402  1.00  0.00     0.202 C 
BRANCH   3   4
ATOM      4  C   UNL A   1      35.257  30.558  27.562  1.00  0.00     0.261 C 
BRANCH   4   5
ATOM      5  O   UNL A   1      36.267  29.532  27.583  1.00  0.00    -0.460 OA
BRANCH   5   6
ATOM      6  C   UNL A   1      37.115  29.299  28.621  1.00  0.00     0.338 C 
ATOM      7  O   UNL A   1      36.693  29.187  29.766  1.00  0.00    -0.246 OA
BRANCH   6   8
ATOM      8  C   UNL A   1      38.569  29.176  28.360  1.00  0.00     0.060 A 
ATOM      9  C   UNL A   1      39.448  28.845  29.386  1.00  0.00     0.016 A 
ATOM     10  C   UNL A   1      39.072  29.338  27.070  1.00  0.00     0.016 A 
ATOM     11  C   UNL A   1      40.811  28.863  29.205  1.00  0.00     0.010 A 
ATOM     12  C   UNL A   1      40.444  29.180  26.842  1.00  0.00     0.010 A 
ATOM     13  C   UNL A   1      41.318  28.946  27.917  1.00  0.00    -0.014 A 
BRANCH  13  14
ATOM     14  C   UNL A   1      42.769  28.739  27.738  1.00  0.00     0.031 A 
ATOM     15  C   UNL A   1      43.709  29.836  28.112  1.00  0.00     0.074 A 
ATOM     16  C   UNL A   1      43.209  27.539  27.301  1.00  0.00     0.049 A 
ATOM     17  N   UNL A   1      44.985  29.938  27.866  1.00  0.00    -0.248 NA
ATOM     18  C   UNL A   1      43.140  30.978  28.849  1.00  0.00     0.031 C 
ATOM     19  C   UNL A   1      42.361  26.370  27.017  1.00  0.00     0.029 A 
ATOM     20  N   UNL A   1      44.474  27.086  27.043  1.00  0.00    -0.354 N 
ATOM     21  C   UNL A   1      45.360  31.181  28.356  1.00  0.00     0.074 A 
ATOM     22  C   UNL A   1      44.180  31.796  28.920  1.00  0.00     0.031 C 
ATOM     23  C   UNL A   1      43.134  25.330  26.678  1.00  0.00     0.029 A 
ATOM     24  C   UNL A   1      44.511  25.785  26.594  1.00  0.00     0.049 A 
ATOM     25  H   UNL A   1      45.280  27.637  27.166  1.00  0.00     0.167 HD
ATOM     26  C   UNL A   1      46.585  31.751  28.312  1.00  0.00     0.031 A 
ATOM     27  C   UNL A   1      45.535  25.063  26.103  1.00  0.00     0.031 A 
ATOM     28  C   UNL A   1      47.733  31.087  27.756  1.00  0.00     0.049 A 
ATOM     29  C   UNL A   1      46.867  25.748  26.000  1.00  0.00     0.074 A 
ATOM     30  C   UNL A   1      49.022  31.563  27.612  1.00  0.00     0.029 A 
ATOM     31  N   UNL A   1      47.725  29.786  27.263  1.00  0.00    -0.354 N 
ATOM     32  N   UNL A   1      47.198  26.960  26.384  1.00  0.00    -0.248 NA
ATOM     33  C   UNL A   1      47.956  24.988  25.381  1.00  0.00     0.031 C 
ATOM     34  C   UNL A   1      49.781  30.568  26.986  1.00  0.00     0.029 A 
ATOM     35  C   UNL A   1      48.982  29.447  26.800  1.00  0.00     0.049 A 
ATOM     36  H   UNL A   1      46.939  29.195  27.246  1.00  0.00     0.167 HD
ATOM     37  C   UNL A   1      48.542  27.101  26.071  1.00  0.00     0.074 A 
ATOM     38  C   UNL A   1      48.965  25.841  25.487  1.00  0.00     0.031 C 
ATOM     39  C   UNL A   1      49.355  28.172  26.240  1.00  0.00     0.031 A 
BRANCH  26  40
ATOM     40  C   UNL A   1      46.712  33.166  28.802  1.00  0.00    -0.014 A 
ATOM     41  C   UNL A   1      47.001  33.461  30.147  1.00  0.00     0.010 A 
ATOM     42  C   UNL A   1      46.538  34.225  27.892  1.00  0.00     0.010 A 
ATOM     43  C   UNL A   1      47.077  34.788  30.578  1.00  0.00     0.020 A 
ATOM     44  C   UNL A   1      46.640  35.553  28.313  1.00  0.00     0.020 A 
ATOM     45  C   UNL A   1      46.895  35.826  29.657  1.00  0.00     0.054 A 
BRANCH  45  46
ATOM     46  S   UNL A   1      47.020  37.539  30.241  1.00  0.00     0.124 S 
ATOM     47  O   UNL A   1      45.679  38.050  29.967  1.00  0.00    -0.237 OA
ATOM     48  O   UNL A   1      47.350  37.372  31.654  1.00  0.00    -0.237 OA
ATOM     49  O   UNL A   1      48.084  38.111  29.420  1.00  0.00    -0.744 OA
ENDBRANCH  45  46
ENDBRANCH  26  40
BRANCH  27  50
ATOM     50  C   UNL A   1      45.321  23.676  25.598  1.00  0.00    -0.014 A 
ATOM     51  C   UNL A   1      44.876  23.445  24.285  1.00  0.00     0.010 A 
ATOM     52  C   UNL A   1      45.554  22.568  26.437  1.00  0.00     0.010 A 
ATOM     53  C   UNL A   1      44.636  22.143  23.834  1.00  0.00     0.020 A 
ATOM     54  C   UNL A   1      45.350  21.263  25.980  1.00  0.00     0.020 A 
ATOM     55  C   UNL A   1      44.871  21.059  24.686  1.00  0.00     0.054 A 
BRANCH  55  56
ATOM     56  S   UNL A   1      44.559  19.378  24.078  1.00  0.00     0.124 S 
ATOM     57  O   UNL A   1      43.313  19.038  24.756  1.00  0.00    -0.237 OA
ATOM     58  O   UNL A   1      44.461  19.577  22.635  1.00  0.00    -0.237 OA
ATOM     59  O   UNL A   1      45.735  18.631  24.518  1.00  0.00    -0.744 OA
ENDBRANCH  55  56
ENDBRANCH  27  50
BRANCH  39  60
ATOM     60  C   UNL A   1      50.791  27.998  25.839  1.00  0.00    -0.014 A 
ATOM     61  C   UNL A   1      51.238  28.352  24.554  1.00  0.00     0.010 A 
ATOM     62  C   UNL A   1      51.714  27.530  26.791  1.00  0.00     0.010 A 
ATOM     63  C   UNL A   1      52.585  28.214  24.221  1.00  0.00     0.020 A 
ATOM     64  C   UNL A   1      53.066  27.424  26.472  1.00  0.00     0.020 A 
ATOM     65  C   UNL A   1      53.491  27.755  25.184  1.00  0.00     0.054 A 
BRANCH  65  66
ATOM     66  S   UNL A   1      55.245  27.645  24.744  1.00  0.00     0.124 S 
ATOM     67  O   UNL A   1      55.389  26.227  24.425  1.00  0.00    -0.237 OA
ATOM     68  O   UNL A   1      55.348  28.559  23.609  1.00  0.00    -0.237 OA
ATOM     69  O   UNL A   1      55.934  28.084  25.956  1.00  0.00    -0.744 OA
ENDBRANCH  65  66
ENDBRANCH  39  60
ENDBRANCH  13  14
ENDBRANCH   6   8
ENDBRANCH   5   6
ENDBRANCH   4   5
ENDBRANCH   3   4
ENDBRANCH   2   3
ENDBRANCH   1   2
BRANCH   1  70
ATOM     70  C   UNL A   1      31.726  28.739  24.677  1.00  0.00     0.261 C 
BRANCH  70  71
ATOM     71  O   UNL A   1      30.627  27.861  24.989  1.00  0.00    -0.463 OA
BRANCH  71  72
ATOM     72  C   UNL A   1      30.959  26.619  25.429  1.00  0.00     0.311 C 
ATOM     73  O   UNL A   1      30.859  26.229  26.586  1.00  0.00    -0.252 OA
BRANCH  72  74
ATOM     74  C   UNL A   1      31.473  25.718  24.324  1.00  0.00     0.128 C 
ATOM     75  C   UNL A   1      30.792  24.359  24.191  1.00  0.00     0.117 C 
ATOM     76  C   UNL A   1      32.960  25.417  24.516  1.00  0.00     0.135 C 
ATOM     77  C   UNL A   1      31.800  23.377  24.714  1.00  0.00     0.223 C 
ATOM     78  N   UNL A   1      33.031  24.003  24.822  1.00  0.00    -0.342 N 
ATOM     79  O   UNL A   1      31.562  22.202  24.961  1.00  0.00    -0.275 OA
BRANCH  78  80
ATOM     80  C   UNL A   1      34.211  23.284  25.297  1.00  0.00     0.119 C 
BRANCH  80  81
ATOM     81  C   UNL A   1      35.538  24.046  25.364  1.00  0.00     0.022 C 
BRANCH  81  82
ATOM     82  C   UNL A   1      36.646  23.465  26.256  1.00  0.00     0.008 C 
BRANCH  82  83
ATOM     83  C   UNL A   1      38.101  23.668  25.814  1.00  0.00     0.056 C 
BRANCH  83  84
ATOM     84  C   UNL A   1      39.172  22.825  26.457  1.00  0.00     0.040 A 
ATOM     85  C   UNL A   1      40.065  23.340  27.391  1.00  0.00     0.024 A 
ATOM     86  N   UNL A   1      39.291  21.564  25.974  1.00  0.00    -0.261 NA
ATOM     87  C   UNL A   1      41.092  22.525  27.865  1.00  0.00     0.003 A 
ATOM     88  C   UNL A   1      40.302  20.796  26.442  1.00  0.00     0.111 A 
ATOM     89  C   UNL A   1      41.218  21.229  27.382  1.00  0.00     0.020 A 
ENDBRANCH  83  84
ENDBRANCH  82  83
ENDBRANCH  81  82
ENDBRANCH  80  81
ENDBRANCH  78  80
ENDBRANCH  72  74
ENDBRANCH  71  72
ENDBRANCH  70  71
ENDBRANCH   1  70
TORSDOF 22
ENDMDL
MODEL 3
REMARK VINA RESULT:      -9.3      5.022     10.207
REMARK SMILES O=C(OCCOCCOC(=O)[C@@H]1CC(=O)N(CCCCc2ccccn2)C1)c1ccc(-c2c3nc(c(-c4ccc(S(=O)(=O)[O-])cc4)c4ccc([nH]4)c(-c4ccc(S(=O)(=O)[O-])cc4)c4nc(c(-c5ccc(S(=O)(=O)[O-])cc5)c5ccc2[nH]5)C=C4)C=C3)cc1
REMARK SMILES IDX 7 1 6 2 5 3 4 4 3 5 2 6 1 7 28 8 29 9 87 10 30 11 86 12
REMARK SMILES IDX 31 13 32 14 33 15 80 16 34 17 85 18 79 19 81 20 35 21 84 22
REMARK SMILES IDX 78 23 77 24 36 26 66 27 47 28 65 29 48 30 51 31 64 32 82 33
REMARK SMILES IDX 49 34 50 35 63 37 83 38 52 39 37 40 38 41 46 42 39 43 45 44
REMARK SMILES IDX 40 45 41 46 42 47 43 48 44 49 67 50 68 51 76 52 69 53 75 54
REMARK SMILES IDX 70 55 71 56 72 57 73 58 74 59 53 60 54 61 62 62 55 63 61 64
REMARK SMILES IDX 56 65 57 66 58 67 59 68 60 69 8 70 9 71 10 72 11 73 12 74
REMARK SMILES IDX 13 75 27 76 14 77 16 78 15 79 17 80 18 81 19 82 20 83 21 84
REMARK SMILES IDX 22 85 26 86 23 87 25 88 24 89
REMARK H PARENT 81 25 51 36
REMARK Flexibility Score: inf
ROOT
ATOM      1  C   UNL A   1      34.512  22.159  27.131  1.00  0.00     0.202 C 
ENDROOT
BRANCH   1   2
ATOM      2  O   UNL A   1      34.511  21.679  25.787  1.00  0.00    -0.374 OA
BRANCH   2   3
ATOM      3  C   UNL A   1      35.763  21.200  25.316  1.00  0.00     0.202 C 
BRANCH   3   4
ATOM      4  C   UNL A   1      36.761  22.266  24.853  1.00  0.00     0.261 C 
BRANCH   4   5
ATOM      5  O   UNL A   1      37.474  22.846  25.963  1.00  0.00    -0.460 OA
BRANCH   5   6
ATOM      6  C   UNL A   1      38.795  22.655  26.221  1.00  0.00     0.338 C 
ATOM      7  O   UNL A   1      39.322  21.564  26.034  1.00  0.00    -0.246 OA
BRANCH   6   8
ATOM      8  C   UNL A   1      39.608  23.784  26.731  1.00  0.00     0.060 A 
ATOM      9  C   UNL A   1      39.563  25.028  26.111  1.00  0.00     0.016 A 
ATOM     10  C   UNL A   1      40.392  23.631  27.874  1.00  0.00     0.016 A 
ATOM     11  C   UNL A   1      40.410  26.049  26.474  1.00  0.00     0.010 A 
ATOM     12  C   UNL A   1      41.123  24.722  28.358  1.00  0.00     0.010 A 
ATOM     13  C   UNL A   1      41.135  25.936  27.651  1.00  0.00    -0.014 A 
BRANCH  13  14
ATOM     14  C   UNL A   1      41.859  27.132  28.126  1.00  0.00     0.031 A 
ATOM     15  C   UNL A   1      41.087  28.240  28.763  1.00  0.00     0.074 A 
ATOM     16  C   UNL A   1      43.205  27.163  28.029  1.00  0.00     0.049 A 
ATOM     17  N   UNL A   1      41.488  29.440  29.075  1.00  0.00    -0.248 NA
ATOM     18  C   UNL A   1      39.674  27.971  29.080  1.00  0.00     0.031 C 
ATOM     19  C   UNL A   1      44.050  26.072  27.519  1.00  0.00     0.029 A 
ATOM     20  N   UNL A   1      44.109  28.130  28.377  1.00  0.00    -0.354 N 
ATOM     21  C   UNL A   1      40.364  30.092  29.562  1.00  0.00     0.074 A 
ATOM     22  C   UNL A   1      39.266  29.155  29.512  1.00  0.00     0.031 C 
ATOM     23  C   UNL A   1      45.340  26.412  27.638  1.00  0.00     0.029 A 
ATOM     24  C   UNL A   1      45.414  27.785  28.107  1.00  0.00     0.049 A 
ATOM     25  H   UNL A   1      43.851  28.990  28.781  1.00  0.00     0.167 HD
ATOM     26  C   UNL A   1      40.273  31.371  29.992  1.00  0.00     0.031 A 
ATOM     27  C   UNL A   1      46.539  28.522  28.167  1.00  0.00     0.031 A 
ATOM     28  C   UNL A   1      41.403  32.259  30.041  1.00  0.00     0.049 A 
ATOM     29  C   UNL A   1      46.394  29.959  28.578  1.00  0.00     0.074 A 
ATOM     30  C   UNL A   1      41.443  33.588  30.417  1.00  0.00     0.029 A 
ATOM     31  N   UNL A   1      42.704  31.892  29.712  1.00  0.00    -0.354 N 
ATOM     32  N   UNL A   1      45.310  30.599  28.955  1.00  0.00    -0.248 NA
ATOM     33  C   UNL A   1      47.607  30.780  28.554  1.00  0.00     0.031 C 
ATOM     34  C   UNL A   1      42.759  34.037  30.267  1.00  0.00     0.029 A 
ATOM     35  C   UNL A   1      43.552  32.972  29.862  1.00  0.00     0.049 A 
ATOM     36  H   UNL A   1      42.979  30.995  29.417  1.00  0.00     0.167 HD
ATOM     37  C   UNL A   1      45.715  31.896  29.232  1.00  0.00     0.074 A 
ATOM     38  C   UNL A   1      47.147  31.940  29.001  1.00  0.00     0.031 C 
ATOM     39  C   UNL A   1      44.976  32.959  29.633  1.00  0.00     0.031 A 
BRANCH  26  40
ATOM     40  C   UNL A   1      38.909  31.886  30.359  1.00  0.00    -0.014 A 
ATOM     41  C   UNL A   1      38.217  32.800  29.543  1.00  0.00     0.010 A 
ATOM     42  C   UNL A   1      38.307  31.443  31.551  1.00  0.00     0.010 A 
ATOM     43  C   UNL A   1      36.966  33.287  29.931  1.00  0.00     0.020 A 
ATOM     44  C   UNL A   1      37.045  31.906  31.930  1.00  0.00     0.020 A 
ATOM     45  C   UNL A   1      36.389  32.837  31.124  1.00  0.00     0.054 A 
BRANCH  45  46
ATOM     46  S   UNL A   1      34.755  33.470  31.591  1.00  0.00     0.124 S 
ATOM     47  O   UNL A   1      34.259  32.410  32.467  1.00  0.00    -0.237 OA
ATOM     48  O   UNL A   1      35.078  34.730  32.255  1.00  0.00    -0.237 OA
ATOM     49  O   UNL A   1      34.054  33.603  30.317  1.00  0.00    -0.744 OA
ENDBRANCH  45  46
ENDBRANCH  26  40
BRANCH  27  50
ATOM     50  C   UNL A   1      47.851  27.951  27.748  1.00  0.00    -0.014 A 
ATOM     51  C   UNL A   1      48.765  27.466  28.699  1.00  0.00     0.010 A 
ATOM     52  C   UNL A   1      48.202  27.897  26.384  1.00  0.00     0.010 A 
ATOM     53  C   UNL A   1      50.013  26.974  28.301  1.00  0.00     0.020 A 
ATOM     54  C   UNL A   1      49.433  27.372  25.978  1.00  0.00     0.020 A 
ATOM     55  C   UNL A   1      50.340  26.932  26.941  1.00  0.00     0.054 A 
BRANCH  55  56
ATOM     56  S   UNL A   1      51.960  26.283  26.446  1.00  0.00     0.124 S 
ATOM     57  O   UNL A   1      52.860  27.001  27.343  1.00  0.00    -0.237 OA
ATOM     58  O   UNL A   1      51.819  24.852  26.701  1.00  0.00    -0.237 OA
ATOM     59  O   UNL A   1      52.060  26.651  25.036  1.00  0.00    -0.744 OA
ENDBRANCH  55  56
ENDBRANCH  27  50
BRANCH  39  60
ATOM     60  C   UNL A   1      45.720  34.235  29.899  1.00  0.00    -0.014 A 
ATOM     61  C   UNL A   1      46.127  34.585  31.198  1.00  0.00     0.010 A 
ATOM     62  C   UNL A   1      46.070  35.061  28.816  1.00  0.00     0.010 A 
ATOM     63  C   UNL A   1      46.851  35.758  31.411  1.00  0.00     0.020 A 
ATOM     64  C   UNL A   1      46.821  36.216  29.021  1.00  0.00     0.020 A 
ATOM     65  C   UNL A   1      47.197  36.564  30.321  1.00  0.00     0.054 A 
BRANCH  65  66
ATOM     66  S   UNL A   1      48.189  38.049  30.617  1.00  0.00     0.124 S 
ATOM     67  O   UNL A   1      47.960  38.817  29.396  1.00  0.00    -0.237 OA
ATOM     68  O   UNL A   1      47.586  38.600  31.829  1.00  0.00    -0.237 OA
ATOM     69  O   UNL A   1      49.546  37.532  30.783  1.00  0.00    -0.744 OA
ENDBRANCH  65  66
ENDBRANCH  39  60
ENDBRANCH  13  14
ENDBRANCH   6   8
ENDBRANCH   5   6
ENDBRANCH   4   5
ENDBRANCH   3   4
ENDBRANCH   2   3
ENDBRANCH   1   2
BRANCH   1  70
ATOM     70  C   UNL A   1      33.073  22.311  27.610  1.00  0.00     0.261 C 
BRANCH  70  71
ATOM     71  O   UNL A   1      32.189  22.185  26.479  1.00  0.00    -0.463 OA
BRANCH  71  72
ATOM     72  C   UNL A   1      31.253  23.161  26.339  1.00  0.00     0.311 C 
ATOM     73  O   UNL A   1      30.718  23.765  27.261  1.00  0.00    -0.252 OA
BRANCH  72  74
ATOM     74  C   UNL A   1      30.921  23.459  24.891  1.00  0.00     0.128 C 
ATOM     75  C   UNL A   1      31.864  22.867  23.847  1.00  0.00     0.117 C 
ATOM     76  C   UNL A   1      30.914  24.966  24.633  1.00  0.00     0.135 C 
ATOM     77  C   UNL A   1      32.650  24.040  23.338  1.00  0.00     0.223 C 
ATOM     78  N   UNL A   1      32.039  25.212  23.754  1.00  0.00    -0.342 N 
ATOM     79  O   UNL A   1      33.647  23.956  22.633  1.00  0.00    -0.275 OA
BRANCH  78  80
ATOM     80  C   UNL A   1      32.580  26.521  23.395  1.00  0.00     0.119 C 
BRANCH  80  81
ATOM     81  C   UNL A   1      33.784  27.042  24.185  1.00  0.00     0.022 C 
BRANCH  81  82
ATOM     82  C   UNL A   1      33.803  26.787  25.699  1.00  0.00     0.008 C 
BRANCH  82  83
ATOM     83  C   UNL A   1      33.105  27.809  26.607  1.00  0.00     0.056 C 
BRANCH  83  84
ATOM     84  C   UNL A   1      33.852  29.062  26.986  1.00  0.00     0.040 A 
ATOM     85  C   UNL A   1      35.210  29.059  27.284  1.00  0.00     0.024 A 
ATOM     86  N   UNL A   1      33.089  30.171  27.142  1.00  0.00    -0.261 NA
ATOM     87  C   UNL A   1      35.809  30.238  27.726  1.00  0.00     0.003 A 
ATOM     88  C   UNL A   1      33.690  31.301  27.582  1.00  0.00     0.111 A 
ATOM     89  C   UNL A   1      35.036  31.382  27.882  1.00  0.00     0.020 A 
ENDBRANCH  83  84
ENDBRANCH  82  83
ENDBRANCH  81  82
ENDBRANCH  80  81
ENDBRANCH  78  80
ENDBRANCH  72  74
ENDBRANCH  71  72
ENDBRANCH  70  71
ENDBRANCH   1  70
TORSDOF 22
ENDMDL
