MODEL 1
REMARK VINA RESULT:     -11.3      0.000      0.000
REMARK SMILES Cc1nccn1C1(C(=O)OCCOCCOC(=O)c2ccc(-c3c4nc(c(-c5ccc(S(=O)(=O)[O-])cc5)c5ccc([nH]5)c(-c5ccc(S(=O)(=O)[O-])cc5)c5nc(c(-c6ccc(S(=O)(=O)[O-])cc6)c6ccc3[nH]6)C=C5)C=C4)cc2)CCN(C(=O)[C@@H]2C[C@H]2c2ccccc2)CC1
REMARK SMILES IDX 14 1 13 2 12 3 11 4 10 5 8 6 9 7 7 8 79 9 94 10 80 11 93 12
REMARK SMILES IDX 81 13 82 14 83 15 6 16 1 17 2 18 3 19 4 20 5 21 84 22 85 23
REMARK SMILES IDX 86 24 87 25 88 26 92 27 89 28 91 29 90 30 15 31 16 32 17 33
REMARK SMILES IDX 18 34 19 35 20 36 78 37 21 38 77 39 22 40 23 41 24 42 71 43
REMARK SMILES IDX 25 44 76 45 70 46 72 47 26 48 75 49 69 50 68 51 27 53 57 54
REMARK SMILES IDX 38 55 56 56 39 57 42 58 55 59 73 60 40 61 41 62 54 64 74 65
REMARK SMILES IDX 43 66 28 67 29 68 37 69 30 70 36 71 31 72 32 73 33 74 34 75
REMARK SMILES IDX 35 76 58 77 59 78 67 79 60 80 66 81 61 82 62 83 63 84 64 85
REMARK SMILES IDX 65 86 44 87 45 88 53 89 46 90 52 91 47 92 48 93 49 94 50 95
REMARK SMILES IDX 51 96
REMARK H PARENT 72 52 42 63
REMARK Flexibility Score: inf
ROOT
ATOM      1  C   UNL A   1      37.649  21.021  24.973  1.00  0.00     0.202 C 
ENDROOT
BRANCH   1   2
ATOM      2  O   UNL A   1      36.300  20.603  25.168  1.00  0.00    -0.374 OA
BRANCH   2   3
ATOM      3  C   UNL A   1      35.421  21.437  25.933  1.00  0.00     0.202 C 
BRANCH   3   4
ATOM      4  C   UNL A   1      34.510  22.345  25.112  1.00  0.00     0.261 C 
BRANCH   4   5
ATOM      5  O   UNL A   1      34.294  23.543  25.877  1.00  0.00    -0.461 OA
BRANCH   5   6
ATOM      6  C   UNL A   1      33.018  23.993  25.988  1.00  0.00     0.332 C 
ATOM      7  O   UNL A   1      32.145  23.388  26.604  1.00  0.00    -0.249 OA
BRANCH   6   8
ATOM      8  C   UNL A   1      32.806  25.378  25.271  1.00  0.00     0.146 C 
ATOM      9  C   UNL A   1      31.623  26.122  25.963  1.00  0.00     0.062 C 
ATOM     10  C   UNL A   1      34.133  26.057  25.607  1.00  0.00     0.062 C 
ATOM     11  C   UNL A   1      31.685  27.636  26.104  1.00  0.00     0.122 C 
ATOM     12  C   UNL A   1      34.092  27.549  25.524  1.00  0.00     0.122 C 
ATOM     13  N   UNL A   1      33.021  28.174  26.270  1.00  0.00    -0.342 N 
ATOM     14  C   UNL A   1      33.123  29.444  26.859  1.00  0.00     0.226 C 
ATOM     15  O   UNL A   1      32.158  30.025  27.342  1.00  0.00    -0.275 OA
BRANCH   8  16
ATOM     16  N   UNL A   1      32.679  25.173  23.793  1.00  0.00    -0.318 N 
ATOM     17  C   UNL A   1      30.440  23.889  23.355  1.00  0.00     0.087 C 
ATOM     18  C   UNL A   1      31.645  24.676  22.994  1.00  0.00     0.106 A 
ATOM     19  N   UNL A   1      31.847  24.969  21.721  1.00  0.00    -0.242 NA
ATOM     20  C   UNL A   1      33.060  25.553  21.638  1.00  0.00     0.131 A 
ATOM     21  C   UNL A   1      33.616  25.644  22.881  1.00  0.00     0.108 A 
ENDBRANCH   8  16
BRANCH  14  22
ATOM     22  C   UNL A   1      34.460  30.083  26.999  1.00  0.00     0.087 C 
ATOM     23  C   UNL A   1      35.643  29.354  27.585  1.00  0.00     0.023 C 
ATOM     24  C   UNL A   1      35.053  30.499  28.340  1.00  0.00     0.032 C 
BRANCH  24  25
ATOM     25  C   UNL A   1      35.589  31.917  28.438  1.00  0.00    -0.044 A 
ATOM     26  C   UNL A   1      36.965  32.166  28.378  1.00  0.00     0.004 A 
ATOM     27  C   UNL A   1      34.758  33.007  28.782  1.00  0.00     0.004 A 
ATOM     28  C   UNL A   1      37.489  33.426  28.691  1.00  0.00     0.000 A 
ATOM     29  C   UNL A   1      35.274  34.262  29.111  1.00  0.00     0.000 A 
ATOM     30  C   UNL A   1      36.646  34.467  29.073  1.00  0.00     0.000 A 
ENDBRANCH  24  25
ENDBRANCH  14  22
ENDBRANCH   6   8
ENDBRANCH   5   6
ENDBRANCH   4   5
ENDBRANCH   3   4
ENDBRANCH   2   3
ENDBRANCH   1   2
BRANCH   1  31
ATOM     31  C   UNL A   1      38.105  22.292  25.671  1.00  0.00     0.261 C 
BRANCH  31  32
ATOM     32  O   UNL A   1      39.137  22.013  26.607  1.00  0.00    -0.460 OA
BRANCH  32  33
ATOM     33  C   UNL A   1      40.244  22.781  26.456  1.00  0.00     0.338 C 
ATOM     34  O   UNL A   1      41.362  22.410  26.183  1.00  0.00    -0.246 OA
BRANCH  33  35
ATOM     35  C   UNL A   1      39.887  24.154  26.834  1.00  0.00     0.060 A 
ATOM     36  C   UNL A   1      40.576  25.155  26.153  1.00  0.00     0.016 A 
ATOM     37  C   UNL A   1      39.159  24.411  28.008  1.00  0.00     0.016 A 
ATOM     38  C   UNL A   1      40.755  26.356  26.791  1.00  0.00     0.010 A 
ATOM     39  C   UNL A   1      39.341  25.613  28.647  1.00  0.00     0.010 A 
ATOM     40  C   UNL A   1      40.220  26.524  28.075  1.00  0.00    -0.014 A 
BRANCH  40  41
ATOM     41  C   UNL A   1      40.556  27.743  28.769  1.00  0.00     0.031 A 
ATOM     42  C   UNL A   1      41.749  28.397  28.204  1.00  0.00     0.074 A 
ATOM     43  C   UNL A   1      39.836  28.232  29.794  1.00  0.00     0.049 A 
ATOM     44  N   UNL A   1      42.937  28.407  28.704  1.00  0.00    -0.248 NA
ATOM     45  C   UNL A   1      41.660  28.898  26.823  1.00  0.00     0.031 C 
ATOM     46  C   UNL A   1      38.513  27.829  30.272  1.00  0.00     0.029 A 
ATOM     47  N   UNL A   1      40.129  29.297  30.579  1.00  0.00    -0.354 N 
ATOM     48  C   UNL A   1      43.707  29.122  27.799  1.00  0.00     0.074 A 
ATOM     49  C   UNL A   1      42.934  29.207  26.585  1.00  0.00     0.031 C 
ATOM     50  C   UNL A   1      38.024  28.798  31.083  1.00  0.00     0.029 A 
ATOM     51  C   UNL A   1      39.051  29.807  31.287  1.00  0.00     0.049 A 
ATOM     52  H   UNL A   1      41.034  29.678  30.642  1.00  0.00     0.167 HD
ATOM     53  C   UNL A   1      44.800  29.824  28.202  1.00  0.00     0.031 A 
ATOM     54  C   UNL A   1      39.006  31.015  31.909  1.00  0.00     0.031 A 
ATOM     55  C   UNL A   1      45.243  29.425  29.512  1.00  0.00     0.049 A 
ATOM     56  C   UNL A   1      40.415  31.438  32.136  1.00  0.00     0.074 A 
ATOM     57  C   UNL A   1      45.664  28.229  30.060  1.00  0.00     0.029 A 
ATOM     58  N   UNL A   1      44.873  30.219  30.575  1.00  0.00    -0.354 N 
ATOM     59  N   UNL A   1      41.225  30.810  32.945  1.00  0.00    -0.248 NA
ATOM     60  C   UNL A   1      41.067  32.231  31.102  1.00  0.00     0.031 C 
ATOM     61  C   UNL A   1      45.066  28.187  31.354  1.00  0.00     0.029 A 
ATOM     62  C   UNL A   1      44.388  29.392  31.557  1.00  0.00     0.049 A 
ATOM     63  H   UNL A   1      44.945  31.201  30.622  1.00  0.00     0.167 HD
ATOM     64  C   UNL A   1      42.442  30.767  32.276  1.00  0.00     0.074 A 
ATOM     65  C   UNL A   1      42.305  31.728  31.181  1.00  0.00     0.031 C 
ATOM     66  C   UNL A   1      43.339  29.758  32.488  1.00  0.00     0.031 A 
BRANCH  53  67
ATOM     67  C   UNL A   1      45.185  31.132  27.570  1.00  0.00    -0.014 A 
ATOM     68  C   UNL A   1      46.412  31.234  26.892  1.00  0.00     0.010 A 
ATOM     69  C   UNL A   1      44.495  32.335  27.839  1.00  0.00     0.010 A 
ATOM     70  C   UNL A   1      46.936  32.483  26.538  1.00  0.00     0.020 A 
ATOM     71  C   UNL A   1      44.984  33.578  27.450  1.00  0.00     0.020 A 
ATOM     72  C   UNL A   1      46.219  33.647  26.825  1.00  0.00     0.054 A 
BRANCH  72  73
ATOM     73  S   UNL A   1      46.936  35.258  26.429  1.00  0.00     0.124 S 
ATOM     74  O   UNL A   1      45.744  36.063  26.181  1.00  0.00    -0.237 OA
ATOM     75  O   UNL A   1      47.675  35.574  27.648  1.00  0.00    -0.237 OA
ATOM     76  O   UNL A   1      47.765  34.985  25.257  1.00  0.00    -0.744 OA
ENDBRANCH  72  73
ENDBRANCH  53  67
BRANCH  54  77
ATOM     77  C   UNL A   1      37.858  31.963  31.939  1.00  0.00    -0.014 A 
ATOM     78  C   UNL A   1      36.526  31.506  31.919  1.00  0.00     0.010 A 
ATOM     79  C   UNL A   1      38.074  33.318  32.266  1.00  0.00     0.010 A 
ATOM     80  C   UNL A   1      35.460  32.358  32.269  1.00  0.00     0.020 A 
ATOM     81  C   UNL A   1      37.019  34.173  32.610  1.00  0.00     0.020 A 
ATOM     82  C   UNL A   1      35.717  33.683  32.633  1.00  0.00     0.054 A 
BRANCH  82  83
ATOM     83  S   UNL A   1      34.365  34.729  33.254  1.00  0.00     0.124 S 
ATOM     84  O   UNL A   1      34.807  35.038  34.611  1.00  0.00    -0.237 OA
ATOM     85  O   UNL A   1      34.372  35.847  32.315  1.00  0.00    -0.237 OA
ATOM     86  O   UNL A   1      33.191  33.860  33.169  1.00  0.00    -0.744 OA
ENDBRANCH  82  83
ENDBRANCH  54  77
BRANCH  66  87
ATOM     87  C   UNL A   1      43.112  28.809  33.646  1.00  0.00    -0.014 A 
ATOM     88  C   UNL A   1      43.711  28.954  34.916  1.00  0.00     0.010 A 
ATOM     89  C   UNL A   1      42.123  27.823  33.488  1.00  0.00     0.010 A 
ATOM     90  C   UNL A   1      43.346  28.115  35.982  1.00  0.00     0.020 A 
ATOM     91  C   UNL A   1      41.742  26.998  34.548  1.00  0.00     0.020 A 
ATOM     92  C   UNL A   1      42.364  27.139  35.789  1.00  0.00     0.054 A 
BRANCH  92  93
ATOM     93  S   UNL A   1      41.867  26.075  37.175  1.00  0.00     0.124 S 
ATOM     94  O   UNL A   1      42.934  26.301  38.146  1.00  0.00    -0.237 OA
ATOM     95  O   UNL A   1      40.558  26.610  37.542  1.00  0.00    -0.237 OA
ATOM     96  O   UNL A   1      41.837  24.735  36.591  1.00  0.00    -0.744 OA
ENDBRANCH  92  93
ENDBRANCH  66  87
ENDBRANCH  40  41
ENDBRANCH  33  35
ENDBRANCH  32  33
ENDBRANCH  31  32
ENDBRANCH   1  31
TORSDOF 20
ENDMDL
MODEL 2
REMARK VINA RESULT:     -10.7      2.817     10.029
REMARK SMILES Cc1nccn1C1(C(=O)OCCOCCOC(=O)c2ccc(-c3c4nc(c(-c5ccc(S(=O)(=O)[O-])cc5)c5ccc([nH]5)c(-c5ccc(S(=O)(=O)[O-])cc5)c5nc(c(-c6ccc(S(=O)(=O)[O-])cc6)c6ccc3[nH]6)C=C5)C=C4)cc2)CCN(C(=O)[C@@H]2C[C@H]2c2ccccc2)CC1
REMARK SMILES IDX 14 1 13 2 12 3 11 4 10 5 8 6 9 7 7 8 79 9 94 10 80 11 93 12
REMARK SMILES IDX 81 13 82 14 83 15 6 16 1 17 2 18 3 19 4 20 5 21 84 22 85 23
REMARK SMILES IDX 86 24 87 25 88 26 92 27 89 28 91 29 90 30 15 31 16 32 17 33
REMARK SMILES IDX 18 34 19 35 20 36 78 37 21 38 77 39 22 40 23 41 24 42 71 43
REMARK SMILES IDX 25 44 76 45 70 46 72 47 26 48 75 49 69 50 68 51 27 53 57 54
REMARK SMILES IDX 38 55 56 56 39 57 42 58 55 59 73 60 40 61 41 62 54 64 74 65
REMARK SMILES IDX 43 66 28 67 29 68 37 69 30 70 36 71 31 72 32 73 33 74 34 75
REMARK SMILES IDX 35 76 58 77 59 78 67 79 60 80 66 81 61 82 62 83 63 84 64 85
REMARK SMILES IDX 65 86 44 87 45 88 53 89 46 90 52 91 47 92 48 93 49 94 50 95
REMARK SMILES IDX 51 96
REMARK H PARENT 72 52 42 63
REMARK Flexibility Score: inf
ROOT
ATOM      1  C   UNL A   1      34.604  29.311  26.603  1.00  0.00     0.202 C 
ENDROOT
BRANCH   1   2
ATOM      2  O   UNL A   1      33.395  30.012  26.322  1.00  0.00    -0.374 OA
BRANCH   2   3
ATOM      3  C   UNL A   1      32.282  29.855  27.210  1.00  0.00     0.202 C 
BRANCH   3   4
ATOM      4  C   UNL A   1      31.826  28.416  27.432  1.00  0.00     0.261 C 
BRANCH   4   5
ATOM      5  O   UNL A   1      31.186  27.976  26.222  1.00  0.00    -0.461 OA
BRANCH   5   6
ATOM      6  C   UNL A   1      31.129  26.640  25.994  1.00  0.00     0.332 C 
ATOM      7  O   UNL A   1      30.240  25.921  26.441  1.00  0.00    -0.249 OA
BRANCH   6   8
ATOM      8  C   UNL A   1      32.303  26.137  25.074  1.00  0.00     0.146 C 
ATOM      9  C   UNL A   1      33.540  25.823  25.970  1.00  0.00     0.062 C 
ATOM     10  C   UNL A   1      31.688  24.844  24.542  1.00  0.00     0.062 C 
ATOM     11  C   UNL A   1      34.439  24.651  25.604  1.00  0.00     0.122 C 
ATOM     12  C   UNL A   1      32.690  23.854  24.041  1.00  0.00     0.122 C 
ATOM     13  N   UNL A   1      33.757  23.542  24.966  1.00  0.00    -0.342 N 
ATOM     14  C   UNL A   1      34.390  22.291  25.029  1.00  0.00     0.226 C 
ATOM     15  O   UNL A   1      35.397  22.094  25.700  1.00  0.00    -0.275 OA
BRANCH   8  16
ATOM     16  N   UNL A   1      32.530  27.111  23.959  1.00  0.00    -0.318 N 
ATOM     17  C   UNL A   1      30.217  27.580  22.827  1.00  0.00     0.087 C 
ATOM     18  C   UNL A   1      31.654  27.804  23.118  1.00  0.00     0.106 A 
ATOM     19  N   UNL A   1      32.276  28.790  22.496  1.00  0.00    -0.242 NA
ATOM     20  C   UNL A   1      33.583  28.696  22.815  1.00  0.00     0.131 A 
ATOM     21  C   UNL A   1      33.778  27.648  23.666  1.00  0.00     0.108 A 
ENDBRANCH   8  16
BRANCH  14  22
ATOM     22  C   UNL A   1      33.777  21.122  24.339  1.00  0.00     0.087 C 
ATOM     23  C   UNL A   1      32.320  21.093  23.947  1.00  0.00     0.023 C 
ATOM     24  C   UNL A   1      32.800  20.168  25.017  1.00  0.00     0.032 C 
BRANCH  24  25
ATOM     25  C   UNL A   1      33.098  18.684  24.891  1.00  0.00    -0.044 A 
ATOM     26  C   UNL A   1      33.641  18.162  23.712  1.00  0.00     0.004 A 
ATOM     27  C   UNL A   1      32.673  17.752  25.866  1.00  0.00     0.004 A 
ATOM     28  C   UNL A   1      33.710  16.781  23.494  1.00  0.00     0.000 A 
ATOM     29  C   UNL A   1      32.725  16.374  25.650  1.00  0.00     0.000 A 
ATOM     30  C   UNL A   1      33.238  15.889  24.454  1.00  0.00     0.000 A 
ENDBRANCH  24  25
ENDBRANCH  14  22
ENDBRANCH   6   8
ENDBRANCH   5   6
ENDBRANCH   4   5
ENDBRANCH   3   4
ENDBRANCH   2   3
ENDBRANCH   1   2
BRANCH   1  31
ATOM     31  C   UNL A   1      35.295  29.594  27.927  1.00  0.00     0.261 C 
BRANCH  31  32
ATOM     32  O   UNL A   1      35.542  30.985  28.082  1.00  0.00    -0.460 OA
BRANCH  32  33
ATOM     33  C   UNL A   1      35.515  31.411  29.368  1.00  0.00     0.338 C 
ATOM     34  O   UNL A   1      34.716  32.163  29.875  1.00  0.00    -0.246 OA
BRANCH  33  35
ATOM     35  C   UNL A   1      36.732  30.919  30.026  1.00  0.00     0.060 A 
ATOM     36  C   UNL A   1      37.844  31.751  29.918  1.00  0.00     0.016 A 
ATOM     37  C   UNL A   1      36.837  29.579  30.437  1.00  0.00     0.016 A 
ATOM     38  C   UNL A   1      39.086  31.169  29.962  1.00  0.00     0.010 A 
ATOM     39  C   UNL A   1      38.080  28.997  30.479  1.00  0.00     0.010 A 
ATOM     40  C   UNL A   1      39.174  29.782  30.138  1.00  0.00    -0.014 A 
BRANCH  40  41
ATOM     41  C   UNL A   1      40.486  29.191  30.031  1.00  0.00     0.031 A 
ATOM     42  C   UNL A   1      41.152  29.072  31.341  1.00  0.00     0.074 A 
ATOM     43  C   UNL A   1      41.017  28.773  28.869  1.00  0.00     0.049 A 
ATOM     44  N   UNL A   1      42.101  29.814  31.797  1.00  0.00    -0.248 NA
ATOM     45  C   UNL A   1      40.542  28.176  32.335  1.00  0.00     0.031 C 
ATOM     46  C   UNL A   1      40.371  28.597  27.567  1.00  0.00     0.029 A 
ATOM     47  N   UNL A   1      42.272  28.315  28.648  1.00  0.00    -0.354 N 
ATOM     48  C   UNL A   1      42.367  29.327  33.067  1.00  0.00     0.074 A 
ATOM     49  C   UNL A   1      41.253  28.482  33.420  1.00  0.00     0.031 C 
ATOM     50  C   UNL A   1      41.170  27.837  26.780  1.00  0.00     0.029 A 
ATOM     51  C   UNL A   1      42.428  27.599  27.471  1.00  0.00     0.049 A 
ATOM     52  H   UNL A   1      43.015  28.476  29.274  1.00  0.00     0.167 HD
ATOM     53  C   UNL A   1      43.605  29.433  33.620  1.00  0.00     0.031 A 
ATOM     54  C   UNL A   1      43.485  26.805  27.154  1.00  0.00     0.031 A 
ATOM     55  C   UNL A   1      44.420  30.399  32.931  1.00  0.00     0.049 A 
ATOM     56  C   UNL A   1      44.622  27.236  28.012  1.00  0.00     0.074 A 
ATOM     57  C   UNL A   1      44.293  31.750  32.668  1.00  0.00     0.029 A 
ATOM     58  N   UNL A   1      45.337  29.920  32.022  1.00  0.00    -0.354 N 
ATOM     59  N   UNL A   1      45.192  28.406  27.904  1.00  0.00    -0.248 NA
ATOM     60  C   UNL A   1      44.790  26.585  29.305  1.00  0.00     0.031 C 
ATOM     61  C   UNL A   1      44.749  31.907  31.327  1.00  0.00     0.029 A 
ATOM     62  C   UNL A   1      45.207  30.666  30.876  1.00  0.00     0.049 A 
ATOM     63  H   UNL A   1      45.971  29.180  32.167  1.00  0.00     0.167 HD
ATOM     64  C   UNL A   1      45.404  28.827  29.210  1.00  0.00     0.074 A 
ATOM     65  C   UNL A   1      45.209  27.629  30.029  1.00  0.00     0.031 C 
ATOM     66  C   UNL A   1      45.432  30.153  29.539  1.00  0.00     0.031 A 
BRANCH  53  67
ATOM     67  C   UNL A   1      44.175  28.365  34.510  1.00  0.00    -0.014 A 
ATOM     68  C   UNL A   1      44.535  27.125  33.954  1.00  0.00     0.010 A 
ATOM     69  C   UNL A   1      44.132  28.452  35.919  1.00  0.00     0.010 A 
ATOM     70  C   UNL A   1      44.799  26.019  34.772  1.00  0.00     0.020 A 
ATOM     71  C   UNL A   1      44.439  27.372  36.742  1.00  0.00     0.020 A 
ATOM     72  C   UNL A   1      44.744  26.151  36.161  1.00  0.00     0.054 A 
BRANCH  72  73
ATOM     73  S   UNL A   1      45.015  24.703  37.207  1.00  0.00     0.124 S 
ATOM     74  O   UNL A   1      44.445  23.634  36.392  1.00  0.00    -0.237 OA
ATOM     75  O   UNL A   1      46.469  24.691  37.344  1.00  0.00    -0.237 OA
ATOM     76  O   UNL A   1      44.282  25.021  38.430  1.00  0.00    -0.744 OA
ENDBRANCH  72  73
ENDBRANCH  53  67
BRANCH  54  77
ATOM     77  C   UNL A   1      43.436  25.482  26.473  1.00  0.00    -0.014 A 
ATOM     78  C   UNL A   1      44.020  25.286  25.206  1.00  0.00     0.010 A 
ATOM     79  C   UNL A   1      43.052  24.333  27.195  1.00  0.00     0.010 A 
ATOM     80  C   UNL A   1      44.261  23.989  24.710  1.00  0.00     0.020 A 
ATOM     81  C   UNL A   1      43.283  23.041  26.706  1.00  0.00     0.020 A 
ATOM     82  C   UNL A   1      43.909  22.873  25.475  1.00  0.00     0.054 A 
BRANCH  82  83
ATOM     83  S   UNL A   1      44.379  21.208  24.915  1.00  0.00     0.124 S 
ATOM     84  O   UNL A   1      45.614  20.967  25.655  1.00  0.00    -0.237 OA
ATOM     85  O   UNL A   1      43.231  20.401  25.319  1.00  0.00    -0.237 OA
ATOM     86  O   UNL A   1      44.544  21.364  23.471  1.00  0.00    -0.744 OA
ENDBRANCH  82  83
ENDBRANCH  54  77
BRANCH  66  87
ATOM     87  C   UNL A   1      45.479  31.180  28.428  1.00  0.00    -0.014 A 
ATOM     88  C   UNL A   1      44.336  31.770  27.848  1.00  0.00     0.010 A 
ATOM     89  C   UNL A   1      46.741  31.687  28.071  1.00  0.00     0.010 A 
ATOM     90  C   UNL A   1      44.461  32.816  26.918  1.00  0.00     0.020 A 
ATOM     91  C   UNL A   1      46.871  32.739  27.162  1.00  0.00     0.020 A 
ATOM     92  C   UNL A   1      45.731  33.292  26.580  1.00  0.00     0.054 A 
BRANCH  92  93
ATOM     93  S   UNL A   1      45.893  34.666  25.403  1.00  0.00     0.124 S 
ATOM     94  O   UNL A   1      45.405  35.805  26.176  1.00  0.00    -0.237 OA
ATOM     95  O   UNL A   1      47.323  34.673  25.107  1.00  0.00    -0.237 OA
ATOM     96  O   UNL A   1      45.039  34.269  24.284  1.00  0.00    -0.744 OA
ENDBRANCH  92  93
ENDBRANCH  66  87
ENDBRANCH  40  41
ENDBRANCH  33  35
ENDBRANCH  32  33
ENDBRANCH  31  32
ENDBRANCH   1  31
TORSDOF 20
ENDMDL
MODEL 3
REMARK VINA RESULT:     -10.3      2.008      5.335
REMARK SMILES Cc1nccn1C1(C(=O)OCCOCCOC(=O)c2ccc(-c3c4nc(c(-c5ccc(S(=O)(=O)[O-])cc5)c5ccc([nH]5)c(-c5ccc(S(=O)(=O)[O-])cc5)c5nc(c(-c6ccc(S(=O)(=O)[O-])cc6)c6ccc3[nH]6)C=C5)C=C4)cc2)CCN(C(=O)[C@@H]2C[C@H]2c2ccccc2)CC1
REMARK SMILES IDX 14 1 13 2 12 3 11 4 10 5 8 6 9 7 7 8 79 9 94 10 80 11 93 12
REMARK SMILES IDX 81 13 82 14 83 15 6 16 1 17 2 18 3 19 4 20 5 21 84 22 85 23
REMARK SMILES IDX 86 24 87 25 88 26 92 27 89 28 91 29 90 30 15 31 16 32 17 33
REMARK SMILES IDX 18 34 19 35 20 36 78 37 21 38 77 39 22 40 23 41 24 42 71 43
REMARK SMILES IDX 25 44 76 45 70 46 72 47 26 48 75 49 69 50 68 51 27 53 57 54
REMARK SMILES IDX 38 55 56 56 39 57 42 58 55 59 73 60 40 61 41 62 54 64 74 65
REMARK SMILES IDX 43 66 28 67 29 68 37 69 30 70 36 71 31 72 32 73 33 74 34 75
REMARK SMILES IDX 35 76 58 77 59 78 67 79 60 80 66 81 61 82 62 83 63 84 64 85
REMARK SMILES IDX 65 86 44 87 45 88 53 89 46 90 52 91 47 92 48 93 49 94 50 95
REMARK SMILES IDX 51 96
REMARK H PARENT 72 52 42 63
REMARK Flexibility Score: inf
ROOT
ATOM      1  C   UNL A   1      36.876  22.302  24.897  1.00  0.00     0.202 C 
ENDROOT
BRANCH   1   2
ATOM      2  O   UNL A   1      35.950  23.113  25.617  1.00  0.00    -0.374 OA
BRANCH   2   3
ATOM      3  C   UNL A   1      35.840  24.502  25.282  1.00  0.00     0.202 C 
BRANCH   3   4
ATOM      4  C   UNL A   1      34.528  25.165  25.687  1.00  0.00     0.261 C 
BRANCH   4   5
ATOM      5  O   UNL A   1      34.227  26.164  24.699  1.00  0.00    -0.461 OA
BRANCH   5   6
ATOM      6  C   UNL A   1      32.977  26.692  24.702  1.00  0.00     0.332 C 
ATOM      7  O   UNL A   1      32.721  27.807  25.148  1.00  0.00    -0.249 OA
BRANCH   6   8
ATOM      8  C   UNL A   1      31.917  25.731  24.045  1.00  0.00     0.146 C 
ATOM      9  C   UNL A   1      32.460  25.262  22.660  1.00  0.00     0.062 C 
ATOM     10  C   UNL A   1      31.947  24.578  25.047  1.00  0.00     0.062 C 
ATOM     11  C   UNL A   1      32.165  23.844  22.193  1.00  0.00     0.122 C 
ATOM     12  C   UNL A   1      31.451  23.280  24.497  1.00  0.00     0.122 C 
ATOM     13  N   UNL A   1      32.070  22.864  23.258  1.00  0.00    -0.342 N 
ATOM     14  C   UNL A   1      32.269  21.521  22.901  1.00  0.00     0.226 C 
ATOM     15  O   UNL A   1      32.641  21.185  21.783  1.00  0.00    -0.275 OA
BRANCH   8  16
ATOM     16  N   UNL A   1      30.572  26.387  24.035  1.00  0.00    -0.318 N 
ATOM     17  C   UNL A   1      30.687  28.422  22.392  1.00  0.00     0.087 C 
ATOM     18  C   UNL A   1      30.027  27.414  23.258  1.00  0.00     0.106 A 
ATOM     19  N   UNL A   1      28.712  27.453  23.379  1.00  0.00    -0.242 NA
ATOM     20  C   UNL A   1      28.374  26.544  24.316  1.00  0.00     0.131 A 
ATOM     21  C   UNL A   1      29.494  25.913  24.774  1.00  0.00     0.108 A 
ENDBRANCH   8  16
BRANCH  14  22
ATOM     22  C   UNL A   1      32.120  20.458  23.932  1.00  0.00     0.087 C 
ATOM     23  C   UNL A   1      32.311  20.731  25.403  1.00  0.00     0.023 C 
ATOM     24  C   UNL A   1      33.297  19.862  24.696  1.00  0.00     0.032 C 
BRANCH  24  25
ATOM     25  C   UNL A   1      33.388  18.346  24.733  1.00  0.00    -0.044 A 
ATOM     26  C   UNL A   1      32.405  17.587  25.379  1.00  0.00     0.004 A 
ATOM     27  C   UNL A   1      34.543  17.657  24.297  1.00  0.00     0.004 A 
ATOM     28  C   UNL A   1      32.586  16.220  25.620  1.00  0.00     0.000 A 
ATOM     29  C   UNL A   1      34.736  16.297  24.546  1.00  0.00     0.000 A 
ATOM     30  C   UNL A   1      33.756  15.580  25.219  1.00  0.00     0.000 A 
ENDBRANCH  24  25
ENDBRANCH  14  22
ENDBRANCH   6   8
ENDBRANCH   5   6
ENDBRANCH   4   5
ENDBRANCH   3   4
ENDBRANCH   2   3
ENDBRANCH   1   2
BRANCH   1  31
ATOM     31  C   UNL A   1      38.120  21.826  25.629  1.00  0.00     0.261 C 
BRANCH  31  32
ATOM     32  O   UNL A   1      38.519  22.768  26.615  1.00  0.00    -0.460 OA
BRANCH  32  33
ATOM     33  C   UNL A   1      39.819  22.666  26.984  1.00  0.00     0.338 C 
ATOM     34  O   UNL A   1      40.411  21.666  27.317  1.00  0.00    -0.246 OA
BRANCH  33  35
ATOM     35  C   UNL A   1      40.368  24.026  27.060  1.00  0.00     0.060 A 
ATOM     36  C   UNL A   1      41.450  24.181  27.924  1.00  0.00     0.016 A 
ATOM     37  C   UNL A   1      39.648  25.122  26.556  1.00  0.00     0.016 A 
ATOM     38  C   UNL A   1      41.642  25.416  28.492  1.00  0.00     0.010 A 
ATOM     39  C   UNL A   1      39.840  26.356  27.126  1.00  0.00     0.010 A 
ATOM     40  C   UNL A   1      40.764  26.455  28.159  1.00  0.00    -0.014 A 
BRANCH  40  41
ATOM     41  C   UNL A   1      40.909  27.693  28.887  1.00  0.00     0.031 A 
ATOM     42  C   UNL A   1      42.021  28.514  28.375  1.00  0.00     0.074 A 
ATOM     43  C   UNL A   1      40.097  28.058  29.894  1.00  0.00     0.049 A 
ATOM     44  N   UNL A   1      43.179  28.673  28.916  1.00  0.00    -0.248 NA
ATOM     45  C   UNL A   1      41.909  29.030  27.002  1.00  0.00     0.031 C 
ATOM     46  C   UNL A   1      38.825  27.469  30.317  1.00  0.00     0.029 A 
ATOM     47  N   UNL A   1      40.218  29.134  30.708  1.00  0.00    -0.354 N 
ATOM     48  C   UNL A   1      43.875  29.505  28.052  1.00  0.00     0.074 A 
ATOM     49  C   UNL A   1      43.138  29.512  26.813  1.00  0.00     0.031 C 
ATOM     50  C   UNL A   1      38.184  28.346  31.128  1.00  0.00     0.029 A 
ATOM     51  C   UNL A   1      39.058  29.479  31.386  1.00  0.00     0.049 A 
ATOM     52  H   UNL A   1      41.061  29.632  30.809  1.00  0.00     0.167 HD
ATOM     53  C   UNL A   1      44.849  30.338  28.506  1.00  0.00     0.031 A 
ATOM     54  C   UNL A   1      38.831  30.655  32.028  1.00  0.00     0.031 A 
ATOM     55  C   UNL A   1      45.299  29.973  29.824  1.00  0.00     0.049 A 
ATOM     56  C   UNL A   1      40.161  31.259  32.312  1.00  0.00     0.074 A 
ATOM     57  C   UNL A   1      45.860  28.832  30.365  1.00  0.00     0.029 A 
ATOM     58  N   UNL A   1      44.791  30.686  30.886  1.00  0.00    -0.354 N 
ATOM     59  N   UNL A   1      41.022  30.728  33.138  1.00  0.00    -0.248 NA
ATOM     60  C   UNL A   1      40.733  32.155  31.316  1.00  0.00     0.031 C 
ATOM     61  C   UNL A   1      45.232  28.681  31.635  1.00  0.00     0.029 A 
ATOM     62  C   UNL A   1      44.391  29.779  31.836  1.00  0.00     0.049 A 
ATOM     63  H   UNL A   1      44.728  31.667  30.954  1.00  0.00     0.167 HD
ATOM     64  C   UNL A   1      42.254  30.863  32.511  1.00  0.00     0.074 A 
ATOM     65  C   UNL A   1      42.024  31.821  31.429  1.00  0.00     0.031 C 
ATOM     66  C   UNL A   1      43.272  29.980  32.736  1.00  0.00     0.031 A 
BRANCH  53  67
ATOM     67  C   UNL A   1      45.074  31.700  27.911  1.00  0.00    -0.014 A 
ATOM     68  C   UNL A   1      46.389  32.156  27.714  1.00  0.00     0.010 A 
ATOM     69  C   UNL A   1      44.035  32.647  27.776  1.00  0.00     0.010 A 
ATOM     70  C   UNL A   1      46.648  33.503  27.433  1.00  0.00     0.020 A 
ATOM     71  C   UNL A   1      44.279  33.978  27.451  1.00  0.00     0.020 A 
ATOM     72  C   UNL A   1      45.589  34.406  27.309  1.00  0.00     0.054 A 
BRANCH  72  73
ATOM     73  S   UNL A   1      45.937  36.155  27.019  1.00  0.00     0.124 S 
ATOM     74  O   UNL A   1      46.630  36.113  25.735  1.00  0.00    -0.237 OA
ATOM     75  O   UNL A   1      44.598  36.736  27.000  1.00  0.00    -0.237 OA
ATOM     76  O   UNL A   1      46.760  36.535  28.165  1.00  0.00    -0.744 OA
ENDBRANCH  72  73
ENDBRANCH  53  67
BRANCH  54  77
ATOM     77  C   UNL A   1      37.565  31.439  32.034  1.00  0.00    -0.014 A 
ATOM     78  C   UNL A   1      36.900  31.754  33.235  1.00  0.00     0.010 A 
ATOM     79  C   UNL A   1      37.153  32.119  30.868  1.00  0.00     0.010 A 
ATOM     80  C   UNL A   1      35.904  32.750  33.275  1.00  0.00     0.020 A 
ATOM     81  C   UNL A   1      36.160  33.105  30.899  1.00  0.00     0.020 A 
ATOM     82  C   UNL A   1      35.555  33.434  32.108  1.00  0.00     0.054 A 
BRANCH  82  83
ATOM     83  S   UNL A   1      34.400  34.837  32.193  1.00  0.00     0.124 S 
ATOM     84  O   UNL A   1      34.210  35.171  30.785  1.00  0.00    -0.237 OA
ATOM     85  O   UNL A   1      33.242  34.254  32.866  1.00  0.00    -0.237 OA
ATOM     86  O   UNL A   1      35.128  35.836  32.973  1.00  0.00    -0.744 OA
ENDBRANCH  82  83
ENDBRANCH  54  77
BRANCH  66  87
ATOM     87  C   UNL A   1      43.138  28.984  33.869  1.00  0.00    -0.014 A 
ATOM     88  C   UNL A   1      43.719  29.152  35.143  1.00  0.00     0.010 A 
ATOM     89  C   UNL A   1      42.250  27.910  33.681  1.00  0.00     0.010 A 
ATOM     90  C   UNL A   1      43.438  28.254  36.186  1.00  0.00     0.020 A 
ATOM     91  C   UNL A   1      41.951  27.024  34.719  1.00  0.00     0.020 A 
ATOM     92  C   UNL A   1      42.555  27.193  35.965  1.00  0.00     0.054 A 
BRANCH  92  93
ATOM     93  S   UNL A   1      42.164  26.050  37.321  1.00  0.00     0.124 S 
ATOM     94  O   UNL A   1      42.412  24.744  36.716  1.00  0.00    -0.237 OA
ATOM     95  O   UNL A   1      43.104  26.450  38.365  1.00  0.00    -0.237 OA
ATOM     96  O   UNL A   1      40.761  26.334  37.621  1.00  0.00    -0.744 OA
ENDBRANCH  92  93
ENDBRANCH  66  87
ENDBRANCH  40  41
ENDBRANCH  33  35
ENDBRANCH  32  33
ENDBRANCH  31  32
ENDBRANCH   1  31
TORSDOF 20
ENDMDL
