MODEL 1
REMARK VINA RESULT:     -10.5      0.000      0.000
REMARK SMILES Cc1noc(C)c1[C@H](C)NC(=O)N1CC[C@H](C(=O)OCCOCCOC(=O)c2ccc(-c3c4nc(c(-c5ccc(S(=O)(=O)[O-])cc5)c5ccc([nH]5)c(-c5ccc(S(=O)(=O)[O-])cc5)c5nc(c(-c6ccc(S(=O)(=O)[O-])cc6)c6ccc3[nH]6)C=C5)C=C4)cc2)[C@@H]1C
REMARK SMILES IDX 22 1 21 2 20 3 19 4 17 5 18 6 16 7 13 8 14 9 88 10 15 11
REMARK SMILES IDX 89 12 11 13 10 14 12 16 8 17 9 18 7 19 1 20 2 21 3 22 4 23
REMARK SMILES IDX 5 24 6 25 23 26 24 27 25 28 26 29 27 30 28 31 29 32 87 33
REMARK SMILES IDX 30 34 86 35 31 36 32 37 33 38 80 39 34 40 85 41 79 42 81 43
REMARK SMILES IDX 35 44 84 45 78 46 77 47 36 49 66 50 47 51 65 52 48 53 51 54
REMARK SMILES IDX 64 55 82 56 49 57 50 58 63 60 83 61 52 62 37 63 38 64 46 65
REMARK SMILES IDX 39 66 45 67 40 68 41 69 42 70 43 71 44 72 67 73 68 74 76 75
REMARK SMILES IDX 69 76 75 77 70 78 71 79 72 80 73 81 74 82 53 83 54 84 62 85
REMARK SMILES IDX 55 86 61 87 56 88 57 89 58 90 59 91 60 92
REMARK H PARENT 10 15 81 48 51 59
REMARK Flexibility Score: inf
ROOT
ATOM      1  O   UNL A   1      39.629  22.152  26.549  1.00  0.00    -0.374 OA
ENDROOT
BRANCH   1   2
ATOM      2  C   UNL A   1      38.647  21.555  25.704  1.00  0.00     0.202 C 
BRANCH   2   3
ATOM      3  C   UNL A   1      37.558  22.457  25.118  1.00  0.00     0.261 C 
BRANCH   3   4
ATOM      4  O   UNL A   1      36.328  22.339  25.852  1.00  0.00    -0.463 OA
BRANCH   4   5
ATOM      5  C   UNL A   1      35.372  21.572  25.273  1.00  0.00     0.311 C 
ATOM      6  O   UNL A   1      35.448  20.358  25.123  1.00  0.00    -0.252 OA
BRANCH   5   7
ATOM      7  C   UNL A   1      34.096  22.341  25.022  1.00  0.00     0.123 C 
ATOM      8  N   UNL A   1      32.076  22.958  26.043  1.00  0.00    -0.321 N 
ATOM      9  C   UNL A   1      31.739  21.782  25.272  1.00  0.00     0.122 C 
ATOM     10  C   UNL A   1      33.512  22.963  26.297  1.00  0.00     0.098 C 
ATOM     11  C   UNL A   1      32.924  21.617  24.333  1.00  0.00     0.039 C 
ATOM     12  C   UNL A   1      33.815  22.222  27.606  1.00  0.00     0.032 C 
BRANCH   8  13
ATOM     13  C   UNL A   1      31.139  23.631  26.771  1.00  0.00     0.318 C 
ATOM     14  N   UNL A   1      31.074  24.986  26.641  1.00  0.00    -0.331 N 
ATOM     15  H   UNL A   1      31.023  25.523  27.465  1.00  0.00     0.165 HD
ATOM     16  O   UNL A   1      30.344  23.069  27.520  1.00  0.00    -0.249 OA
BRANCH  14  17
ATOM     17  C   UNL A   1      31.075  25.694  25.367  1.00  0.00     0.116 C 
ATOM     18  C   UNL A   1      29.640  26.115  25.032  1.00  0.00     0.036 C 
BRANCH  17  19
ATOM     19  C   UNL A   1      32.077  26.814  25.438  1.00  0.00     0.040 A 
ATOM     20  C   UNL A   1      33.611  26.284  23.355  1.00  0.00     0.071 C 
ATOM     21  C   UNL A   1      33.167  27.059  24.537  1.00  0.00     0.086 A 
ATOM     22  N   UNL A   1      33.841  28.166  24.862  1.00  0.00    -0.085 NA
ATOM     23  O   UNL A   1      33.222  28.669  25.977  1.00  0.00    -0.361 OA
ATOM     24  C   UNL A   1      32.177  27.876  26.323  1.00  0.00     0.139 A 
ATOM     25  C   UNL A   1      31.430  28.339  27.510  1.00  0.00     0.091 C 
ENDBRANCH  17  19
ENDBRANCH  14  17
ENDBRANCH   8  13
ENDBRANCH   5   7
ENDBRANCH   4   5
ENDBRANCH   3   4
ENDBRANCH   2   3
ENDBRANCH   1   2
BRANCH   1  26
ATOM     26  C   UNL A   1      40.913  21.546  26.653  1.00  0.00     0.202 C 
BRANCH  26  27
ATOM     27  C   UNL A   1      42.151  22.376  26.287  1.00  0.00     0.261 C 
BRANCH  27  28
ATOM     28  O   UNL A   1      41.883  23.778  26.130  1.00  0.00    -0.460 OA
BRANCH  28  29
ATOM     29  C   UNL A   1      42.864  24.586  26.602  1.00  0.00     0.338 C 
ATOM     30  O   UNL A   1      44.043  24.589  26.266  1.00  0.00    -0.246 OA
BRANCH  29  31
ATOM     31  C   UNL A   1      42.298  25.627  27.473  1.00  0.00     0.060 A 
ATOM     32  C   UNL A   1      42.991  26.842  27.560  1.00  0.00     0.016 A 
ATOM     33  C   UNL A   1      41.177  25.386  28.268  1.00  0.00     0.016 A 
ATOM     34  C   UNL A   1      42.587  27.811  28.474  1.00  0.00     0.010 A 
ATOM     35  C   UNL A   1      40.784  26.354  29.199  1.00  0.00     0.010 A 
ATOM     36  C   UNL A   1      41.509  27.553  29.329  1.00  0.00    -0.014 A 
BRANCH  36  37
ATOM     37  C   UNL A   1      41.257  28.474  30.462  1.00  0.00     0.031 A 
ATOM     38  C   UNL A   1      42.137  28.380  31.680  1.00  0.00     0.074 A 
ATOM     39  C   UNL A   1      40.300  29.414  30.385  1.00  0.00     0.049 A 
ATOM     40  N   UNL A   1      42.103  29.085  32.781  1.00  0.00    -0.248 NA
ATOM     41  C   UNL A   1      43.198  27.360  31.650  1.00  0.00     0.031 C 
ATOM     42  C   UNL A   1      39.424  29.636  29.235  1.00  0.00     0.029 A 
ATOM     43  N   UNL A   1      39.909  30.363  31.294  1.00  0.00    -0.354 N 
ATOM     44  C   UNL A   1      43.131  28.592  33.576  1.00  0.00     0.074 A 
ATOM     45  C   UNL A   1      43.754  27.511  32.844  1.00  0.00     0.031 C 
ATOM     46  C   UNL A   1      38.593  30.656  29.511  1.00  0.00     0.029 A 
ATOM     47  C   UNL A   1      38.858  31.137  30.865  1.00  0.00     0.049 A 
ATOM     48  H   UNL A   1      40.341  30.479  32.171  1.00  0.00     0.167 HD
ATOM     49  C   UNL A   1      43.525  29.007  34.803  1.00  0.00     0.031 A 
ATOM     50  C   UNL A   1      38.175  32.109  31.503  1.00  0.00     0.031 A 
ATOM     51  C   UNL A   1      42.896  30.075  35.533  1.00  0.00     0.049 A 
ATOM     52  C   UNL A   1      38.581  32.498  32.900  1.00  0.00     0.074 A 
ATOM     53  C   UNL A   1      43.225  30.577  36.780  1.00  0.00     0.029 A 
ATOM     54  N   UNL A   1      41.802  30.800  35.086  1.00  0.00    -0.354 N 
ATOM     55  N   UNL A   1      39.567  32.035  33.631  1.00  0.00    -0.248 NA
ATOM     56  C   UNL A   1      37.785  33.546  33.555  1.00  0.00     0.031 C 
ATOM     57  C   UNL A   1      42.295  31.567  37.111  1.00  0.00     0.029 A 
ATOM     58  C   UNL A   1      41.423  31.726  36.044  1.00  0.00     0.049 A 
ATOM     59  H   UNL A   1      41.358  30.676  34.216  1.00  0.00     0.167 HD
ATOM     60  C   UNL A   1      39.526  32.753  34.823  1.00  0.00     0.074 A 
ATOM     61  C   UNL A   1      38.427  33.690  34.707  1.00  0.00     0.031 C 
ATOM     62  C   UNL A   1      40.325  32.648  35.913  1.00  0.00     0.031 A 
BRANCH  49  63
ATOM     63  C   UNL A   1      44.673  28.279  35.448  1.00  0.00    -0.014 A 
ATOM     64  C   UNL A   1      44.459  27.141  36.248  1.00  0.00     0.010 A 
ATOM     65  C   UNL A   1      45.991  28.719  35.223  1.00  0.00     0.010 A 
ATOM     66  C   UNL A   1      45.539  26.477  36.837  1.00  0.00     0.020 A 
ATOM     67  C   UNL A   1      47.074  28.042  35.790  1.00  0.00     0.020 A 
ATOM     68  C   UNL A   1      46.840  26.935  36.606  1.00  0.00     0.054 A 
BRANCH  68  69
ATOM     69  S   UNL A   1      48.224  26.041  37.365  1.00  0.00     0.124 S 
ATOM     70  O   UNL A   1      49.276  27.054  37.358  1.00  0.00    -0.237 OA
ATOM     71  O   UNL A   1      47.697  25.692  38.682  1.00  0.00    -0.237 OA
ATOM     72  O   UNL A   1      48.442  24.910  36.466  1.00  0.00    -0.744 OA
ENDBRANCH  68  69
ENDBRANCH  49  63
BRANCH  50  73
ATOM     73  C   UNL A   1      37.019  32.766  30.834  1.00  0.00    -0.014 A 
ATOM     74  C   UNL A   1      37.217  33.667  29.773  1.00  0.00     0.010 A 
ATOM     75  C   UNL A   1      35.707  32.495  31.264  1.00  0.00     0.010 A 
ATOM     76  C   UNL A   1      36.126  34.296  29.166  1.00  0.00     0.020 A 
ATOM     77  C   UNL A   1      34.612  33.101  30.642  1.00  0.00     0.020 A 
ATOM     78  C   UNL A   1      34.830  34.008  29.603  1.00  0.00     0.054 A 
BRANCH  78  79
ATOM     79  S   UNL A   1      33.426  34.800  28.771  1.00  0.00     0.124 S 
ATOM     80  O   UNL A   1      33.074  33.807  27.760  1.00  0.00    -0.237 OA
ATOM     81  O   UNL A   1      32.466  34.964  29.859  1.00  0.00    -0.237 OA
ATOM     82  O   UNL A   1      33.992  36.045  28.257  1.00  0.00    -0.744 OA
ENDBRANCH  78  79
ENDBRANCH  50  73
BRANCH  62  83
ATOM     83  C   UNL A   1      40.062  33.587  37.060  1.00  0.00    -0.014 A 
ATOM     84  C   UNL A   1      40.796  34.777  37.211  1.00  0.00     0.010 A 
ATOM     85  C   UNL A   1      39.026  33.301  37.968  1.00  0.00     0.010 A 
ATOM     86  C   UNL A   1      40.518  35.648  38.269  1.00  0.00     0.020 A 
ATOM     87  C   UNL A   1      38.726  34.182  39.009  1.00  0.00     0.020 A 
ATOM     88  C   UNL A   1      39.485  35.345  39.161  1.00  0.00     0.054 A 
BRANCH  88  89
ATOM     89  S   UNL A   1      39.116  36.512  40.499  1.00  0.00     0.124 S 
ATOM     90  O   UNL A   1      38.499  37.620  39.776  1.00  0.00    -0.237 OA
ATOM     91  O   UNL A   1      38.218  35.744  41.358  1.00  0.00    -0.237 OA
ATOM     92  O   UNL A   1      40.426  36.800  41.080  1.00  0.00    -0.744 OA
ENDBRANCH  88  89
ENDBRANCH  62  83
ENDBRANCH  36  37
ENDBRANCH  29  31
ENDBRANCH  28  29
ENDBRANCH  27  28
ENDBRANCH  26  27
ENDBRANCH   1  26
TORSDOF 20
ENDMDL
MODEL 2
REMARK VINA RESULT:      -9.8      0.760      8.087
REMARK SMILES Cc1noc(C)c1[C@H](C)NC(=O)N1CC[C@H](C(=O)OCCOCCOC(=O)c2ccc(-c3c4nc(c(-c5ccc(S(=O)(=O)[O-])cc5)c5ccc([nH]5)c(-c5ccc(S(=O)(=O)[O-])cc5)c5nc(c(-c6ccc(S(=O)(=O)[O-])cc6)c6ccc3[nH]6)C=C5)C=C4)cc2)[C@@H]1C
REMARK SMILES IDX 22 1 21 2 20 3 19 4 17 5 18 6 16 7 13 8 14 9 88 10 15 11
REMARK SMILES IDX 89 12 11 13 10 14 12 16 8 17 9 18 7 19 1 20 2 21 3 22 4 23
REMARK SMILES IDX 5 24 6 25 23 26 24 27 25 28 26 29 27 30 28 31 29 32 87 33
REMARK SMILES IDX 30 34 86 35 31 36 32 37 33 38 80 39 34 40 85 41 79 42 81 43
REMARK SMILES IDX 35 44 84 45 78 46 77 47 36 49 66 50 47 51 65 52 48 53 51 54
REMARK SMILES IDX 64 55 82 56 49 57 50 58 63 60 83 61 52 62 37 63 38 64 46 65
REMARK SMILES IDX 39 66 45 67 40 68 41 69 42 70 43 71 44 72 67 73 68 74 76 75
REMARK SMILES IDX 69 76 75 77 70 78 71 79 72 80 73 81 74 82 53 83 54 84 62 85
REMARK SMILES IDX 55 86 61 87 56 88 57 89 58 90 59 91 60 92
REMARK H PARENT 10 15 81 48 51 59
REMARK Flexibility Score: inf
ROOT
ATOM      1  O   UNL A   1      39.371  21.949  26.513  1.00  0.00    -0.374 OA
ENDROOT
BRANCH   1   2
ATOM      2  C   UNL A   1      38.557  23.052  26.118  1.00  0.00     0.202 C 
BRANCH   2   3
ATOM      3  C   UNL A   1      37.373  22.776  25.189  1.00  0.00     0.261 C 
BRANCH   3   4
ATOM      4  O   UNL A   1      36.190  22.436  25.933  1.00  0.00    -0.463 OA
BRANCH   4   5
ATOM      5  C   UNL A   1      35.288  21.667  25.277  1.00  0.00     0.311 C 
ATOM      6  O   UNL A   1      35.385  20.454  25.124  1.00  0.00    -0.252 OA
BRANCH   5   7
ATOM      7  C   UNL A   1      34.027  22.428  24.938  1.00  0.00     0.123 C 
ATOM      8  N   UNL A   1      31.974  23.106  25.846  1.00  0.00    -0.321 N 
ATOM      9  C   UNL A   1      31.658  21.892  25.125  1.00  0.00     0.122 C 
ATOM     10  C   UNL A   1      33.399  23.117  26.155  1.00  0.00     0.098 C 
ATOM     11  C   UNL A   1      32.878  21.673  24.243  1.00  0.00     0.039 C 
ATOM     12  C   UNL A   1      33.646  22.444  27.512  1.00  0.00     0.032 C 
BRANCH   8  13
ATOM     13  C   UNL A   1      31.013  23.820  26.502  1.00  0.00     0.318 C 
ATOM     14  N   UNL A   1      30.795  25.109  26.117  1.00  0.00    -0.331 N 
ATOM     15  H   UNL A   1      30.735  25.793  26.823  1.00  0.00     0.165 HD
ATOM     16  O   UNL A   1      30.328  23.348  27.406  1.00  0.00    -0.249 OA
BRANCH  14  17
ATOM     17  C   UNL A   1      30.646  25.543  24.734  1.00  0.00     0.116 C 
ATOM     18  C   UNL A   1      29.316  26.291  24.589  1.00  0.00     0.036 C 
BRANCH  17  19
ATOM     19  C   UNL A   1      31.870  26.322  24.337  1.00  0.00     0.040 A 
ATOM     20  C   UNL A   1      32.044  25.759  21.763  1.00  0.00     0.071 C 
ATOM     21  C   UNL A   1      32.452  26.413  23.028  1.00  0.00     0.086 A 
ATOM     22  N   UNL A   1      33.514  27.225  23.012  1.00  0.00    -0.085 NA
ATOM     23  O   UNL A   1      33.660  27.679  24.297  1.00  0.00    -0.361 OA
ATOM     24  C   UNL A   1      32.690  27.151  25.087  1.00  0.00     0.139 A 
ATOM     25  C   UNL A   1      32.749  27.590  26.495  1.00  0.00     0.091 C 
ENDBRANCH  17  19
ENDBRANCH  14  17
ENDBRANCH   8  13
ENDBRANCH   5   7
ENDBRANCH   4   5
ENDBRANCH   3   4
ENDBRANCH   2   3
ENDBRANCH   1   2
BRANCH   1  26
ATOM     26  C   UNL A   1      40.655  22.202  27.073  1.00  0.00     0.202 C 
BRANCH  26  27
ATOM     27  C   UNL A   1      41.723  22.872  26.198  1.00  0.00     0.261 C 
BRANCH  27  28
ATOM     28  O   UNL A   1      42.328  24.024  26.806  1.00  0.00    -0.460 OA
BRANCH  28  29
ATOM     29  C   UNL A   1      42.003  25.199  26.211  1.00  0.00     0.338 C 
ATOM     30  O   UNL A   1      41.927  25.420  25.007  1.00  0.00    -0.246 OA
BRANCH  29  31
ATOM     31  C   UNL A   1      41.557  26.178  27.214  1.00  0.00     0.060 A 
ATOM     32  C   UNL A   1      42.292  27.364  27.329  1.00  0.00     0.016 A 
ATOM     33  C   UNL A   1      40.511  25.897  28.094  1.00  0.00     0.016 A 
ATOM     34  C   UNL A   1      42.009  28.263  28.353  1.00  0.00     0.010 A 
ATOM     35  C   UNL A   1      40.239  26.794  29.133  1.00  0.00     0.010 A 
ATOM     36  C   UNL A   1      41.010  27.960  29.287  1.00  0.00    -0.014 A 
BRANCH  36  37
ATOM     37  C   UNL A   1      40.899  28.790  30.510  1.00  0.00     0.031 A 
ATOM     38  C   UNL A   1      39.844  29.862  30.563  1.00  0.00     0.074 A 
ATOM     39  C   UNL A   1      41.684  28.554  31.574  1.00  0.00     0.049 A 
ATOM     40  N   UNL A   1      39.563  30.698  31.528  1.00  0.00    -0.248 NA
ATOM     41  C   UNL A   1      38.990  30.008  29.372  1.00  0.00     0.031 C 
ATOM     42  C   UNL A   1      42.702  27.507  31.659  1.00  0.00     0.029 A 
ATOM     43  N   UNL A   1      41.743  29.180  32.793  1.00  0.00    -0.354 N 
ATOM     44  C   UNL A   1      38.506  31.472  31.062  1.00  0.00     0.074 A 
ATOM     45  C   UNL A   1      38.213  31.024  29.718  1.00  0.00     0.031 C 
ATOM     46  C   UNL A   1      43.289  27.566  32.867  1.00  0.00     0.029 A 
ATOM     47  C   UNL A   1      42.710  28.673  33.627  1.00  0.00     0.049 A 
ATOM     48  H   UNL A   1      41.148  29.923  33.046  1.00  0.00     0.167 HD
ATOM     49  C   UNL A   1      37.836  32.461  31.698  1.00  0.00     0.031 A 
ATOM     50  C   UNL A   1      43.097  29.071  34.856  1.00  0.00     0.031 A 
ATOM     51  C   UNL A   1      38.138  32.911  33.031  1.00  0.00     0.049 A 
ATOM     52  C   UNL A   1      42.389  30.228  35.511  1.00  0.00     0.074 A 
ATOM     53  C   UNL A   1      37.513  33.902  33.767  1.00  0.00     0.029 A 
ATOM     54  N   UNL A   1      39.158  32.407  33.822  1.00  0.00    -0.354 N 
ATOM     55  N   UNL A   1      41.379  30.936  35.064  1.00  0.00    -0.248 NA
ATOM     56  C   UNL A   1      42.869  30.634  36.839  1.00  0.00     0.031 C 
ATOM     57  C   UNL A   1      38.191  34.034  34.983  1.00  0.00     0.029 A 
ATOM     58  C   UNL A   1      39.200  33.084  35.029  1.00  0.00     0.049 A 
ATOM     59  H   UNL A   1      39.764  31.674  33.566  1.00  0.00     0.167 HD
ATOM     60  C   UNL A   1      41.087  31.856  36.068  1.00  0.00     0.074 A 
ATOM     61  C   UNL A   1      42.018  31.602  37.149  1.00  0.00     0.031 C 
ATOM     62  C   UNL A   1      40.135  32.821  36.093  1.00  0.00     0.031 A 
BRANCH  49  63
ATOM     63  C   UNL A   1      36.729  33.148  30.945  1.00  0.00    -0.014 A 
ATOM     64  C   UNL A   1      37.000  33.963  29.830  1.00  0.00     0.010 A 
ATOM     65  C   UNL A   1      35.392  32.947  31.336  1.00  0.00     0.010 A 
ATOM     66  C   UNL A   1      35.957  34.590  29.142  1.00  0.00     0.020 A 
ATOM     67  C   UNL A   1      34.346  33.553  30.636  1.00  0.00     0.020 A 
ATOM     68  C   UNL A   1      34.637  34.383  29.552  1.00  0.00     0.054 A 
BRANCH  68  69
ATOM     69  S   UNL A   1      33.302  35.192  28.628  1.00  0.00     0.124 S 
ATOM     70  O   UNL A   1      34.048  35.990  27.658  1.00  0.00    -0.237 OA
ATOM     71  O   UNL A   1      32.563  34.061  28.075  1.00  0.00    -0.237 OA
ATOM     72  O   UNL A   1      32.589  35.959  29.648  1.00  0.00    -0.744 OA
ENDBRANCH  68  69
ENDBRANCH  49  63
BRANCH  50  73
ATOM     73  C   UNL A   1      44.228  28.384  35.537  1.00  0.00    -0.014 A 
ATOM     74  C   UNL A   1      45.541  28.501  35.049  1.00  0.00     0.010 A 
ATOM     75  C   UNL A   1      43.991  27.600  36.682  1.00  0.00     0.010 A 
ATOM     76  C   UNL A   1      46.593  27.833  35.684  1.00  0.00     0.020 A 
ATOM     77  C   UNL A   1      45.043  26.953  37.334  1.00  0.00     0.020 A 
ATOM     78  C   UNL A   1      46.338  27.064  36.823  1.00  0.00     0.054 A 
BRANCH  78  79
ATOM     79  S   UNL A   1      47.725  26.244  37.658  1.00  0.00     0.124 S 
ATOM     80  O   UNL A   1      48.870  26.991  37.147  1.00  0.00    -0.237 OA
ATOM     81  O   UNL A   1      47.410  26.452  39.069  1.00  0.00    -0.237 OA
ATOM     82  O   UNL A   1      47.626  24.859  37.203  1.00  0.00    -0.744 OA
ENDBRANCH  78  79
ENDBRANCH  50  73
BRANCH  62  83
ATOM     83  C   UNL A   1      40.029  33.659  37.339  1.00  0.00    -0.014 A 
ATOM     84  C   UNL A   1      40.710  34.884  37.454  1.00  0.00     0.010 A 
ATOM     85  C   UNL A   1      39.190  33.240  38.388  1.00  0.00     0.010 A 
ATOM     86  C   UNL A   1      40.577  35.661  38.608  1.00  0.00     0.020 A 
ATOM     87  C   UNL A   1      39.033  34.026  39.533  1.00  0.00     0.020 A 
ATOM     88  C   UNL A   1      39.739  35.226  39.641  1.00  0.00     0.054 A 
BRANCH  88  89
ATOM     89  S   UNL A   1      39.551  36.271  41.111  1.00  0.00     0.124 S 
ATOM     90  O   UNL A   1      40.934  36.628  41.411  1.00  0.00    -0.237 OA
ATOM     91  O   UNL A   1      38.711  37.362  40.624  1.00  0.00    -0.237 OA
ATOM     92  O   UNL A   1      38.910  35.389  42.085  1.00  0.00    -0.744 OA
ENDBRANCH  88  89
ENDBRANCH  62  83
ENDBRANCH  36  37
ENDBRANCH  29  31
ENDBRANCH  28  29
ENDBRANCH  27  28
ENDBRANCH  26  27
ENDBRANCH   1  26
TORSDOF 20
ENDMDL
MODEL 3
REMARK VINA RESULT:      -9.7      6.062      8.072
REMARK SMILES Cc1noc(C)c1[C@H](C)NC(=O)N1CC[C@H](C(=O)OCCOCCOC(=O)c2ccc(-c3c4nc(c(-c5ccc(S(=O)(=O)[O-])cc5)c5ccc([nH]5)c(-c5ccc(S(=O)(=O)[O-])cc5)c5nc(c(-c6ccc(S(=O)(=O)[O-])cc6)c6ccc3[nH]6)C=C5)C=C4)cc2)[C@@H]1C
REMARK SMILES IDX 22 1 21 2 20 3 19 4 17 5 18 6 16 7 13 8 14 9 88 10 15 11
REMARK SMILES IDX 89 12 11 13 10 14 12 16 8 17 9 18 7 19 1 20 2 21 3 22 4 23
REMARK SMILES IDX 5 24 6 25 23 26 24 27 25 28 26 29 27 30 28 31 29 32 87 33
REMARK SMILES IDX 30 34 86 35 31 36 32 37 33 38 80 39 34 40 85 41 79 42 81 43
REMARK SMILES IDX 35 44 84 45 78 46 77 47 36 49 66 50 47 51 65 52 48 53 51 54
REMARK SMILES IDX 64 55 82 56 49 57 50 58 63 60 83 61 52 62 37 63 38 64 46 65
REMARK SMILES IDX 39 66 45 67 40 68 41 69 42 70 43 71 44 72 67 73 68 74 76 75
REMARK SMILES IDX 69 76 75 77 70 78 71 79 72 80 73 81 74 82 53 83 54 84 62 85
REMARK SMILES IDX 55 86 61 87 56 88 57 89 58 90 59 91 60 92
REMARK H PARENT 10 15 81 48 51 59
REMARK Flexibility Score: inf
ROOT
ATOM      1  O   UNL A   1      38.031  22.059  25.629  1.00  0.00    -0.374 OA
ENDROOT
BRANCH   1   2
ATOM      2  C   UNL A   1      37.125  21.156  25.000  1.00  0.00     0.202 C 
BRANCH   2   3
ATOM      3  C   UNL A   1      35.637  21.513  25.001  1.00  0.00     0.261 C 
BRANCH   3   4
ATOM      4  O   UNL A   1      35.384  22.712  24.249  1.00  0.00    -0.463 OA
BRANCH   4   5
ATOM      5  C   UNL A   1      35.150  23.826  24.984  1.00  0.00     0.311 C 
ATOM      6  O   UNL A   1      35.705  24.091  26.045  1.00  0.00    -0.252 OA
BRANCH   5   7
ATOM      7  C   UNL A   1      34.285  24.824  24.250  1.00  0.00     0.123 C 
ATOM      8  N   UNL A   1      32.045  25.418  23.887  1.00  0.00    -0.321 N 
ATOM      9  C   UNL A   1      32.382  24.592  22.748  1.00  0.00     0.122 C 
ATOM     10  C   UNL A   1      32.968  25.121  24.977  1.00  0.00     0.098 C 
ATOM     11  C   UNL A   1      33.902  24.530  22.788  1.00  0.00     0.039 C 
ATOM     12  C   UNL A   1      32.406  23.987  25.844  1.00  0.00     0.032 C 
BRANCH   8  13
ATOM     13  C   UNL A   1      30.810  25.981  24.023  1.00  0.00     0.318 C 
ATOM     14  N   UNL A   1      30.731  27.241  24.535  1.00  0.00    -0.331 N 
ATOM     15  H   UNL A   1      30.067  27.407  25.243  1.00  0.00     0.165 HD
ATOM     16  O   UNL A   1      29.774  25.412  23.688  1.00  0.00    -0.249 OA
BRANCH  14  17
ATOM     17  C   UNL A   1      31.561  28.360  24.107  1.00  0.00     0.116 C 
ATOM     18  C   UNL A   1      32.092  28.074  22.698  1.00  0.00     0.036 C 
BRANCH  17  19
ATOM     19  C   UNL A   1      30.770  29.632  24.252  1.00  0.00     0.040 A 
ATOM     20  C   UNL A   1      29.011  29.386  22.298  1.00  0.00     0.071 C 
ATOM     21  C   UNL A   1      29.649  30.050  23.458  1.00  0.00     0.086 A 
ATOM     22  N   UNL A   1      29.149  31.216  23.880  1.00  0.00    -0.085 NA
ATOM     23  O   UNL A   1      29.923  31.593  24.946  1.00  0.00    -0.361 OA
ATOM     24  C   UNL A   1      30.883  30.661  25.173  1.00  0.00     0.139 A 
ATOM     25  C   UNL A   1      31.768  30.966  26.315  1.00  0.00     0.091 C 
ENDBRANCH  17  19
ENDBRANCH  14  17
ENDBRANCH   8  13
ENDBRANCH   5   7
ENDBRANCH   4   5
ENDBRANCH   3   4
ENDBRANCH   2   3
ENDBRANCH   1   2
BRANCH   1  26
ATOM     26  C   UNL A   1      39.292  21.575  26.078  1.00  0.00     0.202 C 
BRANCH  26  27
ATOM     27  C   UNL A   1      39.655  20.107  25.815  1.00  0.00     0.261 C 
BRANCH  27  28
ATOM     28  O   UNL A   1      40.594  19.566  26.758  1.00  0.00    -0.460 OA
BRANCH  28  29
ATOM     29  C   UNL A   1      41.853  19.434  26.272  1.00  0.00     0.338 C 
ATOM     30  O   UNL A   1      42.300  18.491  25.628  1.00  0.00    -0.246 OA
BRANCH  29  31
ATOM     31  C   UNL A   1      42.609  20.682  26.455  1.00  0.00     0.060 A 
ATOM     32  C   UNL A   1      42.653  21.225  27.745  1.00  0.00     0.016 A 
ATOM     33  C   UNL A   1      43.171  21.362  25.374  1.00  0.00     0.016 A 
ATOM     34  C   UNL A   1      43.228  22.475  27.956  1.00  0.00     0.010 A 
ATOM     35  C   UNL A   1      43.733  22.626  25.585  1.00  0.00     0.010 A 
ATOM     36  C   UNL A   1      43.731  23.201  26.869  1.00  0.00    -0.014 A 
BRANCH  36  37
ATOM     37  C   UNL A   1      44.097  24.623  27.066  1.00  0.00     0.031 A 
ATOM     38  C   UNL A   1      45.530  25.036  26.861  1.00  0.00     0.074 A 
ATOM     39  C   UNL A   1      43.160  25.539  27.365  1.00  0.00     0.049 A 
ATOM     40  N   UNL A   1      46.072  26.221  26.973  1.00  0.00    -0.248 NA
ATOM     41  C   UNL A   1      46.474  23.975  26.476  1.00  0.00     0.031 C 
ATOM     42  C   UNL A   1      41.733  25.265  27.532  1.00  0.00     0.029 A 
ATOM     43  N   UNL A   1      43.271  26.890  27.577  1.00  0.00    -0.354 N 
ATOM     44  C   UNL A   1      47.419  26.048  26.677  1.00  0.00     0.074 A 
ATOM     45  C   UNL A   1      47.618  24.641  26.408  1.00  0.00     0.031 C 
ATOM     46  C   UNL A   1      41.100  26.415  27.826  1.00  0.00     0.029 A 
ATOM     47  C   UNL A   1      42.081  27.497  27.898  1.00  0.00     0.049 A 
ATOM     48  H   UNL A   1      44.123  27.377  27.506  1.00  0.00     0.167 HD
ATOM     49  C   UNL A   1      48.401  26.979  26.628  1.00  0.00     0.031 A 
ATOM     50  C   UNL A   1      41.818  28.776  28.230  1.00  0.00     0.031 A 
ATOM     51  C   UNL A   1      48.202  28.376  26.908  1.00  0.00     0.049 A 
ATOM     52  C   UNL A   1      42.943  29.778  28.247  1.00  0.00     0.074 A 
ATOM     53  C   UNL A   1      49.131  29.401  26.878  1.00  0.00     0.029 A 
ATOM     54  N   UNL A   1      46.992  28.942  27.279  1.00  0.00    -0.354 N 
ATOM     55  N   UNL A   1      44.207  29.602  27.947  1.00  0.00    -0.248 NA
ATOM     56  C   UNL A   1      42.602  31.152  28.642  1.00  0.00     0.031 C 
ATOM     57  C   UNL A   1      48.494  30.578  27.285  1.00  0.00     0.029 A 
ATOM     58  C   UNL A   1      47.155  30.298  27.509  1.00  0.00     0.049 A 
ATOM     59  H   UNL A   1      46.142  28.454  27.366  1.00  0.00     0.167 HD
ATOM     60  C   UNL A   1      44.809  30.849  28.093  1.00  0.00     0.074 A 
ATOM     61  C   UNL A   1      43.765  31.771  28.493  1.00  0.00     0.031 C 
ATOM     62  C   UNL A   1      46.106  31.200  27.910  1.00  0.00     0.031 A 
BRANCH  49  63
ATOM     63  C   UNL A   1      49.790  26.508  26.290  1.00  0.00    -0.014 A 
ATOM     64  C   UNL A   1      50.284  26.571  24.974  1.00  0.00     0.010 A 
ATOM     65  C   UNL A   1      50.628  26.027  27.313  1.00  0.00     0.010 A 
ATOM     66  C   UNL A   1      51.578  26.130  24.682  1.00  0.00     0.020 A 
ATOM     67  C   UNL A   1      51.931  25.609  27.029  1.00  0.00     0.020 A 
ATOM     68  C   UNL A   1      52.392  25.649  25.712  1.00  0.00     0.054 A 
BRANCH  68  69
ATOM     69  S   UNL A   1      54.074  25.104  25.308  1.00  0.00     0.124 S 
ATOM     70  O   UNL A   1      54.400  25.955  24.166  1.00  0.00    -0.237 OA
ATOM     71  O   UNL A   1      54.809  25.394  26.537  1.00  0.00    -0.237 OA
ATOM     72  O   UNL A   1      53.916  23.684  25.002  1.00  0.00    -0.744 OA
ENDBRANCH  68  69
ENDBRANCH  49  63
BRANCH  50  73
ATOM     73  C   UNL A   1      40.433  29.178  28.599  1.00  0.00    -0.014 A 
ATOM     74  C   UNL A   1      39.447  29.356  27.612  1.00  0.00     0.010 A 
ATOM     75  C   UNL A   1      40.095  29.393  29.948  1.00  0.00     0.010 A 
ATOM     76  C   UNL A   1      38.156  29.755  27.967  1.00  0.00     0.020 A 
ATOM     77  C   UNL A   1      38.799  29.766  30.309  1.00  0.00     0.020 A 
ATOM     78  C   UNL A   1      37.838  29.957  29.314  1.00  0.00     0.054 A 
BRANCH  78  79
ATOM     79  S   UNL A   1      36.143  30.429  29.756  1.00  0.00     0.124 S 
ATOM     80  O   UNL A   1      35.383  29.931  28.615  1.00  0.00    -0.237 OA
ATOM     81  O   UNL A   1      35.937  29.718  31.015  1.00  0.00    -0.237 OA
ATOM     82  O   UNL A   1      36.215  31.884  29.876  1.00  0.00    -0.744 OA
ENDBRANCH  78  79
ENDBRANCH  50  73
BRANCH  62  83
ATOM     83  C   UNL A   1      46.469  32.647  28.113  1.00  0.00    -0.014 A 
ATOM     84  C   UNL A   1      46.916  33.119  29.360  1.00  0.00     0.010 A 
ATOM     85  C   UNL A   1      46.415  33.536  27.023  1.00  0.00     0.010 A 
ATOM     86  C   UNL A   1      47.273  34.461  29.521  1.00  0.00     0.020 A 
ATOM     87  C   UNL A   1      46.798  34.871  27.173  1.00  0.00     0.020 A 
ATOM     88  C   UNL A   1      47.212  35.328  28.425  1.00  0.00     0.054 A 
BRANCH  88  89
ATOM     89  S   UNL A   1      47.721  37.054  28.649  1.00  0.00     0.124 S 
ATOM     90  O   UNL A   1      46.510  37.780  28.280  1.00  0.00    -0.237 OA
ATOM     91  O   UNL A   1      48.078  37.103  30.064  1.00  0.00    -0.237 OA
ATOM     92  O   UNL A   1      48.845  37.207  27.725  1.00  0.00    -0.744 OA
ENDBRANCH  88  89
ENDBRANCH  62  83
ENDBRANCH  36  37
ENDBRANCH  29  31
ENDBRANCH  28  29
ENDBRANCH  27  28
ENDBRANCH  26  27
ENDBRANCH   1  26
TORSDOF 20
ENDMDL
