MODEL 1
REMARK VINA RESULT:     -10.9      0.000      0.000
REMARK SMILES CCCc1cc(S(F)(F)(F)(F)F)cc2c1O[C@@H](C(F)(F)F)C(C(=O)OCCOCCOC(=O)c1ccc(-c3c4nc(c(-c5ccc(S(=O)(=O)[O-])cc5)c5ccc([nH]5)c(-c5ccc(S(=O)(=O)[O-])cc5)c5nc(c(-c6ccc(S(=O)(=O)[O-])cc6)c6ccc3[nH]6)C=C5)C=C4)cc1)=C2
REMARK SMILES IDX 29 1 28 2 27 3 26 4 25 5 23 6 24 7 22 8 4 9 5 10 15 11 6 12
REMARK SMILES IDX 14 13 16 14 13 15 94 16 17 17 3 18 2 19 1 20 7 21 8 22 9 23
REMARK SMILES IDX 10 24 11 25 12 26 18 27 19 28 20 29 21 30 30 31 31 32 32 33
REMARK SMILES IDX 33 34 34 35 35 36 93 37 36 38 92 39 37 40 38 41 39 42 86 43
REMARK SMILES IDX 40 44 91 45 85 46 87 47 41 48 90 49 84 50 83 51 42 53 72 54
REMARK SMILES IDX 53 55 71 56 54 57 57 58 70 59 88 60 55 61 56 62 69 64 89 65
REMARK SMILES IDX 58 66 43 67 44 68 52 69 45 70 51 71 46 72 47 73 48 74 49 75
REMARK SMILES IDX 50 76 73 77 74 78 82 79 75 80 81 81 76 82 77 83 78 84 79 85
REMARK SMILES IDX 80 86 59 87 60 88 68 89 61 90 67 91 62 92 63 93 64 94 65 95
REMARK SMILES IDX 66 96
REMARK H PARENT 87 52 57 63
REMARK Flexibility Score: inf
ROOT
ATOM      1  C   UNL A   1      39.491  22.749  26.928  1.00  0.00     0.202 C 
ENDROOT
BRANCH   1   2
ATOM      2  O   UNL A   1      38.845  22.189  25.794  1.00  0.00    -0.374 OA
BRANCH   2   3
ATOM      3  C   UNL A   1      37.540  22.735  25.674  1.00  0.00     0.202 C 
BRANCH   3   4
ATOM      4  C   UNL A   1      36.518  21.609  25.664  1.00  0.00     0.261 C 
BRANCH   4   5
ATOM      5  O   UNL A   1      35.859  21.579  24.406  1.00  0.00    -0.460 OA
BRANCH   5   6
ATOM      6  C   UNL A   1      35.566  22.792  23.728  1.00  0.00     0.338 C 
ATOM      7  O   UNL A   1      36.238  23.125  22.702  1.00  0.00    -0.246 OA
BRANCH   6   8
ATOM      8  C   UNL A   1      34.449  23.692  24.232  1.00  0.00     0.087 C 
ATOM      9  C   UNL A   1      31.287  26.271  25.124  1.00  0.00    -0.004 A 
ATOM     10  C   UNL A   1      31.533  27.462  25.784  1.00  0.00     0.032 A 
ATOM     11  C   UNL A   1      32.351  25.467  24.796  1.00  0.00     0.131 A 
ATOM     12  C   UNL A   1      32.811  27.840  26.102  1.00  0.00     0.108 A 
ATOM     13  C   UNL A   1      33.652  25.807  25.118  1.00  0.00     0.019 A 
ATOM     14  O   UNL A   1      32.102  24.345  24.043  1.00  0.00    -0.475 OA
ATOM     15  C   UNL A   1      33.866  27.012  25.776  1.00  0.00     0.036 A 
ATOM     16  C   UNL A   1      34.712  24.908  24.692  1.00  0.00     0.027 C 
ATOM     17  C   UNL A   1      33.003  23.215  24.220  1.00  0.00     0.316 C 
BRANCH   9  18
ATOM     18  C   UNL A   1      29.894  25.748  24.817  1.00  0.00     0.039 C 
BRANCH  18  19
ATOM     19  C   UNL A   1      29.275  26.576  23.704  1.00  0.00     0.001 C 
ATOM     20  C   UNL A   1      27.782  26.722  23.950  1.00  0.00     0.004 C 
ENDBRANCH  18  19
ENDBRANCH   9  18
BRANCH  12  21
ATOM     21  S   UNL A   1      33.113  29.413  26.944  1.00  0.00     0.310 S 
ATOM     22  F   UNL A   1      31.569  29.638  27.229  1.00  0.00    -0.094 F 
ATOM     23  F   UNL A   1      32.896  30.156  25.571  1.00  0.00    -0.094 F 
ATOM     24  F   UNL A   1      33.381  30.765  27.665  1.00  0.00    -0.094 F 
ATOM     25  F   UNL A   1      33.188  28.667  28.333  1.00  0.00    -0.094 F 
ATOM     26  F   UNL A   1      32.733  28.047  26.247  1.00  0.00    -0.094 F 
ENDBRANCH  12  21
BRANCH  17  27
ATOM     27  C   UNL A   1      32.809  22.243  23.066  1.00  0.00     0.430 C 
ATOM     28  F   UNL A   1      33.519  22.652  22.018  1.00  0.00    -0.167 F 
ATOM     29  F   UNL A   1      33.218  21.032  23.433  1.00  0.00    -0.167 F 
ATOM     30  F   UNL A   1      31.521  22.196  22.738  1.00  0.00    -0.167 F 
ENDBRANCH  17  27
ENDBRANCH   6   8
ENDBRANCH   5   6
ENDBRANCH   4   5
ENDBRANCH   3   4
ENDBRANCH   2   3
ENDBRANCH   1   2
BRANCH   1  31
ATOM     31  C   UNL A   1      40.403  23.881  26.484  1.00  0.00     0.261 C 
BRANCH  31  32
ATOM     32  O   UNL A   1      39.711  25.117  26.598  1.00  0.00    -0.460 OA
BRANCH  32  33
ATOM     33  C   UNL A   1      40.436  26.338  26.607  1.00  0.00     0.338 C 
ATOM     34  O   UNL A   1      41.045  26.723  25.559  1.00  0.00    -0.246 OA
BRANCH  33  35
ATOM     35  C   UNL A   1      40.483  27.185  27.867  1.00  0.00     0.060 A 
ATOM     36  C   UNL A   1      41.243  28.342  27.927  1.00  0.00     0.016 A 
ATOM     37  C   UNL A   1      39.755  26.784  28.904  1.00  0.00     0.016 A 
ATOM     38  C   UNL A   1      41.398  28.859  29.235  1.00  0.00     0.010 A 
ATOM     39  C   UNL A   1      39.856  27.421  30.117  1.00  0.00     0.010 A 
ATOM     40  C   UNL A   1      40.635  28.536  30.263  1.00  0.00    -0.014 A 
BRANCH  40  41
ATOM     41  C   UNL A   1      40.623  29.359  31.541  1.00  0.00     0.031 A 
ATOM     42  C   UNL A   1      41.647  29.075  32.447  1.00  0.00     0.074 A 
ATOM     43  C   UNL A   1      39.626  30.291  31.768  1.00  0.00     0.049 A 
ATOM     44  N   UNL A   1      41.866  29.647  33.632  1.00  0.00    -0.248 NA
ATOM     45  C   UNL A   1      42.688  28.061  32.224  1.00  0.00     0.031 C 
ATOM     46  C   UNL A   1      38.595  30.589  30.855  1.00  0.00     0.029 A 
ATOM     47  N   UNL A   1      39.445  31.082  32.881  1.00  0.00    -0.354 N 
ATOM     48  C   UNL A   1      42.954  29.124  34.203  1.00  0.00     0.074 A 
ATOM     49  C   UNL A   1      43.494  28.092  33.308  1.00  0.00     0.031 C 
ATOM     50  C   UNL A   1      37.797  31.537  31.414  1.00  0.00     0.029 A 
ATOM     51  C   UNL A   1      38.317  31.848  32.686  1.00  0.00     0.049 A 
ATOM     52  H   UNL A   1      40.021  31.097  33.679  1.00  0.00     0.167 HD
ATOM     53  C   UNL A   1      43.516  29.469  35.433  1.00  0.00     0.031 A 
ATOM     54  C   UNL A   1      37.755  32.769  33.555  1.00  0.00     0.031 A 
ATOM     55  C   UNL A   1      42.979  30.422  36.284  1.00  0.00     0.049 A 
ATOM     56  C   UNL A   1      38.286  33.073  34.811  1.00  0.00     0.074 A 
ATOM     57  C   UNL A   1      43.539  30.788  37.523  1.00  0.00     0.029 A 
ATOM     58  N   UNL A   1      41.838  31.170  36.099  1.00  0.00    -0.354 N 
ATOM     59  N   UNL A   1      39.395  32.579  35.364  1.00  0.00    -0.248 NA
ATOM     60  C   UNL A   1      37.682  34.024  35.754  1.00  0.00     0.031 C 
ATOM     61  C   UNL A   1      42.741  31.735  38.082  1.00  0.00     0.029 A 
ATOM     62  C   UNL A   1      41.669  31.977  37.202  1.00  0.00     0.049 A 
ATOM     63  H   UNL A   1      41.245  31.134  35.314  1.00  0.00     0.167 HD
ATOM     64  C   UNL A   1      39.590  33.121  36.567  1.00  0.00     0.074 A 
ATOM     65  C   UNL A   1      38.488  34.053  36.839  1.00  0.00     0.031 C 
ATOM     66  C   UNL A   1      40.646  32.880  37.447  1.00  0.00     0.031 A 
BRANCH  53  67
ATOM     67  C   UNL A   1      44.790  28.760  35.863  1.00  0.00    -0.014 A 
ATOM     68  C   UNL A   1      46.012  29.301  35.501  1.00  0.00     0.010 A 
ATOM     69  C   UNL A   1      44.716  27.654  36.593  1.00  0.00     0.010 A 
ATOM     70  C   UNL A   1      47.111  28.434  35.716  1.00  0.00     0.020 A 
ATOM     71  C   UNL A   1      45.846  26.928  36.881  1.00  0.00     0.020 A 
ATOM     72  C   UNL A   1      47.083  27.373  36.502  1.00  0.00     0.054 A 
BRANCH  72  73
ATOM     73  S   UNL A   1      48.601  26.553  37.049  1.00  0.00     0.124 S 
ATOM     74  O   UNL A   1      48.764  26.738  38.560  1.00  0.00    -0.237 OA
ATOM     75  O   UNL A   1      48.522  25.061  36.723  1.00  0.00    -0.237 OA
ATOM     76  O   UNL A   1      49.943  27.243  36.244  1.00  0.00    -0.744 OA
ENDBRANCH  72  73
ENDBRANCH  53  67
BRANCH  54  77
ATOM     77  C   UNL A   1      36.491  33.491  33.117  1.00  0.00    -0.014 A 
ATOM     78  C   UNL A   1      36.604  34.682  32.419  1.00  0.00     0.010 A 
ATOM     79  C   UNL A   1      35.303  32.986  33.429  1.00  0.00     0.010 A 
ATOM     80  C   UNL A   1      35.399  35.419  32.345  1.00  0.00     0.020 A 
ATOM     81  C   UNL A   1      34.156  33.706  33.204  1.00  0.00     0.020 A 
ATOM     82  C   UNL A   1      34.199  34.917  32.571  1.00  0.00     0.054 A 
BRANCH  82  83
ATOM     83  S   UNL A   1      32.692  35.787  32.072  1.00  0.00     0.124 S 
ATOM     84  O   UNL A   1      32.706  37.204  32.649  1.00  0.00    -0.237 OA
ATOM     85  O   UNL A   1      32.626  35.859  30.544  1.00  0.00    -0.237 OA
ATOM     86  O   UNL A   1      31.326  34.944  32.663  1.00  0.00    -0.744 OA
ENDBRANCH  82  83
ENDBRANCH  54  77
BRANCH  66  87
ATOM     87  C   UNL A   1      40.676  33.653  38.756  1.00  0.00    -0.014 A 
ATOM     88  C   UNL A   1      40.144  33.143  39.929  1.00  0.00     0.010 A 
ATOM     89  C   UNL A   1      41.273  34.839  38.729  1.00  0.00     0.010 A 
ATOM     90  C   UNL A   1      40.037  34.093  40.971  1.00  0.00     0.020 A 
ATOM     91  C   UNL A   1      41.245  35.661  39.830  1.00  0.00     0.020 A 
ATOM     92  C   UNL A   1      40.684  35.244  41.005  1.00  0.00     0.054 A 
BRANCH  92  93
ATOM     93  S   UNL A   1      40.822  36.216  42.526  1.00  0.00     0.124 S 
ATOM     94  O   UNL A   1      41.850  37.332  42.326  1.00  0.00    -0.237 OA
ATOM     95  O   UNL A   1      39.462  36.831  42.863  1.00  0.00    -0.237 OA
ATOM     96  O   UNL A   1      41.323  35.202  43.808  1.00  0.00    -0.744 OA
ENDBRANCH  92  93
ENDBRANCH  66  87
ENDBRANCH  40  41
ENDBRANCH  33  35
ENDBRANCH  32  33
ENDBRANCH  31  32
ENDBRANCH   1  31
TORSDOF 21
ENDMDL
MODEL 2
REMARK VINA RESULT:     -10.7      1.645      7.987
REMARK SMILES CCCc1cc(S(F)(F)(F)(F)F)cc2c1O[C@@H](C(F)(F)F)C(C(=O)OCCOCCOC(=O)c1ccc(-c3c4nc(c(-c5ccc(S(=O)(=O)[O-])cc5)c5ccc([nH]5)c(-c5ccc(S(=O)(=O)[O-])cc5)c5nc(c(-c6ccc(S(=O)(=O)[O-])cc6)c6ccc3[nH]6)C=C5)C=C4)cc1)=C2
REMARK SMILES IDX 29 1 28 2 27 3 26 4 25 5 23 6 24 7 22 8 4 9 5 10 15 11 6 12
REMARK SMILES IDX 14 13 16 14 13 15 94 16 17 17 3 18 2 19 1 20 7 21 8 22 9 23
REMARK SMILES IDX 10 24 11 25 12 26 18 27 19 28 20 29 21 30 30 31 31 32 32 33
REMARK SMILES IDX 33 34 34 35 35 36 93 37 36 38 92 39 37 40 38 41 39 42 86 43
REMARK SMILES IDX 40 44 91 45 85 46 87 47 41 48 90 49 84 50 83 51 42 53 72 54
REMARK SMILES IDX 53 55 71 56 54 57 57 58 70 59 88 60 55 61 56 62 69 64 89 65
REMARK SMILES IDX 58 66 43 67 44 68 52 69 45 70 51 71 46 72 47 73 48 74 49 75
REMARK SMILES IDX 50 76 73 77 74 78 82 79 75 80 81 81 76 82 77 83 78 84 79 85
REMARK SMILES IDX 80 86 59 87 60 88 68 89 61 90 67 91 62 92 63 93 64 94 65 95
REMARK SMILES IDX 66 96
REMARK H PARENT 87 52 57 63
REMARK Flexibility Score: inf
ROOT
ATOM      1  C   UNL A   1      40.832  21.334  26.583  1.00  0.00     0.202 C 
ENDROOT
BRANCH   1   2
ATOM      2  O   UNL A   1      39.569  21.982  26.577  1.00  0.00    -0.374 OA
BRANCH   2   3
ATOM      3  C   UNL A   1      38.710  21.338  25.647  1.00  0.00     0.202 C 
BRANCH   3   4
ATOM      4  C   UNL A   1      37.327  21.965  25.716  1.00  0.00     0.261 C 
BRANCH   4   5
ATOM      5  O   UNL A   1      37.302  23.144  24.925  1.00  0.00    -0.460 OA
BRANCH   5   6
ATOM      6  C   UNL A   1      36.193  23.405  24.076  1.00  0.00     0.338 C 
ATOM      7  O   UNL A   1      36.283  23.181  22.828  1.00  0.00    -0.246 OA
BRANCH   6   8
ATOM      8  C   UNL A   1      34.903  23.954  24.660  1.00  0.00     0.087 C 
ATOM      9  C   UNL A   1      31.159  25.418  25.797  1.00  0.00    -0.004 A 
ATOM     10  C   UNL A   1      31.024  26.737  26.191  1.00  0.00     0.032 A 
ATOM     11  C   UNL A   1      32.391  24.978  25.377  1.00  0.00     0.131 A 
ATOM     12  C   UNL A   1      32.093  27.593  26.161  1.00  0.00     0.108 A 
ATOM     13  C   UNL A   1      33.496  25.808  25.352  1.00  0.00     0.019 A 
ATOM     14  O   UNL A   1      32.483  23.699  24.883  1.00  0.00    -0.475 OA
ATOM     15  C   UNL A   1      33.325  27.129  25.749  1.00  0.00     0.036 A 
ATOM     16  C   UNL A   1      34.746  25.258  24.855  1.00  0.00     0.027 C 
ATOM     17  C   UNL A   1      33.761  23.019  25.037  1.00  0.00     0.316 C 
BRANCH   9  18
ATOM     18  C   UNL A   1      30.042  24.391  25.886  1.00  0.00     0.039 C 
BRANCH  18  19
ATOM     19  C   UNL A   1      30.419  23.318  26.893  1.00  0.00     0.001 C 
ATOM     20  C   UNL A   1      29.181  22.525  27.277  1.00  0.00     0.004 C 
ENDBRANCH  18  19
ENDBRANCH   9  18
BRANCH  12  21
ATOM     21  S   UNL A   1      31.890  29.322  26.657  1.00  0.00     0.310 S 
ATOM     22  F   UNL A   1      33.311  29.728  26.082  1.00  0.00    -0.094 F 
ATOM     23  F   UNL A   1      32.613  28.987  28.017  1.00  0.00    -0.094 F 
ATOM     24  F   UNL A   1      31.709  30.806  27.088  1.00  0.00    -0.094 F 
ATOM     25  F   UNL A   1      31.296  29.671  25.237  1.00  0.00    -0.094 F 
ATOM     26  F   UNL A   1      32.169  27.847  26.163  1.00  0.00    -0.094 F 
ENDBRANCH  12  21
BRANCH  17  27
ATOM     27  C   UNL A   1      33.790  21.805  24.122  1.00  0.00     0.430 C 
ATOM     28  F   UNL A   1      34.908  21.117  24.334  1.00  0.00    -0.167 F 
ATOM     29  F   UNL A   1      32.738  21.032  24.377  1.00  0.00    -0.167 F 
ATOM     30  F   UNL A   1      33.750  22.206  22.854  1.00  0.00    -0.167 F 
ENDBRANCH  17  27
ENDBRANCH   6   8
ENDBRANCH   5   6
ENDBRANCH   4   5
ENDBRANCH   3   4
ENDBRANCH   2   3
ENDBRANCH   1   2
BRANCH   1  31
ATOM     31  C   UNL A   1      41.937  22.377  26.524  1.00  0.00     0.261 C 
BRANCH  31  32
ATOM     32  O   UNL A   1      41.405  23.600  26.035  1.00  0.00    -0.460 OA
BRANCH  32  33
ATOM     33  C   UNL A   1      42.131  24.808  26.205  1.00  0.00     0.338 C 
ATOM     34  O   UNL A   1      43.004  25.151  25.347  1.00  0.00    -0.246 OA
BRANCH  33  35
ATOM     35  C   UNL A   1      41.865  25.692  27.413  1.00  0.00     0.060 A 
ATOM     36  C   UNL A   1      40.874  25.377  28.329  1.00  0.00     0.016 A 
ATOM     37  C   UNL A   1      42.629  26.767  27.567  1.00  0.00     0.016 A 
ATOM     38  C   UNL A   1      40.572  26.426  29.229  1.00  0.00     0.010 A 
ATOM     39  C   UNL A   1      42.357  27.682  28.555  1.00  0.00     0.010 A 
ATOM     40  C   UNL A   1      41.354  27.464  29.459  1.00  0.00    -0.014 A 
BRANCH  40  41
ATOM     41  C   UNL A   1      41.150  28.369  30.663  1.00  0.00     0.031 A 
ATOM     42  C   UNL A   1      40.139  29.324  30.532  1.00  0.00     0.074 A 
ATOM     43  C   UNL A   1      41.957  28.246  31.780  1.00  0.00     0.049 A 
ATOM     44  N   UNL A   1      39.757  30.232  31.431  1.00  0.00    -0.248 NA
ATOM     45  C   UNL A   1      39.303  29.480  29.332  1.00  0.00     0.031 C 
ATOM     46  C   UNL A   1      42.973  27.280  31.923  1.00  0.00     0.029 A 
ATOM     47  N   UNL A   1      41.935  29.007  32.927  1.00  0.00    -0.354 N 
ATOM     48  C   UNL A   1      38.744  30.958  30.952  1.00  0.00     0.074 A 
ATOM     49  C   UNL A   1      38.441  30.488  29.592  1.00  0.00     0.031 C 
ATOM     50  C   UNL A   1      43.562  27.463  33.134  1.00  0.00     0.029 A 
ATOM     51  C   UNL A   1      42.923  28.546  33.768  1.00  0.00     0.049 A 
ATOM     52  H   UNL A   1      41.319  29.752  33.114  1.00  0.00     0.167 HD
ATOM     53  C   UNL A   1      38.060  31.990  31.595  1.00  0.00     0.031 A 
ATOM     54  C   UNL A   1      43.268  29.031  35.020  1.00  0.00     0.031 A 
ATOM     55  C   UNL A   1      38.375  32.446  32.865  1.00  0.00     0.049 A 
ATOM     56  C   UNL A   1      42.620  30.102  35.641  1.00  0.00     0.074 A 
ATOM     57  C   UNL A   1      37.690  33.480  33.531  1.00  0.00     0.029 A 
ATOM     58  N   UNL A   1      39.380  32.002  33.696  1.00  0.00    -0.354 N 
ATOM     59  N   UNL A   1      41.583  30.801  35.178  1.00  0.00    -0.248 NA
ATOM     60  C   UNL A   1      42.996  30.645  36.953  1.00  0.00     0.031 C 
ATOM     61  C   UNL A   1      38.280  33.664  34.742  1.00  0.00     0.029 A 
ATOM     62  C   UNL A   1      39.343  32.748  34.853  1.00  0.00     0.049 A 
ATOM     63  H   UNL A   1      40.014  31.276  33.496  1.00  0.00     0.167 HD
ATOM     64  C   UNL A   1      41.228  31.737  36.060  1.00  0.00     0.074 A 
ATOM     65  C   UNL A   1      42.136  31.654  37.212  1.00  0.00     0.031 C 
ATOM     66  C   UNL A   1      40.180  32.652  35.954  1.00  0.00     0.031 A 
BRANCH  53  67
ATOM     67  C   UNL A   1      36.904  32.651  30.862  1.00  0.00    -0.014 A 
ATOM     68  C   UNL A   1      37.184  33.560  29.854  1.00  0.00     0.010 A 
ATOM     69  C   UNL A   1      35.655  32.336  31.176  1.00  0.00     0.010 A 
ATOM     70  C   UNL A   1      36.059  34.307  29.427  1.00  0.00     0.020 A 
ATOM     71  C   UNL A   1      34.599  33.015  30.618  1.00  0.00     0.020 A 
ATOM     72  C   UNL A   1      34.804  33.968  29.660  1.00  0.00     0.054 A 
BRANCH  72  73
ATOM     73  S   UNL A   1      33.430  34.725  28.756  1.00  0.00     0.124 S 
ATOM     74  O   UNL A   1      32.314  35.088  29.738  1.00  0.00    -0.237 OA
ATOM     75  O   UNL A   1      33.920  35.989  28.048  1.00  0.00    -0.237 OA
ATOM     76  O   UNL A   1      32.832  33.618  27.598  1.00  0.00    -0.744 OA
ENDBRANCH  72  73
ENDBRANCH  53  67
BRANCH  54  77
ATOM     77  C   UNL A   1      44.412  28.358  35.760  1.00  0.00    -0.014 A 
ATOM     78  C   UNL A   1      44.139  27.277  36.582  1.00  0.00     0.010 A 
ATOM     79  C   UNL A   1      45.646  28.829  35.631  1.00  0.00     0.010 A 
ATOM     80  C   UNL A   1      45.198  26.938  37.455  1.00  0.00     0.020 A 
ATOM     81  C   UNL A   1      46.663  28.355  36.424  1.00  0.00     0.020 A 
ATOM     82  C   UNL A   1      46.450  27.327  37.299  1.00  0.00     0.054 A 
BRANCH  82  83
ATOM     83  S   UNL A   1      47.812  26.543  38.198  1.00  0.00     0.124 S 
ATOM     84  O   UNL A   1      48.533  25.558  37.275  1.00  0.00    -0.237 OA
ATOM     85  O   UNL A   1      48.797  27.615  38.670  1.00  0.00    -0.237 OA
ATOM     86  O   UNL A   1      47.190  25.703  39.552  1.00  0.00    -0.744 OA
ENDBRANCH  82  83
ENDBRANCH  54  77
BRANCH  66  87
ATOM     87  C   UNL A   1      39.942  33.604  37.115  1.00  0.00    -0.014 A 
ATOM     88  C   UNL A   1      39.062  33.309  38.144  1.00  0.00     0.010 A 
ATOM     89  C   UNL A   1      40.651  34.726  37.115  1.00  0.00     0.010 A 
ATOM     90  C   UNL A   1      38.784  34.407  38.993  1.00  0.00     0.020 A 
ATOM     91  C   UNL A   1      40.419  35.699  38.058  1.00  0.00     0.020 A 
ATOM     92  C   UNL A   1      39.521  35.500  39.069  1.00  0.00     0.054 A 
BRANCH  92  93
ATOM     93  S   UNL A   1      39.352  36.671  40.439  1.00  0.00     0.124 S 
ATOM     94  O   UNL A   1      38.424  36.080  41.503  1.00  0.00    -0.237 OA
ATOM     95  O   UNL A   1      40.727  36.938  41.055  1.00  0.00    -0.237 OA
ATOM     96  O   UNL A   1      38.692  38.137  39.858  1.00  0.00    -0.744 OA
ENDBRANCH  92  93
ENDBRANCH  66  87
ENDBRANCH  40  41
ENDBRANCH  33  35
ENDBRANCH  32  33
ENDBRANCH  31  32
ENDBRANCH   1  31
TORSDOF 21
ENDMDL
MODEL 3
REMARK VINA RESULT:     -10.7      1.602      2.117
REMARK SMILES CCCc1cc(S(F)(F)(F)(F)F)cc2c1O[C@@H](C(F)(F)F)C(C(=O)OCCOCCOC(=O)c1ccc(-c3c4nc(c(-c5ccc(S(=O)(=O)[O-])cc5)c5ccc([nH]5)c(-c5ccc(S(=O)(=O)[O-])cc5)c5nc(c(-c6ccc(S(=O)(=O)[O-])cc6)c6ccc3[nH]6)C=C5)C=C4)cc1)=C2
REMARK SMILES IDX 29 1 28 2 27 3 26 4 25 5 23 6 24 7 22 8 4 9 5 10 15 11 6 12
REMARK SMILES IDX 14 13 16 14 13 15 94 16 17 17 3 18 2 19 1 20 7 21 8 22 9 23
REMARK SMILES IDX 10 24 11 25 12 26 18 27 19 28 20 29 21 30 30 31 31 32 32 33
REMARK SMILES IDX 33 34 34 35 35 36 93 37 36 38 92 39 37 40 38 41 39 42 86 43
REMARK SMILES IDX 40 44 91 45 85 46 87 47 41 48 90 49 84 50 83 51 42 53 72 54
REMARK SMILES IDX 53 55 71 56 54 57 57 58 70 59 88 60 55 61 56 62 69 64 89 65
REMARK SMILES IDX 58 66 43 67 44 68 52 69 45 70 51 71 46 72 47 73 48 74 49 75
REMARK SMILES IDX 50 76 73 77 74 78 82 79 75 80 81 81 76 82 77 83 78 84 79 85
REMARK SMILES IDX 80 86 59 87 60 88 68 89 61 90 67 91 62 92 63 93 64 94 65 95
REMARK SMILES IDX 66 96
REMARK H PARENT 87 52 57 63
REMARK Flexibility Score: inf
ROOT
ATOM      1  C   UNL A   1      40.330  21.598  26.942  1.00  0.00     0.202 C 
ENDROOT
BRANCH   1   2
ATOM      2  O   UNL A   1      39.633  21.489  25.710  1.00  0.00    -0.374 OA
BRANCH   2   3
ATOM      3  C   UNL A   1      38.346  22.073  25.840  1.00  0.00     0.202 C 
BRANCH   3   4
ATOM      4  C   UNL A   1      37.393  21.424  24.848  1.00  0.00     0.261 C 
BRANCH   4   5
ATOM      5  O   UNL A   1      36.349  22.333  24.530  1.00  0.00    -0.460 OA
BRANCH   5   6
ATOM      6  C   UNL A   1      35.163  22.353  25.312  1.00  0.00     0.338 C 
ATOM      7  O   UNL A   1      34.887  21.372  26.071  1.00  0.00    -0.246 OA
BRANCH   6   8
ATOM      8  C   UNL A   1      34.225  23.546  25.237  1.00  0.00     0.087 C 
ATOM      9  C   UNL A   1      31.786  26.866  24.542  1.00  0.00    -0.004 A 
ATOM     10  C   UNL A   1      32.066  28.069  25.164  1.00  0.00     0.032 A 
ATOM     11  C   UNL A   1      32.636  25.806  24.746  1.00  0.00     0.131 A 
ATOM     12  C   UNL A   1      33.168  28.209  25.965  1.00  0.00     0.108 A 
ATOM     13  C   UNL A   1      33.747  25.904  25.563  1.00  0.00     0.019 A 
ATOM     14  O   UNL A   1      32.409  24.653  24.034  1.00  0.00    -0.475 OA
ATOM     15  C   UNL A   1      34.001  27.128  26.169  1.00  0.00     0.036 A 
ATOM     16  C   UNL A   1      34.604  24.737  25.684  1.00  0.00     0.027 C 
ATOM     17  C   UNL A   1      32.828  23.401  24.648  1.00  0.00     0.316 C 
BRANCH   9  18
ATOM     18  C   UNL A   1      30.539  26.613  23.711  1.00  0.00     0.039 C 
BRANCH  18  19
ATOM     19  C   UNL A   1      30.666  27.327  22.376  1.00  0.00     0.001 C 
ATOM     20  C   UNL A   1      30.161  28.753  22.513  1.00  0.00     0.004 C 
ENDBRANCH  18  19
ENDBRANCH   9  18
BRANCH  12  21
ATOM     21  S   UNL A   1      33.529  29.799  26.750  1.00  0.00     0.310 S 
ATOM     22  F   UNL A   1      32.216  29.739  27.638  1.00  0.00    -0.094 F 
ATOM     23  F   UNL A   1      32.664  30.510  25.641  1.00  0.00    -0.094 F 
ATOM     24  F   UNL A   1      33.845  31.167  27.419  1.00  0.00    -0.094 F 
ATOM     25  F   UNL A   1      34.273  29.060  27.930  1.00  0.00    -0.094 F 
ATOM     26  F   UNL A   1      33.123  28.397  26.146  1.00  0.00    -0.094 F 
ENDBRANCH  12  21
BRANCH  17  27
ATOM     27  C   UNL A   1      32.847  22.311  23.587  1.00  0.00     0.430 C 
ATOM     28  F   UNL A   1      31.750  22.402  22.840  1.00  0.00    -0.167 F 
ATOM     29  F   UNL A   1      33.921  22.460  22.817  1.00  0.00    -0.167 F 
ATOM     30  F   UNL A   1      32.885  21.120  24.177  1.00  0.00    -0.167 F 
ENDBRANCH  17  27
ENDBRANCH   6   8
ENDBRANCH   5   6
ENDBRANCH   4   5
ENDBRANCH   3   4
ENDBRANCH   2   3
ENDBRANCH   1   2
BRANCH   1  31
ATOM     31  C   UNL A   1      41.665  22.287  26.710  1.00  0.00     0.261 C 
BRANCH  31  32
ATOM     32  O   UNL A   1      41.447  23.538  26.075  1.00  0.00    -0.460 OA
BRANCH  32  33
ATOM     33  C   UNL A   1      42.305  24.635  26.351  1.00  0.00     0.338 C 
ATOM     34  O   UNL A   1      43.348  24.819  25.647  1.00  0.00    -0.246 OA
BRANCH  33  35
ATOM     35  C   UNL A   1      41.978  25.589  27.488  1.00  0.00     0.060 A 
ATOM     36  C   UNL A   1      40.905  25.358  28.333  1.00  0.00     0.016 A 
ATOM     37  C   UNL A   1      42.769  26.643  27.651  1.00  0.00     0.016 A 
ATOM     38  C   UNL A   1      40.573  26.462  29.152  1.00  0.00     0.010 A 
ATOM     39  C   UNL A   1      42.454  27.618  28.567  1.00  0.00     0.010 A 
ATOM     40  C   UNL A   1      41.374  27.483  29.394  1.00  0.00    -0.014 A 
BRANCH  40  41
ATOM     41  C   UNL A   1      41.110  28.457  30.532  1.00  0.00     0.031 A 
ATOM     42  C   UNL A   1      41.905  28.286  31.665  1.00  0.00     0.074 A 
ATOM     43  C   UNL A   1      40.112  29.411  30.423  1.00  0.00     0.049 A 
ATOM     44  N   UNL A   1      41.879  28.999  32.793  1.00  0.00    -0.248 NA
ATOM     45  C   UNL A   1      42.942  27.251  31.797  1.00  0.00     0.031 C 
ATOM     46  C   UNL A   1      39.311  29.594  29.279  1.00  0.00     0.029 A 
ATOM     47  N   UNL A   1      39.717  30.331  31.367  1.00  0.00    -0.354 N 
ATOM     48  C   UNL A   1      42.803  28.549  33.645  1.00  0.00     0.074 A 
ATOM     49  C   UNL A   1      43.496  27.414  33.019  1.00  0.00     0.031 C 
ATOM     50  C   UNL A   1      38.438  30.604  29.534  1.00  0.00     0.029 A 
ATOM     51  C   UNL A   1      38.679  31.068  30.841  1.00  0.00     0.049 A 
ATOM     52  H   UNL A   1      40.108  30.444  32.263  1.00  0.00     0.167 HD
ATOM     53  C   UNL A   1      43.097  29.042  34.917  1.00  0.00     0.031 A 
ATOM     54  C   UNL A   1      37.968  32.090  31.451  1.00  0.00     0.031 A 
ATOM     55  C   UNL A   1      42.415  30.092  35.511  1.00  0.00     0.049 A 
ATOM     56  C   UNL A   1      38.224  32.545  32.747  1.00  0.00     0.074 A 
ATOM     57  C   UNL A   1      42.704  30.606  36.789  1.00  0.00     0.029 A 
ATOM     58  N   UNL A   1      41.361  30.813  34.994  1.00  0.00    -0.354 N 
ATOM     59  N   UNL A   1      39.173  32.122  33.582  1.00  0.00    -0.248 NA
ATOM     60  C   UNL A   1      37.456  33.604  33.416  1.00  0.00     0.031 C 
ATOM     61  C   UNL A   1      41.830  31.616  37.044  1.00  0.00     0.029 A 
ATOM     62  C   UNL A   1      40.980  31.749  35.930  1.00  0.00     0.049 A 
ATOM     63  H   UNL A   1      40.951  30.681  34.109  1.00  0.00     0.167 HD
ATOM     64  C   UNL A   1      39.119  32.807  34.726  1.00  0.00     0.074 A 
ATOM     65  C   UNL A   1      38.010  33.766  34.638  1.00  0.00     0.031 C 
ATOM     66  C   UNL A   1      39.953  32.675  35.837  1.00  0.00     0.031 A 
BRANCH  53  67
ATOM     67  C   UNL A   1      44.228  28.390  35.696  1.00  0.00    -0.014 A 
ATOM     68  C   UNL A   1      45.516  28.873  35.536  1.00  0.00     0.010 A 
ATOM     69  C   UNL A   1      43.967  27.390  36.529  1.00  0.00     0.010 A 
ATOM     70  C   UNL A   1      46.516  28.037  36.089  1.00  0.00     0.020 A 
ATOM     71  C   UNL A   1      44.987  26.704  37.141  1.00  0.00     0.020 A 
ATOM     72  C   UNL A   1      46.289  27.089  36.980  1.00  0.00     0.054 A 
BRANCH  72  73
ATOM     73  S   UNL A   1      47.631  26.342  37.938  1.00  0.00     0.124 S 
ATOM     74  O   UNL A   1      48.125  25.082  37.225  1.00  0.00    -0.237 OA
ATOM     75  O   UNL A   1      48.783  27.341  38.068  1.00  0.00    -0.237 OA
ATOM     76  O   UNL A   1      47.057  25.928  39.495  1.00  0.00    -0.744 OA
ENDBRANCH  72  73
ENDBRANCH  53  67
BRANCH  54  77
ATOM     77  C   UNL A   1      36.849  32.753  30.665  1.00  0.00    -0.014 A 
ATOM     78  C   UNL A   1      37.147  33.828  29.845  1.00  0.00     0.010 A 
ATOM     79  C   UNL A   1      35.603  32.311  30.795  1.00  0.00     0.010 A 
ATOM     80  C   UNL A   1      36.013  34.560  29.423  1.00  0.00     0.020 A 
ATOM     81  C   UNL A   1      34.554  33.003  30.239  1.00  0.00     0.020 A 
ATOM     82  C   UNL A   1      34.773  34.108  29.465  1.00  0.00     0.054 A 
BRANCH  82  83
ATOM     83  S   UNL A   1      33.434  34.911  28.550  1.00  0.00     0.124 S 
ATOM     84  O   UNL A   1      34.026  35.898  27.541  1.00  0.00    -0.237 OA
ATOM     85  O   UNL A   1      32.615  33.852  27.807  1.00  0.00    -0.237 OA
ATOM     86  O   UNL A   1      32.422  35.752  29.642  1.00  0.00    -0.744 OA
ENDBRANCH  82  83
ENDBRANCH  54  77
BRANCH  66  87
ATOM     87  C   UNL A   1      39.721  33.603  37.018  1.00  0.00    -0.014 A 
ATOM     88  C   UNL A   1      39.001  33.212  38.135  1.00  0.00     0.010 A 
ATOM     89  C   UNL A   1      40.277  34.807  36.943  1.00  0.00     0.010 A 
ATOM     90  C   UNL A   1      38.677  34.276  39.011  1.00  0.00     0.020 A 
ATOM     91  C   UNL A   1      40.024  35.755  37.906  1.00  0.00     0.020 A 
ATOM     92  C   UNL A   1      39.272  35.455  39.008  1.00  0.00     0.054 A 
BRANCH  92  93
ATOM     93  S   UNL A   1      39.101  36.612  40.390  1.00  0.00     0.124 S 
ATOM     94  O   UNL A   1      40.482  36.914  40.976  1.00  0.00    -0.237 OA
ATOM     95  O   UNL A   1      38.464  37.911  39.892  1.00  0.00    -0.237 OA
ATOM     96  O   UNL A   1      38.109  35.916  41.597  1.00  0.00    -0.744 OA
ENDBRANCH  92  93
ENDBRANCH  66  87
ENDBRANCH  40  41
ENDBRANCH  33  35
ENDBRANCH  32  33
ENDBRANCH  31  32
ENDBRANCH   1  31
TORSDOF 21
ENDMDL
