MODEL 1
REMARK VINA RESULT:     -13.4      0.000      0.000
REMARK SMILES Cc1ccccc1S(=O)(=O)Nc1ccc(N2CCOCC2)cc1C(=O)OCCOCCOC(=O)c1ccc(-c2c3nc(c(-c4ccc(S(=O)(=O)[O-])cc4)c4ccc([nH]4)c(-c4ccc(S(=O)(=O)[O-])cc4)c4nc(c(-c5ccc(S(=O)(=O)[O-])cc5)c5ccc2[nH]5)C=C4)C=C3)cc1
REMARK SMILES IDX 29 1 28 2 27 3 26 4 24 5 25 6 23 7 12 8 13 9 14 10 22 11
REMARK SMILES IDX 15 12 11 13 8 15 9 16 10 17 7 18 1 19 2 20 3 21 4 22 6 23
REMARK SMILES IDX 5 24 16 25 17 26 21 27 18 28 20 29 19 30 30 31 31 32 32 33
REMARK SMILES IDX 33 34 34 35 35 36 36 37 94 38 37 39 93 40 38 41 39 42 40 43
REMARK SMILES IDX 87 44 41 45 92 46 86 47 88 48 42 49 91 50 85 51 84 52 43 54
REMARK SMILES IDX 73 55 54 56 72 57 55 58 58 59 71 60 89 61 56 62 57 63 70 65
REMARK SMILES IDX 90 66 59 67 44 68 45 69 53 70 46 71 52 72 47 73 48 74 49 75
REMARK SMILES IDX 50 76 51 77 74 78 75 79 83 80 76 81 82 82 77 83 78 84 79 85
REMARK SMILES IDX 80 86 81 87 60 88 61 89 69 90 62 91 68 92 63 93 64 94 65 95
REMARK SMILES IDX 66 96 67 97
REMARK H PARENT 11 14 88 53 58 64
REMARK Flexibility Score: inf
ROOT
ATOM      1  O   UNL A   1      34.624  23.507  22.414  1.00  0.00    -0.374 OA
ENDROOT
BRANCH   1   2
ATOM      2  C   UNL A   1      33.281  23.936  22.555  1.00  0.00     0.202 C 
BRANCH   2   3
ATOM      3  C   UNL A   1      33.235  25.423  22.335  1.00  0.00     0.261 C 
BRANCH   3   4
ATOM      4  O   UNL A   1      31.932  26.031  22.501  1.00  0.00    -0.460 OA
BRANCH   4   5
ATOM      5  C   UNL A   1      31.648  27.254  23.008  1.00  0.00     0.340 C 
ATOM      6  O   UNL A   1      32.375  28.168  23.313  1.00  0.00    -0.246 OA
BRANCH   5   7
ATOM      7  C   UNL A   1      30.170  27.343  23.019  1.00  0.00     0.086 A 
ATOM      8  C   UNL A   1      29.435  26.469  23.824  1.00  0.00     0.064 A 
ATOM      9  C   UNL A   1      28.078  26.732  24.011  1.00  0.00     0.030 A 
ATOM     10  C   UNL A   1      27.525  27.939  23.545  1.00  0.00     0.028 A 
ATOM     11  C   UNL A   1      29.563  28.469  22.434  1.00  0.00     0.043 A 
ATOM     12  C   UNL A   1      28.274  28.853  22.789  1.00  0.00     0.038 A 
BRANCH   8  13
ATOM     13  N   UNL A   1      30.074  25.384  24.497  1.00  0.00    -0.279 N 
ATOM     14  H   UNL A   1      30.321  24.592  23.966  1.00  0.00     0.180 HD
BRANCH  13  15
ATOM     15  S   UNL A   1      30.431  25.374  26.137  1.00  0.00     0.262 S 
ATOM     16  O   UNL A   1      29.324  24.645  26.733  1.00  0.00    -0.201 OA
ATOM     17  O   UNL A   1      30.732  26.715  26.594  1.00  0.00    -0.201 OA
BRANCH  15  18
ATOM     18  C   UNL A   1      31.906  24.382  26.466  1.00  0.00     0.090 A 
ATOM     19  C   UNL A   1      33.689  26.140  25.812  1.00  0.00     0.046 C 
ATOM     20  C   UNL A   1      33.238  24.801  26.294  1.00  0.00    -0.031 A 
ATOM     21  C   UNL A   1      34.284  23.904  26.608  1.00  0.00     0.005 A 
ATOM     22  C   UNL A   1      34.037  22.669  27.197  1.00  0.00     0.000 A 
ATOM     23  C   UNL A   1      31.673  23.132  27.088  1.00  0.00     0.022 A 
ATOM     24  C   UNL A   1      32.729  22.296  27.471  1.00  0.00     0.001 A 
ENDBRANCH  15  18
ENDBRANCH  13  15
ENDBRANCH   8  13
BRANCH  12  25
ATOM     25  N   UNL A   1      27.809  30.122  22.506  1.00  0.00    -0.367 N 
ATOM     26  C   UNL A   1      27.787  30.673  21.140  1.00  0.00     0.145 C 
ATOM     27  C   UNL A   1      27.693  31.110  23.592  1.00  0.00     0.145 C 
ATOM     28  C   UNL A   1      28.696  31.906  21.022  1.00  0.00     0.181 C 
ATOM     29  C   UNL A   1      28.574  32.347  23.322  1.00  0.00     0.181 C 
ATOM     30  O   UNL A   1      28.357  32.892  22.012  1.00  0.00    -0.378 OA
ENDBRANCH  12  25
ENDBRANCH   5   7
ENDBRANCH   4   5
ENDBRANCH   3   4
ENDBRANCH   2   3
ENDBRANCH   1   2
BRANCH   1  31
ATOM     31  C   UNL A   1      35.297  23.325  23.642  1.00  0.00     0.202 C 
BRANCH  31  32
ATOM     32  C   UNL A   1      36.098  22.023  23.755  1.00  0.00     0.261 C 
BRANCH  32  33
ATOM     33  O   UNL A   1      37.479  22.257  24.075  1.00  0.00    -0.460 OA
BRANCH  33  34
ATOM     34  C   UNL A   1      37.962  21.493  25.081  1.00  0.00     0.338 C 
ATOM     35  O   UNL A   1      38.306  20.325  24.992  1.00  0.00    -0.246 OA
BRANCH  34  36
ATOM     36  C   UNL A   1      38.437  22.425  26.118  1.00  0.00     0.060 A 
ATOM     37  C   UNL A   1      37.990  23.747  26.235  1.00  0.00     0.016 A 
ATOM     38  C   UNL A   1      39.596  22.000  26.759  1.00  0.00     0.016 A 
ATOM     39  C   UNL A   1      38.742  24.660  26.988  1.00  0.00     0.010 A 
ATOM     40  C   UNL A   1      40.405  22.944  27.353  1.00  0.00     0.010 A 
ATOM     41  C   UNL A   1      39.977  24.270  27.514  1.00  0.00    -0.014 A 
BRANCH  41  42
ATOM     42  C   UNL A   1      40.921  25.145  28.219  1.00  0.00     0.031 A 
ATOM     43  C   UNL A   1      40.453  26.441  28.760  1.00  0.00     0.074 A 
ATOM     44  C   UNL A   1      42.179  24.762  28.527  1.00  0.00     0.049 A 
ATOM     45  N   UNL A   1      41.255  27.383  29.124  1.00  0.00    -0.248 NA
ATOM     46  C   UNL A   1      39.050  26.831  28.873  1.00  0.00     0.031 C 
ATOM     47  C   UNL A   1      43.067  25.291  29.561  1.00  0.00     0.029 A 
ATOM     48  N   UNL A   1      42.946  23.782  27.915  1.00  0.00    -0.354 N 
ATOM     49  C   UNL A   1      40.525  28.283  29.856  1.00  0.00     0.074 A 
ATOM     50  C   UNL A   1      39.153  27.990  29.526  1.00  0.00     0.031 C 
ATOM     51  C   UNL A   1      44.302  24.799  29.375  1.00  0.00     0.029 A 
ATOM     52  C   UNL A   1      44.303  24.055  28.128  1.00  0.00     0.049 A 
ATOM     53  H   UNL A   1      42.592  23.015  27.410  1.00  0.00     0.167 HD
ATOM     54  C   UNL A   1      41.171  29.066  30.766  1.00  0.00     0.031 A 
ATOM     55  C   UNL A   1      45.130  24.244  27.059  1.00  0.00     0.031 A 
ATOM     56  C   UNL A   1      42.640  28.961  30.645  1.00  0.00     0.049 A 
ATOM     57  C   UNL A   1      45.558  25.693  26.950  1.00  0.00     0.074 A 
ATOM     58  C   UNL A   1      43.681  28.552  31.463  1.00  0.00     0.029 A 
ATOM     59  N   UNL A   1      43.208  29.101  29.381  1.00  0.00    -0.354 N 
ATOM     60  N   UNL A   1      45.379  26.571  27.899  1.00  0.00    -0.248 NA
ATOM     61  C   UNL A   1      46.141  26.295  25.751  1.00  0.00     0.031 C 
ATOM     62  C   UNL A   1      44.867  28.441  30.664  1.00  0.00     0.029 A 
ATOM     63  C   UNL A   1      44.560  28.815  29.368  1.00  0.00     0.049 A 
ATOM     64  H   UNL A   1      42.703  29.375  28.583  1.00  0.00     0.167 HD
ATOM     65  C   UNL A   1      45.619  27.824  27.419  1.00  0.00     0.074 A 
ATOM     66  C   UNL A   1      46.162  27.598  26.088  1.00  0.00     0.031 C 
ATOM     67  C   UNL A   1      45.288  28.954  28.110  1.00  0.00     0.031 A 
BRANCH  54  68
ATOM     68  C   UNL A   1      40.459  29.809  31.886  1.00  0.00    -0.014 A 
ATOM     69  C   UNL A   1      40.454  29.285  33.193  1.00  0.00     0.010 A 
ATOM     70  C   UNL A   1      39.724  31.002  31.714  1.00  0.00     0.010 A 
ATOM     71  C   UNL A   1      39.752  29.904  34.247  1.00  0.00     0.020 A 
ATOM     72  C   UNL A   1      39.036  31.642  32.753  1.00  0.00     0.020 A 
ATOM     73  C   UNL A   1      39.048  31.086  34.019  1.00  0.00     0.054 A 
BRANCH  73  74
ATOM     74  S   UNL A   1      38.157  31.890  35.373  1.00  0.00     0.124 S 
ATOM     75  O   UNL A   1      39.093  32.932  35.789  1.00  0.00    -0.237 OA
ATOM     76  O   UNL A   1      36.941  32.358  34.716  1.00  0.00    -0.237 OA
ATOM     77  O   UNL A   1      37.958  30.816  36.346  1.00  0.00    -0.744 OA
ENDBRANCH  73  74
ENDBRANCH  54  68
BRANCH  55  78
ATOM     78  C   UNL A   1      44.867  23.265  25.951  1.00  0.00    -0.014 A 
ATOM     79  C   UNL A   1      45.997  22.680  25.332  1.00  0.00     0.010 A 
ATOM     80  C   UNL A   1      43.634  22.600  25.833  1.00  0.00     0.010 A 
ATOM     81  C   UNL A   1      45.928  21.408  24.742  1.00  0.00     0.020 A 
ATOM     82  C   UNL A   1      43.564  21.315  25.259  1.00  0.00     0.020 A 
ATOM     83  C   UNL A   1      44.721  20.709  24.758  1.00  0.00     0.054 A 
BRANCH  83  84
ATOM     84  S   UNL A   1      44.733  18.916  24.392  1.00  0.00     0.124 S 
ATOM     85  O   UNL A   1      44.688  18.894  22.935  1.00  0.00    -0.237 OA
ATOM     86  O   UNL A   1      45.992  18.468  24.986  1.00  0.00    -0.237 OA
ATOM     87  O   UNL A   1      43.538  18.429  25.076  1.00  0.00    -0.744 OA
ENDBRANCH  83  84
ENDBRANCH  55  78
BRANCH  67  88
ATOM     88  C   UNL A   1      45.584  30.328  27.584  1.00  0.00    -0.014 A 
ATOM     89  C   UNL A   1      44.622  31.073  26.885  1.00  0.00     0.010 A 
ATOM     90  C   UNL A   1      46.886  30.864  27.677  1.00  0.00     0.010 A 
ATOM     91  C   UNL A   1      44.928  32.338  26.369  1.00  0.00     0.020 A 
ATOM     92  C   UNL A   1      47.209  32.112  27.145  1.00  0.00     0.020 A 
ATOM     93  C   UNL A   1      46.217  32.855  26.517  1.00  0.00     0.054 A 
BRANCH  93  94
ATOM     94  S   UNL A   1      46.596  34.493  25.854  1.00  0.00     0.124 S 
ATOM     95  O   UNL A   1      46.335  35.370  26.994  1.00  0.00    -0.237 OA
ATOM     96  O   UNL A   1      48.001  34.347  25.485  1.00  0.00    -0.237 OA
ATOM     97  O   UNL A   1      45.667  34.641  24.737  1.00  0.00    -0.744 OA
ENDBRANCH  93  94
ENDBRANCH  67  88
ENDBRANCH  41  42
ENDBRANCH  34  36
ENDBRANCH  33  34
ENDBRANCH  32  33
ENDBRANCH  31  32
ENDBRANCH   1  31
TORSDOF 21
ENDMDL
MODEL 2
REMARK VINA RESULT:     -12.7      2.258      3.340
REMARK SMILES Cc1ccccc1S(=O)(=O)Nc1ccc(N2CCOCC2)cc1C(=O)OCCOCCOC(=O)c1ccc(-c2c3nc(c(-c4ccc(S(=O)(=O)[O-])cc4)c4ccc([nH]4)c(-c4ccc(S(=O)(=O)[O-])cc4)c4nc(c(-c5ccc(S(=O)(=O)[O-])cc5)c5ccc2[nH]5)C=C4)C=C3)cc1
REMARK SMILES IDX 29 1 28 2 27 3 26 4 24 5 25 6 23 7 12 8 13 9 14 10 22 11
REMARK SMILES IDX 15 12 11 13 8 15 9 16 10 17 7 18 1 19 2 20 3 21 4 22 6 23
REMARK SMILES IDX 5 24 16 25 17 26 21 27 18 28 20 29 19 30 30 31 31 32 32 33
REMARK SMILES IDX 33 34 34 35 35 36 36 37 94 38 37 39 93 40 38 41 39 42 40 43
REMARK SMILES IDX 87 44 41 45 92 46 86 47 88 48 42 49 91 50 85 51 84 52 43 54
REMARK SMILES IDX 73 55 54 56 72 57 55 58 58 59 71 60 89 61 56 62 57 63 70 65
REMARK SMILES IDX 90 66 59 67 44 68 45 69 53 70 46 71 52 72 47 73 48 74 49 75
REMARK SMILES IDX 50 76 51 77 74 78 75 79 83 80 76 81 82 82 77 83 78 84 79 85
REMARK SMILES IDX 80 86 81 87 60 88 61 89 69 90 62 91 68 92 63 93 64 94 65 95
REMARK SMILES IDX 66 96 67 97
REMARK H PARENT 11 14 88 53 58 64
REMARK Flexibility Score: inf
ROOT
ATOM      1  O   UNL A   1      35.216  23.888  23.048  1.00  0.00    -0.374 OA
ENDROOT
BRANCH   1   2
ATOM      2  C   UNL A   1      33.840  24.163  22.844  1.00  0.00     0.202 C 
BRANCH   2   3
ATOM      3  C   UNL A   1      33.716  25.548  22.273  1.00  0.00     0.261 C 
BRANCH   3   4
ATOM      4  O   UNL A   1      32.390  26.123  22.332  1.00  0.00    -0.460 OA
BRANCH   4   5
ATOM      5  C   UNL A   1      32.033  27.336  22.818  1.00  0.00     0.340 C 
ATOM      6  O   UNL A   1      32.700  28.310  23.070  1.00  0.00    -0.246 OA
BRANCH   5   7
ATOM      7  C   UNL A   1      30.554  27.314  22.887  1.00  0.00     0.086 A 
ATOM      8  C   UNL A   1      29.918  26.379  23.708  1.00  0.00     0.064 A 
ATOM      9  C   UNL A   1      28.554  26.538  23.951  1.00  0.00     0.030 A 
ATOM     10  C   UNL A   1      27.896  27.705  23.523  1.00  0.00     0.028 A 
ATOM     11  C   UNL A   1      29.843  28.397  22.342  1.00  0.00     0.043 A 
ATOM     12  C   UNL A   1      28.544  28.680  22.751  1.00  0.00     0.038 A 
BRANCH   8  13
ATOM     13  N   UNL A   1      30.662  25.338  24.342  1.00  0.00    -0.279 N 
ATOM     14  H   UNL A   1      30.982  24.593  23.783  1.00  0.00     0.180 HD
BRANCH  13  15
ATOM     15  S   UNL A   1      31.027  25.305  25.980  1.00  0.00     0.262 S 
ATOM     16  O   UNL A   1      31.955  24.194  26.110  1.00  0.00    -0.201 OA
ATOM     17  O   UNL A   1      29.811  25.316  26.766  1.00  0.00    -0.201 OA
BRANCH  15  18
ATOM     18  C   UNL A   1      31.956  26.779  26.460  1.00  0.00     0.090 A 
ATOM     19  C   UNL A   1      34.301  26.011  25.677  1.00  0.00     0.046 C 
ATOM     20  C   UNL A   1      33.339  26.975  26.288  1.00  0.00    -0.031 A 
ATOM     21  C   UNL A   1      33.915  28.195  26.709  1.00  0.00     0.005 A 
ATOM     22  C   UNL A   1      33.137  29.251  27.171  1.00  0.00     0.000 A 
ATOM     23  C   UNL A   1      31.177  27.871  26.910  1.00  0.00     0.022 A 
ATOM     24  C   UNL A   1      31.759  29.102  27.239  1.00  0.00     0.001 A 
ENDBRANCH  15  18
ENDBRANCH  13  15
ENDBRANCH   8  13
BRANCH  12  25
ATOM     25  N   UNL A   1      27.975  29.914  22.503  1.00  0.00    -0.367 N 
ATOM     26  C   UNL A   1      27.983  30.538  21.169  1.00  0.00     0.145 C 
ATOM     27  C   UNL A   1      27.697  30.823  23.628  1.00  0.00     0.145 C 
ATOM     28  C   UNL A   1      28.773  31.856  21.174  1.00  0.00     0.181 C 
ATOM     29  C   UNL A   1      28.468  32.151  23.481  1.00  0.00     0.181 C 
ATOM     30  O   UNL A   1      28.279  32.747  22.189  1.00  0.00    -0.378 OA
ENDBRANCH  12  25
ENDBRANCH   5   7
ENDBRANCH   4   5
ENDBRANCH   3   4
ENDBRANCH   2   3
ENDBRANCH   1   2
BRANCH   1  31
ATOM     31  C   UNL A   1      35.458  22.818  23.937  1.00  0.00     0.202 C 
BRANCH  31  32
ATOM     32  C   UNL A   1      36.931  22.585  24.286  1.00  0.00     0.261 C 
BRANCH  32  33
ATOM     33  O   UNL A   1      37.213  22.841  25.671  1.00  0.00    -0.460 OA
BRANCH  33  34
ATOM     34  C   UNL A   1      38.525  22.815  25.995  1.00  0.00     0.338 C 
ATOM     35  O   UNL A   1      39.330  21.962  25.657  1.00  0.00    -0.246 OA
BRANCH  34  36
ATOM     36  C   UNL A   1      38.883  24.189  26.390  1.00  0.00     0.060 A 
ATOM     37  C   UNL A   1      40.007  24.867  25.902  1.00  0.00     0.016 A 
ATOM     38  C   UNL A   1      38.213  24.633  27.526  1.00  0.00     0.016 A 
ATOM     39  C   UNL A   1      40.477  25.995  26.589  1.00  0.00     0.010 A 
ATOM     40  C   UNL A   1      38.785  25.637  28.277  1.00  0.00     0.010 A 
ATOM     41  C   UNL A   1      39.892  26.357  27.805  1.00  0.00    -0.014 A 
BRANCH  41  42
ATOM     42  C   UNL A   1      40.350  27.437  28.687  1.00  0.00     0.031 A 
ATOM     43  C   UNL A   1      39.567  28.690  28.780  1.00  0.00     0.074 A 
ATOM     44  C   UNL A   1      41.390  27.291  29.537  1.00  0.00     0.049 A 
ATOM     45  N   UNL A   1      40.037  29.778  29.286  1.00  0.00    -0.248 NA
ATOM     46  C   UNL A   1      38.218  28.861  28.247  1.00  0.00     0.031 C 
ATOM     47  C   UNL A   1      41.695  28.055  30.746  1.00  0.00     0.029 A 
ATOM     48  N   UNL A   1      42.441  26.389  29.453  1.00  0.00    -0.354 N 
ATOM     49  C   UNL A   1      38.977  30.620  29.505  1.00  0.00     0.074 A 
ATOM     50  C   UNL A   1      37.914  30.081  28.695  1.00  0.00     0.031 C 
ATOM     51  C   UNL A   1      42.935  27.749  31.160  1.00  0.00     0.029 A 
ATOM     52  C   UNL A   1      43.542  26.895  30.155  1.00  0.00     0.049 A 
ATOM     53  H   UNL A   1      42.416  25.530  28.975  1.00  0.00     0.167 HD
ATOM     54  C   UNL A   1      39.091  31.582  30.465  1.00  0.00     0.031 A 
ATOM     55  C   UNL A   1      44.721  27.105  29.501  1.00  0.00     0.031 A 
ATOM     56  C   UNL A   1      40.474  31.700  30.971  1.00  0.00     0.049 A 
ATOM     57  C   UNL A   1      45.005  28.586  29.349  1.00  0.00     0.074 A 
ATOM     58  C   UNL A   1      41.104  31.544  32.195  1.00  0.00     0.029 A 
ATOM     59  N   UNL A   1      41.508  31.802  30.044  1.00  0.00    -0.354 N 
ATOM     60  N   UNL A   1      44.350  29.514  29.992  1.00  0.00    -0.248 NA
ATOM     61  C   UNL A   1      45.977  29.150  28.415  1.00  0.00     0.031 C 
ATOM     62  C   UNL A   1      42.522  31.544  31.978  1.00  0.00     0.029 A 
ATOM     63  C   UNL A   1      42.758  31.735  30.628  1.00  0.00     0.049 A 
ATOM     64  H   UNL A   1      41.365  31.911  29.077  1.00  0.00     0.167 HD
ATOM     65  C   UNL A   1      44.641  30.735  29.462  1.00  0.00     0.074 A 
ATOM     66  C   UNL A   1      45.718  30.468  28.521  1.00  0.00     0.031 C 
ATOM     67  C   UNL A   1      43.934  31.862  29.771  1.00  0.00     0.031 A 
BRANCH  54  68
ATOM     68  C   UNL A   1      37.898  32.310  31.065  1.00  0.00    -0.014 A 
ATOM     69  C   UNL A   1      37.353  31.885  32.293  1.00  0.00     0.010 A 
ATOM     70  C   UNL A   1      37.223  33.385  30.448  1.00  0.00     0.010 A 
ATOM     71  C   UNL A   1      36.209  32.488  32.854  1.00  0.00     0.020 A 
ATOM     72  C   UNL A   1      36.097  34.009  30.999  1.00  0.00     0.020 A 
ATOM     73  C   UNL A   1      35.589  33.552  32.202  1.00  0.00     0.054 A 
BRANCH  73  74
ATOM     74  S   UNL A   1      34.127  34.336  32.926  1.00  0.00     0.124 S 
ATOM     75  O   UNL A   1      33.371  33.189  33.424  1.00  0.00    -0.237 OA
ATOM     76  O   UNL A   1      34.706  35.204  33.946  1.00  0.00    -0.237 OA
ATOM     77  O   UNL A   1      33.512  35.035  31.797  1.00  0.00    -0.744 OA
ENDBRANCH  73  74
ENDBRANCH  54  68
BRANCH  55  78
ATOM     78  C   UNL A   1      45.056  25.992  28.551  1.00  0.00    -0.014 A 
ATOM     79  C   UNL A   1      45.027  24.676  29.070  1.00  0.00     0.010 A 
ATOM     80  C   UNL A   1      44.943  26.153  27.158  1.00  0.00     0.010 A 
ATOM     81  C   UNL A   1      44.750  23.574  28.246  1.00  0.00     0.020 A 
ATOM     82  C   UNL A   1      44.645  25.052  26.331  1.00  0.00     0.020 A 
ATOM     83  C   UNL A   1      44.505  23.776  26.887  1.00  0.00     0.054 A 
BRANCH  83  84
ATOM     84  S   UNL A   1      43.729  22.432  25.917  1.00  0.00     0.124 S 
ATOM     85  O   UNL A   1      42.670  21.975  26.808  1.00  0.00    -0.237 OA
ATOM     86  O   UNL A   1      43.277  23.120  24.708  1.00  0.00    -0.237 OA
ATOM     87  O   UNL A   1      44.831  21.499  25.703  1.00  0.00    -0.744 OA
ENDBRANCH  83  84
ENDBRANCH  55  78
BRANCH  67  88
ATOM     88  C   UNL A   1      44.283  33.206  29.203  1.00  0.00    -0.014 A 
ATOM     89  C   UNL A   1      43.642  33.713  28.062  1.00  0.00     0.010 A 
ATOM     90  C   UNL A   1      45.357  33.950  29.736  1.00  0.00     0.010 A 
ATOM     91  C   UNL A   1      44.008  34.953  27.524  1.00  0.00     0.020 A 
ATOM     92  C   UNL A   1      45.746  35.175  29.193  1.00  0.00     0.020 A 
ATOM     93  C   UNL A   1      45.048  35.683  28.105  1.00  0.00     0.054 A 
BRANCH  93  94
ATOM     94  S   UNL A   1      45.503  37.287  27.406  1.00  0.00     0.124 S 
ATOM     95  O   UNL A   1      46.646  36.955  26.558  1.00  0.00    -0.237 OA
ATOM     96  O   UNL A   1      44.282  37.659  26.697  1.00  0.00    -0.237 OA
ATOM     97  O   UNL A   1      45.819  38.100  28.577  1.00  0.00    -0.744 OA
ENDBRANCH  93  94
ENDBRANCH  67  88
ENDBRANCH  41  42
ENDBRANCH  34  36
ENDBRANCH  33  34
ENDBRANCH  32  33
ENDBRANCH  31  32
ENDBRANCH   1  31
TORSDOF 21
ENDMDL
MODEL 3
REMARK VINA RESULT:     -12.3      3.735      8.865
REMARK SMILES Cc1ccccc1S(=O)(=O)Nc1ccc(N2CCOCC2)cc1C(=O)OCCOCCOC(=O)c1ccc(-c2c3nc(c(-c4ccc(S(=O)(=O)[O-])cc4)c4ccc([nH]4)c(-c4ccc(S(=O)(=O)[O-])cc4)c4nc(c(-c5ccc(S(=O)(=O)[O-])cc5)c5ccc2[nH]5)C=C4)C=C3)cc1
REMARK SMILES IDX 29 1 28 2 27 3 26 4 24 5 25 6 23 7 12 8 13 9 14 10 22 11
REMARK SMILES IDX 15 12 11 13 8 15 9 16 10 17 7 18 1 19 2 20 3 21 4 22 6 23
REMARK SMILES IDX 5 24 16 25 17 26 21 27 18 28 20 29 19 30 30 31 31 32 32 33
REMARK SMILES IDX 33 34 34 35 35 36 36 37 94 38 37 39 93 40 38 41 39 42 40 43
REMARK SMILES IDX 87 44 41 45 92 46 86 47 88 48 42 49 91 50 85 51 84 52 43 54
REMARK SMILES IDX 73 55 54 56 72 57 55 58 58 59 71 60 89 61 56 62 57 63 70 65
REMARK SMILES IDX 90 66 59 67 44 68 45 69 53 70 46 71 52 72 47 73 48 74 49 75
REMARK SMILES IDX 50 76 51 77 74 78 75 79 83 80 76 81 82 82 77 83 78 84 79 85
REMARK SMILES IDX 80 86 81 87 60 88 61 89 69 90 62 91 68 92 63 93 64 94 65 95
REMARK SMILES IDX 66 96 67 97
REMARK H PARENT 11 14 88 53 58 64
REMARK Flexibility Score: inf
ROOT
ATOM      1  O   UNL A   1      35.087  31.497  27.274  1.00  0.00    -0.374 OA
ENDROOT
BRANCH   1   2
ATOM      2  C   UNL A   1      34.186  30.467  27.642  1.00  0.00     0.202 C 
BRANCH   2   3
ATOM      3  C   UNL A   1      32.824  30.819  27.110  1.00  0.00     0.261 C 
BRANCH   3   4
ATOM      4  O   UNL A   1      32.377  30.024  25.987  1.00  0.00    -0.460 OA
BRANCH   4   5
ATOM      5  C   UNL A   1      31.744  28.826  26.020  1.00  0.00     0.340 C 
ATOM      6  O   UNL A   1      31.573  28.052  26.931  1.00  0.00    -0.246 OA
BRANCH   5   7
ATOM      7  C   UNL A   1      31.143  28.660  24.677  1.00  0.00     0.086 A 
ATOM      8  C   UNL A   1      31.049  27.381  24.121  1.00  0.00     0.064 A 
ATOM      9  C   UNL A   1      30.261  27.218  22.981  1.00  0.00     0.030 A 
ATOM     10  C   UNL A   1      29.454  28.277  22.527  1.00  0.00     0.028 A 
ATOM     11  C   UNL A   1      30.445  29.744  24.118  1.00  0.00     0.043 A 
ATOM     12  C   UNL A   1      29.496  29.547  23.120  1.00  0.00     0.038 A 
BRANCH   8  13
ATOM     13  N   UNL A   1      31.677  26.263  24.748  1.00  0.00    -0.279 N 
ATOM     14  H   UNL A   1      31.215  25.841  25.509  1.00  0.00     0.180 HD
BRANCH  13  15
ATOM     15  S   UNL A   1      33.152  25.621  24.268  1.00  0.00     0.262 S 
ATOM     16  O   UNL A   1      34.074  26.049  25.307  1.00  0.00    -0.201 OA
ATOM     17  O   UNL A   1      33.423  25.963  22.887  1.00  0.00    -0.201 OA
BRANCH  15  18
ATOM     18  C   UNL A   1      33.123  23.816  24.350  1.00  0.00     0.090 A 
ATOM     19  C   UNL A   1      35.630  23.383  23.871  1.00  0.00     0.046 C 
ATOM     20  C   UNL A   1      34.228  22.964  24.166  1.00  0.00    -0.031 A 
ATOM     21  C   UNL A   1      34.040  21.567  24.273  1.00  0.00     0.005 A 
ATOM     22  C   UNL A   1      32.827  21.021  24.677  1.00  0.00     0.000 A 
ATOM     23  C   UNL A   1      31.903  23.245  24.782  1.00  0.00     0.022 A 
ATOM     24  C   UNL A   1      31.765  21.864  24.967  1.00  0.00     0.001 A 
ENDBRANCH  15  18
ENDBRANCH  13  15
ENDBRANCH   8  13
BRANCH  12  25
ATOM     25  N   UNL A   1      28.569  30.525  22.820  1.00  0.00    -0.367 N 
ATOM     26  C   UNL A   1      27.947  30.649  21.491  1.00  0.00     0.145 C 
ATOM     27  C   UNL A   1      28.465  31.715  23.684  1.00  0.00     0.145 C 
ATOM     28  C   UNL A   1      28.306  31.989  20.830  1.00  0.00     0.181 C 
ATOM     29  C   UNL A   1      28.752  33.009  22.895  1.00  0.00     0.181 C 
ATOM     30  O   UNL A   1      27.976  33.092  21.690  1.00  0.00    -0.378 OA
ENDBRANCH  12  25
ENDBRANCH   5   7
ENDBRANCH   4   5
ENDBRANCH   3   4
ENDBRANCH   2   3
ENDBRANCH   1   2
BRANCH   1  31
ATOM     31  C   UNL A   1      35.404  32.382  28.328  1.00  0.00     0.202 C 
BRANCH  31  32
ATOM     32  C   UNL A   1      35.849  31.706  29.629  1.00  0.00     0.261 C 
BRANCH  32  33
ATOM     33  O   UNL A   1      36.908  30.759  29.419  1.00  0.00    -0.460 OA
BRANCH  33  34
ATOM     34  C   UNL A   1      36.974  29.771  30.341  1.00  0.00     0.338 C 
ATOM     35  O   UNL A   1      36.045  29.360  31.017  1.00  0.00    -0.246 OA
BRANCH  34  36
ATOM     36  C   UNL A   1      38.189  28.996  30.033  1.00  0.00     0.060 A 
ATOM     37  C   UNL A   1      39.156  28.661  30.989  1.00  0.00     0.016 A 
ATOM     38  C   UNL A   1      38.464  28.912  28.672  1.00  0.00     0.016 A 
ATOM     39  C   UNL A   1      40.430  28.261  30.562  1.00  0.00     0.010 A 
ATOM     40  C   UNL A   1      39.764  28.680  28.276  1.00  0.00     0.010 A 
ATOM     41  C   UNL A   1      40.751  28.312  29.203  1.00  0.00    -0.014 A 
BRANCH  41  42
ATOM     42  C   UNL A   1      42.071  28.036  28.625  1.00  0.00     0.031 A 
ATOM     43  C   UNL A   1      42.552  26.640  28.528  1.00  0.00     0.074 A 
ATOM     44  C   UNL A   1      42.825  28.993  28.041  1.00  0.00     0.049 A 
ATOM     45  N   UNL A   1      43.786  26.332  28.314  1.00  0.00    -0.248 NA
ATOM     46  C   UNL A   1      41.713  25.462  28.736  1.00  0.00     0.031 C 
ATOM     47  C   UNL A   1      43.903  28.838  27.066  1.00  0.00     0.029 A 
ATOM     48  N   UNL A   1      42.772  30.365  28.245  1.00  0.00    -0.354 N 
ATOM     49  C   UNL A   1      43.824  25.006  27.969  1.00  0.00     0.074 A 
ATOM     50  C   UNL A   1      42.556  24.481  28.410  1.00  0.00     0.031 C 
ATOM     51  C   UNL A   1      44.543  30.010  26.925  1.00  0.00     0.029 A 
ATOM     52  C   UNL A   1      44.008  30.931  27.912  1.00  0.00     0.049 A 
ATOM     53  H   UNL A   1      41.988  30.861  28.573  1.00  0.00     0.167 HD
ATOM     54  C   UNL A   1      44.867  24.554  27.216  1.00  0.00     0.031 A 
ATOM     55  C   UNL A   1      44.710  31.622  28.856  1.00  0.00     0.031 A 
ATOM     56  C   UNL A   1      45.935  25.567  27.083  1.00  0.00     0.049 A 
ATOM     57  C   UNL A   1      45.947  30.859  29.285  1.00  0.00     0.074 A 
ATOM     58  C   UNL A   1      46.531  26.256  26.039  1.00  0.00     0.029 A 
ATOM     59  N   UNL A   1      46.395  26.195  28.238  1.00  0.00    -0.354 N 
ATOM     60  N   UNL A   1      46.411  29.820  28.645  1.00  0.00    -0.248 NA
ATOM     61  C   UNL A   1      46.712  31.139  30.500  1.00  0.00     0.031 C 
ATOM     62  C   UNL A   1      47.339  27.304  26.591  1.00  0.00     0.029 A 
ATOM     63  C   UNL A   1      47.264  27.235  27.971  1.00  0.00     0.049 A 
ATOM     64  H   UNL A   1      46.130  25.927  29.147  1.00  0.00     0.167 HD
ATOM     65  C   UNL A   1      47.358  29.197  29.401  1.00  0.00     0.074 A 
ATOM     66  C   UNL A   1      47.564  30.096  30.526  1.00  0.00     0.031 C 
ATOM     67  C   UNL A   1      47.848  27.960  29.096  1.00  0.00     0.031 A 
BRANCH  54  68
ATOM     68  C   UNL A   1      44.842  23.237  26.457  1.00  0.00    -0.014 A 
ATOM     69  C   UNL A   1      43.614  22.611  26.164  1.00  0.00     0.010 A 
ATOM     70  C   UNL A   1      45.991  22.526  26.049  1.00  0.00     0.010 A 
ATOM     71  C   UNL A   1      43.545  21.359  25.521  1.00  0.00     0.020 A 
ATOM     72  C   UNL A   1      45.942  21.290  25.392  1.00  0.00     0.020 A 
ATOM     73  C   UNL A   1      44.714  20.706  25.135  1.00  0.00     0.054 A 
BRANCH  73  74
ATOM     74  S   UNL A   1      44.629  19.103  24.298  1.00  0.00     0.124 S 
ATOM     75  O   UNL A   1      45.926  18.514  24.619  1.00  0.00    -0.237 OA
ATOM     76  O   UNL A   1      43.474  18.477  24.933  1.00  0.00    -0.237 OA
ATOM     77  O   UNL A   1      44.444  19.456  22.890  1.00  0.00    -0.744 OA
ENDBRANCH  73  74
ENDBRANCH  54  68
BRANCH  55  78
ATOM     78  C   UNL A   1      43.832  32.511  29.687  1.00  0.00    -0.014 A 
ATOM     79  C   UNL A   1      43.267  33.638  29.043  1.00  0.00     0.010 A 
ATOM     80  C   UNL A   1      43.212  32.046  30.861  1.00  0.00     0.010 A 
ATOM     81  C   UNL A   1      42.049  34.188  29.471  1.00  0.00     0.020 A 
ATOM     82  C   UNL A   1      41.980  32.583  31.283  1.00  0.00     0.020 A 
ATOM     83  C   UNL A   1      41.384  33.621  30.559  1.00  0.00     0.054 A 
BRANCH  83  84
ATOM     84  S   UNL A   1      39.626  34.046  30.841  1.00  0.00     0.124 S 
ATOM     85  O   UNL A   1      39.347  34.966  29.746  1.00  0.00    -0.237 OA
ATOM     86  O   UNL A   1      38.957  32.747  30.754  1.00  0.00    -0.237 OA
ATOM     87  O   UNL A   1      39.636  34.629  32.180  1.00  0.00    -0.744 OA
ENDBRANCH  83  84
ENDBRANCH  55  78
BRANCH  67  88
ATOM     88  C   UNL A   1      48.911  27.296  29.922  1.00  0.00    -0.014 A 
ATOM     89  C   UNL A   1      50.119  27.941  30.226  1.00  0.00     0.010 A 
ATOM     90  C   UNL A   1      48.771  25.949  30.317  1.00  0.00     0.010 A 
ATOM     91  C   UNL A   1      51.115  27.292  30.965  1.00  0.00     0.020 A 
ATOM     92  C   UNL A   1      49.766  25.284  31.033  1.00  0.00     0.020 A 
ATOM     93  C   UNL A   1      50.923  25.971  31.378  1.00  0.00     0.054 A 
BRANCH  93  94
ATOM     94  S   UNL A   1      52.213  25.148  32.340  1.00  0.00     0.124 S 
ATOM     95  O   UNL A   1      52.329  26.002  33.521  1.00  0.00    -0.237 OA
ATOM     96  O   UNL A   1      51.618  23.834  32.573  1.00  0.00    -0.237 OA
ATOM     97  O   UNL A   1      53.373  25.161  31.453  1.00  0.00    -0.744 OA
ENDBRANCH  93  94
ENDBRANCH  67  88
ENDBRANCH  41  42
ENDBRANCH  34  36
ENDBRANCH  33  34
ENDBRANCH  32  33
ENDBRANCH  31  32
ENDBRANCH   1  31
TORSDOF 21
ENDMDL
