MODEL 1
REMARK VINA RESULT:     -12.2      0.000      0.000
REMARK SMILES Cc1cccc(-c2ncc(C[NH+]3CCC4(CC3)NC(=O)C[C@H]4C(=O)OCCOCCOC(=O)c3ccc(-c4c5nc(c(-c6ccc(S(=O)(=O)[O-])cc6)c6ccc([nH]6)c(-c6ccc(S(=O)(=O)[O-])cc6)c6nc(c(-c7ccc(S(=O)(=O)[O-])cc7)c7ccc4[nH]7)C=C6)C=C5)cc3)cn2)c1
REMARK SMILES IDX 28 1 27 2 26 3 25 4 23 5 24 6 22 7 12 8 13 9 17 10 14 12
REMARK SMILES IDX 16 13 15 14 18 15 19 16 21 18 20 19 11 20 10 21 7 22 8 23
REMARK SMILES IDX 95 24 9 25 94 26 6 27 1 28 2 29 3 30 96 31 4 32 5 33 29 34
REMARK SMILES IDX 30 35 31 36 32 37 33 38 34 39 35 40 93 41 36 42 92 43 37 44
REMARK SMILES IDX 38 45 39 46 86 47 40 48 91 49 85 50 87 51 41 52 90 53 84 54
REMARK SMILES IDX 83 55 42 57 72 58 53 59 71 60 54 61 57 62 70 63 88 64 55 65
REMARK SMILES IDX 56 66 69 68 89 69 58 70 43 71 44 72 52 73 45 74 51 75 46 76
REMARK SMILES IDX 47 77 48 78 49 79 50 80 73 81 74 82 82 83 75 84 81 85 76 86
REMARK SMILES IDX 77 87 78 88 79 89 80 90 59 91 60 92 68 93 61 94 67 95 62 96
REMARK SMILES IDX 63 97 64 98 65 99 66 100
REMARK H PARENT 12 11 18 17 87 56 57 67
REMARK Flexibility Score: inf
ROOT
ATOM      1  O   UNL A   1      34.218  21.204  26.152  1.00  0.00    -0.374 OA
ENDROOT
BRANCH   1   2
ATOM      2  C   UNL A   1      34.262  20.226  25.127  1.00  0.00     0.202 C 
BRANCH   2   3
ATOM      3  C   UNL A   1      32.905  20.185  24.480  1.00  0.00     0.261 C 
BRANCH   3   4
ATOM      4  O   UNL A   1      32.473  21.300  23.625  1.00  0.00    -0.463 OA
BRANCH   4   5
ATOM      5  C   UNL A   1      31.833  22.419  24.052  1.00  0.00     0.311 C 
ATOM      6  O   UNL A   1      30.978  22.470  24.924  1.00  0.00    -0.252 OA
BRANCH   5   7
ATOM      7  C   UNL A   1      32.315  23.665  23.283  1.00  0.00     0.134 C 
ATOM      8  N   UNL A   1      31.119  26.573  25.859  1.00  0.00    -0.331 N 
ATOM      9  C   UNL A   1      31.474  26.983  24.498  1.00  0.00     0.264 C 
ATOM     10  C   UNL A   1      31.179  25.128  25.951  1.00  0.00     0.264 C 
ATOM     11  H   UNL A   1      30.172  26.945  25.943  1.00  0.00     0.348 HD
ATOM     12  C   UNL A   1      32.651  26.265  23.774  1.00  0.00     0.091 C 
ATOM     13  C   UNL A   1      32.589  24.680  25.624  1.00  0.00     0.091 C 
ATOM     14  C   UNL A   1      32.927  24.781  24.162  1.00  0.00     0.064 C 
ATOM     15  N   UNL A   1      34.354  24.550  24.007  1.00  0.00    -0.349 N 
ATOM     16  C   UNL A   1      34.695  23.657  23.022  1.00  0.00     0.221 C 
ATOM     17  H   UNL A   1      35.026  25.000  24.567  1.00  0.00     0.164 HD
ATOM     18  C   UNL A   1      33.430  23.276  22.298  1.00  0.00     0.117 C 
ATOM     19  O   UNL A   1      35.824  23.322  22.752  1.00  0.00    -0.275 OA
BRANCH   8  20
ATOM     20  C   UNL A   1      31.660  27.264  27.063  1.00  0.00     0.302 C 
BRANCH  20  21
ATOM     21  C   UNL A   1      32.406  28.572  26.877  1.00  0.00     0.043 A 
ATOM     22  C   UNL A   1      33.692  30.926  27.419  1.00  0.00     0.159 A 
ATOM     23  N   UNL A   1      34.426  29.791  27.404  1.00  0.00    -0.236 NA
ATOM     24  N   UNL A   1      32.405  30.988  27.045  1.00  0.00    -0.236 NA
ATOM     25  C   UNL A   1      33.768  28.648  27.099  1.00  0.00     0.124 A 
ATOM     26  C   UNL A   1      31.780  29.813  26.790  1.00  0.00     0.124 A 
BRANCH  22  27
ATOM     27  C   UNL A   1      34.349  32.147  27.917  1.00  0.00     0.019 A 
ATOM     28  C   UNL A   1      33.464  35.550  29.486  1.00  0.00     0.044 C 
ATOM     29  C   UNL A   1      34.253  34.382  28.962  1.00  0.00    -0.050 A 
ATOM     30  C   UNL A   1      35.644  34.381  29.076  1.00  0.00     0.003 A 
ATOM     31  C   UNL A   1      33.621  33.269  28.376  1.00  0.00     0.015 A 
ATOM     32  C   UNL A   1      36.386  33.309  28.582  1.00  0.00     0.001 A 
ATOM     33  C   UNL A   1      35.746  32.210  28.001  1.00  0.00     0.012 A 
ENDBRANCH  22  27
ENDBRANCH  20  21
ENDBRANCH   8  20
ENDBRANCH   5   7
ENDBRANCH   4   5
ENDBRANCH   3   4
ENDBRANCH   2   3
ENDBRANCH   1   2
BRANCH   1  34
ATOM     34  C   UNL A   1      35.326  22.067  26.317  1.00  0.00     0.202 C 
BRANCH  34  35
ATOM     35  C   UNL A   1      36.673  21.602  25.745  1.00  0.00     0.261 C 
BRANCH  35  36
ATOM     36  O   UNL A   1      37.609  22.682  25.522  1.00  0.00    -0.460 OA
BRANCH  36  37
ATOM     37  C   UNL A   1      38.769  22.682  26.250  1.00  0.00     0.338 C 
ATOM     38  O   UNL A   1      39.419  21.678  26.476  1.00  0.00    -0.246 OA
BRANCH  37  39
ATOM     39  C   UNL A   1      39.203  24.068  26.568  1.00  0.00     0.060 A 
ATOM     40  C   UNL A   1      40.094  24.787  25.754  1.00  0.00     0.016 A 
ATOM     41  C   UNL A   1      38.837  24.576  27.806  1.00  0.00     0.016 A 
ATOM     42  C   UNL A   1      40.725  25.941  26.251  1.00  0.00     0.010 A 
ATOM     43  C   UNL A   1      39.600  25.573  28.355  1.00  0.00     0.010 A 
ATOM     44  C   UNL A   1      40.534  26.285  27.585  1.00  0.00    -0.014 A 
BRANCH  44  45
ATOM     45  C   UNL A   1      41.166  27.367  28.342  1.00  0.00     0.031 A 
ATOM     46  C   UNL A   1      40.330  28.579  28.483  1.00  0.00     0.074 A 
ATOM     47  C   UNL A   1      42.252  27.172  29.136  1.00  0.00     0.049 A 
ATOM     48  N   UNL A   1      40.715  29.625  29.106  1.00  0.00    -0.248 NA
ATOM     49  C   UNL A   1      38.973  28.729  27.944  1.00  0.00     0.031 C 
ATOM     50  C   UNL A   1      42.711  27.915  30.313  1.00  0.00     0.029 A 
ATOM     51  N   UNL A   1      43.263  26.218  29.006  1.00  0.00    -0.354 N 
ATOM     52  C   UNL A   1      39.605  30.378  29.387  1.00  0.00     0.074 A 
ATOM     53  C   UNL A   1      38.564  29.845  28.551  1.00  0.00     0.031 C 
ATOM     54  C   UNL A   1      44.006  27.617  30.556  1.00  0.00     0.029 A 
ATOM     55  C   UNL A   1      44.461  26.755  29.473  1.00  0.00     0.049 A 
ATOM     56  H   UNL A   1      43.148  25.311  28.642  1.00  0.00     0.167 HD
ATOM     57  C   UNL A   1      39.712  31.269  30.408  1.00  0.00     0.031 A 
ATOM     58  C   UNL A   1      45.456  26.948  28.570  1.00  0.00     0.031 A 
ATOM     59  C   UNL A   1      41.133  31.415  30.806  1.00  0.00     0.049 A 
ATOM     60  C   UNL A   1      45.592  28.440  28.386  1.00  0.00     0.074 A 
ATOM     61  C   UNL A   1      41.884  31.107  31.926  1.00  0.00     0.029 A 
ATOM     62  N   UNL A   1      42.069  31.616  29.784  1.00  0.00    -0.354 N 
ATOM     63  N   UNL A   1      44.708  29.303  28.817  1.00  0.00    -0.248 NA
ATOM     64  C   UNL A   1      46.745  29.095  27.800  1.00  0.00     0.031 C 
ATOM     65  C   UNL A   1      43.272  31.076  31.535  1.00  0.00     0.029 A 
ATOM     66  C   UNL A   1      43.373  31.396  30.188  1.00  0.00     0.049 A 
ATOM     67  H   UNL A   1      41.824  31.888  28.871  1.00  0.00     0.167 HD
ATOM     68  C   UNL A   1      45.166  30.576  28.707  1.00  0.00     0.074 A 
ATOM     69  C   UNL A   1      46.422  30.391  27.982  1.00  0.00     0.031 C 
ATOM     70  C   UNL A   1      44.474  31.643  29.233  1.00  0.00     0.031 A 
BRANCH  57  71
ATOM     71  C   UNL A   1      38.520  31.872  31.125  1.00  0.00    -0.014 A 
ATOM     72  C   UNL A   1      37.369  31.093  31.341  1.00  0.00     0.010 A 
ATOM     73  C   UNL A   1      38.436  33.215  31.561  1.00  0.00     0.010 A 
ATOM     74  C   UNL A   1      36.221  31.614  31.969  1.00  0.00     0.020 A 
ATOM     75  C   UNL A   1      37.307  33.745  32.206  1.00  0.00     0.020 A 
ATOM     76  C   UNL A   1      36.201  32.937  32.410  1.00  0.00     0.054 A 
BRANCH  76  77
ATOM     77  S   UNL A   1      34.733  33.583  33.253  1.00  0.00     0.124 S 
ATOM     78  O   UNL A   1      35.090  33.440  34.662  1.00  0.00    -0.237 OA
ATOM     79  O   UNL A   1      34.663  34.955  32.757  1.00  0.00    -0.237 OA
ATOM     80  O   UNL A   1      33.654  32.707  32.798  1.00  0.00    -0.744 OA
ENDBRANCH  76  77
ENDBRANCH  57  71
BRANCH  58  81
ATOM     81  C   UNL A   1      45.530  25.802  27.575  1.00  0.00    -0.014 A 
ATOM     82  C   UNL A   1      45.858  24.516  28.093  1.00  0.00     0.010 A 
ATOM     83  C   UNL A   1      44.834  25.834  26.353  1.00  0.00     0.010 A 
ATOM     84  C   UNL A   1      45.364  23.328  27.514  1.00  0.00     0.020 A 
ATOM     85  C   UNL A   1      44.339  24.644  25.767  1.00  0.00     0.020 A 
ATOM     86  C   UNL A   1      44.552  23.406  26.384  1.00  0.00     0.054 A 
BRANCH  86  87
ATOM     87  S   UNL A   1      43.564  21.939  25.895  1.00  0.00     0.124 S 
ATOM     88  O   UNL A   1      44.579  21.021  25.394  1.00  0.00    -0.237 OA
ATOM     89  O   UNL A   1      42.914  21.547  27.146  1.00  0.00    -0.237 OA
ATOM     90  O   UNL A   1      42.644  22.470  24.893  1.00  0.00    -0.744 OA
ENDBRANCH  86  87
ENDBRANCH  58  81
BRANCH  70  91
ATOM     91  C   UNL A   1      44.720  33.079  28.826  1.00  0.00    -0.014 A 
ATOM     92  C   UNL A   1      45.116  34.097  29.695  1.00  0.00     0.010 A 
ATOM     93  C   UNL A   1      44.598  33.437  27.459  1.00  0.00     0.010 A 
ATOM     94  C   UNL A   1      45.505  35.352  29.219  1.00  0.00     0.020 A 
ATOM     95  C   UNL A   1      44.967  34.685  26.967  1.00  0.00     0.020 A 
ATOM     96  C   UNL A   1      45.446  35.629  27.854  1.00  0.00     0.054 A 
BRANCH  96  97
ATOM     97  S   UNL A   1      45.960  37.254  27.276  1.00  0.00     0.124 S 
ATOM     98  O   UNL A   1      46.885  36.914  26.198  1.00  0.00    -0.237 OA
ATOM     99  O   UNL A   1      44.691  37.842  26.854  1.00  0.00    -0.237 OA
ATOM    100  O   UNL A   1      46.572  37.867  28.451  1.00  0.00    -0.744 OA
ENDBRANCH  96  97
ENDBRANCH  70  91
ENDBRANCH  44  45
ENDBRANCH  37  39
ENDBRANCH  36  37
ENDBRANCH  35  36
ENDBRANCH  34  35
ENDBRANCH   1  34
TORSDOF 20
ENDMDL
MODEL 2
REMARK VINA RESULT:     -12.1      3.612     10.089
REMARK SMILES Cc1cccc(-c2ncc(C[NH+]3CCC4(CC3)NC(=O)C[C@H]4C(=O)OCCOCCOC(=O)c3ccc(-c4c5nc(c(-c6ccc(S(=O)(=O)[O-])cc6)c6ccc([nH]6)c(-c6ccc(S(=O)(=O)[O-])cc6)c6nc(c(-c7ccc(S(=O)(=O)[O-])cc7)c7ccc4[nH]7)C=C6)C=C5)cc3)cn2)c1
REMARK SMILES IDX 28 1 27 2 26 3 25 4 23 5 24 6 22 7 12 8 13 9 17 10 14 12
REMARK SMILES IDX 16 13 15 14 18 15 19 16 21 18 20 19 11 20 10 21 7 22 8 23
REMARK SMILES IDX 95 24 9 25 94 26 6 27 1 28 2 29 3 30 96 31 4 32 5 33 29 34
REMARK SMILES IDX 30 35 31 36 32 37 33 38 34 39 35 40 93 41 36 42 92 43 37 44
REMARK SMILES IDX 38 45 39 46 86 47 40 48 91 49 85 50 87 51 41 52 90 53 84 54
REMARK SMILES IDX 83 55 42 57 72 58 53 59 71 60 54 61 57 62 70 63 88 64 55 65
REMARK SMILES IDX 56 66 69 68 89 69 58 70 43 71 44 72 52 73 45 74 51 75 46 76
REMARK SMILES IDX 47 77 48 78 49 79 50 80 73 81 74 82 82 83 75 84 81 85 76 86
REMARK SMILES IDX 77 87 78 88 79 89 80 90 59 91 60 92 68 93 61 94 67 95 62 96
REMARK SMILES IDX 63 97 64 98 65 99 66 100
REMARK H PARENT 12 11 18 17 87 56 57 67
REMARK Flexibility Score: inf
ROOT
ATOM      1  O   UNL A   1      33.127  26.951  23.352  1.00  0.00    -0.374 OA
ENDROOT
BRANCH   1   2
ATOM      2  C   UNL A   1      31.947  26.260  23.721  1.00  0.00     0.202 C 
BRANCH   2   3
ATOM      3  C   UNL A   1      31.937  24.951  22.982  1.00  0.00     0.261 C 
BRANCH   3   4
ATOM      4  O   UNL A   1      32.907  23.906  23.341  1.00  0.00    -0.463 OA
BRANCH   4   5
ATOM      5  C   UNL A   1      32.712  22.935  24.270  1.00  0.00     0.311 C 
ATOM      6  O   UNL A   1      31.856  22.934  25.142  1.00  0.00    -0.252 OA
BRANCH   5   7
ATOM      7  C   UNL A   1      33.732  21.791  24.102  1.00  0.00     0.134 C 
ATOM      8  N   UNL A   1      37.098  23.674  25.386  1.00  0.00    -0.331 N 
ATOM      9  C   UNL A   1      37.267  22.422  24.643  1.00  0.00     0.264 C 
ATOM     10  C   UNL A   1      35.693  24.029  25.404  1.00  0.00     0.264 C 
ATOM     11  H   UNL A   1      37.670  24.315  24.837  1.00  0.00     0.348 HD
ATOM     12  C   UNL A   1      36.238  21.273  24.852  1.00  0.00     0.091 C 
ATOM     13  C   UNL A   1      34.920  22.914  26.080  1.00  0.00     0.091 C 
ATOM     14  C   UNL A   1      34.782  21.680  25.231  1.00  0.00     0.064 C 
ATOM     15  N   UNL A   1      34.236  20.617  26.059  1.00  0.00    -0.349 N 
ATOM     16  C   UNL A   1      33.186  19.928  25.503  1.00  0.00     0.221 C 
ATOM     17  H   UNL A   1      34.592  20.406  26.951  1.00  0.00     0.164 HD
ATOM     18  C   UNL A   1      33.006  20.436  24.097  1.00  0.00     0.117 C 
ATOM     19  O   UNL A   1      32.590  19.025  26.040  1.00  0.00    -0.275 OA
BRANCH   8  20
ATOM     20  C   UNL A   1      37.787  23.928  26.682  1.00  0.00     0.302 C 
BRANCH  20  21
ATOM     21  C   UNL A   1      39.304  23.959  26.705  1.00  0.00     0.043 A 
ATOM     22  C   UNL A   1      41.880  24.414  27.513  1.00  0.00     0.159 A 
ATOM     23  N   UNL A   1      41.280  23.271  27.916  1.00  0.00    -0.236 NA
ATOM     24  N   UNL A   1      41.341  25.267  26.627  1.00  0.00    -0.236 NA
ATOM     25  C   UNL A   1      40.019  23.058  27.471  1.00  0.00     0.124 A 
ATOM     26  C   UNL A   1      40.062  25.033  26.245  1.00  0.00     0.124 A 
BRANCH  22  27
ATOM     27  C   UNL A   1      43.178  24.745  28.123  1.00  0.00     0.019 A 
ATOM     28  C   UNL A   1      44.645  25.992  31.458  1.00  0.00     0.044 C 
ATOM     29  C   UNL A   1      44.539  25.472  30.051  1.00  0.00    -0.050 A 
ATOM     30  C   UNL A   1      45.699  25.154  29.343  1.00  0.00     0.003 A 
ATOM     31  C   UNL A   1      43.292  25.272  29.430  1.00  0.00     0.015 A 
ATOM     32  C   UNL A   1      45.614  24.683  28.034  1.00  0.00     0.001 A 
ATOM     33  C   UNL A   1      44.367  24.490  27.429  1.00  0.00     0.012 A 
ENDBRANCH  22  27
ENDBRANCH  20  21
ENDBRANCH   8  20
ENDBRANCH   5   7
ENDBRANCH   4   5
ENDBRANCH   3   4
ENDBRANCH   2   3
ENDBRANCH   1   2
BRANCH   1  34
ATOM     34  C   UNL A   1      33.942  27.499  24.371  1.00  0.00     0.202 C 
BRANCH  34  35
ATOM     35  C   UNL A   1      33.446  28.779  25.057  1.00  0.00     0.261 C 
BRANCH  35  36
ATOM     36  O   UNL A   1      34.271  29.192  26.172  1.00  0.00    -0.460 OA
BRANCH  36  37
ATOM     37  C   UNL A   1      33.903  30.320  26.855  1.00  0.00     0.338 C 
ATOM     38  O   UNL A   1      32.807  30.839  26.752  1.00  0.00    -0.246 OA
BRANCH  37  39
ATOM     39  C   UNL A   1      34.941  30.711  27.846  1.00  0.00     0.060 A 
ATOM     40  C   UNL A   1      35.682  31.899  27.735  1.00  0.00     0.016 A 
ATOM     41  C   UNL A   1      35.288  29.768  28.803  1.00  0.00     0.016 A 
ATOM     42  C   UNL A   1      36.857  32.066  28.488  1.00  0.00     0.010 A 
ATOM     43  C   UNL A   1      36.529  29.846  29.377  1.00  0.00     0.010 A 
ATOM     44  C   UNL A   1      37.320  31.000  29.250  1.00  0.00    -0.014 A 
BRANCH  44  45
ATOM     45  C   UNL A   1      38.562  30.907  30.021  1.00  0.00     0.031 A 
ATOM     46  C   UNL A   1      39.507  29.880  29.531  1.00  0.00     0.074 A 
ATOM     47  C   UNL A   1      38.972  31.883  30.873  1.00  0.00     0.049 A 
ATOM     48  N   UNL A   1      40.638  29.652  30.078  1.00  0.00    -0.248 NA
ATOM     49  C   UNL A   1      39.275  29.014  28.368  1.00  0.00     0.031 C 
ATOM     50  C   UNL A   1      40.321  32.245  31.321  1.00  0.00     0.029 A 
ATOM     51  N   UNL A   1      38.194  32.788  31.597  1.00  0.00    -0.354 N 
ATOM     52  C   UNL A   1      41.405  28.955  29.182  1.00  0.00     0.074 A 
ATOM     53  C   UNL A   1      40.485  28.482  28.183  1.00  0.00     0.031 C 
ATOM     54  C   UNL A   1      40.236  33.008  32.433  1.00  0.00     0.029 A 
ATOM     55  C   UNL A   1      38.829  33.072  32.805  1.00  0.00     0.049 A 
ATOM     56  H   UNL A   1      37.335  33.165  31.302  1.00  0.00     0.167 HD
ATOM     57  C   UNL A   1      42.751  29.004  29.361  1.00  0.00     0.031 A 
ATOM     58  C   UNL A   1      38.214  32.668  33.946  1.00  0.00     0.031 A 
ATOM     59  C   UNL A   1      43.065  29.590  30.686  1.00  0.00     0.049 A 
ATOM     60  C   UNL A   1      39.039  31.535  34.507  1.00  0.00     0.074 A 
ATOM     61  C   UNL A   1      43.669  30.750  31.138  1.00  0.00     0.029 A 
ATOM     62  N   UNL A   1      42.370  29.087  31.792  1.00  0.00    -0.354 N 
ATOM     63  N   UNL A   1      39.979  30.925  33.830  1.00  0.00    -0.248 NA
ATOM     64  C   UNL A   1      38.957  31.054  35.871  1.00  0.00     0.031 C 
ATOM     65  C   UNL A   1      43.273  30.951  32.510  1.00  0.00     0.029 A 
ATOM     66  C   UNL A   1      42.457  29.900  32.906  1.00  0.00     0.049 A 
ATOM     67  H   UNL A   1      41.871  28.239  31.778  1.00  0.00     0.167 HD
ATOM     68  C   UNL A   1      40.699  30.093  34.625  1.00  0.00     0.074 A 
ATOM     69  C   UNL A   1      39.958  30.150  35.884  1.00  0.00     0.031 C 
ATOM     70  C   UNL A   1      41.832  29.458  34.172  1.00  0.00     0.031 A 
BRANCH  57  71
ATOM     71  C   UNL A   1      43.755  28.665  28.276  1.00  0.00    -0.014 A 
ATOM     72  C   UNL A   1      43.302  28.233  27.017  1.00  0.00     0.010 A 
ATOM     73  C   UNL A   1      45.159  28.689  28.441  1.00  0.00     0.010 A 
ATOM     74  C   UNL A   1      44.191  27.870  25.986  1.00  0.00     0.020 A 
ATOM     75  C   UNL A   1      46.060  28.350  27.419  1.00  0.00     0.020 A 
ATOM     76  C   UNL A   1      45.569  27.943  26.190  1.00  0.00     0.054 A 
BRANCH  76  77
ATOM     77  S   UNL A   1      46.702  27.514  24.842  1.00  0.00     0.124 S 
ATOM     78  O   UNL A   1      48.009  27.615  25.485  1.00  0.00    -0.237 OA
ATOM     79  O   UNL A   1      46.274  26.162  24.490  1.00  0.00    -0.237 OA
ATOM     80  O   UNL A   1      46.435  28.529  23.824  1.00  0.00    -0.744 OA
ENDBRANCH  76  77
ENDBRANCH  57  71
BRANCH  58  81
ATOM     81  C   UNL A   1      36.711  32.872  33.867  1.00  0.00    -0.014 A 
ATOM     82  C   UNL A   1      36.189  34.066  34.444  1.00  0.00     0.010 A 
ATOM     83  C   UNL A   1      35.929  32.255  32.874  1.00  0.00     0.010 A 
ATOM     84  C   UNL A   1      35.039  34.703  33.934  1.00  0.00     0.020 A 
ATOM     85  C   UNL A   1      34.772  32.890  32.361  1.00  0.00     0.020 A 
ATOM     86  C   UNL A   1      34.370  34.138  32.849  1.00  0.00     0.054 A 
BRANCH  86  87
ATOM     87  S   UNL A   1      33.165  35.160  31.916  1.00  0.00     0.124 S 
ATOM     88  O   UNL A   1      31.917  34.913  32.626  1.00  0.00    -0.237 OA
ATOM     89  O   UNL A   1      33.712  36.511  32.041  1.00  0.00    -0.237 OA
ATOM     90  O   UNL A   1      33.238  34.616  30.563  1.00  0.00    -0.744 OA
ENDBRANCH  86  87
ENDBRANCH  58  81
BRANCH  70  91
ATOM     91  C   UNL A   1      42.446  28.257  34.857  1.00  0.00    -0.014 A 
ATOM     92  C   UNL A   1      42.122  26.928  34.578  1.00  0.00     0.010 A 
ATOM     93  C   UNL A   1      43.466  28.461  35.820  1.00  0.00     0.010 A 
ATOM     94  C   UNL A   1      42.861  25.869  35.113  1.00  0.00     0.020 A 
ATOM     95  C   UNL A   1      44.204  27.421  36.375  1.00  0.00     0.020 A 
ATOM     96  C   UNL A   1      43.911  26.126  35.992  1.00  0.00     0.054 A 
BRANCH  96  97
ATOM     97  S   UNL A   1      44.844  24.739  36.658  1.00  0.00     0.124 S 
ATOM     98  O   UNL A   1      44.543  24.828  38.085  1.00  0.00    -0.237 OA
ATOM     99  O   UNL A   1      44.246  23.606  35.959  1.00  0.00    -0.237 OA
ATOM    100  O   UNL A   1      46.226  25.039  36.294  1.00  0.00    -0.744 OA
ENDBRANCH  96  97
ENDBRANCH  70  91
ENDBRANCH  44  45
ENDBRANCH  37  39
ENDBRANCH  36  37
ENDBRANCH  35  36
ENDBRANCH  34  35
ENDBRANCH   1  34
TORSDOF 20
ENDMDL
MODEL 3
REMARK VINA RESULT:     -11.8      3.885     10.361
REMARK SMILES Cc1cccc(-c2ncc(C[NH+]3CCC4(CC3)NC(=O)C[C@H]4C(=O)OCCOCCOC(=O)c3ccc(-c4c5nc(c(-c6ccc(S(=O)(=O)[O-])cc6)c6ccc([nH]6)c(-c6ccc(S(=O)(=O)[O-])cc6)c6nc(c(-c7ccc(S(=O)(=O)[O-])cc7)c7ccc4[nH]7)C=C6)C=C5)cc3)cn2)c1
REMARK SMILES IDX 28 1 27 2 26 3 25 4 23 5 24 6 22 7 12 8 13 9 17 10 14 12
REMARK SMILES IDX 16 13 15 14 18 15 19 16 21 18 20 19 11 20 10 21 7 22 8 23
REMARK SMILES IDX 95 24 9 25 94 26 6 27 1 28 2 29 3 30 96 31 4 32 5 33 29 34
REMARK SMILES IDX 30 35 31 36 32 37 33 38 34 39 35 40 93 41 36 42 92 43 37 44
REMARK SMILES IDX 38 45 39 46 86 47 40 48 91 49 85 50 87 51 41 52 90 53 84 54
REMARK SMILES IDX 83 55 42 57 72 58 53 59 71 60 54 61 57 62 70 63 88 64 55 65
REMARK SMILES IDX 56 66 69 68 89 69 58 70 43 71 44 72 52 73 45 74 51 75 46 76
REMARK SMILES IDX 47 77 48 78 49 79 50 80 73 81 74 82 82 83 75 84 81 85 76 86
REMARK SMILES IDX 77 87 78 88 79 89 80 90 59 91 60 92 68 93 61 94 67 95 62 96
REMARK SMILES IDX 63 97 64 98 65 99 66 100
REMARK H PARENT 12 11 18 17 87 56 57 67
REMARK Flexibility Score: inf
ROOT
ATOM      1  O   UNL A   1      32.315  29.917  26.763  1.00  0.00    -0.374 OA
ENDROOT
BRANCH   1   2
ATOM      2  C   UNL A   1      31.780  29.539  25.507  1.00  0.00     0.202 C 
BRANCH   2   3
ATOM      3  C   UNL A   1      32.597  28.385  24.994  1.00  0.00     0.261 C 
BRANCH   3   4
ATOM      4  O   UNL A   1      31.921  27.231  24.383  1.00  0.00    -0.463 OA
BRANCH   4   5
ATOM      5  C   UNL A   1      32.526  26.260  23.651  1.00  0.00     0.311 C 
ATOM      6  O   UNL A   1      33.389  26.431  22.803  1.00  0.00    -0.252 OA
BRANCH   5   7
ATOM      7  C   UNL A   1      31.980  24.866  24.015  1.00  0.00     0.134 C 
ATOM      8  N   UNL A   1      35.451  23.004  25.018  1.00  0.00    -0.331 N 
ATOM      9  C   UNL A   1      34.279  22.158  24.771  1.00  0.00     0.264 C 
ATOM     10  C   UNL A   1      35.111  24.382  24.731  1.00  0.00     0.264 C 
ATOM     11  H   UNL A   1      36.127  22.609  24.365  1.00  0.00     0.348 HD
ATOM     12  C   UNL A   1      32.875  22.661  25.219  1.00  0.00     0.091 C 
ATOM     13  C   UNL A   1      33.969  24.799  25.635  1.00  0.00     0.091 C 
ATOM     14  C   UNL A   1      32.645  24.202  25.244  1.00  0.00     0.064 C 
ATOM     15  N   UNL A   1      31.688  24.481  26.303  1.00  0.00    -0.349 N 
ATOM     16  C   UNL A   1      30.481  24.980  25.880  1.00  0.00     0.221 C 
ATOM     17  H   UNL A   1      31.890  24.323  27.252  1.00  0.00     0.164 HD
ATOM     18  C   UNL A   1      30.487  24.963  24.374  1.00  0.00     0.117 C 
ATOM     19  O   UNL A   1      29.567  25.288  26.606  1.00  0.00    -0.275 OA
BRANCH   8  20
ATOM     20  C   UNL A   1      36.302  22.846  26.231  1.00  0.00     0.302 C 
BRANCH  20  21
ATOM     21  C   UNL A   1      37.790  23.117  26.114  1.00  0.00     0.043 A 
ATOM     22  C   UNL A   1      40.456  23.269  26.718  1.00  0.00     0.159 A 
ATOM     23  N   UNL A   1      39.993  22.122  26.172  1.00  0.00    -0.236 NA
ATOM     24  N   UNL A   1      39.720  24.383  26.849  1.00  0.00    -0.236 NA
ATOM     25  C   UNL A   1      38.678  22.090  25.852  1.00  0.00     0.124 A 
ATOM     26  C   UNL A   1      38.400  24.288  26.556  1.00  0.00     0.124 A 
BRANCH  22  27
ATOM     27  C   UNL A   1      41.837  23.262  27.230  1.00  0.00     0.019 A 
ATOM     28  C   UNL A   1      43.751  23.272  30.571  1.00  0.00     0.044 C 
ATOM     29  C   UNL A   1      43.450  23.221  29.099  1.00  0.00    -0.050 A 
ATOM     30  C   UNL A   1      44.488  23.016  28.189  1.00  0.00     0.003 A 
ATOM     31  C   UNL A   1      42.137  23.350  28.609  1.00  0.00     0.015 A 
ATOM     32  C   UNL A   1      44.223  22.980  26.820  1.00  0.00     0.001 A 
ATOM     33  C   UNL A   1      42.914  23.111  26.347  1.00  0.00     0.012 A 
ENDBRANCH  22  27
ENDBRANCH  20  21
ENDBRANCH   8  20
ENDBRANCH   5   7
ENDBRANCH   4   5
ENDBRANCH   3   4
ENDBRANCH   2   3
ENDBRANCH   1   2
BRANCH   1  34
ATOM     34  C   UNL A   1      32.552  31.289  27.016  1.00  0.00     0.202 C 
BRANCH  34  35
ATOM     35  C   UNL A   1      33.936  31.676  27.557  1.00  0.00     0.261 C 
BRANCH  35  36
ATOM     36  O   UNL A   1      34.452  30.747  28.540  1.00  0.00    -0.460 OA
BRANCH  36  37
ATOM     37  C   UNL A   1      35.372  29.823  28.124  1.00  0.00     0.338 C 
ATOM     38  O   UNL A   1      35.190  29.072  27.183  1.00  0.00    -0.246 OA
BRANCH  37  39
ATOM     39  C   UNL A   1      36.658  29.980  28.853  1.00  0.00     0.060 A 
ATOM     40  C   UNL A   1      37.725  30.742  28.347  1.00  0.00     0.016 A 
ATOM     41  C   UNL A   1      36.845  29.196  29.981  1.00  0.00     0.016 A 
ATOM     42  C   UNL A   1      39.012  30.597  28.894  1.00  0.00     0.010 A 
ATOM     43  C   UNL A   1      38.126  28.908  30.373  1.00  0.00     0.010 A 
ATOM     44  C   UNL A   1      39.223  29.616  29.856  1.00  0.00    -0.014 A 
BRANCH  44  45
ATOM     45  C   UNL A   1      40.485  29.215  30.481  1.00  0.00     0.031 A 
ATOM     46  C   UNL A   1      41.216  28.157  29.750  1.00  0.00     0.074 A 
ATOM     47  C   UNL A   1      41.105  29.964  31.432  1.00  0.00     0.049 A 
ATOM     48  N   UNL A   1      42.332  27.678  30.145  1.00  0.00    -0.248 NA
ATOM     49  C   UNL A   1      40.768  27.542  28.495  1.00  0.00     0.031 C 
ATOM     50  C   UNL A   1      42.523  30.043  31.799  1.00  0.00     0.029 A 
ATOM     51  N   UNL A   1      40.535  30.838  32.358  1.00  0.00    -0.354 N 
ATOM     52  C   UNL A   1      42.913  27.037  29.082  1.00  0.00     0.074 A 
ATOM     53  C   UNL A   1      41.861  26.878  28.115  1.00  0.00     0.031 C 
ATOM     54  C   UNL A   1      42.639  30.614  33.018  1.00  0.00     0.029 A 
ATOM     55  C   UNL A   1      41.290  30.819  33.529  1.00  0.00     0.049 A 
ATOM     56  H   UNL A   1      39.728  31.381  32.208  1.00  0.00     0.167 HD
ATOM     57  C   UNL A   1      44.259  26.857  29.138  1.00  0.00     0.031 A 
ATOM     58  C   UNL A   1      40.700  30.325  34.647  1.00  0.00     0.031 A 
ATOM     59  C   UNL A   1      44.755  27.160  30.501  1.00  0.00     0.049 A 
ATOM     60  C   UNL A   1      41.371  29.005  34.944  1.00  0.00     0.074 A 
ATOM     61  C   UNL A   1      45.567  28.127  31.068  1.00  0.00     0.029 A 
ATOM     62  N   UNL A   1      44.068  26.586  31.577  1.00  0.00    -0.354 N 
ATOM     63  N   UNL A   1      42.152  28.386  34.094  1.00  0.00    -0.248 NA
ATOM     64  C   UNL A   1      41.310  28.319  36.219  1.00  0.00     0.031 C 
ATOM     65  C   UNL A   1      45.305  28.151  32.485  1.00  0.00     0.029 A 
ATOM     66  C   UNL A   1      44.362  27.179  32.791  1.00  0.00     0.049 A 
ATOM     67  H   UNL A   1      43.440  25.835  31.480  1.00  0.00     0.167 HD
ATOM     68  C   UNL A   1      42.783  27.337  34.679  1.00  0.00     0.074 A 
ATOM     69  C   UNL A   1      42.151  27.290  35.996  1.00  0.00     0.031 C 
ATOM     70  C   UNL A   1      43.765  26.628  34.026  1.00  0.00     0.031 A 
BRANCH  57  71
ATOM     71  C   UNL A   1      45.117  26.561  27.923  1.00  0.00    -0.014 A 
ATOM     72  C   UNL A   1      46.433  26.095  28.095  1.00  0.00     0.010 A 
ATOM     73  C   UNL A   1      44.718  26.773  26.583  1.00  0.00     0.010 A 
ATOM     74  C   UNL A   1      47.285  25.840  27.003  1.00  0.00     0.020 A 
ATOM     75  C   UNL A   1      45.546  26.505  25.482  1.00  0.00     0.020 A 
ATOM     76  C   UNL A   1      46.830  26.034  25.698  1.00  0.00     0.054 A 
BRANCH  76  77
ATOM     77  S   UNL A   1      47.921  25.662  24.300  1.00  0.00     0.124 S 
ATOM     78  O   UNL A   1      49.239  25.628  24.928  1.00  0.00    -0.237 OA
ATOM     79  O   UNL A   1      47.410  24.375  23.836  1.00  0.00    -0.237 OA
ATOM     80  O   UNL A   1      47.706  26.778  23.380  1.00  0.00    -0.744 OA
ENDBRANCH  76  77
ENDBRANCH  57  71
BRANCH  58  81
ATOM     81  C   UNL A   1      39.248  30.757  34.745  1.00  0.00    -0.014 A 
ATOM     82  C   UNL A   1      38.984  31.997  35.394  1.00  0.00     0.010 A 
ATOM     83  C   UNL A   1      38.274  30.296  33.839  1.00  0.00     0.010 A 
ATOM     84  C   UNL A   1      37.896  32.817  35.028  1.00  0.00     0.020 A 
ATOM     85  C   UNL A   1      37.178  31.115  33.472  1.00  0.00     0.020 A 
ATOM     86  C   UNL A   1      37.031  32.394  34.020  1.00  0.00     0.054 A 
BRANCH  86  87
ATOM     87  S   UNL A   1      35.902  33.615  33.245  1.00  0.00     0.124 S 
ATOM     88  O   UNL A   1      36.179  34.832  33.999  1.00  0.00    -0.237 OA
ATOM     89  O   UNL A   1      36.332  33.621  31.847  1.00  0.00    -0.237 OA
ATOM     90  O   UNL A   1      34.580  33.033  33.454  1.00  0.00    -0.744 OA
ENDBRANCH  86  87
ENDBRANCH  58  81
BRANCH  70  91
ATOM     91  C   UNL A   1      44.226  25.252  34.455  1.00  0.00    -0.014 A 
ATOM     92  C   UNL A   1      43.404  24.128  34.544  1.00  0.00     0.010 A 
ATOM     93  C   UNL A   1      45.599  25.046  34.745  1.00  0.00     0.010 A 
ATOM     94  C   UNL A   1      43.933  22.853  34.765  1.00  0.00     0.020 A 
ATOM     95  C   UNL A   1      46.143  23.787  34.980  1.00  0.00     0.020 A 
ATOM     96  C   UNL A   1      45.303  22.691  34.961  1.00  0.00     0.054 A 
BRANCH  96  97
ATOM     97  S   UNL A   1      45.950  21.035  35.236  1.00  0.00     0.124 S 
ATOM     98  O   UNL A   1      44.824  20.197  34.832  1.00  0.00    -0.237 OA
ATOM     99  O   UNL A   1      47.106  21.007  34.344  1.00  0.00    -0.237 OA
ATOM    100  O   UNL A   1      46.262  21.012  36.662  1.00  0.00    -0.744 OA
ENDBRANCH  96  97
ENDBRANCH  70  91
ENDBRANCH  44  45
ENDBRANCH  37  39
ENDBRANCH  36  37
ENDBRANCH  35  36
ENDBRANCH  34  35
ENDBRANCH   1  34
TORSDOF 20
ENDMDL
