MODEL 1
REMARK VINA RESULT:     -10.3      0.000      0.000
REMARK SMILES O=C(OCCOCCOC(=O)c1c(F)cccc1NC(=O)C1CCCCC1)c1ccc(-c2c3nc(c(-c4ccc(S(=O)(=O)[O-])cc4)c4ccc([nH]4)c(-c4ccc(S(=O)(=O)[O-])cc4)c4nc(c(-c5ccc(S(=O)(=O)[O-])cc5)c5ccc2[nH]5)C=C4)C=C3)cc1
REMARK SMILES IDX 5 1 4 2 3 3 2 4 1 5 28 6 29 7 87 8 30 9 86 10 31 11 32 12
REMARK SMILES IDX 33 13 80 14 34 15 85 16 79 17 81 18 35 19 84 20 78 21 77 22
REMARK SMILES IDX 36 24 66 25 47 26 65 27 48 28 51 29 64 30 82 31 49 32 50 33
REMARK SMILES IDX 63 35 83 36 52 37 37 38 38 39 46 40 39 41 45 42 40 43 41 44
REMARK SMILES IDX 42 45 43 46 44 47 67 48 68 49 76 50 69 51 75 52 70 53 71 54
REMARK SMILES IDX 72 55 73 56 74 57 53 58 54 59 62 60 55 61 61 62 56 63 57 64
REMARK SMILES IDX 58 65 59 66 60 67 6 68 7 69 8 70 9 71 10 72 11 73 12 74
REMARK SMILES IDX 13 75 18 76 14 77 15 78 17 79 16 80 19 81 20 82 21 84 22 85
REMARK SMILES IDX 23 86 27 87 24 88 26 89 25 90
REMARK H PARENT 81 23 51 34 19 83
REMARK Flexibility Score: inf
ROOT
ATOM      1  C   UNL A   1      32.537  29.266  25.451  1.00  0.00     0.202 C 
ENDROOT
BRANCH   1   2
ATOM      2  C   UNL A   1      33.370  28.734  26.614  1.00  0.00     0.261 C 
BRANCH   2   3
ATOM      3  O   UNL A   1      33.339  29.657  27.706  1.00  0.00    -0.460 OA
BRANCH   3   4
ATOM      4  C   UNL A   1      34.297  30.554  28.035  1.00  0.00     0.338 C 
ATOM      5  O   UNL A   1      33.984  31.742  28.107  1.00  0.00    -0.246 OA
BRANCH   4   6
ATOM      6  C   UNL A   1      35.712  30.183  28.342  1.00  0.00     0.060 A 
ATOM      7  C   UNL A   1      36.177  29.720  29.576  1.00  0.00     0.016 A 
ATOM      8  C   UNL A   1      36.618  30.218  27.271  1.00  0.00     0.016 A 
ATOM      9  C   UNL A   1      37.489  29.321  29.764  1.00  0.00     0.010 A 
ATOM     10  C   UNL A   1      37.940  29.802  27.440  1.00  0.00     0.010 A 
ATOM     11  C   UNL A   1      38.372  29.357  28.694  1.00  0.00    -0.014 A 
BRANCH  11  12
ATOM     12  C   UNL A   1      39.779  29.029  28.951  1.00  0.00     0.031 A 
ATOM     13  C   UNL A   1      40.628  30.072  29.595  1.00  0.00     0.074 A 
ATOM     14  C   UNL A   1      40.227  27.789  28.695  1.00  0.00     0.049 A 
ATOM     15  N   UNL A   1      41.914  30.077  29.799  1.00  0.00    -0.248 NA
ATOM     16  C   UNL A   1      39.928  31.273  30.085  1.00  0.00     0.031 C 
ATOM     17  C   UNL A   1      39.404  26.676  28.214  1.00  0.00     0.029 A 
ATOM     18  N   UNL A   1      41.478  27.254  28.813  1.00  0.00    -0.354 N 
ATOM     19  C   UNL A   1      42.188  31.302  30.393  1.00  0.00     0.074 A 
ATOM     20  C   UNL A   1      40.933  32.006  30.535  1.00  0.00     0.031 C 
ATOM     21  C   UNL A   1      40.178  25.587  28.077  1.00  0.00     0.029 A 
ATOM     22  C   UNL A   1      41.557  25.951  28.384  1.00  0.00     0.049 A 
ATOM     23  H   UNL A   1      42.248  27.752  29.172  1.00  0.00     0.167 HD
ATOM     24  C   UNL A   1      43.395  31.793  30.755  1.00  0.00     0.031 A 
ATOM     25  C   UNL A   1      42.638  25.168  28.211  1.00  0.00     0.031 A 
ATOM     26  C   UNL A   1      44.614  31.060  30.563  1.00  0.00     0.049 A 
ATOM     27  C   UNL A   1      43.981  25.763  28.532  1.00  0.00     0.074 A 
ATOM     28  C   UNL A   1      45.915  31.458  30.798  1.00  0.00     0.029 A 
ATOM     29  N   UNL A   1      44.669  29.756  30.079  1.00  0.00    -0.354 N 
ATOM     30  N   UNL A   1      44.256  26.960  29.001  1.00  0.00    -0.248 NA
ATOM     31  C   UNL A   1      45.158  24.922  28.293  1.00  0.00     0.031 C 
ATOM     32  C   UNL A   1      46.759  30.409  30.414  1.00  0.00     0.029 A 
ATOM     33  C   UNL A   1      45.982  29.335  29.996  1.00  0.00     0.049 A 
ATOM     34  H   UNL A   1      43.886  29.213  29.832  1.00  0.00     0.167 HD
ATOM     35  C   UNL A   1      45.636  27.013  29.131  1.00  0.00     0.074 A 
ATOM     36  C   UNL A   1      46.138  25.720  28.698  1.00  0.00     0.031 C 
ATOM     37  C   UNL A   1      46.422  28.029  29.567  1.00  0.00     0.031 A 
BRANCH  24  38
ATOM     38  C   UNL A   1      43.424  33.207  31.267  1.00  0.00    -0.014 A 
ATOM     39  C   UNL A   1      43.582  34.307  30.403  1.00  0.00     0.010 A 
ATOM     40  C   UNL A   1      43.376  33.432  32.655  1.00  0.00     0.010 A 
ATOM     41  C   UNL A   1      43.760  35.594  30.921  1.00  0.00     0.020 A 
ATOM     42  C   UNL A   1      43.527  34.721  33.177  1.00  0.00     0.020 A 
ATOM     43  C   UNL A   1      43.748  35.790  32.306  1.00  0.00     0.054 A 
BRANCH  43  44
ATOM     44  S   UNL A   1      44.034  37.458  32.959  1.00  0.00     0.124 S 
ATOM     45  O   UNL A   1      43.858  38.282  31.766  1.00  0.00    -0.237 OA
ATOM     46  O   UNL A   1      42.992  37.592  33.973  1.00  0.00    -0.237 OA
ATOM     47  O   UNL A   1      45.400  37.398  33.477  1.00  0.00    -0.744 OA
ENDBRANCH  43  44
ENDBRANCH  24  38
BRANCH  25  48
ATOM     48  C   UNL A   1      42.478  23.796  27.654  1.00  0.00    -0.014 A 
ATOM     49  C   UNL A   1      42.601  23.552  26.276  1.00  0.00     0.010 A 
ATOM     50  C   UNL A   1      42.262  22.705  28.519  1.00  0.00     0.010 A 
ATOM     51  C   UNL A   1      42.517  22.247  25.775  1.00  0.00     0.020 A 
ATOM     52  C   UNL A   1      42.203  21.397  28.027  1.00  0.00     0.020 A 
ATOM     53  C   UNL A   1      42.326  21.177  26.655  1.00  0.00     0.054 A 
BRANCH  53  54
ATOM     54  S   UNL A   1      42.298  19.486  25.993  1.00  0.00     0.124 S 
ATOM     55  O   UNL A   1      43.248  19.576  24.889  1.00  0.00    -0.237 OA
ATOM     56  O   UNL A   1      42.731  18.690  27.139  1.00  0.00    -0.237 OA
ATOM     57  O   UNL A   1      40.903  19.293  25.603  1.00  0.00    -0.744 OA
ENDBRANCH  53  54
ENDBRANCH  25  48
BRANCH  37  58
ATOM     58  C   UNL A   1      47.897  27.764  29.645  1.00  0.00    -0.014 A 
ATOM     59  C   UNL A   1      48.766  28.183  28.623  1.00  0.00     0.010 A 
ATOM     60  C   UNL A   1      48.425  27.188  30.814  1.00  0.00     0.010 A 
ATOM     61  C   UNL A   1      50.144  28.023  28.770  1.00  0.00     0.020 A 
ATOM     62  C   UNL A   1      49.802  27.048  30.973  1.00  0.00     0.020 A 
ATOM     63  C   UNL A   1      50.653  27.462  29.947  1.00  0.00     0.054 A 
BRANCH  63  64
ATOM     64  S   UNL A   1      52.451  27.348  30.153  1.00  0.00     0.124 S 
ATOM     65  O   UNL A   1      52.787  26.236  29.268  1.00  0.00    -0.237 OA
ATOM     66  O   UNL A   1      52.908  28.664  29.712  1.00  0.00    -0.237 OA
ATOM     67  O   UNL A   1      52.620  27.083  31.580  1.00  0.00    -0.744 OA
ENDBRANCH  63  64
ENDBRANCH  37  58
ENDBRANCH  11  12
ENDBRANCH   4   6
ENDBRANCH   3   4
ENDBRANCH   2   3
ENDBRANCH   1   2
BRANCH   1  68
ATOM     68  O   UNL A   1      32.611  28.505  24.249  1.00  0.00    -0.374 OA
BRANCH  68  69
ATOM     69  C   UNL A   1      33.445  29.023  23.213  1.00  0.00     0.202 C 
BRANCH  69  70
ATOM     70  C   UNL A   1      33.669  27.918  22.180  1.00  0.00     0.261 C 
BRANCH  70  71
ATOM     71  O   UNL A   1      33.629  26.647  22.853  1.00  0.00    -0.460 OA
BRANCH  71  72
ATOM     72  C   UNL A   1      33.132  25.592  22.161  1.00  0.00     0.343 C 
ATOM     73  O   UNL A   1      33.301  25.312  20.986  1.00  0.00    -0.246 OA
BRANCH  72  74
ATOM     74  C   UNL A   1      32.574  24.656  23.151  1.00  0.00     0.119 A 
ATOM     75  C   UNL A   1      31.359  24.992  23.758  1.00  0.00     0.139 A 
ATOM     76  C   UNL A   1      33.313  23.533  23.588  1.00  0.00     0.058 A 
ATOM     77  F   UNL A   1      30.609  26.002  23.292  1.00  0.00    -0.206 F 
ATOM     78  C   UNL A   1      30.901  24.297  24.867  1.00  0.00     0.040 A 
ATOM     79  C   UNL A   1      32.876  22.914  24.758  1.00  0.00     0.027 A 
ATOM     80  C   UNL A   1      31.683  23.280  25.393  1.00  0.00     0.005 A 
BRANCH  76  81
ATOM     81  N   UNL A   1      34.473  23.125  22.887  1.00  0.00    -0.325 N 
ATOM     82  C   UNL A   1      35.782  22.878  23.183  1.00  0.00     0.227 C 
ATOM     83  H   UNL A   1      34.287  22.982  21.931  1.00  0.00     0.169 HD
ATOM     84  O   UNL A   1      36.562  22.836  22.220  1.00  0.00    -0.274 OA
BRANCH  82  85
ATOM     85  C   UNL A   1      36.365  22.653  24.581  1.00  0.00     0.079 C 
ATOM     86  C   UNL A   1      37.415  21.535  24.586  1.00  0.00     0.013 C 
ATOM     87  C   UNL A   1      36.675  23.954  25.335  1.00  0.00     0.013 C 
ATOM     88  C   UNL A   1      38.219  21.480  25.879  1.00  0.00     0.001 C 
ATOM     89  C   UNL A   1      37.732  23.874  26.434  1.00  0.00     0.001 C 
ATOM     90  C   UNL A   1      38.820  22.835  26.212  1.00  0.00     0.000 C 
ENDBRANCH  82  85
ENDBRANCH  76  81
ENDBRANCH  72  74
ENDBRANCH  71  72
ENDBRANCH  70  71
ENDBRANCH  69  70
ENDBRANCH  68  69
ENDBRANCH   1  68
TORSDOF 19
ENDMDL
MODEL 2
REMARK VINA RESULT:     -10.0      4.787      9.766
REMARK SMILES O=C(OCCOCCOC(=O)c1c(F)cccc1NC(=O)C1CCCCC1)c1ccc(-c2c3nc(c(-c4ccc(S(=O)(=O)[O-])cc4)c4ccc([nH]4)c(-c4ccc(S(=O)(=O)[O-])cc4)c4nc(c(-c5ccc(S(=O)(=O)[O-])cc5)c5ccc2[nH]5)C=C4)C=C3)cc1
REMARK SMILES IDX 5 1 4 2 3 3 2 4 1 5 28 6 29 7 87 8 30 9 86 10 31 11 32 12
REMARK SMILES IDX 33 13 80 14 34 15 85 16 79 17 81 18 35 19 84 20 78 21 77 22
REMARK SMILES IDX 36 24 66 25 47 26 65 27 48 28 51 29 64 30 82 31 49 32 50 33
REMARK SMILES IDX 63 35 83 36 52 37 37 38 38 39 46 40 39 41 45 42 40 43 41 44
REMARK SMILES IDX 42 45 43 46 44 47 67 48 68 49 76 50 69 51 75 52 70 53 71 54
REMARK SMILES IDX 72 55 73 56 74 57 53 58 54 59 62 60 55 61 61 62 56 63 57 64
REMARK SMILES IDX 58 65 59 66 60 67 6 68 7 69 8 70 9 71 10 72 11 73 12 74
REMARK SMILES IDX 13 75 18 76 14 77 15 78 17 79 16 80 19 81 20 82 21 84 22 85
REMARK SMILES IDX 23 86 27 87 24 88 26 89 25 90
REMARK H PARENT 81 23 51 34 19 83
REMARK Flexibility Score: inf
ROOT
ATOM      1  C   UNL A   1      39.852  21.849  26.139  1.00  0.00     0.202 C 
ENDROOT
BRANCH   1   2
ATOM      2  C   UNL A   1      39.600  23.272  26.631  1.00  0.00     0.261 C 
BRANCH   2   3
ATOM      3  O   UNL A   1      40.787  24.059  26.493  1.00  0.00    -0.460 OA
BRANCH   3   4
ATOM      4  C   UNL A   1      40.865  25.410  26.480  1.00  0.00     0.338 C 
ATOM      5  O   UNL A   1      41.064  25.972  25.404  1.00  0.00    -0.246 OA
BRANCH   4   6
ATOM      6  C   UNL A   1      40.697  26.264  27.696  1.00  0.00     0.060 A 
ATOM      7  C   UNL A   1      39.725  26.083  28.684  1.00  0.00     0.016 A 
ATOM      8  C   UNL A   1      41.659  27.266  27.898  1.00  0.00     0.016 A 
ATOM      9  C   UNL A   1      39.681  26.868  29.822  1.00  0.00     0.010 A 
ATOM     10  C   UNL A   1      41.637  28.054  29.049  1.00  0.00     0.010 A 
ATOM     11  C   UNL A   1      40.640  27.852  30.010  1.00  0.00    -0.014 A 
BRANCH  11  12
ATOM     12  C   UNL A   1      40.503  28.734  31.174  1.00  0.00     0.031 A 
ATOM     13  C   UNL A   1      39.431  29.772  31.135  1.00  0.00     0.074 A 
ATOM     14  C   UNL A   1      41.265  28.523  32.259  1.00  0.00     0.049 A 
ATOM     15  N   UNL A   1      39.199  30.747  31.966  1.00  0.00    -0.248 NA
ATOM     16  C   UNL A   1      38.487  29.694  30.007  1.00  0.00     0.031 C 
ATOM     17  C   UNL A   1      42.220  27.422  32.419  1.00  0.00     0.029 A 
ATOM     18  N   UNL A   1      41.349  29.213  33.435  1.00  0.00    -0.354 N 
ATOM     19  C   UNL A   1      38.113  31.431  31.435  1.00  0.00     0.074 A 
ATOM     20  C   UNL A   1      37.721  30.750  30.222  1.00  0.00     0.031 C 
ATOM     21  C   UNL A   1      42.796  27.516  33.629  1.00  0.00     0.029 A 
ATOM     22  C   UNL A   1      42.307  28.722  34.288  1.00  0.00     0.049 A 
ATOM     23  H   UNL A   1      40.778  29.985  33.651  1.00  0.00     0.167 HD
ATOM     24  C   UNL A   1      37.526  32.550  31.918  1.00  0.00     0.031 A 
ATOM     25  C   UNL A   1      42.769  29.232  35.445  1.00  0.00     0.031 A 
ATOM     26  C   UNL A   1      37.977  33.202  33.115  1.00  0.00     0.049 A 
ATOM     27  C   UNL A   1      42.167  30.526  35.919  1.00  0.00     0.074 A 
ATOM     28  C   UNL A   1      37.542  34.385  33.678  1.00  0.00     0.029 A 
ATOM     29  N   UNL A   1      38.986  32.708  33.936  1.00  0.00    -0.354 N 
ATOM     30  N   UNL A   1      41.207  31.234  35.367  1.00  0.00    -0.248 NA
ATOM     31  C   UNL A   1      42.710  31.101  37.154  1.00  0.00     0.031 C 
ATOM     32  C   UNL A   1      38.319  34.627  34.817  1.00  0.00     0.029 A 
ATOM     33  C   UNL A   1      39.198  33.566  34.997  1.00  0.00     0.049 A 
ATOM     34  H   UNL A   1      39.478  31.868  33.783  1.00  0.00     0.167 HD
ATOM     35  C   UNL A   1      41.016  32.331  36.195  1.00  0.00     0.074 A 
ATOM     36  C   UNL A   1      41.957  32.186  37.291  1.00  0.00     0.031 C 
ATOM     37  C   UNL A   1      40.145  33.363  36.068  1.00  0.00     0.031 A 
BRANCH  24  38
ATOM     38  C   UNL A   1      36.440  33.161  31.076  1.00  0.00    -0.014 A 
ATOM     39  C   UNL A   1      36.716  33.785  29.844  1.00  0.00     0.010 A 
ATOM     40  C   UNL A   1      35.123  33.184  31.571  1.00  0.00     0.010 A 
ATOM     41  C   UNL A   1      35.711  34.477  29.161  1.00  0.00     0.020 A 
ATOM     42  C   UNL A   1      34.110  33.853  30.878  1.00  0.00     0.020 A 
ATOM     43  C   UNL A   1      34.418  34.521  29.691  1.00  0.00     0.054 A 
BRANCH  43  44
ATOM     44  S   UNL A   1      33.143  35.469  28.817  1.00  0.00     0.124 S 
ATOM     45  O   UNL A   1      32.383  36.044  29.924  1.00  0.00    -0.237 OA
ATOM     46  O   UNL A   1      33.927  36.421  28.034  1.00  0.00    -0.237 OA
ATOM     47  O   UNL A   1      32.434  34.458  28.034  1.00  0.00    -0.744 OA
ENDBRANCH  43  44
ENDBRANCH  24  38
BRANCH  25  48
ATOM     48  C   UNL A   1      43.882  28.552  36.164  1.00  0.00    -0.014 A 
ATOM     49  C   UNL A   1      43.632  27.492  37.053  1.00  0.00     0.010 A 
ATOM     50  C   UNL A   1      45.217  28.925  35.912  1.00  0.00     0.010 A 
ATOM     51  C   UNL A   1      44.693  26.818  37.669  1.00  0.00     0.020 A 
ATOM     52  C   UNL A   1      46.280  28.237  36.505  1.00  0.00     0.020 A 
ATOM     53  C   UNL A   1      46.011  27.190  37.386  1.00  0.00     0.054 A 
BRANCH  53  54
ATOM     54  S   UNL A   1      47.373  26.250  38.135  1.00  0.00     0.124 S 
ATOM     55  O   UNL A   1      48.285  27.312  38.546  1.00  0.00    -0.237 OA
ATOM     56  O   UNL A   1      46.704  25.534  39.218  1.00  0.00    -0.237 OA
ATOM     57  O   UNL A   1      47.848  25.405  37.041  1.00  0.00    -0.744 OA
ENDBRANCH  53  54
ENDBRANCH  25  48
BRANCH  37  58
ATOM     58  C   UNL A   1      40.137  34.387  37.166  1.00  0.00    -0.014 A 
ATOM     59  C   UNL A   1      40.930  35.544  37.087  1.00  0.00     0.010 A 
ATOM     60  C   UNL A   1      39.235  34.232  38.234  1.00  0.00     0.010 A 
ATOM     61  C   UNL A   1      40.823  36.531  38.068  1.00  0.00     0.020 A 
ATOM     62  C   UNL A   1      39.110  35.226  39.202  1.00  0.00     0.020 A 
ATOM     63  C   UNL A   1      39.908  36.368  39.116  1.00  0.00     0.054 A 
BRANCH  63  64
ATOM     64  S   UNL A   1      39.722  37.705  40.326  1.00  0.00     0.124 S 
ATOM     65  O   UNL A   1      41.094  38.186  40.459  1.00  0.00    -0.237 OA
ATOM     66  O   UNL A   1      38.797  38.617  39.657  1.00  0.00    -0.237 OA
ATOM     67  O   UNL A   1      39.180  37.032  41.504  1.00  0.00    -0.744 OA
ENDBRANCH  63  64
ENDBRANCH  37  58
ENDBRANCH  11  12
ENDBRANCH   4   6
ENDBRANCH   3   4
ENDBRANCH   2   3
ENDBRANCH   1   2
BRANCH   1  68
ATOM     68  O   UNL A   1      38.704  21.162  25.649  1.00  0.00    -0.374 OA
BRANCH  68  69
ATOM     69  C   UNL A   1      37.475  21.887  25.646  1.00  0.00     0.202 C 
BRANCH  69  70
ATOM     70  C   UNL A   1      36.941  21.920  24.213  1.00  0.00     0.261 C 
BRANCH  70  71
ATOM     71  O   UNL A   1      36.238  23.160  24.016  1.00  0.00    -0.460 OA
BRANCH  71  72
ATOM     72  C   UNL A   1      35.198  23.424  24.845  1.00  0.00     0.343 C 
ATOM     73  O   UNL A   1      35.136  24.250  25.739  1.00  0.00    -0.246 OA
BRANCH  72  74
ATOM     74  C   UNL A   1      34.023  22.731  24.289  1.00  0.00     0.119 A 
ATOM     75  C   UNL A   1      33.577  21.575  24.939  1.00  0.00     0.139 A 
ATOM     76  C   UNL A   1      33.458  23.130  23.057  1.00  0.00     0.058 A 
ATOM     77  F   UNL A   1      34.044  21.238  26.150  1.00  0.00    -0.206 F 
ATOM     78  C   UNL A   1      32.647  20.738  24.343  1.00  0.00     0.040 A 
ATOM     79  C   UNL A   1      32.596  22.224  22.442  1.00  0.00     0.027 A 
ATOM     80  C   UNL A   1      32.185  21.043  23.071  1.00  0.00     0.005 A 
BRANCH  76  81
ATOM     81  N   UNL A   1      33.823  24.366  22.471  1.00  0.00    -0.325 N 
ATOM     82  C   UNL A   1      33.341  25.643  22.453  1.00  0.00     0.227 C 
ATOM     83  H   UNL A   1      34.644  24.284  21.935  1.00  0.00     0.169 HD
ATOM     84  O   UNL A   1      33.783  26.381  21.561  1.00  0.00    -0.274 OA
BRANCH  82  85
ATOM     85  C   UNL A   1      32.312  26.233  23.422  1.00  0.00     0.079 C 
ATOM     86  C   UNL A   1      32.987  26.974  24.583  1.00  0.00     0.013 C 
ATOM     87  C   UNL A   1      31.117  26.897  22.723  1.00  0.00     0.013 C 
ATOM     88  C   UNL A   1      32.012  27.814  25.399  1.00  0.00     0.001 C 
ATOM     89  C   UNL A   1      30.366  27.965  23.516  1.00  0.00     0.001 C 
ATOM     90  C   UNL A   1      31.211  28.749  24.509  1.00  0.00     0.000 C 
ENDBRANCH  82  85
ENDBRANCH  76  81
ENDBRANCH  72  74
ENDBRANCH  71  72
ENDBRANCH  70  71
ENDBRANCH  69  70
ENDBRANCH  68  69
ENDBRANCH   1  68
TORSDOF 19
ENDMDL
MODEL 3
REMARK VINA RESULT:      -9.9      2.480      3.412
REMARK SMILES O=C(OCCOCCOC(=O)c1c(F)cccc1NC(=O)C1CCCCC1)c1ccc(-c2c3nc(c(-c4ccc(S(=O)(=O)[O-])cc4)c4ccc([nH]4)c(-c4ccc(S(=O)(=O)[O-])cc4)c4nc(c(-c5ccc(S(=O)(=O)[O-])cc5)c5ccc2[nH]5)C=C4)C=C3)cc1
REMARK SMILES IDX 5 1 4 2 3 3 2 4 1 5 28 6 29 7 87 8 30 9 86 10 31 11 32 12
REMARK SMILES IDX 33 13 80 14 34 15 85 16 79 17 81 18 35 19 84 20 78 21 77 22
REMARK SMILES IDX 36 24 66 25 47 26 65 27 48 28 51 29 64 30 82 31 49 32 50 33
REMARK SMILES IDX 63 35 83 36 52 37 37 38 38 39 46 40 39 41 45 42 40 43 41 44
REMARK SMILES IDX 42 45 43 46 44 47 67 48 68 49 76 50 69 51 75 52 70 53 71 54
REMARK SMILES IDX 72 55 73 56 74 57 53 58 54 59 62 60 55 61 61 62 56 63 57 64
REMARK SMILES IDX 58 65 59 66 60 67 6 68 7 69 8 70 9 71 10 72 11 73 12 74
REMARK SMILES IDX 13 75 18 76 14 77 15 78 17 79 16 80 19 81 20 82 21 84 22 85
REMARK SMILES IDX 23 86 27 87 24 88 26 89 25 90
REMARK H PARENT 81 23 51 34 19 83
REMARK Flexibility Score: inf
ROOT
ATOM      1  C   UNL A   1      32.982  29.694  27.198  1.00  0.00     0.202 C 
ENDROOT
BRANCH   1   2
ATOM      2  C   UNL A   1      34.305  30.417  27.445  1.00  0.00     0.261 C 
BRANCH   2   3
ATOM      3  O   UNL A   1      35.127  29.652  28.331  1.00  0.00    -0.460 OA
BRANCH   3   4
ATOM      4  C   UNL A   1      36.172  30.107  29.060  1.00  0.00     0.338 C 
ATOM      5  O   UNL A   1      35.943  30.884  29.986  1.00  0.00    -0.246 OA
BRANCH   4   6
ATOM      6  C   UNL A   1      37.590  29.698  28.824  1.00  0.00     0.060 A 
ATOM      7  C   UNL A   1      38.225  29.660  27.579  1.00  0.00     0.016 A 
ATOM      8  C   UNL A   1      38.364  29.425  29.963  1.00  0.00     0.016 A 
ATOM      9  C   UNL A   1      39.566  29.346  27.448  1.00  0.00     0.010 A 
ATOM     10  C   UNL A   1      39.722  29.124  29.847  1.00  0.00     0.010 A 
ATOM     11  C   UNL A   1      40.319  29.082  28.583  1.00  0.00    -0.014 A 
BRANCH  11  12
ATOM     12  C   UNL A   1      41.709  28.650  28.402  1.00  0.00     0.031 A 
ATOM     13  C   UNL A   1      42.784  29.665  28.608  1.00  0.00     0.074 A 
ATOM     14  C   UNL A   1      41.974  27.357  28.156  1.00  0.00     0.049 A 
ATOM     15  N   UNL A   1      44.061  29.569  28.377  1.00  0.00    -0.248 NA
ATOM     16  C   UNL A   1      42.358  30.964  29.158  1.00  0.00     0.031 C 
ATOM     17  C   UNL A   1      40.975  26.285  28.103  1.00  0.00     0.029 A 
ATOM     18  N   UNL A   1      43.160  26.722  27.919  1.00  0.00    -0.354 N 
ATOM     19  C   UNL A   1      44.588  30.812  28.704  1.00  0.00     0.074 A 
ATOM     20  C   UNL A   1      43.496  31.638  29.168  1.00  0.00     0.031 C 
ATOM     21  C   UNL A   1      41.595  25.122  27.845  1.00  0.00     0.029 A 
ATOM     22  C   UNL A   1      43.016  25.384  27.641  1.00  0.00     0.049 A 
ATOM     23  H   UNL A   1      44.032  27.176  27.947  1.00  0.00     0.167 HD
ATOM     24  C   UNL A   1      45.872  31.220  28.592  1.00  0.00     0.031 A 
ATOM     25  C   UNL A   1      43.929  24.492  27.214  1.00  0.00     0.031 A 
ATOM     26  C   UNL A   1      46.913  30.363  28.097  1.00  0.00     0.049 A 
ATOM     27  C   UNL A   1      45.334  24.988  27.007  1.00  0.00     0.074 A 
ATOM     28  C   UNL A   1      48.237  30.660  27.845  1.00  0.00     0.029 A 
ATOM     29  N   UNL A   1      46.727  29.022  27.775  1.00  0.00    -0.354 N 
ATOM     30  N   UNL A   1      45.818  26.191  27.219  1.00  0.00    -0.248 NA
ATOM     31  C   UNL A   1      46.312  24.024  26.494  1.00  0.00     0.031 C 
ATOM     32  C   UNL A   1      48.842  29.508  27.329  1.00  0.00     0.029 A 
ATOM     33  C   UNL A   1      47.910  28.477  27.315  1.00  0.00     0.049 A 
ATOM     34  H   UNL A   1      45.877  28.534  27.862  1.00  0.00     0.167 HD
ATOM     35  C   UNL A   1      47.162  26.128  26.883  1.00  0.00     0.074 A 
ATOM     36  C   UNL A   1      47.416  24.762  26.461  1.00  0.00     0.031 C 
ATOM     37  C   UNL A   1      48.105  27.103  26.918  1.00  0.00     0.031 A 
BRANCH  24  38
ATOM     38  C   UNL A   1      46.152  32.666  28.900  1.00  0.00    -0.014 A 
ATOM     39  C   UNL A   1      46.329  33.124  30.219  1.00  0.00     0.010 A 
ATOM     40  C   UNL A   1      46.153  33.600  27.847  1.00  0.00     0.010 A 
ATOM     41  C   UNL A   1      46.433  34.494  30.484  1.00  0.00     0.020 A 
ATOM     42  C   UNL A   1      46.284  34.968  28.106  1.00  0.00     0.020 A 
ATOM     43  C   UNL A   1      46.393  35.408  29.426  1.00  0.00     0.054 A 
BRANCH  43  44
ATOM     44  S   UNL A   1      46.477  37.182  29.796  1.00  0.00     0.124 S 
ATOM     45  O   UNL A   1      46.185  37.205  31.228  1.00  0.00    -0.237 OA
ATOM     46  O   UNL A   1      47.848  37.524  29.431  1.00  0.00    -0.237 OA
ATOM     47  O   UNL A   1      45.443  37.763  28.941  1.00  0.00    -0.744 OA
ENDBRANCH  43  44
ENDBRANCH  24  38
BRANCH  25  48
ATOM     48  C   UNL A   1      43.514  23.097  26.901  1.00  0.00    -0.014 A 
ATOM     49  C   UNL A   1      43.868  22.489  25.685  1.00  0.00     0.010 A 
ATOM     50  C   UNL A   1      42.808  22.340  27.858  1.00  0.00     0.010 A 
ATOM     51  C   UNL A   1      43.530  21.153  25.434  1.00  0.00     0.020 A 
ATOM     52  C   UNL A   1      42.491  20.999  27.622  1.00  0.00     0.020 A 
ATOM     53  C   UNL A   1      42.849  20.414  26.407  1.00  0.00     0.054 A 
BRANCH  53  54
ATOM     54  S   UNL A   1      42.490  18.662  26.092  1.00  0.00     0.124 S 
ATOM     55  O   UNL A   1      42.790  18.053  27.384  1.00  0.00    -0.237 OA
ATOM     56  O   UNL A   1      41.079  18.691  25.717  1.00  0.00    -0.237 OA
ATOM     57  O   UNL A   1      43.408  18.314  25.009  1.00  0.00    -0.744 OA
ENDBRANCH  53  54
ENDBRANCH  25  48
BRANCH  37  58
ATOM     58  C   UNL A   1      49.504  26.712  26.538  1.00  0.00    -0.014 A 
ATOM     59  C   UNL A   1      50.368  26.110  27.469  1.00  0.00     0.010 A 
ATOM     60  C   UNL A   1      49.911  26.850  25.200  1.00  0.00     0.010 A 
ATOM     61  C   UNL A   1      51.624  25.658  27.064  1.00  0.00     0.020 A 
ATOM     62  C   UNL A   1      51.155  26.378  24.787  1.00  0.00     0.020 A 
ATOM     63  C   UNL A   1      52.007  25.789  25.723  1.00  0.00     0.054 A 
BRANCH  63  64
ATOM     64  S   UNL A   1      53.605  25.111  25.202  1.00  0.00     0.124 S 
ATOM     65  O   UNL A   1      53.709  25.602  23.830  1.00  0.00    -0.237 OA
ATOM     66  O   UNL A   1      54.534  25.710  26.157  1.00  0.00    -0.237 OA
ATOM     67  O   UNL A   1      53.428  23.666  25.336  1.00  0.00    -0.744 OA
ENDBRANCH  63  64
ENDBRANCH  37  58
ENDBRANCH  11  12
ENDBRANCH   4   6
ENDBRANCH   3   4
ENDBRANCH   2   3
ENDBRANCH   1   2
BRANCH   1  68
ATOM     68  O   UNL A   1      32.992  28.756  26.127  1.00  0.00    -0.374 OA
BRANCH  68  69
ATOM     69  C   UNL A   1      32.649  29.254  24.834  1.00  0.00     0.202 C 
BRANCH  69  70
ATOM     70  C   UNL A   1      31.182  28.917  24.563  1.00  0.00     0.261 C 
BRANCH  70  71
ATOM     71  O   UNL A   1      30.919  27.591  25.056  1.00  0.00    -0.460 OA
BRANCH  71  72
ATOM     72  C   UNL A   1      30.276  26.735  24.223  1.00  0.00     0.343 C 
ATOM     73  O   UNL A   1      29.098  26.729  23.908  1.00  0.00    -0.246 OA
BRANCH  72  74
ATOM     74  C   UNL A   1      31.315  25.967  23.516  1.00  0.00     0.119 A 
ATOM     75  C   UNL A   1      31.577  26.294  22.182  1.00  0.00     0.139 A 
ATOM     76  C   UNL A   1      31.919  24.838  24.114  1.00  0.00     0.058 A 
ATOM     77  F   UNL A   1      31.079  27.412  21.633  1.00  0.00    -0.206 F 
ATOM     78  C   UNL A   1      32.350  25.465  21.384  1.00  0.00     0.040 A 
ATOM     79  C   UNL A   1      32.614  23.977  23.267  1.00  0.00     0.027 A 
ATOM     80  C   UNL A   1      32.837  24.281  21.918  1.00  0.00     0.005 A 
BRANCH  76  81
ATOM     81  N   UNL A   1      31.751  24.588  25.498  1.00  0.00    -0.325 N 
ATOM     82  C   UNL A   1      32.386  23.864  26.466  1.00  0.00     0.227 C 
ATOM     83  H   UNL A   1      30.967  25.062  25.859  1.00  0.00     0.169 HD
ATOM     84  O   UNL A   1      31.741  23.657  27.504  1.00  0.00    -0.274 OA
BRANCH  82  85
ATOM     85  C   UNL A   1      33.803  23.291  26.380  1.00  0.00     0.079 C 
ATOM     86  C   UNL A   1      33.810  21.879  25.782  1.00  0.00     0.013 C 
ATOM     87  C   UNL A   1      34.848  24.303  25.886  1.00  0.00     0.013 C 
ATOM     88  C   UNL A   1      35.207  21.396  25.413  1.00  0.00     0.001 C 
ATOM     89  C   UNL A   1      36.108  23.728  25.242  1.00  0.00     0.001 C 
ATOM     90  C   UNL A   1      35.921  22.400  24.524  1.00  0.00     0.000 C 
ENDBRANCH  82  85
ENDBRANCH  76  81
ENDBRANCH  72  74
ENDBRANCH  71  72
ENDBRANCH  70  71
ENDBRANCH  69  70
ENDBRANCH  68  69
ENDBRANCH   1  68
TORSDOF 19
ENDMDL
