MODEL 1
REMARK VINA RESULT:     -11.6      0.000      0.000
REMARK SMILES COc1ccc(-c2ncn(CC(=O)OCCOCCOC(=O)c3ccc(-c4c5nc(c(-c6ccc(S(=O)(=O)[O-])cc6)c6ccc([nH]6)c(-c6ccc(S(=O)(=O)[O-])cc6)c6nc(c(-c7ccc(S(=O)(=O)[O-])cc7)c7ccc4[nH]7)C=C6)C=C5)cc3)c2-c2ccc(OC)cc2)cc1
REMARK SMILES IDX 17 1 16 2 15 3 14 4 12 5 13 6 11 7 10 8 7 9 8 10 83 11 9 12
REMARK SMILES IDX 6 13 3 14 4 15 93 16 5 17 92 18 2 19 1 20 84 21 85 22 91 23
REMARK SMILES IDX 86 24 90 25 87 26 88 27 89 28 18 29 19 30 20 31 21 32 22 33
REMARK SMILES IDX 23 34 24 35 82 36 25 37 81 38 26 39 27 40 28 41 75 42 29 43
REMARK SMILES IDX 80 44 74 45 76 46 30 47 79 48 73 49 72 50 31 52 61 53 42 54
REMARK SMILES IDX 60 55 43 56 46 57 59 58 77 59 44 60 45 61 58 63 78 64 47 65
REMARK SMILES IDX 32 66 33 67 41 68 34 69 40 70 35 71 36 72 37 73 38 74 39 75
REMARK SMILES IDX 62 76 63 77 71 78 64 79 70 80 65 81 66 82 67 83 68 84 69 85
REMARK SMILES IDX 48 86 49 87 57 88 50 89 56 90 51 91 52 92 53 93 54 94 55 95
REMARK H PARENT 76 51 46 62
REMARK Flexibility Score: inf
ROOT
ATOM      1  O   UNL A   1      31.973  29.742  24.776  1.00  0.00    -0.374 OA
ENDROOT
BRANCH   1   2
ATOM      2  C   UNL A   1      30.843  29.321  24.036  1.00  0.00     0.202 C 
BRANCH   2   3
ATOM      3  C   UNL A   1      31.113  28.125  23.113  1.00  0.00     0.261 C 
BRANCH   3   4
ATOM      4  O   UNL A   1      32.417  28.151  22.486  1.00  0.00    -0.462 OA
BRANCH   4   5
ATOM      5  C   UNL A   1      33.073  26.969  22.382  1.00  0.00     0.326 C 
ATOM      6  O   UNL A   1      33.584  26.563  21.341  1.00  0.00    -0.250 OA
BRANCH   5   7
ATOM      7  C   UNL A   1      33.188  26.162  23.658  1.00  0.00     0.246 C 
BRANCH   7   8
ATOM      8  N   UNL A   1      32.546  24.854  23.742  1.00  0.00    -0.319 N 
ATOM      9  C   UNL A   1      32.138  22.703  23.788  1.00  0.00     0.096 A 
ATOM     10  N   UNL A   1      30.981  23.310  23.381  1.00  0.00    -0.236 NA
ATOM     11  C   UNL A   1      33.154  23.632  23.995  1.00  0.00     0.076 A 
ATOM     12  C   UNL A   1      31.260  24.594  23.339  1.00  0.00     0.201 A 
BRANCH   9  13
ATOM     13  C   UNL A   1      32.302  21.281  24.020  1.00  0.00     0.003 A 
ATOM     14  C   UNL A   1      33.054  18.612  24.461  1.00  0.00     0.118 A 
ATOM     15  C   UNL A   1      33.103  19.542  25.497  1.00  0.00     0.047 A 
ATOM     16  C   UNL A   1      32.586  19.008  23.208  1.00  0.00     0.047 A 
ATOM     17  C   UNL A   1      32.689  20.853  25.291  1.00  0.00     0.014 A 
ATOM     18  C   UNL A   1      32.218  20.346  22.984  1.00  0.00     0.014 A 
BRANCH  14  19
ATOM     19  O   UNL A   1      33.455  17.362  24.837  1.00  0.00    -0.497 OA
ATOM     20  C   UNL A   1      32.547  16.575  25.592  1.00  0.00     0.278 C 
ENDBRANCH  14  19
ENDBRANCH   9  13
BRANCH  11  21
ATOM     21  C   UNL A   1      34.537  23.406  24.427  1.00  0.00     0.001 A 
ATOM     22  C   UNL A   1      34.892  23.625  25.763  1.00  0.00     0.014 A 
ATOM     23  C   UNL A   1      35.505  22.884  23.568  1.00  0.00     0.014 A 
ATOM     24  C   UNL A   1      36.193  23.452  26.222  1.00  0.00     0.047 A 
ATOM     25  C   UNL A   1      36.815  22.673  24.028  1.00  0.00     0.047 A 
ATOM     26  C   UNL A   1      37.153  22.977  25.346  1.00  0.00     0.118 A 
BRANCH  26  27
ATOM     27  O   UNL A   1      38.453  22.895  25.751  1.00  0.00    -0.497 OA
ATOM     28  C   UNL A   1      38.900  21.540  25.804  1.00  0.00     0.278 C 
ENDBRANCH  26  27
ENDBRANCH  11  21
ENDBRANCH   7   8
ENDBRANCH   5   7
ENDBRANCH   4   5
ENDBRANCH   3   4
ENDBRANCH   2   3
ENDBRANCH   1   2
BRANCH   1  29
ATOM     29  C   UNL A   1      31.783  30.491  25.971  1.00  0.00     0.202 C 
BRANCH  29  30
ATOM     30  C   UNL A   1      32.652  30.290  27.215  1.00  0.00     0.261 C 
BRANCH  30  31
ATOM     31  O   UNL A   1      34.051  30.390  26.975  1.00  0.00    -0.460 OA
BRANCH  31  32
ATOM     32  C   UNL A   1      34.654  31.265  27.804  1.00  0.00     0.338 C 
ATOM     33  O   UNL A   1      34.134  32.292  28.191  1.00  0.00    -0.246 OA
BRANCH  32  34
ATOM     34  C   UNL A   1      36.011  30.793  28.166  1.00  0.00     0.060 A 
ATOM     35  C   UNL A   1      36.272  29.434  28.002  1.00  0.00     0.016 A 
ATOM     36  C   UNL A   1      36.981  31.655  28.714  1.00  0.00     0.016 A 
ATOM     37  C   UNL A   1      37.495  28.930  28.403  1.00  0.00     0.010 A 
ATOM     38  C   UNL A   1      38.183  31.145  29.160  1.00  0.00     0.010 A 
ATOM     39  C   UNL A   1      38.433  29.787  28.989  1.00  0.00    -0.014 A 
BRANCH  39  40
ATOM     40  C   UNL A   1      39.762  29.267  29.237  1.00  0.00     0.031 A 
ATOM     41  C   UNL A   1      40.098  29.094  30.662  1.00  0.00     0.074 A 
ATOM     42  C   UNL A   1      40.598  28.842  28.281  1.00  0.00     0.049 A 
ATOM     43  N   UNL A   1      40.939  29.791  31.348  1.00  0.00    -0.248 NA
ATOM     44  C   UNL A   1      39.330  28.114  31.443  1.00  0.00     0.031 C 
ATOM     45  C   UNL A   1      40.293  28.676  26.870  1.00  0.00     0.029 A 
ATOM     46  N   UNL A   1      41.863  28.360  28.395  1.00  0.00    -0.354 N 
ATOM     47  C   UNL A   1      40.969  29.201  32.601  1.00  0.00     0.074 A 
ATOM     48  C   UNL A   1      39.840  28.303  32.660  1.00  0.00     0.031 C 
ATOM     49  C   UNL A   1      41.254  27.925  26.293  1.00  0.00     0.029 A 
ATOM     50  C   UNL A   1      42.302  27.689  27.267  1.00  0.00     0.049 A 
ATOM     51  H   UNL A   1      42.413  28.477  29.202  1.00  0.00     0.167 HD
ATOM     52  C   UNL A   1      42.060  29.294  33.406  1.00  0.00     0.031 A 
ATOM     53  C   UNL A   1      43.419  26.935  27.154  1.00  0.00     0.031 A 
ATOM     54  C   UNL A   1      42.988  30.301  32.962  1.00  0.00     0.049 A 
ATOM     55  C   UNL A   1      44.364  27.392  28.199  1.00  0.00     0.074 A 
ATOM     56  C   UNL A   1      42.917  31.663  32.745  1.00  0.00     0.029 A 
ATOM     57  N   UNL A   1      44.110  29.865  32.293  1.00  0.00    -0.354 N 
ATOM     58  N   UNL A   1      44.895  28.585  28.208  1.00  0.00    -0.248 NA
ATOM     59  C   UNL A   1      44.418  26.688  29.471  1.00  0.00     0.031 C 
ATOM     60  C   UNL A   1      43.748  31.908  31.613  1.00  0.00     0.029 A 
ATOM     61  C   UNL A   1      44.307  30.692  31.214  1.00  0.00     0.049 A 
ATOM     62  H   UNL A   1      44.671  29.097  32.543  1.00  0.00     0.167 HD
ATOM     63  C   UNL A   1      44.941  28.947  29.546  1.00  0.00     0.074 A 
ATOM     64  C   UNL A   1      44.776  27.695  30.276  1.00  0.00     0.031 C 
ATOM     65  C   UNL A   1      44.821  30.254  29.928  1.00  0.00     0.031 A 
BRANCH  52  66
ATOM     66  C   UNL A   1      42.453  28.196  34.354  1.00  0.00    -0.014 A 
ATOM     67  C   UNL A   1      42.636  28.491  35.716  1.00  0.00     0.010 A 
ATOM     68  C   UNL A   1      42.902  26.938  33.897  1.00  0.00     0.010 A 
ATOM     69  C   UNL A   1      43.274  27.581  36.570  1.00  0.00     0.020 A 
ATOM     70  C   UNL A   1      43.494  26.006  34.747  1.00  0.00     0.020 A 
ATOM     71  C   UNL A   1      43.710  26.350  36.073  1.00  0.00     0.054 A 
BRANCH  71  72
ATOM     72  S   UNL A   1      44.634  25.230  37.151  1.00  0.00     0.124 S 
ATOM     73  O   UNL A   1      44.032  25.507  38.452  1.00  0.00    -0.237 OA
ATOM     74  O   UNL A   1      44.332  23.922  36.576  1.00  0.00    -0.237 OA
ATOM     75  O   UNL A   1      46.018  25.669  36.992  1.00  0.00    -0.744 OA
ENDBRANCH  71  72
ENDBRANCH  52  66
BRANCH  53  76
ATOM     76  C   UNL A   1      43.534  25.661  26.407  1.00  0.00    -0.014 A 
ATOM     77  C   UNL A   1      44.472  25.495  25.377  1.00  0.00     0.010 A 
ATOM     78  C   UNL A   1      42.868  24.509  26.883  1.00  0.00     0.010 A 
ATOM     79  C   UNL A   1      44.772  24.216  24.877  1.00  0.00     0.020 A 
ATOM     80  C   UNL A   1      43.153  23.235  26.385  1.00  0.00     0.020 A 
ATOM     81  C   UNL A   1      44.122  23.092  25.398  1.00  0.00     0.054 A 
BRANCH  81  82
ATOM     82  S   UNL A   1      44.635  21.433  24.866  1.00  0.00     0.124 S 
ATOM     83  O   UNL A   1      43.552  20.597  25.376  1.00  0.00    -0.237 OA
ATOM     84  O   UNL A   1      44.701  21.571  23.415  1.00  0.00    -0.237 OA
ATOM     85  O   UNL A   1      45.926  21.243  25.527  1.00  0.00    -0.744 OA
ENDBRANCH  81  82
ENDBRANCH  53  76
BRANCH  65  86
ATOM     86  C   UNL A   1      44.956  31.321  28.860  1.00  0.00    -0.014 A 
ATOM     87  C   UNL A   1      43.870  31.776  28.087  1.00  0.00     0.010 A 
ATOM     88  C   UNL A   1      46.186  31.991  28.739  1.00  0.00     0.010 A 
ATOM     89  C   UNL A   1      44.015  32.856  27.202  1.00  0.00     0.020 A 
ATOM     90  C   UNL A   1      46.334  33.079  27.872  1.00  0.00     0.020 A 
ATOM     91  C   UNL A   1      45.249  33.504  27.102  1.00  0.00     0.054 A 
BRANCH  91  92
ATOM     92  S   UNL A   1      45.411  34.943  26.007  1.00  0.00     0.124 S 
ATOM     93  O   UNL A   1      46.298  34.448  24.958  1.00  0.00    -0.237 OA
ATOM     94  O   UNL A   1      44.032  35.198  25.596  1.00  0.00    -0.237 OA
ATOM     95  O   UNL A   1      45.990  35.973  26.870  1.00  0.00    -0.744 OA
ENDBRANCH  91  92
ENDBRANCH  65  86
ENDBRANCH  39  40
ENDBRANCH  32  34
ENDBRANCH  31  32
ENDBRANCH  30  31
ENDBRANCH  29  30
ENDBRANCH   1  29
TORSDOF 22
ENDMDL
MODEL 2
REMARK VINA RESULT:     -11.2      2.659      9.442
REMARK SMILES COc1ccc(-c2ncn(CC(=O)OCCOCCOC(=O)c3ccc(-c4c5nc(c(-c6ccc(S(=O)(=O)[O-])cc6)c6ccc([nH]6)c(-c6ccc(S(=O)(=O)[O-])cc6)c6nc(c(-c7ccc(S(=O)(=O)[O-])cc7)c7ccc4[nH]7)C=C6)C=C5)cc3)c2-c2ccc(OC)cc2)cc1
REMARK SMILES IDX 17 1 16 2 15 3 14 4 12 5 13 6 11 7 10 8 7 9 8 10 83 11 9 12
REMARK SMILES IDX 6 13 3 14 4 15 93 16 5 17 92 18 2 19 1 20 84 21 85 22 91 23
REMARK SMILES IDX 86 24 90 25 87 26 88 27 89 28 18 29 19 30 20 31 21 32 22 33
REMARK SMILES IDX 23 34 24 35 82 36 25 37 81 38 26 39 27 40 28 41 75 42 29 43
REMARK SMILES IDX 80 44 74 45 76 46 30 47 79 48 73 49 72 50 31 52 61 53 42 54
REMARK SMILES IDX 60 55 43 56 46 57 59 58 77 59 44 60 45 61 58 63 78 64 47 65
REMARK SMILES IDX 32 66 33 67 41 68 34 69 40 70 35 71 36 72 37 73 38 74 39 75
REMARK SMILES IDX 62 76 63 77 71 78 64 79 70 80 65 81 66 82 67 83 68 84 69 85
REMARK SMILES IDX 48 86 49 87 57 88 50 89 56 90 51 91 52 92 53 93 54 94 55 95
REMARK H PARENT 76 51 46 62
REMARK Flexibility Score: inf
ROOT
ATOM      1  O   UNL A   1      37.173  21.455  24.929  1.00  0.00    -0.374 OA
ENDROOT
BRANCH   1   2
ATOM      2  C   UNL A   1      36.691  22.347  23.942  1.00  0.00     0.202 C 
BRANCH   2   3
ATOM      3  C   UNL A   1      35.160  22.428  23.869  1.00  0.00     0.261 C 
BRANCH   3   4
ATOM      4  O   UNL A   1      34.579  23.383  24.788  1.00  0.00    -0.462 OA
BRANCH   4   5
ATOM      5  C   UNL A   1      33.873  22.881  25.831  1.00  0.00     0.326 C 
ATOM      6  O   UNL A   1      34.194  21.865  26.444  1.00  0.00    -0.250 OA
BRANCH   5   7
ATOM      7  C   UNL A   1      32.655  23.677  26.250  1.00  0.00     0.246 C 
BRANCH   7   8
ATOM      8  N   UNL A   1      31.860  24.361  25.235  1.00  0.00    -0.319 N 
ATOM      9  C   UNL A   1      30.689  25.827  24.107  1.00  0.00     0.096 A 
ATOM     10  N   UNL A   1      30.291  24.592  23.671  1.00  0.00    -0.236 NA
ATOM     11  C   UNL A   1      31.649  25.727  25.111  1.00  0.00     0.076 A 
ATOM     12  C   UNL A   1      30.990  23.733  24.378  1.00  0.00     0.201 A 
BRANCH   9  13
ATOM     13  C   UNL A   1      30.217  27.094  23.582  1.00  0.00     0.003 A 
ATOM     14  C   UNL A   1      29.132  29.306  22.235  1.00  0.00     0.118 A 
ATOM     15  C   UNL A   1      28.317  28.469  22.994  1.00  0.00     0.047 A 
ATOM     16  C   UNL A   1      30.505  29.061  22.185  1.00  0.00     0.047 A 
ATOM     17  C   UNL A   1      28.860  27.399  23.696  1.00  0.00     0.014 A 
ATOM     18  C   UNL A   1      31.048  27.948  22.851  1.00  0.00     0.014 A 
BRANCH  14  19
ATOM     19  O   UNL A   1      28.453  30.332  21.643  1.00  0.00    -0.497 OA
ATOM     20  C   UNL A   1      27.878  31.318  22.484  1.00  0.00     0.278 C 
ENDBRANCH  14  19
ENDBRANCH   9  13
BRANCH  11  21
ATOM     21  C   UNL A   1      32.331  26.796  25.846  1.00  0.00     0.001 A 
ATOM     22  C   UNL A   1      33.581  27.251  25.410  1.00  0.00     0.014 A 
ATOM     23  C   UNL A   1      31.732  27.454  26.921  1.00  0.00     0.014 A 
ATOM     24  C   UNL A   1      34.284  28.244  26.084  1.00  0.00     0.047 A 
ATOM     25  C   UNL A   1      32.416  28.481  27.589  1.00  0.00     0.047 A 
ATOM     26  C   UNL A   1      33.695  28.854  27.178  1.00  0.00     0.118 A 
BRANCH  26  27
ATOM     27  O   UNL A   1      34.408  29.760  27.908  1.00  0.00    -0.497 OA
ATOM     28  C   UNL A   1      35.812  29.616  27.694  1.00  0.00     0.278 C 
ENDBRANCH  26  27
ENDBRANCH  11  21
ENDBRANCH   7   8
ENDBRANCH   5   7
ENDBRANCH   4   5
ENDBRANCH   3   4
ENDBRANCH   2   3
ENDBRANCH   1   2
BRANCH   1  29
ATOM     29  C   UNL A   1      38.315  21.819  25.698  1.00  0.00     0.202 C 
BRANCH  29  30
ATOM     30  C   UNL A   1      39.432  20.826  26.030  1.00  0.00     0.261 C 
BRANCH  30  31
ATOM     31  O   UNL A   1      40.367  21.298  26.993  1.00  0.00    -0.460 OA
BRANCH  31  32
ATOM     32  C   UNL A   1      41.383  21.982  26.433  1.00  0.00     0.338 C 
ATOM     33  O   UNL A   1      42.066  21.549  25.525  1.00  0.00    -0.246 OA
BRANCH  32  34
ATOM     34  C   UNL A   1      41.537  23.309  27.072  1.00  0.00     0.060 A 
ATOM     35  C   UNL A   1      40.893  24.383  26.460  1.00  0.00     0.016 A 
ATOM     36  C   UNL A   1      42.349  23.504  28.207  1.00  0.00     0.016 A 
ATOM     37  C   UNL A   1      41.073  25.655  26.970  1.00  0.00     0.010 A 
ATOM     38  C   UNL A   1      42.569  24.779  28.686  1.00  0.00     0.010 A 
ATOM     39  C   UNL A   1      41.919  25.842  28.069  1.00  0.00    -0.014 A 
BRANCH  39  40
ATOM     40  C   UNL A   1      41.950  27.154  28.682  1.00  0.00     0.031 A 
ATOM     41  C   UNL A   1      43.161  27.941  28.392  1.00  0.00     0.074 A 
ATOM     42  C   UNL A   1      40.927  27.697  29.356  1.00  0.00     0.049 A 
ATOM     43  N   UNL A   1      44.107  28.237  29.218  1.00  0.00    -0.248 NA
ATOM     44  C   UNL A   1      43.411  28.344  27.001  1.00  0.00     0.031 C 
ATOM     45  C   UNL A   1      39.579  27.167  29.468  1.00  0.00     0.029 A 
ATOM     46  N   UNL A   1      40.852  28.898  29.986  1.00  0.00    -0.354 N 
ATOM     47  C   UNL A   1      44.974  29.051  28.506  1.00  0.00     0.074 A 
ATOM     48  C   UNL A   1      44.601  28.934  27.117  1.00  0.00     0.031 C 
ATOM     49  C   UNL A   1      38.757  28.134  29.926  1.00  0.00     0.029 A 
ATOM     50  C   UNL A   1      39.557  29.294  30.271  1.00  0.00     0.049 A 
ATOM     51  H   UNL A   1      41.644  29.436  30.216  1.00  0.00     0.167 HD
ATOM     52  C   UNL A   1      45.767  29.962  29.129  1.00  0.00     0.031 A 
ATOM     53  C   UNL A   1      39.155  30.511  30.701  1.00  0.00     0.031 A 
ATOM     54  C   UNL A   1      45.836  29.751  30.551  1.00  0.00     0.049 A 
ATOM     55  C   UNL A   1      40.320  31.152  31.353  1.00  0.00     0.074 A 
ATOM     56  C   UNL A   1      46.239  28.709  31.363  1.00  0.00     0.029 A 
ATOM     57  N   UNL A   1      45.075  30.581  31.343  1.00  0.00    -0.354 N 
ATOM     58  N   UNL A   1      40.867  30.694  32.447  1.00  0.00    -0.248 NA
ATOM     59  C   UNL A   1      41.154  32.066  30.587  1.00  0.00     0.031 C 
ATOM     60  C   UNL A   1      45.353  28.738  32.480  1.00  0.00     0.029 A 
ATOM     61  C   UNL A   1      44.475  29.811  32.310  1.00  0.00     0.049 A 
ATOM     62  H   UNL A   1      44.977  31.555  31.236  1.00  0.00     0.167 HD
ATOM     63  C   UNL A   1      42.228  30.897  32.278  1.00  0.00     0.074 A 
ATOM     64  C   UNL A   1      42.329  31.869  31.196  1.00  0.00     0.031 C 
ATOM     65  C   UNL A   1      43.142  30.047  32.836  1.00  0.00     0.031 A 
BRANCH  52  66
ATOM     66  C   UNL A   1      46.146  31.267  28.487  1.00  0.00    -0.014 A 
ATOM     67  C   UNL A   1      45.334  32.398  28.687  1.00  0.00     0.010 A 
ATOM     68  C   UNL A   1      47.134  31.347  27.481  1.00  0.00     0.010 A 
ATOM     69  C   UNL A   1      45.483  33.540  27.888  1.00  0.00     0.020 A 
ATOM     70  C   UNL A   1      47.322  32.495  26.714  1.00  0.00     0.020 A 
ATOM     71  C   UNL A   1      46.468  33.573  26.898  1.00  0.00     0.054 A 
BRANCH  71  72
ATOM     72  S   UNL A   1      46.579  35.002  25.796  1.00  0.00     0.124 S 
ATOM     73  O   UNL A   1      46.651  36.106  26.750  1.00  0.00    -0.237 OA
ATOM     74  O   UNL A   1      47.804  34.728  25.049  1.00  0.00    -0.237 OA
ATOM     75  O   UNL A   1      45.348  34.925  25.014  1.00  0.00    -0.744 OA
ENDBRANCH  71  72
ENDBRANCH  52  66
BRANCH  53  76
ATOM     76  C   UNL A   1      37.927  31.220  30.272  1.00  0.00    -0.014 A 
ATOM     77  C   UNL A   1      36.717  31.081  30.968  1.00  0.00     0.010 A 
ATOM     78  C   UNL A   1      38.014  32.243  29.300  1.00  0.00     0.010 A 
ATOM     79  C   UNL A   1      35.649  31.965  30.737  1.00  0.00     0.020 A 
ATOM     80  C   UNL A   1      36.954  33.120  29.058  1.00  0.00     0.020 A 
ATOM     81  C   UNL A   1      35.782  32.990  29.795  1.00  0.00     0.054 A 
BRANCH  81  82
ATOM     82  S   UNL A   1      34.464  34.228  29.624  1.00  0.00     0.124 S 
ATOM     83  O   UNL A   1      34.985  35.090  28.567  1.00  0.00    -0.237 OA
ATOM     84  O   UNL A   1      33.307  33.413  29.265  1.00  0.00    -0.237 OA
ATOM     85  O   UNL A   1      34.396  34.845  30.948  1.00  0.00    -0.744 OA
ENDBRANCH  81  82
ENDBRANCH  53  76
BRANCH  65  86
ATOM     86  C   UNL A   1      42.656  29.076  33.893  1.00  0.00    -0.014 A 
ATOM     87  C   UNL A   1      42.042  27.846  33.582  1.00  0.00     0.010 A 
ATOM     88  C   UNL A   1      42.966  29.343  35.238  1.00  0.00     0.010 A 
ATOM     89  C   UNL A   1      41.727  26.921  34.590  1.00  0.00     0.020 A 
ATOM     90  C   UNL A   1      42.670  28.419  36.246  1.00  0.00     0.020 A 
ATOM     91  C   UNL A   1      42.046  27.214  35.918  1.00  0.00     0.054 A 
BRANCH  91  92
ATOM     92  S   UNL A   1      41.698  25.983  37.207  1.00  0.00     0.124 S 
ATOM     93  O   UNL A   1      40.332  26.313  37.603  1.00  0.00    -0.237 OA
ATOM     94  O   UNL A   1      41.859  24.714  36.500  1.00  0.00    -0.237 OA
ATOM     95  O   UNL A   1      42.716  26.247  38.224  1.00  0.00    -0.744 OA
ENDBRANCH  91  92
ENDBRANCH  65  86
ENDBRANCH  39  40
ENDBRANCH  32  34
ENDBRANCH  31  32
ENDBRANCH  30  31
ENDBRANCH  29  30
ENDBRANCH   1  29
TORSDOF 22
ENDMDL
MODEL 3
REMARK VINA RESULT:     -10.6      3.232      8.441
REMARK SMILES COc1ccc(-c2ncn(CC(=O)OCCOCCOC(=O)c3ccc(-c4c5nc(c(-c6ccc(S(=O)(=O)[O-])cc6)c6ccc([nH]6)c(-c6ccc(S(=O)(=O)[O-])cc6)c6nc(c(-c7ccc(S(=O)(=O)[O-])cc7)c7ccc4[nH]7)C=C6)C=C5)cc3)c2-c2ccc(OC)cc2)cc1
REMARK SMILES IDX 17 1 16 2 15 3 14 4 12 5 13 6 11 7 10 8 7 9 8 10 83 11 9 12
REMARK SMILES IDX 6 13 3 14 4 15 93 16 5 17 92 18 2 19 1 20 84 21 85 22 91 23
REMARK SMILES IDX 86 24 90 25 87 26 88 27 89 28 18 29 19 30 20 31 21 32 22 33
REMARK SMILES IDX 23 34 24 35 82 36 25 37 81 38 26 39 27 40 28 41 75 42 29 43
REMARK SMILES IDX 80 44 74 45 76 46 30 47 79 48 73 49 72 50 31 52 61 53 42 54
REMARK SMILES IDX 60 55 43 56 46 57 59 58 77 59 44 60 45 61 58 63 78 64 47 65
REMARK SMILES IDX 32 66 33 67 41 68 34 69 40 70 35 71 36 72 37 73 38 74 39 75
REMARK SMILES IDX 62 76 63 77 71 78 64 79 70 80 65 81 66 82 67 83 68 84 69 85
REMARK SMILES IDX 48 86 49 87 57 88 50 89 56 90 51 91 52 92 53 93 54 94 55 95
REMARK H PARENT 76 51 46 62
REMARK Flexibility Score: inf
ROOT
ATOM      1  O   UNL A   1      34.257  20.738  25.418  1.00  0.00    -0.374 OA
ENDROOT
BRANCH   1   2
ATOM      2  C   UNL A   1      33.321  20.084  24.582  1.00  0.00     0.202 C 
BRANCH   2   3
ATOM      3  C   UNL A   1      32.073  20.921  24.271  1.00  0.00     0.261 C 
BRANCH   3   4
ATOM      4  O   UNL A   1      32.325  22.043  23.391  1.00  0.00    -0.462 OA
BRANCH   4   5
ATOM      5  C   UNL A   1      31.695  23.208  23.685  1.00  0.00     0.326 C 
ATOM      6  O   UNL A   1      30.603  23.268  24.245  1.00  0.00    -0.250 OA
BRANCH   5   7
ATOM      7  C   UNL A   1      32.442  24.474  23.320  1.00  0.00     0.246 C 
BRANCH   7   8
ATOM      8  N   UNL A   1      32.943  25.343  24.380  1.00  0.00    -0.319 N 
ATOM      9  C   UNL A   1      33.545  27.070  25.584  1.00  0.00     0.096 A 
ATOM     10  N   UNL A   1      34.306  26.014  26.009  1.00  0.00    -0.236 NA
ATOM     11  C   UNL A   1      32.700  26.700  24.541  1.00  0.00     0.076 A 
ATOM     12  C   UNL A   1      33.942  25.000  25.257  1.00  0.00     0.201 A 
BRANCH   9  13
ATOM     13  C   UNL A   1      33.569  28.403  26.153  1.00  0.00     0.003 A 
ATOM     14  C   UNL A   1      33.580  30.780  27.648  1.00  0.00     0.118 A 
ATOM     15  C   UNL A   1      34.724  29.990  27.565  1.00  0.00     0.047 A 
ATOM     16  C   UNL A   1      32.436  30.402  26.944  1.00  0.00     0.047 A 
ATOM     17  C   UNL A   1      34.732  28.836  26.790  1.00  0.00     0.014 A 
ATOM     18  C   UNL A   1      32.426  29.207  26.204  1.00  0.00     0.014 A 
BRANCH  14  19
ATOM     19  O   UNL A   1      33.747  31.898  28.414  1.00  0.00    -0.497 OA
ATOM     20  C   UNL A   1      34.392  33.015  27.823  1.00  0.00     0.278 C 
ENDBRANCH  14  19
ENDBRANCH   9  13
BRANCH  11  21
ATOM     21  C   UNL A   1      31.733  27.518  23.803  1.00  0.00     0.001 A 
ATOM     22  C   UNL A   1      32.181  28.404  22.816  1.00  0.00     0.014 A 
ATOM     23  C   UNL A   1      30.355  27.376  23.980  1.00  0.00     0.014 A 
ATOM     24  C   UNL A   1      31.311  29.221  22.103  1.00  0.00     0.047 A 
ATOM     25  C   UNL A   1      29.465  28.171  23.243  1.00  0.00     0.047 A 
ATOM     26  C   UNL A   1      29.950  29.102  22.325  1.00  0.00     0.118 A 
BRANCH  26  27
ATOM     27  O   UNL A   1      29.090  29.962  21.708  1.00  0.00    -0.497 OA
ATOM     28  C   UNL A   1      27.789  29.910  22.292  1.00  0.00     0.278 C 
ENDBRANCH  26  27
ENDBRANCH  11  21
ENDBRANCH   7   8
ENDBRANCH   5   7
ENDBRANCH   4   5
ENDBRANCH   3   4
ENDBRANCH   2   3
ENDBRANCH   1   2
BRANCH   1  29
ATOM     29  C   UNL A   1      35.574  20.977  24.934  1.00  0.00     0.202 C 
BRANCH  29  30
ATOM     30  C   UNL A   1      36.666  19.905  24.956  1.00  0.00     0.261 C 
BRANCH  30  31
ATOM     31  O   UNL A   1      37.958  20.377  24.593  1.00  0.00    -0.460 OA
BRANCH  31  32
ATOM     32  C   UNL A   1      38.928  19.887  25.389  1.00  0.00     0.338 C 
ATOM     33  O   UNL A   1      39.190  18.703  25.480  1.00  0.00    -0.246 OA
BRANCH  32  34
ATOM     34  C   UNL A   1      39.613  20.981  26.115  1.00  0.00     0.060 A 
ATOM     35  C   UNL A   1      39.035  22.247  26.041  1.00  0.00     0.016 A 
ATOM     36  C   UNL A   1      40.829  20.781  26.797  1.00  0.00     0.016 A 
ATOM     37  C   UNL A   1      39.679  23.317  26.633  1.00  0.00     0.010 A 
ATOM     38  C   UNL A   1      41.498  21.856  27.345  1.00  0.00     0.010 A 
ATOM     39  C   UNL A   1      40.910  23.114  27.267  1.00  0.00    -0.014 A 
BRANCH  39  40
ATOM     40  C   UNL A   1      41.472  24.215  28.021  1.00  0.00     0.031 A 
ATOM     41  C   UNL A   1      40.626  25.421  28.071  1.00  0.00     0.074 A 
ATOM     42  C   UNL A   1      42.601  24.141  28.739  1.00  0.00     0.049 A 
ATOM     43  N   UNL A   1      40.852  26.548  27.485  1.00  0.00    -0.248 NA
ATOM     44  C   UNL A   1      39.326  25.331  28.750  1.00  0.00     0.031 C 
ATOM     45  C   UNL A   1      43.374  22.945  29.023  1.00  0.00     0.029 A 
ATOM     46  N   UNL A   1      43.226  25.107  29.461  1.00  0.00    -0.354 N 
ATOM     47  C   UNL A   1      39.828  27.387  27.894  1.00  0.00     0.074 A 
ATOM     48  C   UNL A   1      38.831  26.547  28.514  1.00  0.00     0.031 C 
ATOM     49  C   UNL A   1      44.232  23.199  30.033  1.00  0.00     0.029 A 
ATOM     50  C   UNL A   1      44.159  24.611  30.355  1.00  0.00     0.049 A 
ATOM     51  H   UNL A   1      43.034  26.066  29.358  1.00  0.00     0.167 HD
ATOM     52  C   UNL A   1      39.985  28.736  27.930  1.00  0.00     0.031 A 
ATOM     53  C   UNL A   1      44.786  25.296  31.338  1.00  0.00     0.031 A 
ATOM     54  C   UNL A   1      41.154  29.174  27.214  1.00  0.00     0.049 A 
ATOM     55  C   UNL A   1      44.763  26.727  30.959  1.00  0.00     0.074 A 
ATOM     56  C   UNL A   1      41.594  29.065  25.910  1.00  0.00     0.029 A 
ATOM     57  N   UNL A   1      42.260  29.504  27.965  1.00  0.00    -0.354 N 
ATOM     58  N   UNL A   1      45.393  27.198  29.917  1.00  0.00    -0.248 NA
ATOM     59  C   UNL A   1      43.714  27.589  31.482  1.00  0.00     0.031 C 
ATOM     60  C   UNL A   1      43.009  28.912  26.001  1.00  0.00     0.029 A 
ATOM     61  C   UNL A   1      43.364  28.965  27.351  1.00  0.00     0.049 A 
ATOM     62  H   UNL A   1      42.260  30.032  28.795  1.00  0.00     0.167 HD
ATOM     63  C   UNL A   1      44.550  28.170  29.398  1.00  0.00     0.074 A 
ATOM     64  C   UNL A   1      43.615  28.466  30.477  1.00  0.00     0.031 C 
ATOM     65  C   UNL A   1      44.516  28.431  28.056  1.00  0.00     0.031 A 
BRANCH  52  66
ATOM     66  C   UNL A   1      39.294  29.596  28.951  1.00  0.00    -0.014 A 
ATOM     67  C   UNL A   1      38.187  30.373  28.565  1.00  0.00     0.010 A 
ATOM     68  C   UNL A   1      39.864  29.863  30.215  1.00  0.00     0.010 A 
ATOM     69  C   UNL A   1      37.700  31.393  29.393  1.00  0.00     0.020 A 
ATOM     70  C   UNL A   1      39.358  30.843  31.066  1.00  0.00     0.020 A 
ATOM     71  C   UNL A   1      38.300  31.628  30.632  1.00  0.00     0.054 A 
BRANCH  71  72
ATOM     72  S   UNL A   1      37.742  33.019  31.644  1.00  0.00     0.124 S 
ATOM     73  O   UNL A   1      39.010  33.644  32.012  1.00  0.00    -0.237 OA
ATOM     74  O   UNL A   1      36.911  33.773  30.710  1.00  0.00    -0.237 OA
ATOM     75  O   UNL A   1      37.017  32.377  32.737  1.00  0.00    -0.744 OA
ENDBRANCH  71  72
ENDBRANCH  52  66
BRANCH  53  76
ATOM     76  C   UNL A   1      45.087  24.784  32.696  1.00  0.00    -0.014 A 
ATOM     77  C   UNL A   1      44.251  23.853  33.331  1.00  0.00     0.010 A 
ATOM     78  C   UNL A   1      46.351  25.037  33.275  1.00  0.00     0.010 A 
ATOM     79  C   UNL A   1      44.686  23.161  34.476  1.00  0.00     0.020 A 
ATOM     80  C   UNL A   1      46.786  24.361  34.417  1.00  0.00     0.020 A 
ATOM     81  C   UNL A   1      45.958  23.408  35.000  1.00  0.00     0.054 A 
BRANCH  81  82
ATOM     82  S   UNL A   1      46.575  22.393  36.374  1.00  0.00     0.124 S 
ATOM     83  O   UNL A   1      47.844  21.901  35.848  1.00  0.00    -0.237 OA
ATOM     84  O   UNL A   1      46.671  23.358  37.465  1.00  0.00    -0.237 OA
ATOM     85  O   UNL A   1      45.539  21.374  36.542  1.00  0.00    -0.744 OA
ENDBRANCH  81  82
ENDBRANCH  53  76
BRANCH  65  86
ATOM     86  C   UNL A   1      45.630  27.871  27.196  1.00  0.00    -0.014 A 
ATOM     87  C   UNL A   1      45.569  26.599  26.592  1.00  0.00     0.010 A 
ATOM     88  C   UNL A   1      46.704  28.714  26.862  1.00  0.00     0.010 A 
ATOM     89  C   UNL A   1      46.565  26.175  25.697  1.00  0.00     0.020 A 
ATOM     90  C   UNL A   1      47.692  28.305  25.959  1.00  0.00     0.020 A 
ATOM     91  C   UNL A   1      47.621  27.035  25.385  1.00  0.00     0.054 A 
BRANCH  91  92
ATOM     92  S   UNL A   1      48.868  26.506  24.175  1.00  0.00     0.124 S 
ATOM     93  O   UNL A   1      48.114  25.601  23.313  1.00  0.00    -0.237 OA
ATOM     94  O   UNL A   1      49.280  27.766  23.559  1.00  0.00    -0.237 OA
ATOM     95  O   UNL A   1      49.896  25.864  24.994  1.00  0.00    -0.744 OA
ENDBRANCH  91  92
ENDBRANCH  65  86
ENDBRANCH  39  40
ENDBRANCH  32  34
ENDBRANCH  31  32
ENDBRANCH  30  31
ENDBRANCH  29  30
ENDBRANCH   1  29
TORSDOF 22
ENDMDL
