MODEL 1
REMARK VINA RESULT:     -10.6      0.000      0.000
REMARK SMILES CC[C@@H](NS(=O)(=O)c1cc(C)ccc1C)C(=O)OCCOCCOC(=O)c1ccc(-c2c3nc(c(-c4ccc(S(=O)(=O)[O-])cc4)c4ccc([nH]4)c(-c4ccc(S(=O)(=O)[O-])cc4)c4nc(c(-c5ccc(S(=O)(=O)[O-])cc5)c5ccc2[nH]5)C=C4)C=C3)cc1
REMARK SMILES IDX 21 1 20 2 19 3 18 4 16 5 17 6 3 7 2 8 1 9 4 10 5 12 6 13
REMARK SMILES IDX 7 14 8 15 9 16 14 17 10 18 13 19 15 20 11 21 12 22 22 23
REMARK SMILES IDX 23 24 24 25 25 26 26 27 27 28 28 29 86 30 29 31 85 32 30 33
REMARK SMILES IDX 31 34 32 35 79 36 33 37 84 38 78 39 80 40 34 41 83 42 77 43
REMARK SMILES IDX 76 44 35 46 65 47 46 48 64 49 47 50 50 51 63 52 81 53 48 54
REMARK SMILES IDX 49 55 62 57 82 58 51 59 36 60 37 61 45 62 38 63 44 64 39 65
REMARK SMILES IDX 40 66 41 67 42 68 43 69 66 70 67 71 75 72 68 73 74 74 69 75
REMARK SMILES IDX 70 76 71 77 72 78 73 79 52 80 53 81 61 82 54 83 60 84 55 85
REMARK SMILES IDX 56 86 57 87 58 88 59 89
REMARK H PARENT 4 11 80 45 50 56
REMARK Flexibility Score: inf
ROOT
ATOM      1  O   UNL A   1      33.477  28.801  25.230  1.00  0.00    -0.374 OA
ENDROOT
BRANCH   1   2
ATOM      2  C   UNL A   1      33.899  28.388  23.939  1.00  0.00     0.202 C 
BRANCH   2   3
ATOM      3  C   UNL A   1      33.663  26.890  23.794  1.00  0.00     0.261 C 
BRANCH   3   4
ATOM      4  O   UNL A   1      32.739  26.609  22.741  1.00  0.00    -0.462 OA
BRANCH   4   5
ATOM      5  C   UNL A   1      31.545  26.067  23.150  1.00  0.00     0.324 C 
ATOM      6  O   UNL A   1      30.451  26.601  23.068  1.00  0.00    -0.250 OA
BRANCH   5   7
ATOM      7  C   UNL A   1      31.774  24.774  23.893  1.00  0.00     0.179 C 
BRANCH   7   8
ATOM      8  C   UNL A   1      30.811  24.722  25.095  1.00  0.00     0.028 C 
ATOM      9  C   UNL A   1      31.463  24.987  26.445  1.00  0.00     0.006 C 
ENDBRANCH   7   8
BRANCH   7  10
ATOM     10  N   UNL A   1      31.521  23.735  22.857  1.00  0.00    -0.197 NA
ATOM     11  H   UNL A   1      31.223  24.216  22.009  1.00  0.00     0.142 HD
BRANCH  10  12
ATOM     12  S   UNL A   1      32.823  22.708  22.435  1.00  0.00     0.241 S 
ATOM     13  O   UNL A   1      32.157  21.479  22.045  1.00  0.00    -0.207 OA
ATOM     14  O   UNL A   1      33.561  23.491  21.481  1.00  0.00    -0.207 OA
BRANCH  12  15
ATOM     15  C   UNL A   1      33.934  22.387  23.820  1.00  0.00     0.085 A 
ATOM     16  C   UNL A   1      35.197  22.989  23.919  1.00  0.00     0.025 A 
ATOM     17  C   UNL A   1      33.552  21.485  24.833  1.00  0.00    -0.031 A 
ATOM     18  C   UNL A   1      36.021  22.776  25.053  1.00  0.00    -0.050 A 
ATOM     19  C   UNL A   1      34.407  21.227  25.921  1.00  0.00     0.005 A 
ATOM     20  C   UNL A   1      32.300  20.676  24.832  1.00  0.00     0.046 C 
ATOM     21  C   UNL A   1      37.274  23.567  25.295  1.00  0.00     0.044 C 
ATOM     22  C   UNL A   1      35.621  21.877  26.041  1.00  0.00     0.004 A 
ENDBRANCH  12  15
ENDBRANCH  10  12
ENDBRANCH   7  10
ENDBRANCH   5   7
ENDBRANCH   4   5
ENDBRANCH   3   4
ENDBRANCH   2   3
ENDBRANCH   1   2
BRANCH   1  23
ATOM     23  C   UNL A   1      32.202  29.409  25.307  1.00  0.00     0.202 C 
BRANCH  23  24
ATOM     24  C   UNL A   1      32.106  30.367  26.495  1.00  0.00     0.261 C 
BRANCH  24  25
ATOM     25  O   UNL A   1      33.211  30.175  27.396  1.00  0.00    -0.460 OA
BRANCH  25  26
ATOM     26  C   UNL A   1      33.866  31.323  27.716  1.00  0.00     0.338 C 
ATOM     27  O   UNL A   1      33.364  32.435  27.720  1.00  0.00    -0.246 OA
BRANCH  26  28
ATOM     28  C   UNL A   1      35.317  31.028  27.871  1.00  0.00     0.060 A 
ATOM     29  C   UNL A   1      35.719  29.694  27.838  1.00  0.00     0.016 A 
ATOM     30  C   UNL A   1      36.231  32.032  28.239  1.00  0.00     0.016 A 
ATOM     31  C   UNL A   1      37.002  29.368  28.258  1.00  0.00     0.010 A 
ATOM     32  C   UNL A   1      37.510  31.699  28.673  1.00  0.00     0.010 A 
ATOM     33  C   UNL A   1      37.887  30.358  28.723  1.00  0.00    -0.014 A 
BRANCH  33  34
ATOM     34  C   UNL A   1      39.257  29.926  29.053  1.00  0.00     0.031 A 
ATOM     35  C   UNL A   1      39.575  30.075  30.496  1.00  0.00     0.074 A 
ATOM     36  C   UNL A   1      40.135  29.345  28.208  1.00  0.00     0.049 A 
ATOM     37  N   UNL A   1      40.582  30.659  31.061  1.00  0.00    -0.248 NA
ATOM     38  C   UNL A   1      38.550  29.575  31.436  1.00  0.00     0.031 C 
ATOM     39  C   UNL A   1      39.851  28.947  26.832  1.00  0.00     0.029 A 
ATOM     40  N   UNL A   1      41.441  28.941  28.396  1.00  0.00    -0.354 N 
ATOM     41  C   UNL A   1      40.421  30.415  32.415  1.00  0.00     0.074 A 
ATOM     42  C   UNL A   1      39.086  29.900  32.606  1.00  0.00     0.031 C 
ATOM     43  C   UNL A   1      40.908  28.279  26.333  1.00  0.00     0.029 A 
ATOM     44  C   UNL A   1      41.955  28.191  27.342  1.00  0.00     0.049 A 
ATOM     45  H   UNL A   1      41.961  29.165  29.202  1.00  0.00     0.167 HD
ATOM     46  C   UNL A   1      41.486  30.249  33.236  1.00  0.00     0.031 A 
ATOM     47  C   UNL A   1      43.110  27.474  27.283  1.00  0.00     0.031 A 
ATOM     48  C   UNL A   1      42.679  30.931  32.833  1.00  0.00     0.049 A 
ATOM     49  C   UNL A   1      44.029  27.908  28.372  1.00  0.00     0.074 A 
ATOM     50  C   UNL A   1      43.105  32.235  32.827  1.00  0.00     0.029 A 
ATOM     51  N   UNL A   1      43.590  30.198  32.117  1.00  0.00    -0.354 N 
ATOM     52  N   UNL A   1      44.737  29.005  28.382  1.00  0.00    -0.248 NA
ATOM     53  C   UNL A   1      44.005  27.186  29.639  1.00  0.00     0.031 C 
ATOM     54  C   UNL A   1      44.220  32.289  31.944  1.00  0.00     0.029 A 
ATOM     55  C   UNL A   1      44.448  31.016  31.409  1.00  0.00     0.049 A 
ATOM     56  H   UNL A   1      43.628  29.214  32.109  1.00  0.00     0.167 HD
ATOM     57  C   UNL A   1      44.970  29.291  29.719  1.00  0.00     0.074 A 
ATOM     58  C   UNL A   1      44.609  28.074  30.431  1.00  0.00     0.031 C 
ATOM     59  C   UNL A   1      45.150  30.564  30.189  1.00  0.00     0.031 A 
BRANCH  46  60
ATOM     60  C   UNL A   1      41.513  29.032  34.116  1.00  0.00    -0.014 A 
ATOM     61  C   UNL A   1      41.497  29.156  35.510  1.00  0.00     0.010 A 
ATOM     62  C   UNL A   1      41.806  27.759  33.566  1.00  0.00     0.010 A 
ATOM     63  C   UNL A   1      41.750  28.040  36.320  1.00  0.00     0.020 A 
ATOM     64  C   UNL A   1      42.011  26.639  34.360  1.00  0.00     0.020 A 
ATOM     65  C   UNL A   1      42.006  26.792  35.737  1.00  0.00     0.054 A 
BRANCH  65  66
ATOM     66  S   UNL A   1      42.391  25.372  36.787  1.00  0.00     0.124 S 
ATOM     67  O   UNL A   1      43.587  25.834  37.485  1.00  0.00    -0.237 OA
ATOM     68  O   UNL A   1      41.185  25.250  37.601  1.00  0.00    -0.237 OA
ATOM     69  O   UNL A   1      42.600  24.287  35.831  1.00  0.00    -0.744 OA
ENDBRANCH  65  66
ENDBRANCH  46  60
BRANCH  47  70
ATOM     70  C   UNL A   1      43.371  26.253  26.446  1.00  0.00    -0.014 A 
ATOM     71  C   UNL A   1      44.601  26.040  25.790  1.00  0.00     0.010 A 
ATOM     72  C   UNL A   1      42.476  25.161  26.460  1.00  0.00     0.010 A 
ATOM     73  C   UNL A   1      44.932  24.780  25.239  1.00  0.00     0.020 A 
ATOM     74  C   UNL A   1      42.773  23.924  25.879  1.00  0.00     0.020 A 
ATOM     75  C   UNL A   1      44.018  23.725  25.303  1.00  0.00     0.054 A 
BRANCH  75  76
ATOM     76  S   UNL A   1      44.494  22.051  24.783  1.00  0.00     0.124 S 
ATOM     77  O   UNL A   1      45.772  21.860  25.461  1.00  0.00    -0.237 OA
ATOM     78  O   UNL A   1      43.386  21.238  25.275  1.00  0.00    -0.237 OA
ATOM     79  O   UNL A   1      44.579  22.154  23.326  1.00  0.00    -0.744 OA
ENDBRANCH  75  76
ENDBRANCH  47  70
BRANCH  59  80
ATOM     80  C   UNL A   1      45.822  31.620  29.306  1.00  0.00    -0.014 A 
ATOM     81  C   UNL A   1      47.211  31.827  29.207  1.00  0.00     0.010 A 
ATOM     82  C   UNL A   1      45.010  32.378  28.432  1.00  0.00     0.010 A 
ATOM     83  C   UNL A   1      47.772  32.655  28.217  1.00  0.00     0.020 A 
ATOM     84  C   UNL A   1      45.555  33.208  27.441  1.00  0.00     0.020 A 
ATOM     85  C   UNL A   1      46.938  33.324  27.324  1.00  0.00     0.054 A 
BRANCH  85  86
ATOM     86  S   UNL A   1      47.669  34.361  26.025  1.00  0.00     0.124 S 
ATOM     87  O   UNL A   1      46.570  34.518  25.075  1.00  0.00    -0.237 OA
ATOM     88  O   UNL A   1      48.055  35.568  26.751  1.00  0.00    -0.237 OA
ATOM     89  O   UNL A   1      48.790  33.560  25.534  1.00  0.00    -0.744 OA
ENDBRANCH  85  86
ENDBRANCH  59  80
ENDBRANCH  33  34
ENDBRANCH  26  28
ENDBRANCH  25  26
ENDBRANCH  24  25
ENDBRANCH  23  24
ENDBRANCH   1  23
TORSDOF 21
ENDMDL
MODEL 2
REMARK VINA RESULT:     -10.4      2.640      9.530
REMARK SMILES CC[C@@H](NS(=O)(=O)c1cc(C)ccc1C)C(=O)OCCOCCOC(=O)c1ccc(-c2c3nc(c(-c4ccc(S(=O)(=O)[O-])cc4)c4ccc([nH]4)c(-c4ccc(S(=O)(=O)[O-])cc4)c4nc(c(-c5ccc(S(=O)(=O)[O-])cc5)c5ccc2[nH]5)C=C4)C=C3)cc1
REMARK SMILES IDX 21 1 20 2 19 3 18 4 16 5 17 6 3 7 2 8 1 9 4 10 5 12 6 13
REMARK SMILES IDX 7 14 8 15 9 16 14 17 10 18 13 19 15 20 11 21 12 22 22 23
REMARK SMILES IDX 23 24 24 25 25 26 26 27 27 28 28 29 86 30 29 31 85 32 30 33
REMARK SMILES IDX 31 34 32 35 79 36 33 37 84 38 78 39 80 40 34 41 83 42 77 43
REMARK SMILES IDX 76 44 35 46 65 47 46 48 64 49 47 50 50 51 63 52 81 53 48 54
REMARK SMILES IDX 49 55 62 57 82 58 51 59 36 60 37 61 45 62 38 63 44 64 39 65
REMARK SMILES IDX 40 66 41 67 42 68 43 69 66 70 67 71 75 72 68 73 74 74 69 75
REMARK SMILES IDX 70 76 71 77 72 78 73 79 52 80 53 81 61 82 54 83 60 84 55 85
REMARK SMILES IDX 56 86 57 87 58 88 59 89
REMARK H PARENT 4 11 80 45 50 56
REMARK Flexibility Score: inf
ROOT
ATOM      1  O   UNL A   1      41.578  20.492  26.246  1.00  0.00    -0.374 OA
ENDROOT
BRANCH   1   2
ATOM      2  C   UNL A   1      40.635  20.935  27.211  1.00  0.00     0.202 C 
BRANCH   2   3
ATOM      3  C   UNL A   1      39.946  22.191  26.693  1.00  0.00     0.261 C 
BRANCH   3   4
ATOM      4  O   UNL A   1      38.943  21.871  25.726  1.00  0.00    -0.462 OA
BRANCH   4   5
ATOM      5  C   UNL A   1      37.908  22.771  25.648  1.00  0.00     0.324 C 
ATOM      6  O   UNL A   1      37.840  23.835  26.241  1.00  0.00    -0.250 OA
BRANCH   5   7
ATOM      7  C   UNL A   1      36.756  22.191  24.864  1.00  0.00     0.179 C 
BRANCH   7   8
ATOM      8  C   UNL A   1      36.593  20.710  25.255  1.00  0.00     0.028 C 
ATOM      9  C   UNL A   1      37.535  19.755  24.535  1.00  0.00     0.006 C 
ENDBRANCH   7   8
BRANCH   7  10
ATOM     10  N   UNL A   1      35.610  23.059  25.252  1.00  0.00    -0.197 NA
ATOM     11  H   UNL A   1      35.900  24.027  25.117  1.00  0.00     0.142 HD
BRANCH  10  12
ATOM     12  S   UNL A   1      34.135  22.842  24.409  1.00  0.00     0.241 S 
ATOM     13  O   UNL A   1      33.252  23.805  25.041  1.00  0.00    -0.207 OA
ATOM     14  O   UNL A   1      34.524  22.978  23.032  1.00  0.00    -0.207 OA
BRANCH  12  15
ATOM     15  C   UNL A   1      33.462  21.179  24.601  1.00  0.00     0.085 A 
ATOM     16  C   UNL A   1      33.057  20.407  23.503  1.00  0.00     0.025 A 
ATOM     17  C   UNL A   1      33.305  20.629  25.889  1.00  0.00    -0.031 A 
ATOM     18  C   UNL A   1      32.598  19.075  23.675  1.00  0.00    -0.050 A 
ATOM     19  C   UNL A   1      32.785  19.330  26.054  1.00  0.00     0.005 A 
ATOM     20  C   UNL A   1      33.580  21.346  27.167  1.00  0.00     0.046 C 
ATOM     21  C   UNL A   1      32.364  18.151  22.516  1.00  0.00     0.044 C 
ATOM     22  C   UNL A   1      32.450  18.554  24.961  1.00  0.00     0.004 A 
ENDBRANCH  12  15
ENDBRANCH  10  12
ENDBRANCH   7  10
ENDBRANCH   5   7
ENDBRANCH   4   5
ENDBRANCH   3   4
ENDBRANCH   2   3
ENDBRANCH   1   2
BRANCH   1  23
ATOM     23  C   UNL A   1      42.449  19.453  26.653  1.00  0.00     0.202 C 
BRANCH  23  24
ATOM     24  C   UNL A   1      43.415  19.059  25.535  1.00  0.00     0.261 C 
BRANCH  24  25
ATOM     25  O   UNL A   1      43.571  20.135  24.592  1.00  0.00    -0.460 OA
BRANCH  25  26
ATOM     26  C   UNL A   1      44.793  20.730  24.634  1.00  0.00     0.338 C 
ATOM     27  O   UNL A   1      45.848  20.177  24.369  1.00  0.00    -0.246 OA
BRANCH  26  28
ATOM     28  C   UNL A   1      44.653  22.087  25.229  1.00  0.00     0.060 A 
ATOM     29  C   UNL A   1      45.274  22.331  26.453  1.00  0.00     0.016 A 
ATOM     30  C   UNL A   1      43.765  23.034  24.687  1.00  0.00     0.016 A 
ATOM     31  C   UNL A   1      44.932  23.474  27.163  1.00  0.00     0.010 A 
ATOM     32  C   UNL A   1      43.416  24.171  25.409  1.00  0.00     0.010 A 
ATOM     33  C   UNL A   1      43.970  24.374  26.671  1.00  0.00    -0.014 A 
BRANCH  33  34
ATOM     34  C   UNL A   1      43.749  25.607  27.450  1.00  0.00     0.031 A 
ATOM     35  C   UNL A   1      44.964  26.457  27.536  1.00  0.00     0.074 A 
ATOM     36  C   UNL A   1      42.572  26.030  27.956  1.00  0.00     0.049 A 
ATOM     37  N   UNL A   1      45.538  26.969  28.578  1.00  0.00    -0.248 NA
ATOM     38  C   UNL A   1      45.688  26.676  26.267  1.00  0.00     0.031 C 
ATOM     39  C   UNL A   1      41.277  25.391  27.740  1.00  0.00     0.029 A 
ATOM     40  N   UNL A   1      42.260  27.132  28.725  1.00  0.00    -0.354 N 
ATOM     41  C   UNL A   1      46.568  27.743  28.070  1.00  0.00     0.074 A 
ATOM     42  C   UNL A   1      46.724  27.398  26.677  1.00  0.00     0.031 C 
ATOM     43  C   UNL A   1      40.306  26.153  28.278  1.00  0.00     0.029 A 
ATOM     44  C   UNL A   1      40.893  27.342  28.881  1.00  0.00     0.049 A 
ATOM     45  H   UNL A   1      42.943  27.717  29.128  1.00  0.00     0.167 HD
ATOM     46  C   UNL A   1      46.955  28.892  28.676  1.00  0.00     0.031 A 
ATOM     47  C   UNL A   1      40.244  28.424  29.391  1.00  0.00     0.031 A 
ATOM     48  C   UNL A   1      46.738  28.939  30.090  1.00  0.00     0.049 A 
ATOM     49  C   UNL A   1      41.193  29.254  30.183  1.00  0.00     0.074 A 
ATOM     50  C   UNL A   1      47.326  28.364  31.189  1.00  0.00     0.029 A 
ATOM     51  N   UNL A   1      45.582  29.543  30.513  1.00  0.00    -0.354 N 
ATOM     52  N   UNL A   1      41.631  28.981  31.382  1.00  0.00    -0.248 NA
ATOM     53  C   UNL A   1      41.876  30.361  29.521  1.00  0.00     0.031 C 
ATOM     54  C   UNL A   1      46.399  28.506  32.260  1.00  0.00     0.029 A 
ATOM     55  C   UNL A   1      45.249  29.152  31.793  1.00  0.00     0.049 A 
ATOM     56  H   UNL A   1      45.057  30.177  29.971  1.00  0.00     0.167 HD
ATOM     57  C   UNL A   1      42.845  29.641  31.499  1.00  0.00     0.074 A 
ATOM     58  C   UNL A   1      42.876  30.570  30.379  1.00  0.00     0.031 C 
ATOM     59  C   UNL A   1      43.862  29.195  32.301  1.00  0.00     0.031 A 
BRANCH  46  60
ATOM     60  C   UNL A   1      47.050  30.133  27.834  1.00  0.00    -0.014 A 
ATOM     61  C   UNL A   1      48.248  30.851  27.749  1.00  0.00     0.010 A 
ATOM     62  C   UNL A   1      45.877  30.736  27.316  1.00  0.00     0.010 A 
ATOM     63  C   UNL A   1      48.269  32.119  27.153  1.00  0.00     0.020 A 
ATOM     64  C   UNL A   1      45.896  31.971  26.682  1.00  0.00     0.020 A 
ATOM     65  C   UNL A   1      47.093  32.668  26.626  1.00  0.00     0.054 A 
BRANCH  65  66
ATOM     66  S   UNL A   1      47.116  34.329  25.915  1.00  0.00     0.124 S 
ATOM     67  O   UNL A   1      48.377  34.321  25.180  1.00  0.00    -0.237 OA
ATOM     68  O   UNL A   1      45.904  34.335  25.099  1.00  0.00    -0.237 OA
ATOM     69  O   UNL A   1      47.074  35.203  27.084  1.00  0.00    -0.744 OA
ENDBRANCH  65  66
ENDBRANCH  46  60
BRANCH  47  70
ATOM     70  C   UNL A   1      38.861  28.896  29.033  1.00  0.00    -0.014 A 
ATOM     71  C   UNL A   1      37.807  28.911  29.970  1.00  0.00     0.010 A 
ATOM     72  C   UNL A   1      38.615  29.553  27.808  1.00  0.00     0.010 A 
ATOM     73  C   UNL A   1      36.601  29.603  29.708  1.00  0.00     0.020 A 
ATOM     74  C   UNL A   1      37.411  30.202  27.520  1.00  0.00     0.020 A 
ATOM     75  C   UNL A   1      36.420  30.258  28.487  1.00  0.00     0.054 A 
BRANCH  75  76
ATOM     76  S   UNL A   1      34.970  31.315  28.207  1.00  0.00     0.124 S 
ATOM     77  O   UNL A   1      34.563  31.663  29.564  1.00  0.00    -0.237 OA
ATOM     78  O   UNL A   1      35.521  32.407  27.410  1.00  0.00    -0.237 OA
ATOM     79  O   UNL A   1      34.040  30.442  27.490  1.00  0.00    -0.744 OA
ENDBRANCH  75  76
ENDBRANCH  47  70
BRANCH  59  80
ATOM     80  C   UNL A   1      43.543  28.455  33.604  1.00  0.00    -0.014 A 
ATOM     81  C   UNL A   1      43.296  29.072  34.845  1.00  0.00     0.010 A 
ATOM     82  C   UNL A   1      43.367  27.054  33.553  1.00  0.00     0.010 A 
ATOM     83  C   UNL A   1      42.792  28.356  35.946  1.00  0.00     0.020 A 
ATOM     84  C   UNL A   1      42.866  26.327  34.643  1.00  0.00     0.020 A 
ATOM     85  C   UNL A   1      42.558  26.987  35.829  1.00  0.00     0.054 A 
BRANCH  85  86
ATOM     86  S   UNL A   1      41.872  26.074  37.241  1.00  0.00     0.124 S 
ATOM     87  O   UNL A   1      40.626  26.786  37.516  1.00  0.00    -0.237 OA
ATOM     88  O   UNL A   1      41.725  24.721  36.713  1.00  0.00    -0.237 OA
ATOM     89  O   UNL A   1      42.897  26.217  38.275  1.00  0.00    -0.744 OA
ENDBRANCH  85  86
ENDBRANCH  59  80
ENDBRANCH  33  34
ENDBRANCH  26  28
ENDBRANCH  25  26
ENDBRANCH  24  25
ENDBRANCH  23  24
ENDBRANCH   1  23
TORSDOF 21
ENDMDL
MODEL 3
REMARK VINA RESULT:     -10.1      2.936      9.217
REMARK SMILES CC[C@@H](NS(=O)(=O)c1cc(C)ccc1C)C(=O)OCCOCCOC(=O)c1ccc(-c2c3nc(c(-c4ccc(S(=O)(=O)[O-])cc4)c4ccc([nH]4)c(-c4ccc(S(=O)(=O)[O-])cc4)c4nc(c(-c5ccc(S(=O)(=O)[O-])cc5)c5ccc2[nH]5)C=C4)C=C3)cc1
REMARK SMILES IDX 21 1 20 2 19 3 18 4 16 5 17 6 3 7 2 8 1 9 4 10 5 12 6 13
REMARK SMILES IDX 7 14 8 15 9 16 14 17 10 18 13 19 15 20 11 21 12 22 22 23
REMARK SMILES IDX 23 24 24 25 25 26 26 27 27 28 28 29 86 30 29 31 85 32 30 33
REMARK SMILES IDX 31 34 32 35 79 36 33 37 84 38 78 39 80 40 34 41 83 42 77 43
REMARK SMILES IDX 76 44 35 46 65 47 46 48 64 49 47 50 50 51 63 52 81 53 48 54
REMARK SMILES IDX 49 55 62 57 82 58 51 59 36 60 37 61 45 62 38 63 44 64 39 65
REMARK SMILES IDX 40 66 41 67 42 68 43 69 66 70 67 71 75 72 68 73 74 74 69 75
REMARK SMILES IDX 70 76 71 77 72 78 73 79 52 80 53 81 61 82 54 83 60 84 55 85
REMARK SMILES IDX 56 86 57 87 58 88 59 89
REMARK H PARENT 4 11 80 45 50 56
REMARK Flexibility Score: inf
ROOT
ATOM      1  O   UNL A   1      35.047  21.645  23.990  1.00  0.00    -0.374 OA
ENDROOT
BRANCH   1   2
ATOM      2  C   UNL A   1      35.028  20.659  25.012  1.00  0.00     0.202 C 
BRANCH   2   3
ATOM      3  C   UNL A   1      33.582  20.345  25.372  1.00  0.00     0.261 C 
BRANCH   3   4
ATOM      4  O   UNL A   1      32.673  20.960  24.457  1.00  0.00    -0.462 OA
BRANCH   4   5
ATOM      5  C   UNL A   1      31.739  21.785  25.036  1.00  0.00     0.324 C 
ATOM      6  O   UNL A   1      30.822  21.431  25.758  1.00  0.00    -0.250 OA
BRANCH   5   7
ATOM      7  C   UNL A   1      31.878  23.195  24.516  1.00  0.00     0.179 C 
BRANCH   7   8
ATOM      8  C   UNL A   1      32.048  23.138  22.986  1.00  0.00     0.028 C 
ATOM      9  C   UNL A   1      32.330  24.482  22.327  1.00  0.00     0.006 C 
ENDBRANCH   7   8
BRANCH   7  10
ATOM     10  N   UNL A   1      30.622  23.851  24.971  1.00  0.00    -0.197 NA
ATOM     11  H   UNL A   1      30.159  23.211  25.615  1.00  0.00     0.142 HD
BRANCH  10  12
ATOM     12  S   UNL A   1      30.762  25.364  25.759  1.00  0.00     0.241 S 
ATOM     13  O   UNL A   1      29.497  25.486  26.461  1.00  0.00    -0.207 OA
ATOM     14  O   UNL A   1      32.004  25.245  26.475  1.00  0.00    -0.207 OA
BRANCH  12  15
ATOM     15  C   UNL A   1      30.953  26.736  24.604  1.00  0.00     0.085 A 
ATOM     16  C   UNL A   1      32.158  27.442  24.477  1.00  0.00     0.025 A 
ATOM     17  C   UNL A   1      29.862  27.146  23.813  1.00  0.00    -0.031 A 
ATOM     18  C   UNL A   1      32.304  28.470  23.510  1.00  0.00    -0.050 A 
ATOM     19  C   UNL A   1      29.997  28.213  22.904  1.00  0.00     0.005 A 
ATOM     20  C   UNL A   1      28.483  26.583  23.896  1.00  0.00     0.046 C 
ATOM     21  C   UNL A   1      33.633  29.095  23.198  1.00  0.00     0.044 C 
ATOM     22  C   UNL A   1      31.208  28.858  22.740  1.00  0.00     0.004 A 
ENDBRANCH  12  15
ENDBRANCH  10  12
ENDBRANCH   7  10
ENDBRANCH   5   7
ENDBRANCH   4   5
ENDBRANCH   3   4
ENDBRANCH   2   3
ENDBRANCH   1   2
BRANCH   1  23
ATOM     23  C   UNL A   1      36.187  22.482  23.949  1.00  0.00     0.202 C 
BRANCH  23  24
ATOM     24  C   UNL A   1      37.425  21.774  24.499  1.00  0.00     0.261 C 
BRANCH  24  25
ATOM     25  O   UNL A   1      37.773  22.288  25.797  1.00  0.00    -0.460 OA
BRANCH  25  26
ATOM     26  C   UNL A   1      39.081  22.115  26.125  1.00  0.00     0.338 C 
ATOM     27  O   UNL A   1      39.745  21.128  25.849  1.00  0.00    -0.246 OA
BRANCH  26  28
ATOM     28  C   UNL A   1      39.509  23.221  27.023  1.00  0.00     0.060 A 
ATOM     29  C   UNL A   1      38.724  24.373  27.060  1.00  0.00     0.016 A 
ATOM     30  C   UNL A   1      40.762  23.200  27.663  1.00  0.00     0.016 A 
ATOM     31  C   UNL A   1      39.237  25.516  27.657  1.00  0.00     0.010 A 
ATOM     32  C   UNL A   1      41.276  24.353  28.248  1.00  0.00     0.010 A 
ATOM     33  C   UNL A   1      40.531  25.529  28.210  1.00  0.00    -0.014 A 
BRANCH  33  34
ATOM     34  C   UNL A   1      40.946  26.760  28.907  1.00  0.00     0.031 A 
ATOM     35  C   UNL A   1      42.259  27.272  28.438  1.00  0.00     0.074 A 
ATOM     36  C   UNL A   1      40.211  27.457  29.800  1.00  0.00     0.049 A 
ATOM     37  N   UNL A   1      43.307  27.598  29.123  1.00  0.00    -0.248 NA
ATOM     38  C   UNL A   1      42.441  27.327  26.973  1.00  0.00     0.031 C 
ATOM     39  C   UNL A   1      38.826  27.173  30.164  1.00  0.00     0.029 A 
ATOM     40  N   UNL A   1      40.510  28.586  30.535  1.00  0.00    -0.354 N 
ATOM     41  C   UNL A   1      44.200  28.096  28.189  1.00  0.00     0.074 A 
ATOM     42  C   UNL A   1      43.695  27.753  26.880  1.00  0.00     0.031 C 
ATOM     43  C   UNL A   1      38.368  28.144  30.976  1.00  0.00     0.029 A 
ATOM     44  C   UNL A   1      39.415  29.132  31.198  1.00  0.00     0.049 A 
ATOM     45  H   UNL A   1      41.416  28.969  30.586  1.00  0.00     0.167 HD
ATOM     46  C   UNL A   1      45.062  29.096  28.495  1.00  0.00     0.031 A 
ATOM     47  C   UNL A   1      39.307  30.332  31.831  1.00  0.00     0.031 A 
ATOM     48  C   UNL A   1      45.450  29.166  29.872  1.00  0.00     0.049 A 
ATOM     49  C   UNL A   1      40.664  30.877  32.114  1.00  0.00     0.074 A 
ATOM     50  C   UNL A   1      46.273  28.437  30.694  1.00  0.00     0.029 A 
ATOM     51  N   UNL A   1      44.744  30.035  30.664  1.00  0.00    -0.354 N 
ATOM     52  N   UNL A   1      41.467  30.476  33.061  1.00  0.00    -0.248 NA
ATOM     53  C   UNL A   1      41.269  31.788  31.147  1.00  0.00     0.031 C 
ATOM     54  C   UNL A   1      45.918  28.786  32.027  1.00  0.00     0.029 A 
ATOM     55  C   UNL A   1      44.870  29.713  32.000  1.00  0.00     0.049 A 
ATOM     56  H   UNL A   1      44.216  30.792  30.322  1.00  0.00     0.167 HD
ATOM     57  C   UNL A   1      42.746  30.802  32.636  1.00  0.00     0.074 A 
ATOM     58  C   UNL A   1      42.547  31.717  31.521  1.00  0.00     0.031 C 
ATOM     59  C   UNL A   1      43.859  30.096  33.007  1.00  0.00     0.031 A 
BRANCH  46  60
ATOM     60  C   UNL A   1      45.107  30.290  27.585  1.00  0.00    -0.014 A 
ATOM     61  C   UNL A   1      46.239  30.555  26.807  1.00  0.00     0.010 A 
ATOM     62  C   UNL A   1      44.117  31.299  27.681  1.00  0.00     0.010 A 
ATOM     63  C   UNL A   1      46.365  31.782  26.140  1.00  0.00     0.020 A 
ATOM     64  C   UNL A   1      44.210  32.497  26.986  1.00  0.00     0.020 A 
ATOM     65  C   UNL A   1      45.350  32.741  26.236  1.00  0.00     0.054 A 
BRANCH  65  66
ATOM     66  S   UNL A   1      45.546  34.343  25.422  1.00  0.00     0.124 S 
ATOM     67  O   UNL A   1      44.879  34.112  24.145  1.00  0.00    -0.237 OA
ATOM     68  O   UNL A   1      44.862  35.246  26.344  1.00  0.00    -0.237 OA
ATOM     69  O   UNL A   1      46.995  34.516  25.353  1.00  0.00    -0.744 OA
ENDBRANCH  65  66
ENDBRANCH  46  60
BRANCH  47  70
ATOM     70  C   UNL A   1      38.057  31.148  32.009  1.00  0.00    -0.014 A 
ATOM     71  C   UNL A   1      37.425  31.292  33.261  1.00  0.00     0.010 A 
ATOM     72  C   UNL A   1      37.585  31.985  30.974  1.00  0.00     0.010 A 
ATOM     73  C   UNL A   1      36.423  32.268  33.471  1.00  0.00     0.020 A 
ATOM     74  C   UNL A   1      36.564  32.922  31.157  1.00  0.00     0.020 A 
ATOM     75  C   UNL A   1      36.012  33.088  32.417  1.00  0.00     0.054 A 
BRANCH  75  76
ATOM     76  S   UNL A   1      34.875  34.475  32.709  1.00  0.00     0.124 S 
ATOM     77  O   UNL A   1      34.405  34.788  31.364  1.00  0.00    -0.237 OA
ATOM     78  O   UNL A   1      33.885  33.891  33.609  1.00  0.00    -0.237 OA
ATOM     79  O   UNL A   1      35.728  35.497  33.318  1.00  0.00    -0.744 OA
ENDBRANCH  75  76
ENDBRANCH  47  70
BRANCH  59  80
ATOM     80  C   UNL A   1      43.922  29.433  34.387  1.00  0.00    -0.014 A 
ATOM     81  C   UNL A   1      43.431  28.149  34.690  1.00  0.00     0.010 A 
ATOM     82  C   UNL A   1      44.623  30.097  35.418  1.00  0.00     0.010 A 
ATOM     83  C   UNL A   1      43.717  27.512  35.911  1.00  0.00     0.020 A 
ATOM     84  C   UNL A   1      44.915  29.474  36.640  1.00  0.00     0.020 A 
ATOM     85  C   UNL A   1      44.479  28.172  36.872  1.00  0.00     0.054 A 
BRANCH  85  86
ATOM     86  S   UNL A   1      44.878  27.330  38.431  1.00  0.00     0.124 S 
ATOM     87  O   UNL A   1      44.995  28.435  39.378  1.00  0.00    -0.237 OA
ATOM     88  O   UNL A   1      43.732  26.447  38.625  1.00  0.00    -0.237 OA
ATOM     89  O   UNL A   1      46.135  26.641  38.139  1.00  0.00    -0.744 OA
ENDBRANCH  85  86
ENDBRANCH  59  80
ENDBRANCH  33  34
ENDBRANCH  26  28
ENDBRANCH  25  26
ENDBRANCH  24  25
ENDBRANCH  23  24
ENDBRANCH   1  23
TORSDOF 21
ENDMDL
