MODEL 1
REMARK VINA RESULT:     -10.8      0.000      0.000
REMARK SMILES Cc1ccc(N2CC[C@H]([NH+]3CCOCC3)[C@H](CCC(=O)OCCOCCOC(=O)c3ccc(-c4c5nc(c(-c6ccc(S(=O)(=O)[O-])cc6)c6ccc([nH]6)c(-c6ccc(S(=O)(=O)[O-])cc6)c6nc(c(-c7ccc(S(=O)(=O)[O-])cc7)c7ccc4[nH]7)C=C6)C=C5)cc3)C2)nc1
REMARK SMILES IDX 24 1 23 2 22 3 21 4 19 5 20 6 18 7 17 8 16 9 6 10 7 11 90 12
REMARK SMILES IDX 8 13 9 14 5 15 1 16 2 17 3 18 92 19 4 20 91 21 10 22 11 23
REMARK SMILES IDX 15 24 12 26 14 27 13 28 25 29 26 30 27 31 28 32 29 33 30 34
REMARK SMILES IDX 31 35 89 36 32 37 88 38 33 39 34 40 35 41 82 42 36 43 87 44
REMARK SMILES IDX 81 45 83 46 37 47 86 48 80 49 79 50 38 52 68 53 49 54 67 55
REMARK SMILES IDX 50 56 53 57 66 58 84 59 51 60 52 61 65 63 85 64 54 65 39 66
REMARK SMILES IDX 40 67 48 68 41 69 47 70 42 71 43 72 44 73 45 74 46 75 69 76
REMARK SMILES IDX 70 77 78 78 71 79 77 80 72 81 73 82 74 83 75 84 76 85 55 86
REMARK SMILES IDX 56 87 64 88 57 89 63 90 58 91 59 92 60 93 61 94 62 95
REMARK H PARENT 10 25 83 51 53 62
REMARK Flexibility Score: inf
ROOT
ATOM      1  O   UNL A   1      40.031  21.455  26.397  1.00  0.00    -0.374 OA
ENDROOT
BRANCH   1   2
ATOM      2  C   UNL A   1      38.833  21.152  25.676  1.00  0.00     0.202 C 
BRANCH   2   3
ATOM      3  C   UNL A   1      37.732  22.215  25.672  1.00  0.00     0.261 C 
BRANCH   3   4
ATOM      4  O   UNL A   1      37.753  22.949  24.437  1.00  0.00    -0.463 OA
BRANCH   4   5
ATOM      5  C   UNL A   1      36.545  23.336  23.964  1.00  0.00     0.305 C 
ATOM      6  O   UNL A   1      36.087  23.033  22.866  1.00  0.00    -0.252 OA
BRANCH   5   7
ATOM      7  C   UNL A   1      35.714  24.050  25.006  1.00  0.00     0.123 C 
BRANCH   7   8
ATOM      8  C   UNL A   1      34.201  24.201  24.846  1.00  0.00     0.023 C 
BRANCH   8   9
ATOM      9  C   UNL A   1      33.227  24.548  26.006  1.00  0.00     0.067 C 
ATOM     10  N   UNL A   1      32.277  22.245  26.268  1.00  0.00    -0.356 N 
ATOM     11  C   UNL A   1      30.932  22.645  25.903  1.00  0.00     0.124 C 
ATOM     12  C   UNL A   1      33.126  23.254  26.897  1.00  0.00     0.127 C 
ATOM     13  C   UNL A   1      30.953  23.887  25.018  1.00  0.00     0.087 C 
ATOM     14  C   UNL A   1      31.744  25.013  25.705  1.00  0.00     0.190 C 
BRANCH  10  15
ATOM     15  C   UNL A   1      32.808  21.172  25.576  1.00  0.00     0.128 A 
ATOM     16  C   UNL A   1      34.276  17.583  23.785  1.00  0.00     0.046 C 
ATOM     17  C   UNL A   1      33.807  18.856  24.412  1.00  0.00    -0.033 A 
ATOM     18  C   UNL A   1      34.668  19.714  25.090  1.00  0.00     0.009 A 
ATOM     19  C   UNL A   1      32.476  19.239  24.332  1.00  0.00     0.117 A 
ATOM     20  C   UNL A   1      34.167  20.886  25.663  1.00  0.00     0.047 A 
ATOM     21  N   UNL A   1      31.968  20.352  24.906  1.00  0.00    -0.239 NA
ENDBRANCH  10  15
BRANCH  14  22
ATOM     22  N   UNL A   1      31.501  26.387  25.212  1.00  0.00    -0.328 N 
ATOM     23  C   UNL A   1      32.157  26.709  23.919  1.00  0.00     0.291 C 
ATOM     24  C   UNL A   1      31.668  27.542  26.085  1.00  0.00     0.291 C 
ATOM     25  H   UNL A   1      30.492  26.274  25.127  1.00  0.00     0.348 HD
ATOM     26  C   UNL A   1      33.544  27.399  24.009  1.00  0.00     0.221 C 
ATOM     27  C   UNL A   1      33.089  28.079  26.210  1.00  0.00     0.221 C 
ATOM     28  O   UNL A   1      33.571  28.493  24.932  1.00  0.00    -0.370 OA
ENDBRANCH  14  22
ENDBRANCH   8   9
ENDBRANCH   7   8
ENDBRANCH   5   7
ENDBRANCH   4   5
ENDBRANCH   3   4
ENDBRANCH   2   3
ENDBRANCH   1   2
BRANCH   1  29
ATOM     29  C   UNL A   1      40.042  22.608  27.233  1.00  0.00     0.202 C 
BRANCH  29  30
ATOM     30  C   UNL A   1      40.770  23.868  26.731  1.00  0.00     0.261 C 
BRANCH  30  31
ATOM     31  O   UNL A   1      39.917  24.980  26.429  1.00  0.00    -0.460 OA
BRANCH  31  32
ATOM     32  C   UNL A   1      40.560  26.175  26.415  1.00  0.00     0.338 C 
ATOM     33  O   UNL A   1      41.287  26.608  25.524  1.00  0.00    -0.246 OA
BRANCH  32  34
ATOM     34  C   UNL A   1      40.180  27.003  27.570  1.00  0.00     0.060 A 
ATOM     35  C   UNL A   1      40.777  28.264  27.675  1.00  0.00     0.016 A 
ATOM     36  C   UNL A   1      39.377  26.511  28.600  1.00  0.00     0.016 A 
ATOM     37  C   UNL A   1      40.618  29.018  28.834  1.00  0.00     0.010 A 
ATOM     38  C   UNL A   1      39.221  27.266  29.771  1.00  0.00     0.010 A 
ATOM     39  C   UNL A   1      39.877  28.505  29.908  1.00  0.00    -0.014 A 
BRANCH  39  40
ATOM     40  C   UNL A   1      39.916  29.224  31.206  1.00  0.00     0.031 A 
ATOM     41  C   UNL A   1      41.033  28.942  32.175  1.00  0.00     0.074 A 
ATOM     42  C   UNL A   1      39.011  30.181  31.484  1.00  0.00     0.049 A 
ATOM     43  N   UNL A   1      41.305  29.522  33.316  1.00  0.00    -0.248 NA
ATOM     44  C   UNL A   1      41.971  27.867  31.809  1.00  0.00     0.031 C 
ATOM     45  C   UNL A   1      37.900  30.570  30.617  1.00  0.00     0.029 A 
ATOM     46  N   UNL A   1      38.895  31.008  32.573  1.00  0.00    -0.354 N 
ATOM     47  C   UNL A   1      42.443  28.889  33.803  1.00  0.00     0.074 A 
ATOM     48  C   UNL A   1      42.794  27.859  32.849  1.00  0.00     0.031 C 
ATOM     49  C   UNL A   1      37.215  31.564  31.208  1.00  0.00     0.029 A 
ATOM     50  C   UNL A   1      37.829  31.870  32.499  1.00  0.00     0.049 A 
ATOM     51  H   UNL A   1      39.517  30.985  33.337  1.00  0.00     0.167 HD
ATOM     52  C   UNL A   1      43.139  29.146  34.936  1.00  0.00     0.031 A 
ATOM     53  C   UNL A   1      37.391  32.798  33.373  1.00  0.00     0.031 A 
ATOM     54  C   UNL A   1      42.788  30.163  35.892  1.00  0.00     0.049 A 
ATOM     55  C   UNL A   1      38.153  33.032  34.650  1.00  0.00     0.074 A 
ATOM     56  C   UNL A   1      43.449  30.516  37.056  1.00  0.00     0.029 A 
ATOM     57  N   UNL A   1      41.675  30.983  35.802  1.00  0.00    -0.354 N 
ATOM     58  N   UNL A   1      39.252  32.452  35.071  1.00  0.00    -0.248 NA
ATOM     59  C   UNL A   1      37.619  34.052  35.563  1.00  0.00     0.031 C 
ATOM     60  C   UNL A   1      42.706  31.514  37.696  1.00  0.00     0.029 A 
ATOM     61  C   UNL A   1      41.611  31.819  36.904  1.00  0.00     0.049 A 
ATOM     62  H   UNL A   1      41.024  30.973  35.062  1.00  0.00     0.167 HD
ATOM     63  C   UNL A   1      39.549  33.050  36.291  1.00  0.00     0.074 A 
ATOM     64  C   UNL A   1      38.526  34.047  36.531  1.00  0.00     0.031 C 
ATOM     65  C   UNL A   1      40.579  32.796  37.138  1.00  0.00     0.031 A 
BRANCH  52  66
ATOM     66  C   UNL A   1      44.342  28.288  35.222  1.00  0.00    -0.014 A 
ATOM     67  C   UNL A   1      44.214  27.045  35.867  1.00  0.00     0.010 A 
ATOM     68  C   UNL A   1      45.616  28.715  34.802  1.00  0.00     0.010 A 
ATOM     69  C   UNL A   1      45.343  26.259  36.117  1.00  0.00     0.020 A 
ATOM     70  C   UNL A   1      46.744  27.922  35.032  1.00  0.00     0.020 A 
ATOM     71  C   UNL A   1      46.602  26.706  35.702  1.00  0.00     0.054 A 
BRANCH  71  72
ATOM     72  S   UNL A   1      48.050  25.659  36.021  1.00  0.00     0.124 S 
ATOM     73  O   UNL A   1      47.990  25.499  37.472  1.00  0.00    -0.237 OA
ATOM     74  O   UNL A   1      47.755  24.457  35.244  1.00  0.00    -0.237 OA
ATOM     75  O   UNL A   1      49.168  26.457  35.527  1.00  0.00    -0.744 OA
ENDBRANCH  71  72
ENDBRANCH  52  66
BRANCH  53  76
ATOM     76  C   UNL A   1      36.155  33.569  33.073  1.00  0.00    -0.014 A 
ATOM     77  C   UNL A   1      34.884  33.017  33.307  1.00  0.00     0.010 A 
ATOM     78  C   UNL A   1      36.251  34.874  32.555  1.00  0.00     0.010 A 
ATOM     79  C   UNL A   1      33.731  33.753  33.017  1.00  0.00     0.020 A 
ATOM     80  C   UNL A   1      35.102  35.620  32.288  1.00  0.00     0.020 A 
ATOM     81  C   UNL A   1      33.847  35.051  32.510  1.00  0.00     0.054 A 
BRANCH  81  82
ATOM     82  S   UNL A   1      32.341  36.013  32.196  1.00  0.00     0.124 S 
ATOM     83  O   UNL A   1      31.294  35.068  32.569  1.00  0.00    -0.237 OA
ATOM     84  O   UNL A   1      32.506  37.160  33.085  1.00  0.00    -0.237 OA
ATOM     85  O   UNL A   1      32.428  36.323  30.770  1.00  0.00    -0.744 OA
ENDBRANCH  81  82
ENDBRANCH  53  76
BRANCH  65  86
ATOM     86  C   UNL A   1      40.654  33.616  38.398  1.00  0.00    -0.014 A 
ATOM     87  C   UNL A   1      41.361  34.831  38.429  1.00  0.00     0.010 A 
ATOM     88  C   UNL A   1      39.980  33.184  39.555  1.00  0.00     0.010 A 
ATOM     89  C   UNL A   1      41.423  35.583  39.607  1.00  0.00     0.020 A 
ATOM     90  C   UNL A   1      40.020  33.945  40.726  1.00  0.00     0.020 A 
ATOM     91  C   UNL A   1      40.756  35.131  40.750  1.00  0.00     0.054 A 
BRANCH  91  92
ATOM     92  S   UNL A   1      40.827  36.135  42.259  1.00  0.00     0.124 S 
ATOM     93  O   UNL A   1      42.097  36.838  42.096  1.00  0.00    -0.237 OA
ATOM     94  O   UNL A   1      39.630  36.965  42.152  1.00  0.00    -0.237 OA
ATOM     95  O   UNL A   1      40.796  35.145  43.334  1.00  0.00    -0.744 OA
ENDBRANCH  91  92
ENDBRANCH  65  86
ENDBRANCH  39  40
ENDBRANCH  32  34
ENDBRANCH  31  32
ENDBRANCH  30  31
ENDBRANCH  29  30
ENDBRANCH   1  29
TORSDOF 21
ENDMDL
MODEL 2
REMARK VINA RESULT:     -10.4      6.245     12.212
REMARK SMILES Cc1ccc(N2CC[C@H]([NH+]3CCOCC3)[C@H](CCC(=O)OCCOCCOC(=O)c3ccc(-c4c5nc(c(-c6ccc(S(=O)(=O)[O-])cc6)c6ccc([nH]6)c(-c6ccc(S(=O)(=O)[O-])cc6)c6nc(c(-c7ccc(S(=O)(=O)[O-])cc7)c7ccc4[nH]7)C=C6)C=C5)cc3)C2)nc1
REMARK SMILES IDX 24 1 23 2 22 3 21 4 19 5 20 6 18 7 17 8 16 9 6 10 7 11 90 12
REMARK SMILES IDX 8 13 9 14 5 15 1 16 2 17 3 18 92 19 4 20 91 21 10 22 11 23
REMARK SMILES IDX 15 24 12 26 14 27 13 28 25 29 26 30 27 31 28 32 29 33 30 34
REMARK SMILES IDX 31 35 89 36 32 37 88 38 33 39 34 40 35 41 82 42 36 43 87 44
REMARK SMILES IDX 81 45 83 46 37 47 86 48 80 49 79 50 38 52 68 53 49 54 67 55
REMARK SMILES IDX 50 56 53 57 66 58 84 59 51 60 52 61 65 63 85 64 54 65 39 66
REMARK SMILES IDX 40 67 48 68 41 69 47 70 42 71 43 72 44 73 45 74 46 75 69 76
REMARK SMILES IDX 70 77 78 78 71 79 77 80 72 81 73 82 74 83 75 84 76 85 55 86
REMARK SMILES IDX 56 87 64 88 57 89 63 90 58 91 59 92 60 93 61 94 62 95
REMARK H PARENT 10 25 83 51 53 62
REMARK Flexibility Score: inf
ROOT
ATOM      1  O   UNL A   1      34.380  31.940  29.094  1.00  0.00    -0.374 OA
ENDROOT
BRANCH   1   2
ATOM      2  C   UNL A   1      35.197  31.634  27.960  1.00  0.00     0.202 C 
BRANCH   2   3
ATOM      3  C   UNL A   1      35.317  30.161  27.563  1.00  0.00     0.261 C 
BRANCH   3   4
ATOM      4  O   UNL A   1      34.036  29.516  27.649  1.00  0.00    -0.463 OA
BRANCH   4   5
ATOM      5  C   UNL A   1      33.554  29.010  26.489  1.00  0.00     0.305 C 
ATOM      6  O   UNL A   1      33.373  29.652  25.460  1.00  0.00    -0.252 OA
BRANCH   5   7
ATOM      7  C   UNL A   1      33.421  27.504  26.524  1.00  0.00     0.123 C 
BRANCH   7   8
ATOM      8  C   UNL A   1      32.765  26.740  25.373  1.00  0.00     0.023 C 
BRANCH   8   9
ATOM      9  C   UNL A   1      33.544  26.083  24.200  1.00  0.00     0.067 C 
ATOM     10  N   UNL A   1      31.977  26.810  22.386  1.00  0.00    -0.356 N 
ATOM     11  C   UNL A   1      31.604  25.457  22.022  1.00  0.00     0.124 C 
ATOM     12  C   UNL A   1      33.311  27.007  22.946  1.00  0.00     0.127 C 
ATOM     13  C   UNL A   1      31.785  24.505  23.200  1.00  0.00     0.087 C 
ATOM     14  C   UNL A   1      33.221  24.603  23.743  1.00  0.00     0.190 C 
BRANCH  10  15
ATOM     15  C   UNL A   1      30.938  27.684  22.650  1.00  0.00     0.128 A 
ATOM     16  C   UNL A   1      27.533  30.231  23.058  1.00  0.00     0.046 C 
ATOM     17  C   UNL A   1      28.753  29.379  22.917  1.00  0.00    -0.033 A 
ATOM     18  C   UNL A   1      29.979  29.894  22.507  1.00  0.00     0.009 A 
ATOM     19  C   UNL A   1      28.708  28.022  23.205  1.00  0.00     0.117 A 
ATOM     20  C   UNL A   1      31.080  29.042  22.387  1.00  0.00     0.047 A 
ATOM     21  N   UNL A   1      29.754  27.178  23.064  1.00  0.00    -0.239 NA
ENDBRANCH  10  15
BRANCH  14  22
ATOM     22  N   UNL A   1      33.694  23.470  24.570  1.00  0.00    -0.328 N 
ATOM     23  C   UNL A   1      33.903  22.202  23.824  1.00  0.00     0.291 C 
ATOM     24  C   UNL A   1      33.045  23.133  25.830  1.00  0.00     0.291 C 
ATOM     25  H   UNL A   1      34.568  23.917  24.843  1.00  0.00     0.348 HD
ATOM     26  C   UNL A   1      32.714  21.205  23.824  1.00  0.00     0.221 C 
ATOM     27  C   UNL A   1      31.808  22.249  25.723  1.00  0.00     0.221 C 
ATOM     28  O   UNL A   1      32.150  20.998  25.124  1.00  0.00    -0.370 OA
ENDBRANCH  14  22
ENDBRANCH   8   9
ENDBRANCH   7   8
ENDBRANCH   5   7
ENDBRANCH   4   5
ENDBRANCH   3   4
ENDBRANCH   2   3
ENDBRANCH   1   2
BRANCH   1  29
ATOM     29  C   UNL A   1      34.792  32.993  29.958  1.00  0.00     0.202 C 
BRANCH  29  30
ATOM     30  C   UNL A   1      35.398  32.625  31.324  1.00  0.00     0.261 C 
BRANCH  30  31
ATOM     31  O   UNL A   1      36.123  31.388  31.351  1.00  0.00    -0.460 OA
BRANCH  31  32
ATOM     32  C   UNL A   1      37.351  31.486  31.921  1.00  0.00     0.338 C 
ATOM     33  O   UNL A   1      37.623  32.020  32.994  1.00  0.00    -0.246 OA
BRANCH  32  34
ATOM     34  C   UNL A   1      38.360  30.739  31.155  1.00  0.00     0.060 A 
ATOM     35  C   UNL A   1      39.379  30.115  31.881  1.00  0.00     0.016 A 
ATOM     36  C   UNL A   1      38.398  30.765  29.760  1.00  0.00     0.016 A 
ATOM     37  C   UNL A   1      40.471  29.560  31.219  1.00  0.00     0.010 A 
ATOM     38  C   UNL A   1      39.499  30.213  29.091  1.00  0.00     0.010 A 
ATOM     39  C   UNL A   1      40.561  29.645  29.822  1.00  0.00    -0.014 A 
BRANCH  39  40
ATOM     40  C   UNL A   1      41.833  29.253  29.167  1.00  0.00     0.031 A 
ATOM     41  C   UNL A   1      42.946  30.261  29.050  1.00  0.00     0.074 A 
ATOM     42  C   UNL A   1      42.027  27.987  28.753  1.00  0.00     0.049 A 
ATOM     43  N   UNL A   1      44.164  30.099  28.600  1.00  0.00    -0.248 NA
ATOM     44  C   UNL A   1      42.651  31.629  29.505  1.00  0.00     0.031 C 
ATOM     45  C   UNL A   1      41.041  26.911  28.837  1.00  0.00     0.029 A 
ATOM     46  N   UNL A   1      43.128  27.392  28.191  1.00  0.00    -0.354 N 
ATOM     47  C   UNL A   1      44.782  31.339  28.719  1.00  0.00     0.074 A 
ATOM     48  C   UNL A   1      43.795  32.251  29.255  1.00  0.00     0.031 C 
ATOM     49  C   UNL A   1      41.584  25.784  28.346  1.00  0.00     0.029 A 
ATOM     50  C   UNL A   1      42.948  26.062  27.900  1.00  0.00     0.049 A 
ATOM     51  H   UNL A   1      43.969  27.873  28.013  1.00  0.00     0.167 HD
ATOM     52  C   UNL A   1      46.056  31.686  28.417  1.00  0.00     0.031 A 
ATOM     53  C   UNL A   1      43.782  25.169  27.332  1.00  0.00     0.031 A 
ATOM     54  C   UNL A   1      47.037  30.784  27.875  1.00  0.00     0.049 A 
ATOM     55  C   UNL A   1      45.178  25.591  26.960  1.00  0.00     0.074 A 
ATOM     56  C   UNL A   1      48.362  31.039  27.564  1.00  0.00     0.029 A 
ATOM     57  N   UNL A   1      46.800  29.458  27.552  1.00  0.00    -0.354 N 
ATOM     58  N   UNL A   1      45.757  26.758  27.121  1.00  0.00    -0.248 NA
ATOM     59  C   UNL A   1      46.036  24.573  26.338  1.00  0.00     0.031 C 
ATOM     60  C   UNL A   1      48.910  29.880  27.004  1.00  0.00     0.029 A 
ATOM     61  C   UNL A   1      47.942  28.889  27.015  1.00  0.00     0.049 A 
ATOM     62  H   UNL A   1      45.944  28.989  27.684  1.00  0.00     0.167 HD
ATOM     63  C   UNL A   1      47.051  26.608  26.635  1.00  0.00     0.074 A 
ATOM     64  C   UNL A   1      47.177  25.234  26.193  1.00  0.00     0.031 C 
ATOM     65  C   UNL A   1      48.049  27.525  26.563  1.00  0.00     0.031 A 
BRANCH  52  66
ATOM     66  C   UNL A   1      46.456  33.120  28.642  1.00  0.00    -0.014 A 
ATOM     67  C   UNL A   1      46.284  34.090  27.639  1.00  0.00     0.010 A 
ATOM     68  C   UNL A   1      46.975  33.509  29.891  1.00  0.00     0.010 A 
ATOM     69  C   UNL A   1      46.655  35.418  27.869  1.00  0.00     0.020 A 
ATOM     70  C   UNL A   1      47.328  34.840  30.131  1.00  0.00     0.020 A 
ATOM     71  C   UNL A   1      47.180  35.784  29.113  1.00  0.00     0.054 A 
BRANCH  71  72
ATOM     72  S   UNL A   1      47.637  37.517  29.394  1.00  0.00     0.124 S 
ATOM     73  O   UNL A   1      46.640  37.934  30.378  1.00  0.00    -0.237 OA
ATOM     74  O   UNL A   1      49.007  37.412  29.894  1.00  0.00    -0.237 OA
ATOM     75  O   UNL A   1      47.504  38.129  28.076  1.00  0.00    -0.744 OA
ENDBRANCH  71  72
ENDBRANCH  52  66
BRANCH  53  76
ATOM     76  C   UNL A   1      43.312  23.783  27.067  1.00  0.00    -0.014 A 
ATOM     77  C   UNL A   1      42.935  23.382  25.774  1.00  0.00     0.010 A 
ATOM     78  C   UNL A   1      43.247  22.852  28.120  1.00  0.00     0.010 A 
ATOM     79  C   UNL A   1      42.491  22.077  25.542  1.00  0.00     0.020 A 
ATOM     80  C   UNL A   1      42.828  21.541  27.887  1.00  0.00     0.020 A 
ATOM     81  C   UNL A   1      42.441  21.164  26.599  1.00  0.00     0.054 A 
BRANCH  81  82
ATOM     82  S   UNL A   1      41.920  19.458  26.267  1.00  0.00     0.124 S 
ATOM     83  O   UNL A   1      40.475  19.604  26.133  1.00  0.00    -0.237 OA
ATOM     84  O   UNL A   1      42.642  19.139  25.038  1.00  0.00    -0.237 OA
ATOM     85  O   UNL A   1      42.370  18.729  27.452  1.00  0.00    -0.744 OA
ENDBRANCH  81  82
ENDBRANCH  53  76
BRANCH  65  86
ATOM     86  C   UNL A   1      49.365  27.071  25.992  1.00  0.00    -0.014 A 
ATOM     87  C   UNL A   1      49.701  27.330  24.652  1.00  0.00     0.010 A 
ATOM     88  C   UNL A   1      50.293  26.408  26.816  1.00  0.00     0.010 A 
ATOM     89  C   UNL A   1      50.927  26.902  24.134  1.00  0.00     0.020 A 
ATOM     90  C   UNL A   1      51.529  26.000  26.309  1.00  0.00     0.020 A 
ATOM     91  C   UNL A   1      51.831  26.234  24.966  1.00  0.00     0.054 A 
BRANCH  91  92
ATOM     92  S   UNL A   1      53.428  25.712  24.282  1.00  0.00     0.124 S 
ATOM     93  O   UNL A   1      53.531  24.339  24.768  1.00  0.00    -0.237 OA
ATOM     94  O   UNL A   1      53.227  25.857  22.843  1.00  0.00    -0.237 OA
ATOM     95  O   UNL A   1      54.379  26.654  24.868  1.00  0.00    -0.744 OA
ENDBRANCH  91  92
ENDBRANCH  65  86
ENDBRANCH  39  40
ENDBRANCH  32  34
ENDBRANCH  31  32
ENDBRANCH  30  31
ENDBRANCH  29  30
ENDBRANCH   1  29
TORSDOF 21
ENDMDL
MODEL 3
REMARK VINA RESULT:     -10.1      2.200      8.192
REMARK SMILES Cc1ccc(N2CC[C@H]([NH+]3CCOCC3)[C@H](CCC(=O)OCCOCCOC(=O)c3ccc(-c4c5nc(c(-c6ccc(S(=O)(=O)[O-])cc6)c6ccc([nH]6)c(-c6ccc(S(=O)(=O)[O-])cc6)c6nc(c(-c7ccc(S(=O)(=O)[O-])cc7)c7ccc4[nH]7)C=C6)C=C5)cc3)C2)nc1
REMARK SMILES IDX 24 1 23 2 22 3 21 4 19 5 20 6 18 7 17 8 16 9 6 10 7 11 90 12
REMARK SMILES IDX 8 13 9 14 5 15 1 16 2 17 3 18 92 19 4 20 91 21 10 22 11 23
REMARK SMILES IDX 15 24 12 26 14 27 13 28 25 29 26 30 27 31 28 32 29 33 30 34
REMARK SMILES IDX 31 35 89 36 32 37 88 38 33 39 34 40 35 41 82 42 36 43 87 44
REMARK SMILES IDX 81 45 83 46 37 47 86 48 80 49 79 50 38 52 68 53 49 54 67 55
REMARK SMILES IDX 50 56 53 57 66 58 84 59 51 60 52 61 65 63 85 64 54 65 39 66
REMARK SMILES IDX 40 67 48 68 41 69 47 70 42 71 43 72 44 73 45 74 46 75 69 76
REMARK SMILES IDX 70 77 78 78 71 79 77 80 72 81 73 82 74 83 75 84 76 85 55 86
REMARK SMILES IDX 56 87 64 88 57 89 63 90 58 91 59 92 60 93 61 94 62 95
REMARK H PARENT 10 25 83 51 53 62
REMARK Flexibility Score: inf
ROOT
ATOM      1  O   UNL A   1      35.385  31.065  28.704  1.00  0.00    -0.374 OA
ENDROOT
BRANCH   1   2
ATOM      2  C   UNL A   1      35.489  29.686  28.335  1.00  0.00     0.202 C 
BRANCH   2   3
ATOM      3  C   UNL A   1      34.767  29.249  27.058  1.00  0.00     0.261 C 
BRANCH   3   4
ATOM      4  O   UNL A   1      33.443  28.786  27.368  1.00  0.00    -0.463 OA
BRANCH   4   5
ATOM      5  C   UNL A   1      32.756  28.239  26.337  1.00  0.00     0.305 C 
ATOM      6  O   UNL A   1      31.601  28.519  26.031  1.00  0.00    -0.252 OA
BRANCH   5   7
ATOM      7  C   UNL A   1      33.621  27.355  25.466  1.00  0.00     0.123 C 
BRANCH   7   8
ATOM      8  C   UNL A   1      33.610  25.834  25.624  1.00  0.00     0.023 C 
BRANCH   8   9
ATOM      9  C   UNL A   1      34.208  24.842  24.588  1.00  0.00     0.067 C 
ATOM     10  N   UNL A   1      32.334  25.009  22.933  1.00  0.00    -0.356 N 
ATOM     11  C   UNL A   1      31.957  23.614  23.062  1.00  0.00     0.124 C 
ATOM     12  C   UNL A   1      33.735  25.346  23.173  1.00  0.00     0.127 C 
ATOM     13  C   UNL A   1      32.368  23.061  24.423  1.00  0.00     0.087 C 
ATOM     14  C   UNL A   1      33.869  23.297  24.659  1.00  0.00     0.190 C 
BRANCH  10  15
ATOM     15  C   UNL A   1      31.321  25.936  23.095  1.00  0.00     0.128 A 
ATOM     16  C   UNL A   1      27.937  28.535  23.295  1.00  0.00     0.046 C 
ATOM     17  C   UNL A   1      29.148  27.663  23.210  1.00  0.00    -0.033 A 
ATOM     18  C   UNL A   1      30.261  28.006  22.449  1.00  0.00     0.009 A 
ATOM     19  C   UNL A   1      29.210  26.464  23.906  1.00  0.00     0.117 A 
ATOM     20  C   UNL A   1      31.360  27.143  22.404  1.00  0.00     0.047 A 
ATOM     21  N   UNL A   1      30.250  25.603  23.849  1.00  0.00    -0.239 NA
ENDBRANCH  10  15
BRANCH  14  22
ATOM     22  N   UNL A   1      34.514  22.461  25.695  1.00  0.00    -0.328 N 
ATOM     23  C   UNL A   1      35.984  22.643  25.814  1.00  0.00     0.291 C 
ATOM     24  C   UNL A   1      34.243  21.032  25.789  1.00  0.00     0.291 C 
ATOM     25  H   UNL A   1      34.001  22.871  26.474  1.00  0.00     0.348 HD
ATOM     26  C   UNL A   1      36.863  21.649  25.011  1.00  0.00     0.221 C 
ATOM     27  C   UNL A   1      35.069  20.139  24.871  1.00  0.00     0.221 C 
ATOM     28  O   UNL A   1      36.459  20.283  25.167  1.00  0.00    -0.370 OA
ENDBRANCH  14  22
ENDBRANCH   8   9
ENDBRANCH   7   8
ENDBRANCH   5   7
ENDBRANCH   4   5
ENDBRANCH   3   4
ENDBRANCH   2   3
ENDBRANCH   1   2
BRANCH   1  29
ATOM     29  C   UNL A   1      34.940  31.995  27.722  1.00  0.00     0.202 C 
BRANCH  29  30
ATOM     30  C   UNL A   1      33.713  32.866  28.043  1.00  0.00     0.261 C 
BRANCH  30  31
ATOM     31  O   UNL A   1      34.010  34.222  28.401  1.00  0.00    -0.460 OA
BRANCH  31  32
ATOM     32  C   UNL A   1      33.639  34.548  29.665  1.00  0.00     0.338 C 
ATOM     33  O   UNL A   1      32.556  35.012  30.016  1.00  0.00    -0.246 OA
BRANCH  32  34
ATOM     34  C   UNL A   1      34.662  34.153  30.644  1.00  0.00     0.060 A 
ATOM     35  C   UNL A   1      35.982  34.533  30.377  1.00  0.00     0.016 A 
ATOM     36  C   UNL A   1      34.370  33.313  31.720  1.00  0.00     0.016 A 
ATOM     37  C   UNL A   1      37.024  34.030  31.151  1.00  0.00     0.010 A 
ATOM     38  C   UNL A   1      35.419  32.801  32.496  1.00  0.00     0.010 A 
ATOM     39  C   UNL A   1      36.754  33.124  32.188  1.00  0.00    -0.014 A 
BRANCH  39  40
ATOM     40  C   UNL A   1      37.893  32.433  32.841  1.00  0.00     0.031 A 
ATOM     41  C   UNL A   1      38.585  31.306  32.122  1.00  0.00     0.074 A 
ATOM     42  C   UNL A   1      38.359  32.859  34.030  1.00  0.00     0.049 A 
ATOM     43  N   UNL A   1      39.652  30.633  32.473  1.00  0.00    -0.248 NA
ATOM     44  C   UNL A   1      38.003  30.884  30.838  1.00  0.00     0.031 C 
ATOM     45  C   UNL A   1      37.797  33.958  34.813  1.00  0.00     0.029 A 
ATOM     46  N   UNL A   1      39.424  32.422  34.778  1.00  0.00    -0.354 N 
ATOM     47  C   UNL A   1      39.871  29.712  31.454  1.00  0.00     0.074 A 
ATOM     48  C   UNL A   1      38.810  29.891  30.487  1.00  0.00     0.031 C 
ATOM     49  C   UNL A   1      38.525  34.112  35.932  1.00  0.00     0.029 A 
ATOM     50  C   UNL A   1      39.593  33.114  35.952  1.00  0.00     0.049 A 
ATOM     51  H   UNL A   1      40.011  31.682  34.499  1.00  0.00     0.167 HD
ATOM     52  C   UNL A   1      40.870  28.805  31.330  1.00  0.00     0.031 A 
ATOM     53  C   UNL A   1      40.501  32.959  36.935  1.00  0.00     0.031 A 
ATOM     54  C   UNL A   1      41.922  28.618  32.294  1.00  0.00     0.049 A 
ATOM     55  C   UNL A   1      41.573  31.912  36.798  1.00  0.00     0.074 A 
ATOM     56  C   UNL A   1      42.993  27.743  32.239  1.00  0.00     0.029 A 
ATOM     57  N   UNL A   1      42.031  29.307  33.491  1.00  0.00    -0.354 N 
ATOM     58  N   UNL A   1      41.789  31.080  35.806  1.00  0.00    -0.248 NA
ATOM     59  C   UNL A   1      42.527  31.789  37.908  1.00  0.00     0.031 C 
ATOM     60  C   UNL A   1      43.720  27.867  33.429  1.00  0.00     0.029 A 
ATOM     61  C   UNL A   1      43.131  28.856  34.199  1.00  0.00     0.049 A 
ATOM     62  H   UNL A   1      41.415  30.015  33.793  1.00  0.00     0.167 HD
ATOM     63  C   UNL A   1      42.914  30.347  36.168  1.00  0.00     0.074 A 
ATOM     64  C   UNL A   1      43.344  30.845  37.458  1.00  0.00     0.031 C 
ATOM     65  C   UNL A   1      43.538  29.350  35.490  1.00  0.00     0.031 A 
BRANCH  52  66
ATOM     66  C   UNL A   1      40.856  27.920  30.112  1.00  0.00    -0.014 A 
ATOM     67  C   UNL A   1      39.880  26.921  29.950  1.00  0.00     0.010 A 
ATOM     68  C   UNL A   1      41.810  28.119  29.097  1.00  0.00     0.010 A 
ATOM     69  C   UNL A   1      39.879  26.113  28.809  1.00  0.00     0.020 A 
ATOM     70  C   UNL A   1      41.799  27.326  27.946  1.00  0.00     0.020 A 
ATOM     71  C   UNL A   1      40.843  26.318  27.816  1.00  0.00     0.054 A 
BRANCH  71  72
ATOM     72  S   UNL A   1      40.809  25.270  26.335  1.00  0.00     0.124 S 
ATOM     73  O   UNL A   1      41.763  24.220  26.689  1.00  0.00    -0.237 OA
ATOM     74  O   UNL A   1      39.411  24.850  26.269  1.00  0.00    -0.237 OA
ATOM     75  O   UNL A   1      41.239  26.166  25.267  1.00  0.00    -0.744 OA
ENDBRANCH  71  72
ENDBRANCH  52  66
BRANCH  53  76
ATOM     76  C   UNL A   1      40.426  33.815  38.151  1.00  0.00    -0.014 A 
ATOM     77  C   UNL A   1      39.692  33.407  39.278  1.00  0.00     0.010 A 
ATOM     78  C   UNL A   1      41.104  35.048  38.182  1.00  0.00     0.010 A 
ATOM     79  C   UNL A   1      39.629  34.224  40.411  1.00  0.00     0.020 A 
ATOM     80  C   UNL A   1      41.062  35.854  39.321  1.00  0.00     0.020 A 
ATOM     81  C   UNL A   1      40.315  35.441  40.426  1.00  0.00     0.054 A 
BRANCH  81  82
ATOM     82  S   UNL A   1      40.270  36.460  41.927  1.00  0.00     0.124 S 
ATOM     83  O   UNL A   1      41.298  35.834  42.750  1.00  0.00    -0.237 OA
ATOM     84  O   UNL A   1      40.590  37.791  41.416  1.00  0.00    -0.237 OA
ATOM     85  O   UNL A   1      38.898  36.299  42.405  1.00  0.00    -0.744 OA
ENDBRANCH  81  82
ENDBRANCH  53  76
BRANCH  65  86
ATOM     86  C   UNL A   1      44.756  28.738  36.129  1.00  0.00    -0.014 A 
ATOM     87  C   UNL A   1      44.646  27.618  36.972  1.00  0.00     0.010 A 
ATOM     88  C   UNL A   1      46.030  29.268  35.854  1.00  0.00     0.010 A 
ATOM     89  C   UNL A   1      45.787  27.060  37.558  1.00  0.00     0.020 A 
ATOM     90  C   UNL A   1      47.173  28.698  36.418  1.00  0.00     0.020 A 
ATOM     91  C   UNL A   1      47.043  27.608  37.282  1.00  0.00     0.054 A 
BRANCH  91  92
ATOM     92  S   UNL A   1      48.512  26.852  38.031  1.00  0.00     0.124 S 
ATOM     93  O   UNL A   1      49.425  27.987  38.119  1.00  0.00    -0.237 OA
ATOM     94  O   UNL A   1      48.004  26.353  39.306  1.00  0.00    -0.237 OA
ATOM     95  O   UNL A   1      48.893  25.816  37.073  1.00  0.00    -0.744 OA
ENDBRANCH  91  92
ENDBRANCH  65  86
ENDBRANCH  39  40
ENDBRANCH  32  34
ENDBRANCH  31  32
ENDBRANCH  30  31
ENDBRANCH  29  30
ENDBRANCH   1  29
TORSDOF 21
ENDMDL
