MODEL 1
REMARK VINA RESULT:     -10.4      0.000      0.000
REMARK SMILES Cc1cc(F)c([C@](C)(NC=O)C(=O)OCCOCCOC(=O)c2ccc(-c3c4nc(c(-c5ccc(S(=O)(=O)[O-])cc5)c5ccc([nH]5)c(-c5ccc(S(=O)(=O)[O-])cc5)c5nc(c(-c6ccc(S(=O)(=O)[O-])cc6)c6ccc3[nH]6)C=C5)C=C4)cc2)cc1F
REMARK SMILES IDX 18 1 17 2 16 3 15 4 14 5 12 6 13 7 7 8 8 9 6 10 1 11 2 12
REMARK SMILES IDX 3 13 84 14 4 15 83 16 85 17 5 18 9 19 10 20 11 22 19 23
REMARK SMILES IDX 20 24 21 25 22 26 23 27 24 28 82 29 25 30 81 31 26 32 27 33
REMARK SMILES IDX 28 34 75 35 29 36 80 37 74 38 76 39 30 40 79 41 73 42 72 43
REMARK SMILES IDX 31 45 61 46 42 47 60 48 43 49 46 50 59 51 77 52 44 53 45 54
REMARK SMILES IDX 58 56 78 57 47 58 32 59 33 60 41 61 34 62 40 63 35 64 36 65
REMARK SMILES IDX 37 66 38 67 39 68 62 69 63 70 71 71 64 72 70 73 65 74 66 75
REMARK SMILES IDX 67 76 68 77 69 78 48 79 49 80 57 81 50 82 56 83 51 84 52 85
REMARK SMILES IDX 53 86 54 87 55 88
REMARK H PARENT 9 21 76 44 46 55
REMARK Flexibility Score: inf
ROOT
ATOM      1  C   UNL A   1      31.741  29.603  25.896  1.00  0.00     0.202 C 
ENDROOT
BRANCH   1   2
ATOM      2  O   UNL A   1      32.546  28.635  25.222  1.00  0.00    -0.374 OA
BRANCH   2   3
ATOM      3  C   UNL A   1      32.524  28.627  23.795  1.00  0.00     0.202 C 
BRANCH   3   4
ATOM      4  C   UNL A   1      33.587  27.779  23.095  1.00  0.00     0.261 C 
BRANCH   4   5
ATOM      5  O   UNL A   1      33.654  26.460  23.655  1.00  0.00    -0.461 OA
BRANCH   5   6
ATOM      6  C   UNL A   1      33.646  25.444  22.745  1.00  0.00     0.336 C 
ATOM      7  O   UNL A   1      33.742  25.615  21.534  1.00  0.00    -0.249 OA
BRANCH   6   8
ATOM      8  C   UNL A   1      33.421  24.051  23.432  1.00  0.00     0.163 C 
ATOM      9  C   UNL A   1      32.286  24.267  24.464  1.00  0.00     0.053 C 
BRANCH   8  10
ATOM     10  C   UNL A   1      34.707  23.630  24.147  1.00  0.00     0.027 A 
ATOM     11  C   UNL A   1      38.482  22.847  26.134  1.00  0.00     0.047 C 
ATOM     12  C   UNL A   1      37.158  23.067  25.473  1.00  0.00    -0.012 A 
ATOM     13  C   UNL A   1      36.270  24.004  25.999  1.00  0.00     0.046 A 
ATOM     14  C   UNL A   1      36.798  22.396  24.303  1.00  0.00     0.126 A 
ATOM     15  C   UNL A   1      35.067  24.262  25.351  1.00  0.00     0.129 A 
ATOM     16  C   UNL A   1      35.592  22.663  23.646  1.00  0.00     0.049 A 
ATOM     17  F   UNL A   1      37.622  21.478  23.779  1.00  0.00    -0.207 F 
ATOM     18  F   UNL A   1      34.248  25.157  25.915  1.00  0.00    -0.207 F 
ENDBRANCH   8  10
BRANCH   8  19
ATOM     19  N   UNL A   1      32.889  23.002  22.514  1.00  0.00    -0.339 N 
ATOM     20  C   UNL A   1      32.268  21.824  22.784  1.00  0.00     0.338 C 
ATOM     21  H   UNL A   1      33.008  23.195  21.556  1.00  0.00     0.164 HD
ATOM     22  O   UNL A   1      31.792  21.145  21.883  1.00  0.00    -0.279 OA
ENDBRANCH   8  19
ENDBRANCH   6   8
ENDBRANCH   5   6
ENDBRANCH   4   5
ENDBRANCH   3   4
ENDBRANCH   2   3
ENDBRANCH   1   2
BRANCH   1  23
ATOM     23  C   UNL A   1      32.444  30.531  26.890  1.00  0.00     0.261 C 
BRANCH  23  24
ATOM     24  O   UNL A   1      33.686  29.968  27.343  1.00  0.00    -0.460 OA
BRANCH  24  25
ATOM     25  C   UNL A   1      34.468  30.812  28.059  1.00  0.00     0.338 C 
ATOM     26  O   UNL A   1      34.106  31.824  28.643  1.00  0.00    -0.246 OA
BRANCH  25  27
ATOM     27  C   UNL A   1      35.810  30.218  28.235  1.00  0.00     0.060 A 
ATOM     28  C   UNL A   1      36.741  30.160  27.196  1.00  0.00     0.016 A 
ATOM     29  C   UNL A   1      36.133  29.708  29.501  1.00  0.00     0.016 A 
ATOM     30  C   UNL A   1      38.016  29.641  27.448  1.00  0.00     0.010 A 
ATOM     31  C   UNL A   1      37.407  29.201  29.752  1.00  0.00     0.010 A 
ATOM     32  C   UNL A   1      38.370  29.188  28.734  1.00  0.00    -0.014 A 
BRANCH  32  33
ATOM     33  C   UNL A   1      39.782  28.844  29.045  1.00  0.00     0.031 A 
ATOM     34  C   UNL A   1      40.692  29.798  29.762  1.00  0.00     0.074 A 
ATOM     35  C   UNL A   1      40.250  27.645  28.641  1.00  0.00     0.049 A 
ATOM     36  N   UNL A   1      41.912  29.596  30.188  1.00  0.00    -0.248 NA
ATOM     37  C   UNL A   1      40.178  31.150  30.028  1.00  0.00     0.031 C 
ATOM     38  C   UNL A   1      39.474  26.657  27.889  1.00  0.00     0.029 A 
ATOM     39  N   UNL A   1      41.473  27.045  28.817  1.00  0.00    -0.354 N 
ATOM     40  C   UNL A   1      42.305  30.781  30.796  1.00  0.00     0.074 A 
ATOM     41  C   UNL A   1      41.215  31.719  30.629  1.00  0.00     0.031 C 
ATOM     42  C   UNL A   1      40.219  25.556  27.715  1.00  0.00     0.029 A 
ATOM     43  C   UNL A   1      41.537  25.767  28.309  1.00  0.00     0.049 A 
ATOM     44  H   UNL A   1      42.230  27.486  29.264  1.00  0.00     0.167 HD
ATOM     45  C   UNL A   1      43.458  31.047  31.456  1.00  0.00     0.031 A 
ATOM     46  C   UNL A   1      42.530  24.856  28.331  1.00  0.00     0.031 A 
ATOM     47  C   UNL A   1      44.544  30.108  31.598  1.00  0.00     0.049 A 
ATOM     48  C   UNL A   1      43.809  25.182  29.052  1.00  0.00     0.074 A 
ATOM     49  C   UNL A   1      45.737  30.278  32.281  1.00  0.00     0.029 A 
ATOM     50  N   UNL A   1      44.579  28.832  31.053  1.00  0.00    -0.354 N 
ATOM     51  N   UNL A   1      44.130  26.278  29.698  1.00  0.00    -0.248 NA
ATOM     52  C   UNL A   1      44.848  24.143  29.076  1.00  0.00     0.031 C 
ATOM     53  C   UNL A   1      46.522  29.141  32.082  1.00  0.00     0.029 A 
ATOM     54  C   UNL A   1      45.782  28.217  31.362  1.00  0.00     0.049 A 
ATOM     55  H   UNL A   1      43.854  28.423  30.525  1.00  0.00     0.167 HD
ATOM     56  C   UNL A   1      45.391  26.045  30.239  1.00  0.00     0.074 A 
ATOM     57  C   UNL A   1      45.768  24.701  29.852  1.00  0.00     0.031 C 
ATOM     58  C   UNL A   1      46.156  26.873  30.992  1.00  0.00     0.031 A 
BRANCH  45  59
ATOM     59  C   UNL A   1      43.616  32.397  32.115  1.00  0.00    -0.014 A 
ATOM     60  C   UNL A   1      43.081  32.625  33.396  1.00  0.00     0.010 A 
ATOM     61  C   UNL A   1      44.162  33.481  31.402  1.00  0.00     0.010 A 
ATOM     62  C   UNL A   1      43.047  33.915  33.934  1.00  0.00     0.020 A 
ATOM     63  C   UNL A   1      44.161  34.767  31.951  1.00  0.00     0.020 A 
ATOM     64  C   UNL A   1      43.579  34.980  33.202  1.00  0.00     0.054 A 
BRANCH  64  65
ATOM     65  S   UNL A   1      43.484  36.653  33.896  1.00  0.00     0.124 S 
ATOM     66  O   UNL A   1      42.168  36.653  34.527  1.00  0.00    -0.237 OA
ATOM     67  O   UNL A   1      44.624  36.684  34.809  1.00  0.00    -0.237 OA
ATOM     68  O   UNL A   1      43.615  37.518  32.724  1.00  0.00    -0.744 OA
ENDBRANCH  64  65
ENDBRANCH  45  59
BRANCH  46  69
ATOM     69  C   UNL A   1      42.300  23.519  27.711  1.00  0.00    -0.014 A 
ATOM     70  C   UNL A   1      41.886  22.428  28.498  1.00  0.00     0.010 A 
ATOM     71  C   UNL A   1      42.584  23.306  26.350  1.00  0.00     0.010 A 
ATOM     72  C   UNL A   1      41.819  21.143  27.954  1.00  0.00     0.020 A 
ATOM     73  C   UNL A   1      42.482  22.028  25.792  1.00  0.00     0.020 A 
ATOM     74  C   UNL A   1      42.132  20.949  26.607  1.00  0.00     0.054 A 
BRANCH  74  75
ATOM     75  S   UNL A   1      42.101  19.262  25.943  1.00  0.00     0.124 S 
ATOM     76  O   UNL A   1      40.689  19.099  25.604  1.00  0.00    -0.237 OA
ATOM     77  O   UNL A   1      43.015  19.350  24.809  1.00  0.00    -0.237 OA
ATOM     78  O   UNL A   1      42.573  18.445  27.059  1.00  0.00    -0.744 OA
ENDBRANCH  74  75
ENDBRANCH  46  69
BRANCH  58  79
ATOM     79  C   UNL A   1      47.486  26.365  31.501  1.00  0.00    -0.014 A 
ATOM     80  C   UNL A   1      48.595  26.349  30.632  1.00  0.00     0.010 A 
ATOM     81  C   UNL A   1      47.613  25.781  32.773  1.00  0.00     0.010 A 
ATOM     82  C   UNL A   1      49.786  25.723  31.005  1.00  0.00     0.020 A 
ATOM     83  C   UNL A   1      48.817  25.186  33.167  1.00  0.00     0.020 A 
ATOM     84  C   UNL A   1      49.887  25.136  32.268  1.00  0.00     0.054 A 
BRANCH  84  85
ATOM     85  S   UNL A   1      51.429  24.294  32.719  1.00  0.00     0.124 S 
ATOM     86  O   UNL A   1      51.157  22.918  32.317  1.00  0.00    -0.237 OA
ATOM     87  O   UNL A   1      52.425  24.999  31.916  1.00  0.00    -0.237 OA
ATOM     88  O   UNL A   1      51.532  24.514  34.160  1.00  0.00    -0.744 OA
ENDBRANCH  84  85
ENDBRANCH  58  79
ENDBRANCH  32  33
ENDBRANCH  25  27
ENDBRANCH  24  25
ENDBRANCH  23  24
ENDBRANCH   1  23
TORSDOF 19
ENDMDL
MODEL 2
REMARK VINA RESULT:     -10.2      3.014      9.537
REMARK SMILES Cc1cc(F)c([C@](C)(NC=O)C(=O)OCCOCCOC(=O)c2ccc(-c3c4nc(c(-c5ccc(S(=O)(=O)[O-])cc5)c5ccc([nH]5)c(-c5ccc(S(=O)(=O)[O-])cc5)c5nc(c(-c6ccc(S(=O)(=O)[O-])cc6)c6ccc3[nH]6)C=C5)C=C4)cc2)cc1F
REMARK SMILES IDX 18 1 17 2 16 3 15 4 14 5 12 6 13 7 7 8 8 9 6 10 1 11 2 12
REMARK SMILES IDX 3 13 84 14 4 15 83 16 85 17 5 18 9 19 10 20 11 22 19 23
REMARK SMILES IDX 20 24 21 25 22 26 23 27 24 28 82 29 25 30 81 31 26 32 27 33
REMARK SMILES IDX 28 34 75 35 29 36 80 37 74 38 76 39 30 40 79 41 73 42 72 43
REMARK SMILES IDX 31 45 61 46 42 47 60 48 43 49 46 50 59 51 77 52 44 53 45 54
REMARK SMILES IDX 58 56 78 57 47 58 32 59 33 60 41 61 34 62 40 63 35 64 36 65
REMARK SMILES IDX 37 66 38 67 39 68 62 69 63 70 71 71 64 72 70 73 65 74 66 75
REMARK SMILES IDX 67 76 68 77 69 78 48 79 49 80 57 81 50 82 56 83 51 84 52 85
REMARK SMILES IDX 53 86 54 87 55 88
REMARK H PARENT 9 21 76 44 46 55
REMARK Flexibility Score: inf
ROOT
ATOM      1  C   UNL A   1      36.870  21.821  23.880  1.00  0.00     0.202 C 
ENDROOT
BRANCH   1   2
ATOM      2  O   UNL A   1      35.660  22.543  24.111  1.00  0.00    -0.374 OA
BRANCH   2   3
ATOM      3  C   UNL A   1      35.059  23.209  23.001  1.00  0.00     0.202 C 
BRANCH   3   4
ATOM      4  C   UNL A   1      34.018  24.283  23.323  1.00  0.00     0.261 C 
BRANCH   4   5
ATOM      5  O   UNL A   1      33.443  24.078  24.621  1.00  0.00    -0.461 OA
BRANCH   5   6
ATOM      6  C   UNL A   1      32.284  23.359  24.632  1.00  0.00     0.336 C 
ATOM      7  O   UNL A   1      31.317  23.614  23.921  1.00  0.00    -0.249 OA
BRANCH   6   8
ATOM      8  C   UNL A   1      32.317  22.223  25.715  1.00  0.00     0.163 C 
ATOM      9  C   UNL A   1      33.536  22.536  26.618  1.00  0.00     0.053 C 
BRANCH   8  10
ATOM     10  C   UNL A   1      32.512  20.872  25.021  1.00  0.00     0.027 A 
ATOM     11  C   UNL A   1      33.483  17.081  23.153  1.00  0.00     0.047 C 
ATOM     12  C   UNL A   1      33.090  18.371  23.800  1.00  0.00    -0.012 A 
ATOM     13  C   UNL A   1      33.354  18.573  25.154  1.00  0.00     0.046 A 
ATOM     14  C   UNL A   1      32.510  19.413  23.075  1.00  0.00     0.126 A 
ATOM     15  C   UNL A   1      33.054  19.795  25.746  1.00  0.00     0.129 A 
ATOM     16  C   UNL A   1      32.217  20.645  23.668  1.00  0.00     0.049 A 
ATOM     17  F   UNL A   1      32.230  19.246  21.775  1.00  0.00    -0.207 F 
ATOM     18  F   UNL A   1      33.312  19.921  27.053  1.00  0.00    -0.207 F 
ENDBRANCH   8  10
BRANCH   8  19
ATOM     19  N   UNL A   1      31.153  22.241  26.647  1.00  0.00    -0.339 N 
ATOM     20  C   UNL A   1      30.259  23.225  26.925  1.00  0.00     0.338 C 
ATOM     21  H   UNL A   1      31.010  21.402  27.142  1.00  0.00     0.164 HD
ATOM     22  O   UNL A   1      29.289  23.007  27.640  1.00  0.00    -0.279 OA
ENDBRANCH   8  19
ENDBRANCH   6   8
ENDBRANCH   5   6
ENDBRANCH   4   5
ENDBRANCH   3   4
ENDBRANCH   2   3
ENDBRANCH   1   2
BRANCH   1  23
ATOM     23  C   UNL A   1      37.774  21.562  25.088  1.00  0.00     0.261 C 
BRANCH  23  24
ATOM     24  O   UNL A   1      38.059  22.778  25.799  1.00  0.00    -0.460 OA
BRANCH  24  25
ATOM     25  C   UNL A   1      39.299  22.846  26.339  1.00  0.00     0.338 C 
ATOM     26  O   UNL A   1      40.208  22.042  26.186  1.00  0.00    -0.246 OA
BRANCH  25  27
ATOM     27  C   UNL A   1      39.493  24.166  26.977  1.00  0.00     0.060 A 
ATOM     28  C   UNL A   1      39.061  24.436  28.277  1.00  0.00     0.016 A 
ATOM     29  C   UNL A   1      40.140  25.159  26.228  1.00  0.00     0.016 A 
ATOM     30  C   UNL A   1      39.332  25.687  28.842  1.00  0.00     0.010 A 
ATOM     31  C   UNL A   1      40.417  26.402  26.797  1.00  0.00     0.010 A 
ATOM     32  C   UNL A   1      40.040  26.668  28.120  1.00  0.00    -0.014 A 
BRANCH  32  33
ATOM     33  C   UNL A   1      40.510  27.903  28.798  1.00  0.00     0.031 A 
ATOM     34  C   UNL A   1      41.917  28.046  29.301  1.00  0.00     0.074 A 
ATOM     35  C   UNL A   1      39.628  28.906  28.980  1.00  0.00     0.049 A 
ATOM     36  N   UNL A   1      42.494  29.099  29.819  1.00  0.00    -0.248 NA
ATOM     37  C   UNL A   1      42.785  26.861  29.224  1.00  0.00     0.031 C 
ATOM     38  C   UNL A   1      38.219  28.861  28.582  1.00  0.00     0.029 A 
ATOM     39  N   UNL A   1      39.779  30.158  29.525  1.00  0.00    -0.354 N 
ATOM     40  C   UNL A   1      43.798  28.717  30.106  1.00  0.00     0.074 A 
ATOM     41  C   UNL A   1      43.910  27.316  29.762  1.00  0.00     0.031 C 
ATOM     42  C   UNL A   1      37.651  30.046  28.845  1.00  0.00     0.029 A 
ATOM     43  C   UNL A   1      38.639  30.926  29.464  1.00  0.00     0.049 A 
ATOM     44  H   UNL A   1      40.622  30.475  29.921  1.00  0.00     0.167 HD
ATOM     45  C   UNL A   1      44.812  29.477  30.586  1.00  0.00     0.031 A 
ATOM     46  C   UNL A   1      38.410  32.200  29.842  1.00  0.00     0.031 A 
ATOM     47  C   UNL A   1      44.681  30.869  30.943  1.00  0.00     0.049 A 
ATOM     48  C   UNL A   1      39.547  33.017  30.391  1.00  0.00     0.074 A 
ATOM     49  C   UNL A   1      45.664  31.729  31.404  1.00  0.00     0.029 A 
ATOM     50  N   UNL A   1      43.506  31.606  30.885  1.00  0.00    -0.354 N 
ATOM     51  N   UNL A   1      40.797  32.666  30.574  1.00  0.00    -0.248 NA
ATOM     52  C   UNL A   1      39.255  34.410  30.756  1.00  0.00     0.031 C 
ATOM     53  C   UNL A   1      45.069  32.957  31.701  1.00  0.00     0.029 A 
ATOM     54  C   UNL A   1      43.736  32.899  31.328  1.00  0.00     0.049 A 
ATOM     55  H   UNL A   1      42.637  31.260  30.575  1.00  0.00     0.167 HD
ATOM     56  C   UNL A   1      41.449  33.805  31.038  1.00  0.00     0.074 A 
ATOM     57  C   UNL A   1      40.456  34.858  31.097  1.00  0.00     0.031 C 
ATOM     58  C   UNL A   1      42.754  33.956  31.374  1.00  0.00     0.031 A 
BRANCH  45  59
ATOM     59  C   UNL A   1      46.178  28.848  30.731  1.00  0.00    -0.014 A 
ATOM     60  C   UNL A   1      47.038  28.762  29.621  1.00  0.00     0.010 A 
ATOM     61  C   UNL A   1      46.546  28.208  31.929  1.00  0.00     0.010 A 
ATOM     62  C   UNL A   1      48.217  28.013  29.691  1.00  0.00     0.020 A 
ATOM     63  C   UNL A   1      47.741  27.486  32.013  1.00  0.00     0.020 A 
ATOM     64  C   UNL A   1      48.555  27.371  30.885  1.00  0.00     0.054 A 
BRANCH  64  65
ATOM     65  S   UNL A   1      50.064  26.366  30.942  1.00  0.00     0.124 S 
ATOM     66  O   UNL A   1      49.691  25.203  30.143  1.00  0.00    -0.237 OA
ATOM     67  O   UNL A   1      51.059  27.252  30.344  1.00  0.00    -0.237 OA
ATOM     68  O   UNL A   1      50.251  26.109  32.369  1.00  0.00    -0.744 OA
ENDBRANCH  64  65
ENDBRANCH  45  59
BRANCH  46  69
ATOM     69  C   UNL A   1      37.057  32.787  29.625  1.00  0.00    -0.014 A 
ATOM     70  C   UNL A   1      36.731  33.401  28.401  1.00  0.00     0.010 A 
ATOM     71  C   UNL A   1      36.118  32.822  30.673  1.00  0.00     0.010 A 
ATOM     72  C   UNL A   1      35.523  34.087  28.248  1.00  0.00     0.020 A 
ATOM     73  C   UNL A   1      34.892  33.475  30.512  1.00  0.00     0.020 A 
ATOM     74  C   UNL A   1      34.618  34.131  29.310  1.00  0.00     0.054 A 
BRANCH  74  75
ATOM     75  S   UNL A   1      33.088  35.084  29.107  1.00  0.00     0.124 S 
ATOM     76  O   UNL A   1      32.499  34.995  30.441  1.00  0.00    -0.237 OA
ATOM     77  O   UNL A   1      33.583  36.403  28.724  1.00  0.00    -0.237 OA
ATOM     78  O   UNL A   1      32.370  34.363  28.058  1.00  0.00    -0.744 OA
ENDBRANCH  74  75
ENDBRANCH  46  69
BRANCH  58  79
ATOM     79  C   UNL A   1      43.233  35.320  31.815  1.00  0.00    -0.014 A 
ATOM     80  C   UNL A   1      43.032  35.722  33.151  1.00  0.00     0.010 A 
ATOM     81  C   UNL A   1      43.749  36.251  30.897  1.00  0.00     0.010 A 
ATOM     82  C   UNL A   1      43.294  37.035  33.549  1.00  0.00     0.020 A 
ATOM     83  C   UNL A   1      44.049  37.557  31.300  1.00  0.00     0.020 A 
ATOM     84  C   UNL A   1      43.793  37.948  32.618  1.00  0.00     0.054 A 
BRANCH  84  85
ATOM     85  S   UNL A   1      44.089  39.658  33.146  1.00  0.00     0.124 S 
ATOM     86  O   UNL A   1      42.764  40.255  33.015  1.00  0.00    -0.237 OA
ATOM     87  O   UNL A   1      44.574  39.492  34.514  1.00  0.00    -0.237 OA
ATOM     88  O   UNL A   1      45.087  40.143  32.194  1.00  0.00    -0.744 OA
ENDBRANCH  84  85
ENDBRANCH  58  79
ENDBRANCH  32  33
ENDBRANCH  25  27
ENDBRANCH  24  25
ENDBRANCH  23  24
ENDBRANCH   1  23
TORSDOF 19
ENDMDL
MODEL 3
REMARK VINA RESULT:     -10.1      2.443      3.037
REMARK SMILES Cc1cc(F)c([C@](C)(NC=O)C(=O)OCCOCCOC(=O)c2ccc(-c3c4nc(c(-c5ccc(S(=O)(=O)[O-])cc5)c5ccc([nH]5)c(-c5ccc(S(=O)(=O)[O-])cc5)c5nc(c(-c6ccc(S(=O)(=O)[O-])cc6)c6ccc3[nH]6)C=C5)C=C4)cc2)cc1F
REMARK SMILES IDX 18 1 17 2 16 3 15 4 14 5 12 6 13 7 7 8 8 9 6 10 1 11 2 12
REMARK SMILES IDX 3 13 84 14 4 15 83 16 85 17 5 18 9 19 10 20 11 22 19 23
REMARK SMILES IDX 20 24 21 25 22 26 23 27 24 28 82 29 25 30 81 31 26 32 27 33
REMARK SMILES IDX 28 34 75 35 29 36 80 37 74 38 76 39 30 40 79 41 73 42 72 43
REMARK SMILES IDX 31 45 61 46 42 47 60 48 43 49 46 50 59 51 77 52 44 53 45 54
REMARK SMILES IDX 58 56 78 57 47 58 32 59 33 60 41 61 34 62 40 63 35 64 36 65
REMARK SMILES IDX 37 66 38 67 39 68 62 69 63 70 71 71 64 72 70 73 65 74 66 75
REMARK SMILES IDX 67 76 68 77 69 78 48 79 49 80 57 81 50 82 56 83 51 84 52 85
REMARK SMILES IDX 53 86 54 87 55 88
REMARK H PARENT 9 21 76 44 46 55
REMARK Flexibility Score: inf
ROOT
ATOM      1  C   UNL A   1      31.822  29.874  25.553  1.00  0.00     0.202 C 
ENDROOT
BRANCH   1   2
ATOM      2  O   UNL A   1      32.756  29.496  24.541  1.00  0.00    -0.374 OA
BRANCH   2   3
ATOM      3  C   UNL A   1      32.237  28.991  23.311  1.00  0.00     0.202 C 
BRANCH   3   4
ATOM      4  C   UNL A   1      33.110  27.986  22.557  1.00  0.00     0.261 C 
BRANCH   4   5
ATOM      5  O   UNL A   1      33.650  26.997  23.444  1.00  0.00    -0.461 OA
BRANCH   5   6
ATOM      6  C   UNL A   1      32.847  25.915  23.661  1.00  0.00     0.336 C 
ATOM      7  O   UNL A   1      31.964  25.558  22.889  1.00  0.00    -0.249 OA
BRANCH   6   8
ATOM      8  C   UNL A   1      33.145  25.242  25.047  1.00  0.00     0.163 C 
ATOM      9  C   UNL A   1      33.525  26.397  26.006  1.00  0.00     0.053 C 
BRANCH   8  10
ATOM     10  C   UNL A   1      34.323  24.276  24.895  1.00  0.00     0.027 A 
ATOM     11  C   UNL A   1      37.424  21.252  24.680  1.00  0.00     0.047 C 
ATOM     12  C   UNL A   1      36.381  22.324  24.708  1.00  0.00    -0.012 A 
ATOM     13  C   UNL A   1      35.125  22.081  24.154  1.00  0.00     0.046 A 
ATOM     14  C   UNL A   1      36.606  23.555  25.324  1.00  0.00     0.126 A 
ATOM     15  C   UNL A   1      34.129  23.047  24.237  1.00  0.00     0.129 A 
ATOM     16  C   UNL A   1      35.602  24.524  25.417  1.00  0.00     0.049 A 
ATOM     17  F   UNL A   1      37.807  23.827  25.854  1.00  0.00    -0.207 F 
ATOM     18  F   UNL A   1      32.951  22.763  23.669  1.00  0.00    -0.207 F 
ENDBRANCH   8  10
BRANCH   8  19
ATOM     19  N   UNL A   1      31.951  24.613  25.683  1.00  0.00    -0.339 N 
ATOM     20  C   UNL A   1      31.830  23.923  26.847  1.00  0.00     0.338 C 
ATOM     21  H   UNL A   1      31.113  24.716  25.176  1.00  0.00     0.164 HD
ATOM     22  O   UNL A   1      30.730  23.584  27.265  1.00  0.00    -0.279 OA
ENDBRANCH   8  19
ENDBRANCH   6   8
ENDBRANCH   5   6
ENDBRANCH   4   5
ENDBRANCH   3   4
ENDBRANCH   2   3
ENDBRANCH   1   2
BRANCH   1  23
ATOM     23  C   UNL A   1      32.390  30.281  26.915  1.00  0.00     0.261 C 
BRANCH  23  24
ATOM     24  O   UNL A   1      33.819  30.423  26.865  1.00  0.00    -0.460 OA
BRANCH  24  25
ATOM     25  C   UNL A   1      34.330  31.357  27.702  1.00  0.00     0.338 C 
ATOM     26  O   UNL A   1      33.734  32.311  28.183  1.00  0.00    -0.246 OA
BRANCH  25  27
ATOM     27  C   UNL A   1      35.677  30.942  28.149  1.00  0.00     0.060 A 
ATOM     28  C   UNL A   1      36.743  31.839  28.232  1.00  0.00     0.016 A 
ATOM     29  C   UNL A   1      35.857  29.597  28.500  1.00  0.00     0.016 A 
ATOM     30  C   UNL A   1      37.976  31.393  28.722  1.00  0.00     0.010 A 
ATOM     31  C   UNL A   1      37.083  29.157  28.998  1.00  0.00     0.010 A 
ATOM     32  C   UNL A   1      38.147  30.058  29.140  1.00  0.00    -0.014 A 
BRANCH  32  33
ATOM     33  C   UNL A   1      39.382  29.651  29.857  1.00  0.00     0.031 A 
ATOM     34  C   UNL A   1      39.817  30.315  31.130  1.00  0.00     0.074 A 
ATOM     35  C   UNL A   1      40.137  28.670  29.321  1.00  0.00     0.049 A 
ATOM     36  N   UNL A   1      40.814  29.998  31.916  1.00  0.00    -0.248 NA
ATOM     37  C   UNL A   1      39.048  31.487  31.577  1.00  0.00     0.031 C 
ATOM     38  C   UNL A   1      39.844  27.987  28.059  1.00  0.00     0.029 A 
ATOM     39  N   UNL A   1      41.286  28.064  29.768  1.00  0.00    -0.354 N 
ATOM     40  C   UNL A   1      40.778  30.909  32.964  1.00  0.00     0.074 A 
ATOM     41  C   UNL A   1      39.699  31.831  32.681  1.00  0.00     0.031 C 
ATOM     42  C   UNL A   1      40.754  27.023  27.860  1.00  0.00     0.029 A 
ATOM     43  C   UNL A   1      41.718  27.039  28.958  1.00  0.00     0.049 A 
ATOM     44  H   UNL A   1      41.754  28.337  30.589  1.00  0.00     0.167 HD
ATOM     45  C   UNL A   1      41.559  30.951  34.070  1.00  0.00     0.031 A 
ATOM     46  C   UNL A   1      42.758  26.190  29.085  1.00  0.00     0.031 A 
ATOM     47  C   UNL A   1      42.644  30.036  34.330  1.00  0.00     0.049 A 
ATOM     48  C   UNL A   1      43.622  26.269  30.313  1.00  0.00     0.074 A 
ATOM     49  C   UNL A   1      43.467  29.980  35.443  1.00  0.00     0.029 A 
ATOM     50  N   UNL A   1      43.063  29.024  33.477  1.00  0.00    -0.354 N 
ATOM     51  N   UNL A   1      43.521  27.082  31.337  1.00  0.00    -0.248 NA
ATOM     52  C   UNL A   1      44.722  25.300  30.421  1.00  0.00     0.031 C 
ATOM     53  C   UNL A   1      44.429  28.992  35.227  1.00  0.00     0.029 A 
ATOM     54  C   UNL A   1      44.147  28.359  34.027  1.00  0.00     0.049 A 
ATOM     55  H   UNL A   1      42.650  28.810  32.609  1.00  0.00     0.167 HD
ATOM     56  C   UNL A   1      44.517  26.696  32.230  1.00  0.00     0.074 A 
ATOM     57  C   UNL A   1      45.204  25.572  31.627  1.00  0.00     0.031 C 
ATOM     58  C   UNL A   1      44.824  27.228  33.438  1.00  0.00     0.031 A 
BRANCH  45  59
ATOM     59  C   UNL A   1      41.265  31.996  35.120  1.00  0.00    -0.014 A 
ATOM     60  C   UNL A   1      40.298  31.749  36.112  1.00  0.00     0.010 A 
ATOM     61  C   UNL A   1      41.838  33.279  35.034  1.00  0.00     0.010 A 
ATOM     62  C   UNL A   1      39.877  32.772  36.967  1.00  0.00     0.020 A 
ATOM     63  C   UNL A   1      41.444  34.295  35.908  1.00  0.00     0.020 A 
ATOM     64  C   UNL A   1      40.446  34.043  36.851  1.00  0.00     0.054 A 
BRANCH  64  65
ATOM     65  S   UNL A   1      39.854  35.370  37.936  1.00  0.00     0.124 S 
ATOM     66  O   UNL A   1      39.750  36.499  37.017  1.00  0.00    -0.237 OA
ATOM     67  O   UNL A   1      38.586  34.836  38.428  1.00  0.00    -0.237 OA
ATOM     68  O   UNL A   1      40.905  35.483  38.947  1.00  0.00    -0.744 OA
ENDBRANCH  64  65
ENDBRANCH  45  59
BRANCH  46  69
ATOM     69  C   UNL A   1      42.969  25.143  28.045  1.00  0.00    -0.014 A 
ATOM     70  C   UNL A   1      42.396  23.865  28.190  1.00  0.00     0.010 A 
ATOM     71  C   UNL A   1      43.821  25.385  26.952  1.00  0.00     0.010 A 
ATOM     72  C   UNL A   1      42.717  22.836  27.301  1.00  0.00     0.020 A 
ATOM     73  C   UNL A   1      44.115  24.369  26.037  1.00  0.00     0.020 A 
ATOM     74  C   UNL A   1      43.586  23.092  26.238  1.00  0.00     0.054 A 
BRANCH  74  75
ATOM     75  S   UNL A   1      44.037  21.722  25.137  1.00  0.00     0.124 S 
ATOM     76  O   UNL A   1      42.998  20.740  25.439  1.00  0.00    -0.237 OA
ATOM     77  O   UNL A   1      43.957  22.337  23.815  1.00  0.00    -0.237 OA
ATOM     78  O   UNL A   1      45.384  21.360  25.572  1.00  0.00    -0.744 OA
ENDBRANCH  74  75
ENDBRANCH  46  69
BRANCH  58  79
ATOM     79  C   UNL A   1      45.936  26.597  34.244  1.00  0.00    -0.014 A 
ATOM     80  C   UNL A   1      47.265  27.017  34.031  1.00  0.00     0.010 A 
ATOM     81  C   UNL A   1      45.698  25.508  35.101  1.00  0.00     0.010 A 
ATOM     82  C   UNL A   1      48.332  26.336  34.621  1.00  0.00     0.020 A 
ATOM     83  C   UNL A   1      46.762  24.847  35.724  1.00  0.00     0.020 A 
ATOM     84  C   UNL A   1      48.075  25.247  35.457  1.00  0.00     0.054 A 
BRANCH  84  85
ATOM     85  S   UNL A   1      49.477  24.352  36.180  1.00  0.00     0.124 S 
ATOM     86  O   UNL A   1      50.417  24.299  35.066  1.00  0.00    -0.237 OA
ATOM     87  O   UNL A   1      49.867  25.214  37.294  1.00  0.00    -0.237 OA
ATOM     88  O   UNL A   1      48.899  23.067  36.570  1.00  0.00    -0.744 OA
ENDBRANCH  84  85
ENDBRANCH  58  79
ENDBRANCH  32  33
ENDBRANCH  25  27
ENDBRANCH  24  25
ENDBRANCH  23  24
ENDBRANCH   1  23
TORSDOF 19
ENDMDL
