MODEL 1
REMARK VINA RESULT:     -10.4      0.000      0.000
REMARK SMILES COc1ccc(F)cc1[C@H](C)NC(=O)[C@H]1CC=CC[C@@H]1C(=O)OCCOCCOC(=O)c1ccc(-c2c3nc(c(-c4ccc(S(=O)(=O)[O-])cc4)c4ccc([nH]4)c(-c4ccc(S(=O)(=O)[O-])cc4)c4nc(c(-c5ccc(S(=O)(=O)[O-])cc5)c5ccc2[nH]5)C=C4)C=C3)cc1
REMARK SMILES IDX 25 1 24 2 23 3 21 4 22 5 20 6 15 7 16 8 17 9 19 10 18 11
REMARK SMILES IDX 13 12 12 13 14 15 10 16 11 17 9 18 3 19 4 20 5 21 8 22 6 23
REMARK SMILES IDX 7 24 2 25 1 26 26 27 27 28 28 29 29 30 30 31 31 32 32 33
REMARK SMILES IDX 33 34 91 35 34 36 90 37 35 38 36 39 37 40 84 41 38 42 89 43
REMARK SMILES IDX 83 44 85 45 39 46 88 47 82 48 81 49 40 51 70 52 51 53 69 54
REMARK SMILES IDX 52 55 55 56 68 57 86 58 53 59 54 60 67 62 87 63 56 64 41 65
REMARK SMILES IDX 42 66 50 67 43 68 49 69 44 70 45 71 46 72 47 73 48 74 71 75
REMARK SMILES IDX 72 76 80 77 73 78 79 79 74 80 75 81 76 82 77 83 78 84 57 85
REMARK SMILES IDX 58 86 66 87 59 88 65 89 60 90 61 91 62 92 63 93 64 94
REMARK H PARENT 12 14 85 50 55 61
REMARK Flexibility Score: inf
ROOT
ATOM      1  C   UNL A   1      36.177  23.168  23.763  1.00  0.00     0.202 C 
ENDROOT
BRANCH   1   2
ATOM      2  C   UNL A   1      35.434  24.344  24.405  1.00  0.00     0.261 C 
BRANCH   2   3
ATOM      3  O   UNL A   1      34.160  24.611  23.801  1.00  0.00    -0.463 OA
BRANCH   3   4
ATOM      4  C   UNL A   1      33.489  25.648  24.375  1.00  0.00     0.310 C 
ATOM      5  O   UNL A   1      33.346  26.745  23.847  1.00  0.00    -0.252 OA
BRANCH   4   6
ATOM      6  C   UNL A   1      32.829  25.239  25.692  1.00  0.00     0.115 C 
ATOM      7  C   UNL A   1      31.755  24.184  25.354  1.00  0.00     0.097 C 
ATOM      8  C   UNL A   1      30.527  24.810  24.665  1.00  0.00     0.041 C 
ATOM      9  C   UNL A   1      30.214  26.222  25.063  1.00  0.00    -0.030 C 
ATOM     10  C   UNL A   1      32.282  26.460  26.434  1.00  0.00     0.043 C 
ATOM     11  C   UNL A   1      30.990  26.959  25.867  1.00  0.00    -0.030 C 
BRANCH   7  12
ATOM     12  C   UNL A   1      31.305  23.339  26.536  1.00  0.00     0.224 C 
ATOM     13  N   UNL A   1      31.872  22.108  26.728  1.00  0.00    -0.349 N 
ATOM     14  H   UNL A   1      31.356  21.491  27.297  1.00  0.00     0.164 HD
ATOM     15  O   UNL A   1      30.414  23.696  27.307  1.00  0.00    -0.275 OA
BRANCH  13  16
ATOM     16  C   UNL A   1      33.135  21.574  26.212  1.00  0.00     0.113 C 
ATOM     17  C   UNL A   1      34.126  21.439  27.376  1.00  0.00     0.036 C 
BRANCH  16  18
ATOM     18  C   UNL A   1      32.937  20.263  25.467  1.00  0.00     0.019 A 
ATOM     19  C   UNL A   1      32.902  20.219  24.053  1.00  0.00     0.124 A 
ATOM     20  C   UNL A   1      32.778  18.992  23.385  1.00  0.00     0.050 A 
ATOM     21  C   UNL A   1      32.668  17.805  24.107  1.00  0.00     0.043 A 
ATOM     22  C   UNL A   1      32.800  19.053  26.174  1.00  0.00     0.049 A 
ATOM     23  C   UNL A   1      32.677  17.847  25.492  1.00  0.00     0.123 A 
ATOM     24  F   UNL A   1      32.581  16.705  26.184  1.00  0.00    -0.207 F 
BRANCH  19  25
ATOM     25  O   UNL A   1      33.061  21.407  23.386  1.00  0.00    -0.496 OA
ATOM     26  C   UNL A   1      31.989  21.793  22.527  1.00  0.00     0.278 C 
ENDBRANCH  19  25
ENDBRANCH  16  18
ENDBRANCH  13  16
ENDBRANCH   7  12
ENDBRANCH   4   6
ENDBRANCH   3   4
ENDBRANCH   2   3
ENDBRANCH   1   2
BRANCH   1  27
ATOM     27  O   UNL A   1      36.846  22.243  24.615  1.00  0.00    -0.374 OA
BRANCH  27  28
ATOM     28  C   UNL A   1      37.327  22.704  25.877  1.00  0.00     0.202 C 
BRANCH  28  29
ATOM     29  C   UNL A   1      38.775  23.199  25.969  1.00  0.00     0.261 C 
BRANCH  29  30
ATOM     30  O   UNL A   1      38.879  24.498  26.578  1.00  0.00    -0.460 OA
BRANCH  30  31
ATOM     31  C   UNL A   1      40.129  25.022  26.581  1.00  0.00     0.338 C 
ATOM     32  O   UNL A   1      40.947  24.983  25.670  1.00  0.00    -0.246 OA
BRANCH  31  33
ATOM     33  C   UNL A   1      40.328  25.850  27.782  1.00  0.00     0.060 A 
ATOM     34  C   UNL A   1      39.379  25.750  28.807  1.00  0.00     0.016 A 
ATOM     35  C   UNL A   1      41.373  26.772  27.865  1.00  0.00     0.016 A 
ATOM     36  C   UNL A   1      39.440  26.608  29.901  1.00  0.00     0.010 A 
ATOM     37  C   UNL A   1      41.423  27.643  28.957  1.00  0.00     0.010 A 
ATOM     38  C   UNL A   1      40.437  27.589  29.958  1.00  0.00    -0.014 A 
BRANCH  38  39
ATOM     39  C   UNL A   1      40.351  28.658  30.981  1.00  0.00     0.031 A 
ATOM     40  C   UNL A   1      41.242  28.578  32.190  1.00  0.00     0.074 A 
ATOM     41  C   UNL A   1      39.505  29.692  30.826  1.00  0.00     0.049 A 
ATOM     42  N   UNL A   1      41.304  29.371  33.226  1.00  0.00    -0.248 NA
ATOM     43  C   UNL A   1      42.189  27.450  32.236  1.00  0.00     0.031 C 
ATOM     44  C   UNL A   1      38.625  29.900  29.676  1.00  0.00     0.029 A 
ATOM     45  N   UNL A   1      39.244  30.758  31.648  1.00  0.00    -0.354 N 
ATOM     46  C   UNL A   1      42.281  28.834  34.056  1.00  0.00     0.074 A 
ATOM     47  C   UNL A   1      42.774  27.636  33.412  1.00  0.00     0.031 C 
ATOM     48  C   UNL A   1      37.906  31.019  29.876  1.00  0.00     0.029 A 
ATOM     49  C   UNL A   1      38.251  31.585  31.178  1.00  0.00     0.049 A 
ATOM     50  H   UNL A   1      39.721  30.916  32.495  1.00  0.00     0.167 HD
ATOM     51  C   UNL A   1      42.728  29.296  35.247  1.00  0.00     0.031 A 
ATOM     52  C   UNL A   1      37.670  32.660  31.747  1.00  0.00     0.031 A 
ATOM     53  C   UNL A   1      42.228  30.484  35.887  1.00  0.00     0.049 A 
ATOM     54  C   UNL A   1      38.141  33.121  33.101  1.00  0.00     0.074 A 
ATOM     55  C   UNL A   1      42.632  31.051  37.083  1.00  0.00     0.029 A 
ATOM     56  N   UNL A   1      41.211  31.283  35.389  1.00  0.00    -0.354 N 
ATOM     57  N   UNL A   1      39.089  32.621  33.860  1.00  0.00    -0.248 NA
ATOM     58  C   UNL A   1      37.472  34.298  33.674  1.00  0.00     0.031 C 
ATOM     59  C   UNL A   1      41.820  32.161  37.336  1.00  0.00     0.029 A 
ATOM     60  C   UNL A   1      40.952  32.321  36.266  1.00  0.00     0.049 A 
ATOM     61  H   UNL A   1      40.741  31.134  34.536  1.00  0.00     0.167 HD
ATOM     62  C   UNL A   1      39.146  33.438  34.984  1.00  0.00     0.074 A 
ATOM     63  C   UNL A   1      38.147  34.471  34.802  1.00  0.00     0.031 C 
ATOM     64  C   UNL A   1      39.957  33.343  36.067  1.00  0.00     0.031 A 
BRANCH  51  65
ATOM     65  C   UNL A   1      43.784  28.493  35.957  1.00  0.00    -0.014 A 
ATOM     66  C   UNL A   1      43.444  27.456  36.843  1.00  0.00     0.010 A 
ATOM     67  C   UNL A   1      45.142  28.755  35.698  1.00  0.00     0.010 A 
ATOM     68  C   UNL A   1      44.443  26.718  37.483  1.00  0.00     0.020 A 
ATOM     69  C   UNL A   1      46.144  28.002  36.317  1.00  0.00     0.020 A 
ATOM     70  C   UNL A   1      45.787  26.997  37.218  1.00  0.00     0.054 A 
BRANCH  70  71
ATOM     71  S   UNL A   1      47.062  26.005  38.041  1.00  0.00     0.124 S 
ATOM     72  O   UNL A   1      47.302  26.773  39.261  1.00  0.00    -0.237 OA
ATOM     73  O   UNL A   1      46.396  24.718  38.231  1.00  0.00    -0.237 OA
ATOM     74  O   UNL A   1      48.166  25.995  37.084  1.00  0.00    -0.744 OA
ENDBRANCH  70  71
ENDBRANCH  51  65
BRANCH  52  75
ATOM     75  C   UNL A   1      36.556  33.355  31.048  1.00  0.00    -0.014 A 
ATOM     76  C   UNL A   1      36.803  34.169  29.928  1.00  0.00     0.010 A 
ATOM     77  C   UNL A   1      35.233  33.203  31.504  1.00  0.00     0.010 A 
ATOM     78  C   UNL A   1      35.750  34.829  29.287  1.00  0.00     0.020 A 
ATOM     79  C   UNL A   1      34.175  33.839  30.849  1.00  0.00     0.020 A 
ATOM     80  C   UNL A   1      34.442  34.658  29.751  1.00  0.00     0.054 A 
BRANCH  80  81
ATOM     81  S   UNL A   1      33.085  35.481  28.872  1.00  0.00     0.124 S 
ATOM     82  O   UNL A   1      33.804  36.397  27.993  1.00  0.00    -0.237 OA
ATOM     83  O   UNL A   1      32.413  34.364  28.211  1.00  0.00    -0.237 OA
ATOM     84  O   UNL A   1      32.318  36.112  29.943  1.00  0.00    -0.744 OA
ENDBRANCH  80  81
ENDBRANCH  52  75
BRANCH  64  85
ATOM     85  C   UNL A   1      39.831  34.406  37.127  1.00  0.00    -0.014 A 
ATOM     86  C   UNL A   1      38.996  34.229  38.243  1.00  0.00     0.010 A 
ATOM     87  C   UNL A   1      40.619  35.567  37.037  1.00  0.00     0.010 A 
ATOM     88  C   UNL A   1      38.933  35.207  39.240  1.00  0.00     0.020 A 
ATOM     89  C   UNL A   1      40.579  36.536  38.044  1.00  0.00     0.020 A 
ATOM     90  C   UNL A   1      39.726  36.354  39.133  1.00  0.00     0.054 A 
BRANCH  90  91
ATOM     91  S   UNL A   1      39.669  37.584  40.466  1.00  0.00     0.124 S 
ATOM     92  O   UNL A   1      38.769  38.591  39.912  1.00  0.00    -0.237 OA
ATOM     93  O   UNL A   1      39.137  36.816  41.590  1.00  0.00    -0.237 OA
ATOM     94  O   UNL A   1      41.061  38.003  40.611  1.00  0.00    -0.744 OA
ENDBRANCH  90  91
ENDBRANCH  64  85
ENDBRANCH  38  39
ENDBRANCH  31  33
ENDBRANCH  30  31
ENDBRANCH  29  30
ENDBRANCH  28  29
ENDBRANCH  27  28
ENDBRANCH   1  27
TORSDOF 21
ENDMDL
MODEL 2
REMARK VINA RESULT:     -10.2      6.412     10.787
REMARK SMILES COc1ccc(F)cc1[C@H](C)NC(=O)[C@H]1CC=CC[C@@H]1C(=O)OCCOCCOC(=O)c1ccc(-c2c3nc(c(-c4ccc(S(=O)(=O)[O-])cc4)c4ccc([nH]4)c(-c4ccc(S(=O)(=O)[O-])cc4)c4nc(c(-c5ccc(S(=O)(=O)[O-])cc5)c5ccc2[nH]5)C=C4)C=C3)cc1
REMARK SMILES IDX 25 1 24 2 23 3 21 4 22 5 20 6 15 7 16 8 17 9 19 10 18 11
REMARK SMILES IDX 13 12 12 13 14 15 10 16 11 17 9 18 3 19 4 20 5 21 8 22 6 23
REMARK SMILES IDX 7 24 2 25 1 26 26 27 27 28 28 29 29 30 30 31 31 32 32 33
REMARK SMILES IDX 33 34 91 35 34 36 90 37 35 38 36 39 37 40 84 41 38 42 89 43
REMARK SMILES IDX 83 44 85 45 39 46 88 47 82 48 81 49 40 51 70 52 51 53 69 54
REMARK SMILES IDX 52 55 55 56 68 57 86 58 53 59 54 60 67 62 87 63 56 64 41 65
REMARK SMILES IDX 42 66 50 67 43 68 49 69 44 70 45 71 46 72 47 73 48 74 71 75
REMARK SMILES IDX 72 76 80 77 73 78 79 79 74 80 75 81 76 82 77 83 78 84 57 85
REMARK SMILES IDX 58 86 66 87 59 88 65 89 60 90 61 91 62 92 63 93 64 94
REMARK H PARENT 12 14 85 50 55 61
REMARK Flexibility Score: inf
ROOT
ATOM      1  C   UNL A   1      37.126  21.384  24.431  1.00  0.00     0.202 C 
ENDROOT
BRANCH   1   2
ATOM      2  C   UNL A   1      36.809  22.584  23.532  1.00  0.00     0.261 C 
BRANCH   2   3
ATOM      3  O   UNL A   1      35.409  22.889  23.461  1.00  0.00    -0.463 OA
BRANCH   3   4
ATOM      4  C   UNL A   1      34.942  23.569  24.545  1.00  0.00     0.310 C 
ATOM      5  O   UNL A   1      35.573  24.446  25.125  1.00  0.00    -0.252 OA
BRANCH   4   6
ATOM      6  C   UNL A   1      33.494  23.200  24.868  1.00  0.00     0.115 C 
ATOM      7  C   UNL A   1      33.161  23.823  26.240  1.00  0.00     0.097 C 
ATOM      8  C   UNL A   1      33.853  23.077  27.397  1.00  0.00     0.041 C 
ATOM      9  C   UNL A   1      34.074  21.609  27.178  1.00  0.00    -0.030 C 
ATOM     10  C   UNL A   1      33.290  21.684  24.813  1.00  0.00     0.043 C 
ATOM     11  C   UNL A   1      33.808  20.980  26.027  1.00  0.00    -0.030 C 
BRANCH   7  12
ATOM     12  C   UNL A   1      31.673  23.952  26.530  1.00  0.00     0.224 C 
ATOM     13  N   UNL A   1      30.906  24.756  25.731  1.00  0.00    -0.349 N 
ATOM     14  H   UNL A   1      30.050  25.044  26.121  1.00  0.00     0.164 HD
ATOM     15  O   UNL A   1      31.133  23.398  27.487  1.00  0.00    -0.275 OA
BRANCH  13  16
ATOM     16  C   UNL A   1      31.174  25.252  24.378  1.00  0.00     0.113 C 
ATOM     17  C   UNL A   1      30.384  24.399  23.375  1.00  0.00     0.036 C 
BRANCH  16  18
ATOM     18  C   UNL A   1      30.868  26.735  24.243  1.00  0.00     0.019 A 
ATOM     19  C   UNL A   1      31.500  27.693  25.070  1.00  0.00     0.124 A 
ATOM     20  C   UNL A   1      31.248  29.061  24.889  1.00  0.00     0.050 A 
ATOM     21  C   UNL A   1      30.359  29.490  23.906  1.00  0.00     0.043 A 
ATOM     22  C   UNL A   1      29.957  27.191  23.273  1.00  0.00     0.049 A 
ATOM     23  C   UNL A   1      29.720  28.552  23.111  1.00  0.00     0.123 A 
ATOM     24  F   UNL A   1      28.873  28.965  22.159  1.00  0.00    -0.207 F 
BRANCH  19  25
ATOM     25  O   UNL A   1      32.402  27.227  25.992  1.00  0.00    -0.496 OA
ATOM     26  C   UNL A   1      33.773  27.535  25.741  1.00  0.00     0.278 C 
ENDBRANCH  19  25
ENDBRANCH  16  18
ENDBRANCH  13  16
ENDBRANCH   7  12
ENDBRANCH   4   6
ENDBRANCH   3   4
ENDBRANCH   2   3
ENDBRANCH   1   2
BRANCH   1  27
ATOM     27  O   UNL A   1      37.639  21.632  25.736  1.00  0.00    -0.374 OA
BRANCH  27  28
ATOM     28  C   UNL A   1      39.027  21.403  25.978  1.00  0.00     0.202 C 
BRANCH  28  29
ATOM     29  C   UNL A   1      39.624  20.051  25.570  1.00  0.00     0.261 C 
BRANCH  29  30
ATOM     30  O   UNL A   1      40.704  19.641  26.427  1.00  0.00    -0.460 OA
BRANCH  30  31
ATOM     31  C   UNL A   1      41.936  20.005  25.996  1.00  0.00     0.338 C 
ATOM     32  O   UNL A   1      42.660  19.387  25.224  1.00  0.00    -0.246 OA
BRANCH  31  33
ATOM     33  C   UNL A   1      42.238  21.381  26.424  1.00  0.00     0.060 A 
ATOM     34  C   UNL A   1      42.406  22.351  25.427  1.00  0.00     0.016 A 
ATOM     35  C   UNL A   1      42.441  21.697  27.769  1.00  0.00     0.016 A 
ATOM     36  C   UNL A   1      42.828  23.633  25.766  1.00  0.00     0.010 A 
ATOM     37  C   UNL A   1      42.879  22.981  28.105  1.00  0.00     0.010 A 
ATOM     38  C   UNL A   1      43.110  23.941  27.102  1.00  0.00    -0.014 A 
BRANCH  38  39
ATOM     39  C   UNL A   1      43.799  25.211  27.429  1.00  0.00     0.031 A 
ATOM     40  C   UNL A   1      43.000  26.333  28.034  1.00  0.00     0.074 A 
ATOM     41  C   UNL A   1      45.117  25.357  27.206  1.00  0.00     0.049 A 
ATOM     42  N   UNL A   1      43.383  27.541  28.356  1.00  0.00    -0.248 NA
ATOM     43  C   UNL A   1      41.581  26.056  28.312  1.00  0.00     0.031 C 
ATOM     44  C   UNL A   1      46.003  24.326  26.665  1.00  0.00     0.029 A 
ATOM     45  N   UNL A   1      45.938  26.438  27.401  1.00  0.00    -0.354 N 
ATOM     46  C   UNL A   1      42.252  28.174  28.858  1.00  0.00     0.074 A 
ATOM     47  C   UNL A   1      41.164  27.224  28.783  1.00  0.00     0.031 C 
ATOM     48  C   UNL A   1      47.243  24.832  26.555  1.00  0.00     0.029 A 
ATOM     49  C   UNL A   1      47.231  26.229  26.985  1.00  0.00     0.049 A 
ATOM     50  H   UNL A   1      45.631  27.284  27.799  1.00  0.00     0.167 HD
ATOM     51  C   UNL A   1      42.130  29.434  29.339  1.00  0.00     0.031 A 
ATOM     52  C   UNL A   1      48.278  27.076  26.933  1.00  0.00     0.031 A 
ATOM     53  C   UNL A   1      43.214  30.377  29.405  1.00  0.00     0.049 A 
ATOM     54  C   UNL A   1      48.104  28.492  27.417  1.00  0.00     0.074 A 
ATOM     55  C   UNL A   1      43.200  31.670  29.898  1.00  0.00     0.029 A 
ATOM     56  N   UNL A   1      44.503  30.134  28.957  1.00  0.00    -0.354 N 
ATOM     57  N   UNL A   1      47.036  29.067  27.919  1.00  0.00    -0.248 NA
ATOM     58  C   UNL A   1      49.279  29.372  27.337  1.00  0.00     0.031 C 
ATOM     59  C   UNL A   1      44.466  32.228  29.696  1.00  0.00     0.029 A 
ATOM     60  C   UNL A   1      45.286  31.261  29.135  1.00  0.00     0.049 A 
ATOM     61  H   UNL A   1      44.816  29.284  28.570  1.00  0.00     0.167 HD
ATOM     62  C   UNL A   1      47.419  30.365  28.238  1.00  0.00     0.074 A 
ATOM     63  C   UNL A   1      48.818  30.489  27.885  1.00  0.00     0.031 C 
ATOM     64  C   UNL A   1      46.679  31.364  28.781  1.00  0.00     0.031 A 
BRANCH  51  65
ATOM     65  C   UNL A   1      40.767  29.879  29.796  1.00  0.00    -0.014 A 
ATOM     66  C   UNL A   1      39.701  30.017  28.890  1.00  0.00     0.010 A 
ATOM     67  C   UNL A   1      40.541  30.122  31.163  1.00  0.00     0.010 A 
ATOM     68  C   UNL A   1      38.441  30.423  29.339  1.00  0.00     0.020 A 
ATOM     69  C   UNL A   1      39.276  30.503  31.620  1.00  0.00     0.020 A 
ATOM     70  C   UNL A   1      38.237  30.666  30.702  1.00  0.00     0.054 A 
BRANCH  70  71
ATOM     71  S   UNL A   1      36.585  31.164  31.261  1.00  0.00     0.124 S 
ATOM     72  O   UNL A   1      36.069  29.918  31.823  1.00  0.00    -0.237 OA
ATOM     73  O   UNL A   1      36.878  32.217  32.230  1.00  0.00    -0.237 OA
ATOM     74  O   UNL A   1      35.926  31.614  30.037  1.00  0.00    -0.744 OA
ENDBRANCH  70  71
ENDBRANCH  51  65
BRANCH  52  75
ATOM     75  C   UNL A   1      49.577  26.615  26.373  1.00  0.00    -0.014 A 
ATOM     76  C   UNL A   1      49.948  26.931  25.054  1.00  0.00     0.010 A 
ATOM     77  C   UNL A   1      50.456  25.854  27.167  1.00  0.00     0.010 A 
ATOM     78  C   UNL A   1      51.165  26.481  24.535  1.00  0.00     0.020 A 
ATOM     79  C   UNL A   1      51.685  25.425  26.658  1.00  0.00     0.020 A 
ATOM     80  C   UNL A   1      52.028  25.732  25.341  1.00  0.00     0.054 A 
BRANCH  80  81
ATOM     81  S   UNL A   1      53.626  25.203  24.663  1.00  0.00     0.124 S 
ATOM     82  O   UNL A   1      53.565  23.756  24.839  1.00  0.00    -0.237 OA
ATOM     83  O   UNL A   1      53.556  25.678  23.283  1.00  0.00    -0.237 OA
ATOM     84  O   UNL A   1      54.599  25.897  25.504  1.00  0.00    -0.744 OA
ENDBRANCH  80  81
ENDBRANCH  52  75
BRANCH  64  85
ATOM     85  C   UNL A   1      47.372  32.671  29.065  1.00  0.00    -0.014 A 
ATOM     86  C   UNL A   1      47.381  33.713  28.123  1.00  0.00     0.010 A 
ATOM     87  C   UNL A   1      47.961  32.879  30.326  1.00  0.00     0.010 A 
ATOM     88  C   UNL A   1      47.988  34.935  28.429  1.00  0.00     0.020 A 
ATOM     89  C   UNL A   1      48.545  34.107  30.645  1.00  0.00     0.020 A 
ATOM     90  C   UNL A   1      48.566  35.124  29.689  1.00  0.00     0.054 A 
BRANCH  90  91
ATOM     91  S   UNL A   1      49.299  36.736  30.082  1.00  0.00     0.124 S 
ATOM     92  O   UNL A   1      50.727  36.433  30.064  1.00  0.00    -0.237 OA
ATOM     93  O   UNL A   1      48.822  37.581  28.990  1.00  0.00    -0.237 OA
ATOM     94  O   UNL A   1      48.745  37.058  31.396  1.00  0.00    -0.744 OA
ENDBRANCH  90  91
ENDBRANCH  64  85
ENDBRANCH  38  39
ENDBRANCH  31  33
ENDBRANCH  30  31
ENDBRANCH  29  30
ENDBRANCH  28  29
ENDBRANCH  27  28
ENDBRANCH   1  27
TORSDOF 21
ENDMDL
MODEL 3
REMARK VINA RESULT:     -10.2      1.945      3.636
REMARK SMILES COc1ccc(F)cc1[C@H](C)NC(=O)[C@H]1CC=CC[C@@H]1C(=O)OCCOCCOC(=O)c1ccc(-c2c3nc(c(-c4ccc(S(=O)(=O)[O-])cc4)c4ccc([nH]4)c(-c4ccc(S(=O)(=O)[O-])cc4)c4nc(c(-c5ccc(S(=O)(=O)[O-])cc5)c5ccc2[nH]5)C=C4)C=C3)cc1
REMARK SMILES IDX 25 1 24 2 23 3 21 4 22 5 20 6 15 7 16 8 17 9 19 10 18 11
REMARK SMILES IDX 13 12 12 13 14 15 10 16 11 17 9 18 3 19 4 20 5 21 8 22 6 23
REMARK SMILES IDX 7 24 2 25 1 26 26 27 27 28 28 29 29 30 30 31 31 32 32 33
REMARK SMILES IDX 33 34 91 35 34 36 90 37 35 38 36 39 37 40 84 41 38 42 89 43
REMARK SMILES IDX 83 44 85 45 39 46 88 47 82 48 81 49 40 51 70 52 51 53 69 54
REMARK SMILES IDX 52 55 55 56 68 57 86 58 53 59 54 60 67 62 87 63 56 64 41 65
REMARK SMILES IDX 42 66 50 67 43 68 49 69 44 70 45 71 46 72 47 73 48 74 71 75
REMARK SMILES IDX 72 76 80 77 73 78 79 79 74 80 75 81 76 82 77 83 78 84 57 85
REMARK SMILES IDX 58 86 66 87 59 88 65 89 60 90 61 91 62 92 63 93 64 94
REMARK H PARENT 12 14 85 50 55 61
REMARK Flexibility Score: inf
ROOT
ATOM      1  C   UNL A   1      39.619  21.092  25.660  1.00  0.00     0.202 C 
ENDROOT
BRANCH   1   2
ATOM      2  C   UNL A   1      38.143  21.114  25.248  1.00  0.00     0.261 C 
BRANCH   2   3
ATOM      3  O   UNL A   1      37.315  21.878  26.136  1.00  0.00    -0.463 OA
BRANCH   3   4
ATOM      4  C   UNL A   1      36.793  23.001  25.566  1.00  0.00     0.310 C 
ATOM      5  O   UNL A   1      37.344  24.097  25.588  1.00  0.00    -0.252 OA
BRANCH   4   6
ATOM      6  C   UNL A   1      35.511  22.701  24.792  1.00  0.00     0.115 C 
ATOM      7  C   UNL A   1      34.597  23.938  24.929  1.00  0.00     0.097 C 
ATOM      8  C   UNL A   1      33.992  24.056  26.340  1.00  0.00     0.041 C 
ATOM      9  C   UNL A   1      33.749  22.757  27.049  1.00  0.00    -0.030 C 
ATOM     10  C   UNL A   1      34.866  21.402  25.280  1.00  0.00     0.043 C 
ATOM     11  C   UNL A   1      34.125  21.565  26.570  1.00  0.00    -0.030 C 
BRANCH   7  12
ATOM     12  C   UNL A   1      33.491  24.025  23.888  1.00  0.00     0.224 C 
ATOM     13  N   UNL A   1      33.005  25.255  23.534  1.00  0.00    -0.349 N 
ATOM     14  H   UNL A   1      32.118  25.250  23.107  1.00  0.00     0.164 HD
ATOM     15  O   UNL A   1      32.979  23.029  23.378  1.00  0.00    -0.275 OA
BRANCH  13  16
ATOM     16  C   UNL A   1      33.612  26.578  23.699  1.00  0.00     0.113 C 
ATOM     17  C   UNL A   1      33.309  27.418  22.451  1.00  0.00     0.036 C 
BRANCH  16  18
ATOM     18  C   UNL A   1      33.155  27.259  24.980  1.00  0.00     0.019 A 
ATOM     19  C   UNL A   1      31.790  27.296  25.345  1.00  0.00     0.124 A 
ATOM     20  C   UNL A   1      31.396  27.876  26.560  1.00  0.00     0.050 A 
ATOM     21  C   UNL A   1      32.345  28.441  27.411  1.00  0.00     0.043 A 
ATOM     22  C   UNL A   1      34.092  27.856  25.844  1.00  0.00     0.049 A 
ATOM     23  C   UNL A   1      33.681  28.428  27.044  1.00  0.00     0.123 A 
ATOM     24  F   UNL A   1      34.593  28.962  27.867  1.00  0.00    -0.207 F 
BRANCH  19  25
ATOM     25  O   UNL A   1      30.898  26.687  24.499  1.00  0.00    -0.496 OA
ATOM     26  C   UNL A   1      29.825  25.981  25.120  1.00  0.00     0.278 C 
ENDBRANCH  19  25
ENDBRANCH  16  18
ENDBRANCH  13  16
ENDBRANCH   7  12
ENDBRANCH   4   6
ENDBRANCH   3   4
ENDBRANCH   2   3
ENDBRANCH   1   2
BRANCH   1  27
ATOM     27  O   UNL A   1      39.936  21.131  27.048  1.00  0.00    -0.374 OA
BRANCH  27  28
ATOM     28  C   UNL A   1      40.498  22.329  27.585  1.00  0.00     0.202 C 
BRANCH  28  29
ATOM     29  C   UNL A   1      41.160  23.320  26.619  1.00  0.00     0.261 C 
BRANCH  29  30
ATOM     30  O   UNL A   1      40.339  24.472  26.359  1.00  0.00    -0.460 OA
BRANCH  30  31
ATOM     31  C   UNL A   1      41.026  25.625  26.178  1.00  0.00     0.338 C 
ATOM     32  O   UNL A   1      41.390  26.108  25.112  1.00  0.00    -0.246 OA
BRANCH  31  33
ATOM     33  C   UNL A   1      41.118  26.366  27.448  1.00  0.00     0.060 A 
ATOM     34  C   UNL A   1      40.106  26.161  28.395  1.00  0.00     0.016 A 
ATOM     35  C   UNL A   1      42.123  27.308  27.670  1.00  0.00     0.016 A 
ATOM     36  C   UNL A   1      40.066  26.935  29.551  1.00  0.00     0.010 A 
ATOM     37  C   UNL A   1      42.072  28.095  28.824  1.00  0.00     0.010 A 
ATOM     38  C   UNL A   1      41.024  27.937  29.749  1.00  0.00    -0.014 A 
BRANCH  38  39
ATOM     39  C   UNL A   1      40.834  28.923  30.839  1.00  0.00     0.031 A 
ATOM     40  C   UNL A   1      41.706  28.828  32.061  1.00  0.00     0.074 A 
ATOM     41  C   UNL A   1      39.912  29.897  30.734  1.00  0.00     0.049 A 
ATOM     42  N   UNL A   1      41.685  29.550  33.150  1.00  0.00    -0.248 NA
ATOM     43  C   UNL A   1      42.738  27.777  32.054  1.00  0.00     0.031 C 
ATOM     44  C   UNL A   1      39.040  30.115  29.580  1.00  0.00     0.029 A 
ATOM     45  N   UNL A   1      39.552  30.880  31.619  1.00  0.00    -0.354 N 
ATOM     46  C   UNL A   1      42.686  29.033  33.965  1.00  0.00     0.074 A 
ATOM     47  C   UNL A   1      43.284  27.925  33.253  1.00  0.00     0.031 C 
ATOM     48  C   UNL A   1      38.232  31.158  29.837  1.00  0.00     0.029 A 
ATOM     49  C   UNL A   1      38.507  31.658  31.183  1.00  0.00     0.049 A 
ATOM     50  H   UNL A   1      39.999  31.015  32.486  1.00  0.00     0.167 HD
ATOM     51  C   UNL A   1      43.072  29.446  35.195  1.00  0.00     0.031 A 
ATOM     52  C   UNL A   1      37.832  32.642  31.809  1.00  0.00     0.031 A 
ATOM     53  C   UNL A   1      42.468  30.544  35.902  1.00  0.00     0.049 A 
ATOM     54  C   UNL A   1      38.240  33.044  33.202  1.00  0.00     0.074 A 
ATOM     55  C   UNL A   1      42.803  31.056  37.143  1.00  0.00     0.029 A 
ATOM     56  N   UNL A   1      41.401  31.294  35.434  1.00  0.00    -0.354 N 
ATOM     57  N   UNL A   1      39.209  32.567  33.948  1.00  0.00    -0.248 NA
ATOM     58  C   UNL A   1      37.469  34.123  33.836  1.00  0.00     0.031 C 
ATOM     59  C   UNL A   1      41.901  32.080  37.450  1.00  0.00     0.029 A 
ATOM     60  C   UNL A   1      41.044  32.246  36.373  1.00  0.00     0.049 A 
ATOM     61  H   UNL A   1      40.960  31.169  34.562  1.00  0.00     0.167 HD
ATOM     62  C   UNL A   1      39.180  33.306  35.125  1.00  0.00     0.074 A 
ATOM     63  C   UNL A   1      38.107  34.269  34.990  1.00  0.00     0.031 C 
ATOM     64  C   UNL A   1      39.976  33.199  36.219  1.00  0.00     0.031 A 
BRANCH  51  65
ATOM     65  C   UNL A   1      44.175  28.679  35.874  1.00  0.00    -0.014 A 
ATOM     66  C   UNL A   1      43.900  27.565  36.687  1.00  0.00     0.010 A 
ATOM     67  C   UNL A   1      45.513  29.057  35.661  1.00  0.00     0.010 A 
ATOM     68  C   UNL A   1      44.941  26.863  37.299  1.00  0.00     0.020 A 
ATOM     69  C   UNL A   1      46.559  28.343  36.251  1.00  0.00     0.020 A 
ATOM     70  C   UNL A   1      46.265  27.259  37.080  1.00  0.00     0.054 A 
BRANCH  70  71
ATOM     71  S   UNL A   1      47.598  26.313  37.865  1.00  0.00     0.124 S 
ATOM     72  O   UNL A   1      47.025  26.013  39.175  1.00  0.00    -0.237 OA
ATOM     73  O   UNL A   1      47.751  25.168  36.969  1.00  0.00    -0.237 OA
ATOM     74  O   UNL A   1      48.724  27.244  37.877  1.00  0.00    -0.744 OA
ENDBRANCH  70  71
ENDBRANCH  51  65
BRANCH  52  75
ATOM     75  C   UNL A   1      36.680  33.296  31.132  1.00  0.00    -0.014 A 
ATOM     76  C   UNL A   1      36.793  33.773  29.813  1.00  0.00     0.010 A 
ATOM     77  C   UNL A   1      35.455  33.444  31.809  1.00  0.00     0.010 A 
ATOM     78  C   UNL A   1      35.708  34.398  29.192  1.00  0.00     0.020 A 
ATOM     79  C   UNL A   1      34.360  34.044  31.180  1.00  0.00     0.020 A 
ATOM     80  C   UNL A   1      34.497  34.528  29.879  1.00  0.00     0.054 A 
BRANCH  80  81
ATOM     81  S   UNL A   1      33.086  35.295  29.034  1.00  0.00     0.124 S 
ATOM     82  O   UNL A   1      32.747  34.287  28.035  1.00  0.00    -0.237 OA
ATOM     83  O   UNL A   1      32.122  35.463  30.119  1.00  0.00    -0.237 OA
ATOM     84  O   UNL A   1      33.640  36.539  28.506  1.00  0.00    -0.744 OA
ENDBRANCH  80  81
ENDBRANCH  52  75
BRANCH  64  85
ATOM     85  C   UNL A   1      39.745  34.173  37.346  1.00  0.00    -0.014 A 
ATOM     86  C   UNL A   1      39.051  33.795  38.507  1.00  0.00     0.010 A 
ATOM     87  C   UNL A   1      40.300  35.464  37.266  1.00  0.00     0.010 A 
ATOM     88  C   UNL A   1      38.894  34.701  39.561  1.00  0.00     0.020 A 
ATOM     89  C   UNL A   1      40.167  36.363  38.327  1.00  0.00     0.020 A 
ATOM     90  C   UNL A   1      39.454  35.979  39.463  1.00  0.00     0.054 A 
BRANCH  90  91
ATOM     91  S   UNL A   1      39.283  37.117  40.866  1.00  0.00     0.124 S 
ATOM     92  O   UNL A   1      38.424  38.158  40.309  1.00  0.00    -0.237 OA
ATOM     93  O   UNL A   1      38.669  36.276  41.890  1.00  0.00    -0.237 OA
ATOM     94  O   UNL A   1      40.657  37.527  41.148  1.00  0.00    -0.744 OA
ENDBRANCH  90  91
ENDBRANCH  64  85
ENDBRANCH  38  39
ENDBRANCH  31  33
ENDBRANCH  30  31
ENDBRANCH  29  30
ENDBRANCH  28  29
ENDBRANCH  27  28
ENDBRANCH   1  27
TORSDOF 21
ENDMDL
