MODEL 1
REMARK VINA RESULT:      -8.8      0.000      0.000
REMARK SMILES CC1CCN(S(=O)(=O)c2ccc(C(=O)N3CCC[C@@H]3C(=O)OCCOCCOC(=O)c3ccc(-c4c5nc(c(-c6ccc(S(=O)(=O)[O-])cc6)c6ccc([nH]6)c(-c6ccc(S(=O)(=O)[O-])cc6)c6nc(c(-c7ccc(S(=O)(=O)[O-])cc7)c7ccc4[nH]7)C=C6)C=C5)cc3)cc2)CC1
REMARK SMILES IDX 24 1 23 2 22 3 20 4 21 5 19 6 15 7 16 8 17 9 18 10 13 11
REMARK SMILES IDX 14 12 12 13 9 14 10 15 92 16 11 17 91 18 6 19 7 20 8 21 5 22
REMARK SMILES IDX 1 23 2 24 3 25 94 26 4 27 93 28 25 29 26 30 27 31 28 32
REMARK SMILES IDX 29 33 30 34 31 35 32 36 90 37 33 38 89 39 34 40 35 41 36 42
REMARK SMILES IDX 83 43 37 44 88 45 82 46 84 47 38 48 87 49 81 50 80 51 39 53
REMARK SMILES IDX 69 54 50 55 68 56 51 57 54 58 67 59 85 60 52 61 53 62 66 64
REMARK SMILES IDX 86 65 55 66 40 67 41 68 49 69 42 70 48 71 43 72 44 73 45 74
REMARK SMILES IDX 46 75 47 76 70 77 71 78 79 79 72 80 78 81 73 82 74 83 75 84
REMARK SMILES IDX 76 85 77 86 56 87 57 88 65 89 58 90 64 91 59 92 60 93 61 94
REMARK SMILES IDX 62 95 63 96
REMARK H PARENT 84 52 54 63
REMARK Flexibility Score: inf
ROOT
ATOM      1  C   UNL A   1      43.557  21.951  25.622  1.00  0.00     0.202 C 
ENDROOT
BRANCH   1   2
ATOM      2  C   UNL A   1      43.216  23.332  25.055  1.00  0.00     0.261 C 
BRANCH   2   3
ATOM      3  O   UNL A   1      44.335  23.953  24.394  1.00  0.00    -0.462 OA
BRANCH   3   4
ATOM      4  C   UNL A   1      45.498  23.947  25.105  1.00  0.00     0.328 C 
ATOM      5  O   UNL A   1      46.522  23.365  24.765  1.00  0.00    -0.250 OA
BRANCH   4   6
ATOM      6  C   UNL A   1      45.397  24.758  26.402  1.00  0.00     0.195 C 
ATOM      7  N   UNL A   1      46.322  25.878  26.412  1.00  0.00    -0.325 N 
ATOM      8  C   UNL A   1      46.646  26.206  27.784  1.00  0.00     0.121 C 
ATOM      9  C   UNL A   1      46.832  24.829  28.384  1.00  0.00     0.024 C 
ATOM     10  C   UNL A   1      45.747  23.992  27.693  1.00  0.00     0.039 C 
BRANCH   7  11
ATOM     11  C   UNL A   1      46.284  26.804  25.392  1.00  0.00     0.254 C 
ATOM     12  O   UNL A   1      46.652  26.559  24.251  1.00  0.00    -0.269 OA
BRANCH  11  13
ATOM     13  C   UNL A   1      46.013  28.206  25.838  1.00  0.00     0.040 A 
ATOM     14  C   UNL A   1      45.439  30.836  26.608  1.00  0.00     0.082 A 
ATOM     15  C   UNL A   1      44.442  29.860  26.685  1.00  0.00     0.022 A 
ATOM     16  C   UNL A   1      46.715  30.495  26.162  1.00  0.00     0.022 A 
ATOM     17  C   UNL A   1      44.737  28.540  26.313  1.00  0.00     0.015 A 
ATOM     18  C   UNL A   1      46.983  29.206  25.727  1.00  0.00     0.015 A 
BRANCH  14  19
ATOM     19  S   UNL A   1      45.200  32.448  27.325  1.00  0.00     0.243 S 
ATOM     20  O   UNL A   1      46.290  32.601  28.264  1.00  0.00    -0.207 OA
ATOM     21  O   UNL A   1      43.825  32.502  27.784  1.00  0.00    -0.207 OA
BRANCH  19  22
ATOM     22  N   UNL A   1      45.366  33.582  26.052  1.00  0.00    -0.198 NA
ATOM     23  C   UNL A   1      42.416  36.440  27.285  1.00  0.00     0.008 C 
ATOM     24  C   UNL A   1      43.480  35.824  26.377  1.00  0.00    -0.012 C 
ATOM     25  C   UNL A   1      43.029  34.443  25.867  1.00  0.00     0.020 C 
ATOM     26  C   UNL A   1      44.831  35.778  27.094  1.00  0.00     0.020 C 
ATOM     27  C   UNL A   1      44.146  33.664  25.170  1.00  0.00     0.103 C 
ATOM     28  C   UNL A   1      45.848  34.959  26.312  1.00  0.00     0.103 C 
ENDBRANCH  19  22
ENDBRANCH  14  19
ENDBRANCH  11  13
ENDBRANCH   7  11
ENDBRANCH   4   6
ENDBRANCH   3   4
ENDBRANCH   2   3
ENDBRANCH   1   2
BRANCH   1  29
ATOM     29  O   UNL A   1      42.608  20.909  25.390  1.00  0.00    -0.374 OA
BRANCH  29  30
ATOM     30  C   UNL A   1      41.776  20.524  26.481  1.00  0.00     0.202 C 
BRANCH  30  31
ATOM     31  C   UNL A   1      41.443  21.612  27.507  1.00  0.00     0.261 C 
BRANCH  31  32
ATOM     32  O   UNL A   1      40.028  21.862  27.596  1.00  0.00    -0.460 OA
BRANCH  32  33
ATOM     33  C   UNL A   1      39.556  22.725  26.661  1.00  0.00     0.338 C 
ATOM     34  O   UNL A   1      39.059  22.436  25.584  1.00  0.00    -0.246 OA
BRANCH  33  35
ATOM     35  C   UNL A   1      39.555  24.108  27.178  1.00  0.00     0.060 A 
ATOM     36  C   UNL A   1      40.269  25.060  26.441  1.00  0.00     0.016 A 
ATOM     37  C   UNL A   1      38.960  24.456  28.394  1.00  0.00     0.016 A 
ATOM     38  C   UNL A   1      40.448  26.346  26.948  1.00  0.00     0.010 A 
ATOM     39  C   UNL A   1      39.148  25.749  28.905  1.00  0.00     0.010 A 
ATOM     40  C   UNL A   1      39.930  26.685  28.204  1.00  0.00    -0.014 A 
BRANCH  40  41
ATOM     41  C   UNL A   1      40.360  27.960  28.833  1.00  0.00     0.031 A 
ATOM     42  C   UNL A   1      41.797  28.114  29.264  1.00  0.00     0.074 A 
ATOM     43  C   UNL A   1      39.513  29.000  28.942  1.00  0.00     0.049 A 
ATOM     44  N   UNL A   1      42.409  29.167  29.745  1.00  0.00    -0.248 NA
ATOM     45  C   UNL A   1      42.658  26.927  29.130  1.00  0.00     0.031 C 
ATOM     46  C   UNL A   1      38.109  29.006  28.528  1.00  0.00     0.029 A 
ATOM     47  N   UNL A   1      39.727  30.268  29.419  1.00  0.00    -0.354 N 
ATOM     48  C   UNL A   1      43.723  28.771  29.972  1.00  0.00     0.074 A 
ATOM     49  C   UNL A   1      43.813  27.375  29.603  1.00  0.00     0.031 C 
ATOM     50  C   UNL A   1      37.593  30.229  28.751  1.00  0.00     0.029 A 
ATOM     51  C   UNL A   1      38.624  31.084  29.334  1.00  0.00     0.049 A 
ATOM     52  H   UNL A   1      40.590  30.567  29.788  1.00  0.00     0.167 HD
ATOM     53  C   UNL A   1      44.765  29.501  30.437  1.00  0.00     0.031 A 
ATOM     54  C   UNL A   1      38.469  32.375  29.682  1.00  0.00     0.031 A 
ATOM     55  C   UNL A   1      44.686  30.887  30.813  1.00  0.00     0.049 A 
ATOM     56  C   UNL A   1      39.624  33.145  30.256  1.00  0.00     0.074 A 
ATOM     57  C   UNL A   1      45.699  31.717  31.265  1.00  0.00     0.029 A 
ATOM     58  N   UNL A   1      43.529  31.647  30.791  1.00  0.00    -0.354 N 
ATOM     59  N   UNL A   1      40.857  32.753  30.457  1.00  0.00    -0.248 NA
ATOM     60  C   UNL A   1      39.356  34.538  30.644  1.00  0.00     0.031 C 
ATOM     61  C   UNL A   1      45.142  32.966  31.564  1.00  0.00     0.029 A 
ATOM     62  C   UNL A   1      43.794  32.927  31.251  1.00  0.00     0.049 A 
ATOM     63  H   UNL A   1      42.647  31.325  30.493  1.00  0.00     0.167 HD
ATOM     64  C   UNL A   1      41.518  33.858  30.982  1.00  0.00     0.074 A 
ATOM     65  C   UNL A   1      40.551  34.934  31.057  1.00  0.00     0.031 C 
ATOM     66  C   UNL A   1      42.815  33.975  31.358  1.00  0.00     0.031 A 
BRANCH  53  67
ATOM     67  C   UNL A   1      46.084  28.796  30.600  1.00  0.00    -0.014 A 
ATOM     68  C   UNL A   1      47.148  29.022  29.707  1.00  0.00     0.010 A 
ATOM     69  C   UNL A   1      46.272  27.918  31.682  1.00  0.00     0.010 A 
ATOM     70  C   UNL A   1      48.363  28.350  29.872  1.00  0.00     0.020 A 
ATOM     71  C   UNL A   1      47.492  27.262  31.863  1.00  0.00     0.020 A 
ATOM     72  C   UNL A   1      48.524  27.468  30.945  1.00  0.00     0.054 A 
BRANCH  72  73
ATOM     73  S   UNL A   1      50.112  26.616  31.145  1.00  0.00     0.124 S 
ATOM     74  O   UNL A   1      50.406  26.858  32.556  1.00  0.00    -0.237 OA
ATOM     75  O   UNL A   1      49.786  25.236  30.799  1.00  0.00    -0.237 OA
ATOM     76  O   UNL A   1      50.993  27.300  30.201  1.00  0.00    -0.744 OA
ENDBRANCH  72  73
ENDBRANCH  53  67
BRANCH  54  77
ATOM     77  C   UNL A   1      37.158  33.048  29.512  1.00  0.00    -0.014 A 
ATOM     78  C   UNL A   1      36.303  33.229  30.613  1.00  0.00     0.010 A 
ATOM     79  C   UNL A   1      36.736  33.445  28.234  1.00  0.00     0.010 A 
ATOM     80  C   UNL A   1      35.043  33.805  30.436  1.00  0.00     0.020 A 
ATOM     81  C   UNL A   1      35.474  34.016  28.056  1.00  0.00     0.020 A 
ATOM     82  C   UNL A   1      34.640  34.201  29.159  1.00  0.00     0.054 A 
BRANCH  82  83
ATOM     83  S   UNL A   1      33.023  34.998  28.965  1.00  0.00     0.124 S 
ATOM     84  O   UNL A   1      32.362  34.126  28.001  1.00  0.00    -0.237 OA
ATOM     85  O   UNL A   1      32.507  34.954  30.331  1.00  0.00    -0.237 OA
ATOM     86  O   UNL A   1      33.357  36.334  28.478  1.00  0.00    -0.744 OA
ENDBRANCH  82  83
ENDBRANCH  54  77
BRANCH  66  87
ATOM     87  C   UNL A   1      43.254  35.316  31.879  1.00  0.00    -0.014 A 
ATOM     88  C   UNL A   1      43.141  35.634  33.245  1.00  0.00     0.010 A 
ATOM     89  C   UNL A   1      43.788  36.267  30.992  1.00  0.00     0.010 A 
ATOM     90  C   UNL A   1      43.513  36.899  33.707  1.00  0.00     0.020 A 
ATOM     91  C   UNL A   1      44.183  37.524  31.454  1.00  0.00     0.020 A 
ATOM     92  C   UNL A   1      44.024  37.839  32.806  1.00  0.00     0.054 A 
BRANCH  92  93
ATOM     93  S   UNL A   1      44.512  39.472  33.425  1.00  0.00     0.124 S 
ATOM     94  O   UNL A   1      44.526  40.268  32.200  1.00  0.00    -0.237 OA
ATOM     95  O   UNL A   1      43.444  39.794  34.370  1.00  0.00    -0.237 OA
ATOM     96  O   UNL A   1      45.820  39.235  34.031  1.00  0.00    -0.744 OA
ENDBRANCH  92  93
ENDBRANCH  66  87
ENDBRANCH  40  41
ENDBRANCH  33  35
ENDBRANCH  32  33
ENDBRANCH  31  32
ENDBRANCH  30  31
ENDBRANCH  29  30
ENDBRANCH   1  29
TORSDOF 21
ENDMDL
MODEL 2
REMARK VINA RESULT:      -8.3      5.064     12.310
REMARK SMILES CC1CCN(S(=O)(=O)c2ccc(C(=O)N3CCC[C@@H]3C(=O)OCCOCCOC(=O)c3ccc(-c4c5nc(c(-c6ccc(S(=O)(=O)[O-])cc6)c6ccc([nH]6)c(-c6ccc(S(=O)(=O)[O-])cc6)c6nc(c(-c7ccc(S(=O)(=O)[O-])cc7)c7ccc4[nH]7)C=C6)C=C5)cc3)cc2)CC1
REMARK SMILES IDX 24 1 23 2 22 3 20 4 21 5 19 6 15 7 16 8 17 9 18 10 13 11
REMARK SMILES IDX 14 12 12 13 9 14 10 15 92 16 11 17 91 18 6 19 7 20 8 21 5 22
REMARK SMILES IDX 1 23 2 24 3 25 94 26 4 27 93 28 25 29 26 30 27 31 28 32
REMARK SMILES IDX 29 33 30 34 31 35 32 36 90 37 33 38 89 39 34 40 35 41 36 42
REMARK SMILES IDX 83 43 37 44 88 45 82 46 84 47 38 48 87 49 81 50 80 51 39 53
REMARK SMILES IDX 69 54 50 55 68 56 51 57 54 58 67 59 85 60 52 61 53 62 66 64
REMARK SMILES IDX 86 65 55 66 40 67 41 68 49 69 42 70 48 71 43 72 44 73 45 74
REMARK SMILES IDX 46 75 47 76 70 77 71 78 79 79 72 80 78 81 73 82 74 83 75 84
REMARK SMILES IDX 76 85 77 86 56 87 57 88 65 89 58 90 64 91 59 92 60 93 61 94
REMARK SMILES IDX 62 95 63 96
REMARK H PARENT 84 52 54 63
REMARK Flexibility Score: inf
ROOT
ATOM      1  C   UNL A   1      33.453  30.722  27.447  1.00  0.00     0.202 C 
ENDROOT
BRANCH   1   2
ATOM      2  C   UNL A   1      32.638  30.356  26.202  1.00  0.00     0.261 C 
BRANCH   2   3
ATOM      3  O   UNL A   1      33.276  29.347  25.397  1.00  0.00    -0.462 OA
BRANCH   3   4
ATOM      4  C   UNL A   1      32.680  29.110  24.195  1.00  0.00     0.328 C 
ATOM      5  O   UNL A   1      33.278  28.969  23.135  1.00  0.00    -0.250 OA
BRANCH   4   6
ATOM      6  C   UNL A   1      31.152  29.034  24.301  1.00  0.00     0.195 C 
ATOM      7  N   UNL A   1      30.690  27.669  24.476  1.00  0.00    -0.325 N 
ATOM      8  C   UNL A   1      29.342  27.561  23.960  1.00  0.00     0.121 C 
ATOM      9  C   UNL A   1      29.447  28.359  22.679  1.00  0.00     0.024 C 
ATOM     10  C   UNL A   1      30.376  29.520  23.061  1.00  0.00     0.039 C 
BRANCH   7  11
ATOM     11  C   UNL A   1      31.172  26.913  25.523  1.00  0.00     0.254 C 
ATOM     12  O   UNL A   1      30.893  27.136  26.693  1.00  0.00    -0.269 OA
BRANCH  11  13
ATOM     13  C   UNL A   1      32.270  25.969  25.152  1.00  0.00     0.040 A 
ATOM     14  C   UNL A   1      34.266  24.131  24.461  1.00  0.00     0.082 A 
ATOM     15  C   UNL A   1      33.129  24.251  23.657  1.00  0.00     0.022 A 
ATOM     16  C   UNL A   1      34.408  24.932  25.592  1.00  0.00     0.022 A 
ATOM     17  C   UNL A   1      32.139  25.184  23.997  1.00  0.00     0.015 A 
ATOM     18  C   UNL A   1      33.394  25.801  25.965  1.00  0.00     0.015 A 
BRANCH  14  19
ATOM     19  S   UNL A   1      35.669  23.172  23.927  1.00  0.00     0.243 S 
ATOM     20  O   UNL A   1      36.795  23.735  24.639  1.00  0.00    -0.207 OA
ATOM     21  O   UNL A   1      35.646  23.171  22.476  1.00  0.00    -0.207 OA
BRANCH  19  22
ATOM     22  N   UNL A   1      35.394  21.564  24.451  1.00  0.00    -0.198 NA
ATOM     23  C   UNL A   1      32.972  22.368  27.898  1.00  0.00     0.008 C 
ATOM     24  C   UNL A   1      33.756  21.514  26.900  1.00  0.00    -0.012 C 
ATOM     25  C   UNL A   1      35.250  21.883  26.923  1.00  0.00     0.020 C 
ATOM     26  C   UNL A   1      33.140  21.625  25.504  1.00  0.00     0.020 C 
ATOM     27  C   UNL A   1      36.043  21.256  25.776  1.00  0.00     0.103 C 
ATOM     28  C   UNL A   1      34.031  20.982  24.450  1.00  0.00     0.103 C 
ENDBRANCH  19  22
ENDBRANCH  14  19
ENDBRANCH  11  13
ENDBRANCH   7  11
ENDBRANCH   4   6
ENDBRANCH   3   4
ENDBRANCH   2   3
ENDBRANCH   1   2
BRANCH   1  29
ATOM     29  O   UNL A   1      33.515  32.107  27.790  1.00  0.00    -0.374 OA
BRANCH  29  30
ATOM     30  C   UNL A   1      34.666  32.556  28.500  1.00  0.00     0.202 C 
BRANCH  30  31
ATOM     31  C   UNL A   1      35.131  31.686  29.673  1.00  0.00     0.261 C 
BRANCH  31  32
ATOM     32  O   UNL A   1      36.191  30.787  29.296  1.00  0.00    -0.460 OA
BRANCH  32  33
ATOM     33  C   UNL A   1      36.768  30.139  30.341  1.00  0.00     0.338 C 
ATOM     34  O   UNL A   1      36.196  29.531  31.230  1.00  0.00    -0.246 OA
BRANCH  33  35
ATOM     35  C   UNL A   1      38.237  30.107  30.189  1.00  0.00     0.060 A 
ATOM     36  C   UNL A   1      38.758  30.563  28.972  1.00  0.00     0.016 A 
ATOM     37  C   UNL A   1      39.082  29.563  31.160  1.00  0.00     0.016 A 
ATOM     38  C   UNL A   1      40.115  30.416  28.693  1.00  0.00     0.010 A 
ATOM     39  C   UNL A   1      40.446  29.409  30.873  1.00  0.00     0.010 A 
ATOM     40  C   UNL A   1      40.960  29.794  29.622  1.00  0.00    -0.014 A 
BRANCH  40  41
ATOM     41  C   UNL A   1      42.330  29.410  29.195  1.00  0.00     0.031 A 
ATOM     42  C   UNL A   1      42.579  28.002  28.717  1.00  0.00     0.074 A 
ATOM     43  C   UNL A   1      43.321  30.320  29.147  1.00  0.00     0.049 A 
ATOM     44  N   UNL A   1      43.668  27.479  28.213  1.00  0.00    -0.248 NA
ATOM     45  C   UNL A   1      41.450  27.062  28.816  1.00  0.00     0.031 C 
ATOM     46  C   UNL A   1      43.212  31.725  29.538  1.00  0.00     0.029 A 
ATOM     47  N   UNL A   1      44.619  30.190  28.723  1.00  0.00    -0.354 N 
ATOM     48  C   UNL A   1      43.358  26.152  27.936  1.00  0.00     0.074 A 
ATOM     49  C   UNL A   1      41.989  25.942  28.354  1.00  0.00     0.031 C 
ATOM     50  C   UNL A   1      44.391  32.334  29.316  1.00  0.00     0.029 A 
ATOM     51  C   UNL A   1      45.339  31.359  28.780  1.00  0.00     0.049 A 
ATOM     52  H   UNL A   1      45.000  29.339  28.407  1.00  0.00     0.167 HD
ATOM     53  C   UNL A   1      44.135  25.193  27.376  1.00  0.00     0.031 A 
ATOM     54  C   UNL A   1      46.614  31.614  28.433  1.00  0.00     0.031 A 
ATOM     55  C   UNL A   1      45.499  25.389  26.962  1.00  0.00     0.049 A 
ATOM     56  C   UNL A   1      47.476  30.517  27.875  1.00  0.00     0.074 A 
ATOM     57  C   UNL A   1      46.355  24.483  26.357  1.00  0.00     0.029 A 
ATOM     58  N   UNL A   1      46.211  26.566  27.119  1.00  0.00    -0.354 N 
ATOM     59  N   UNL A   1      47.162  29.272  27.616  1.00  0.00    -0.248 NA
ATOM     60  C   UNL A   1      48.867  30.873  27.558  1.00  0.00     0.031 C 
ATOM     61  C   UNL A   1      47.601  25.099  26.194  1.00  0.00     0.029 A 
ATOM     62  C   UNL A   1      47.505  26.402  26.651  1.00  0.00     0.049 A 
ATOM     63  H   UNL A   1      45.852  27.397  27.506  1.00  0.00     0.167 HD
ATOM     64  C   UNL A   1      48.314  28.698  27.091  1.00  0.00     0.074 A 
ATOM     65  C   UNL A   1      49.327  29.734  27.061  1.00  0.00     0.031 C 
ATOM     66  C   UNL A   1      48.514  27.428  26.662  1.00  0.00     0.031 A 
BRANCH  53  67
ATOM     67  C   UNL A   1      43.533  23.825  27.211  1.00  0.00    -0.014 A 
ATOM     68  C   UNL A   1      43.206  23.032  28.326  1.00  0.00     0.010 A 
ATOM     69  C   UNL A   1      43.261  23.339  25.920  1.00  0.00     0.010 A 
ATOM     70  C   UNL A   1      42.654  21.760  28.150  1.00  0.00     0.020 A 
ATOM     71  C   UNL A   1      42.688  22.077  25.741  1.00  0.00     0.020 A 
ATOM     72  C   UNL A   1      42.405  21.288  26.857  1.00  0.00     0.054 A 
BRANCH  72  73
ATOM     73  S   UNL A   1      41.679  19.638  26.653  1.00  0.00     0.124 S 
ATOM     74  O   UNL A   1      40.273  19.891  26.961  1.00  0.00    -0.237 OA
ATOM     75  O   UNL A   1      41.970  19.326  25.257  1.00  0.00    -0.237 OA
ATOM     76  O   UNL A   1      42.394  18.823  27.633  1.00  0.00    -0.744 OA
ENDBRANCH  72  73
ENDBRANCH  53  67
BRANCH  54  77
ATOM     77  C   UNL A   1      47.185  32.971  28.606  1.00  0.00    -0.014 A 
ATOM     78  C   UNL A   1      47.751  33.354  29.833  1.00  0.00     0.010 A 
ATOM     79  C   UNL A   1      47.099  33.905  27.561  1.00  0.00     0.010 A 
ATOM     80  C   UNL A   1      48.229  34.655  30.012  1.00  0.00     0.020 A 
ATOM     81  C   UNL A   1      47.572  35.207  27.739  1.00  0.00     0.020 A 
ATOM     82  C   UNL A   1      48.142  35.570  28.959  1.00  0.00     0.054 A 
BRANCH  82  83
ATOM     83  S   UNL A   1      48.821  37.234  29.196  1.00  0.00     0.124 S 
ATOM     84  O   UNL A   1      50.089  36.959  29.863  1.00  0.00    -0.237 OA
ATOM     85  O   UNL A   1      48.912  37.714  27.819  1.00  0.00    -0.237 OA
ATOM     86  O   UNL A   1      47.813  37.902  30.014  1.00  0.00    -0.744 OA
ENDBRANCH  82  83
ENDBRANCH  54  77
BRANCH  66  87
ATOM     87  C   UNL A   1      49.878  27.098  26.122  1.00  0.00    -0.014 A 
ATOM     88  C   UNL A   1      50.243  27.456  24.811  1.00  0.00     0.010 A 
ATOM     89  C   UNL A   1      50.805  26.425  26.936  1.00  0.00     0.010 A 
ATOM     90  C   UNL A   1      51.498  27.105  24.309  1.00  0.00     0.020 A 
ATOM     91  C   UNL A   1      52.070  26.093  26.445  1.00  0.00     0.020 A 
ATOM     92  C   UNL A   1      52.401  26.417  25.127  1.00  0.00     0.054 A 
BRANCH  92  93
ATOM     93  S   UNL A   1      54.030  25.979  24.462  1.00  0.00     0.124 S 
ATOM     94  O   UNL A   1      54.163  24.587  24.881  1.00  0.00    -0.237 OA
ATOM     95  O   UNL A   1      53.862  26.191  23.026  1.00  0.00    -0.237 OA
ATOM     96  O   UNL A   1      54.935  26.919  25.121  1.00  0.00    -0.744 OA
ENDBRANCH  92  93
ENDBRANCH  66  87
ENDBRANCH  40  41
ENDBRANCH  33  35
ENDBRANCH  32  33
ENDBRANCH  31  32
ENDBRANCH  30  31
ENDBRANCH  29  30
ENDBRANCH   1  29
TORSDOF 21
ENDMDL
MODEL 3
REMARK VINA RESULT:      -7.9      2.899      4.229
REMARK SMILES CC1CCN(S(=O)(=O)c2ccc(C(=O)N3CCC[C@@H]3C(=O)OCCOCCOC(=O)c3ccc(-c4c5nc(c(-c6ccc(S(=O)(=O)[O-])cc6)c6ccc([nH]6)c(-c6ccc(S(=O)(=O)[O-])cc6)c6nc(c(-c7ccc(S(=O)(=O)[O-])cc7)c7ccc4[nH]7)C=C6)C=C5)cc3)cc2)CC1
REMARK SMILES IDX 24 1 23 2 22 3 20 4 21 5 19 6 15 7 16 8 17 9 18 10 13 11
REMARK SMILES IDX 14 12 12 13 9 14 10 15 92 16 11 17 91 18 6 19 7 20 8 21 5 22
REMARK SMILES IDX 1 23 2 24 3 25 94 26 4 27 93 28 25 29 26 30 27 31 28 32
REMARK SMILES IDX 29 33 30 34 31 35 32 36 90 37 33 38 89 39 34 40 35 41 36 42
REMARK SMILES IDX 83 43 37 44 88 45 82 46 84 47 38 48 87 49 81 50 80 51 39 53
REMARK SMILES IDX 69 54 50 55 68 56 51 57 54 58 67 59 85 60 52 61 53 62 66 64
REMARK SMILES IDX 86 65 55 66 40 67 41 68 49 69 42 70 48 71 43 72 44 73 45 74
REMARK SMILES IDX 46 75 47 76 70 77 71 78 79 79 72 80 78 81 73 82 74 83 75 84
REMARK SMILES IDX 76 85 77 86 56 87 57 88 65 89 58 90 64 91 59 92 60 93 61 94
REMARK SMILES IDX 62 95 63 96
REMARK H PARENT 84 52 54 63
REMARK Flexibility Score: inf
ROOT
ATOM      1  C   UNL A   1      43.882  21.792  25.511  1.00  0.00     0.202 C 
ENDROOT
BRANCH   1   2
ATOM      2  C   UNL A   1      43.722  23.116  24.757  1.00  0.00     0.261 C 
BRANCH   2   3
ATOM      3  O   UNL A   1      44.935  23.892  24.735  1.00  0.00    -0.462 OA
BRANCH   3   4
ATOM      4  C   UNL A   1      45.038  24.826  25.723  1.00  0.00     0.328 C 
ATOM      5  O   UNL A   1      44.846  24.607  26.913  1.00  0.00    -0.250 OA
BRANCH   4   6
ATOM      6  C   UNL A   1      45.426  26.208  25.186  1.00  0.00     0.195 C 
ATOM      7  N   UNL A   1      46.677  26.677  25.756  1.00  0.00    -0.325 N 
ATOM      8  C   UNL A   1      46.685  28.125  25.740  1.00  0.00     0.121 C 
ATOM      9  C   UNL A   1      45.274  28.437  26.189  1.00  0.00     0.024 C 
ATOM     10  C   UNL A   1      44.436  27.346  25.507  1.00  0.00     0.039 C 
BRANCH   7  11
ATOM     11  C   UNL A   1      47.812  25.904  25.642  1.00  0.00     0.254 C 
ATOM     12  O   UNL A   1      48.137  25.066  26.472  1.00  0.00    -0.269 OA
BRANCH  11  13
ATOM     13  C   UNL A   1      48.758  26.346  24.571  1.00  0.00     0.040 A 
ATOM     14  C   UNL A   1      50.528  27.258  22.602  1.00  0.00     0.082 A 
ATOM     15  C   UNL A   1      50.890  27.340  23.950  1.00  0.00     0.022 A 
ATOM     16  C   UNL A   1      49.296  26.713  22.244  1.00  0.00     0.022 A 
ATOM     17  C   UNL A   1      50.008  26.867  24.933  1.00  0.00     0.015 A 
ATOM     18  C   UNL A   1      48.397  26.314  23.221  1.00  0.00     0.015 A 
BRANCH  14  19
ATOM     19  S   UNL A   1      51.713  27.581  21.314  1.00  0.00     0.243 S 
ATOM     20  O   UNL A   1      50.916  27.876  20.143  1.00  0.00    -0.207 OA
ATOM     21  O   UNL A   1      52.639  26.464  21.306  1.00  0.00    -0.207 OA
BRANCH  19  22
ATOM     22  N   UNL A   1      52.588  28.976  21.788  1.00  0.00    -0.198 NA
ATOM     23  C   UNL A   1      52.362  31.208  18.133  1.00  0.00     0.008 C 
ATOM     24  C   UNL A   1      52.788  30.906  19.570  1.00  0.00    -0.012 C 
ATOM     25  C   UNL A   1      53.652  29.634  19.627  1.00  0.00     0.020 C 
ATOM     26  C   UNL A   1      51.563  30.832  20.485  1.00  0.00     0.020 C 
ATOM     27  C   UNL A   1      53.894  29.133  21.052  1.00  0.00     0.103 C 
ATOM     28  C   UNL A   1      51.930  30.302  21.863  1.00  0.00     0.103 C 
ENDBRANCH  19  22
ENDBRANCH  14  19
ENDBRANCH  11  13
ENDBRANCH   7  11
ENDBRANCH   4   6
ENDBRANCH   3   4
ENDBRANCH   2   3
ENDBRANCH   1   2
BRANCH   1  29
ATOM     29  O   UNL A   1      42.918  20.776  25.234  1.00  0.00    -0.374 OA
BRANCH  29  30
ATOM     30  C   UNL A   1      41.986  20.458  26.265  1.00  0.00     0.202 C 
BRANCH  30  31
ATOM     31  C   UNL A   1      41.656  21.575  27.260  1.00  0.00     0.261 C 
BRANCH  31  32
ATOM     32  O   UNL A   1      40.238  21.718  27.467  1.00  0.00    -0.460 OA
BRANCH  32  33
ATOM     33  C   UNL A   1      39.628  22.548  26.582  1.00  0.00     0.338 C 
ATOM     34  O   UNL A   1      39.025  22.224  25.572  1.00  0.00    -0.246 OA
BRANCH  33  35
ATOM     35  C   UNL A   1      39.629  23.937  27.083  1.00  0.00     0.060 A 
ATOM     36  C   UNL A   1      40.391  24.867  26.367  1.00  0.00     0.016 A 
ATOM     37  C   UNL A   1      38.986  24.311  28.267  1.00  0.00     0.016 A 
ATOM     38  C   UNL A   1      40.571  26.156  26.865  1.00  0.00     0.010 A 
ATOM     39  C   UNL A   1      39.175  25.606  28.770  1.00  0.00     0.010 A 
ATOM     40  C   UNL A   1      40.003  26.520  28.093  1.00  0.00    -0.014 A 
BRANCH  40  41
ATOM     41  C   UNL A   1      40.428  27.795  28.725  1.00  0.00     0.031 A 
ATOM     42  C   UNL A   1      41.871  27.966  29.130  1.00  0.00     0.074 A 
ATOM     43  C   UNL A   1      39.568  28.822  28.860  1.00  0.00     0.049 A 
ATOM     44  N   UNL A   1      42.477  29.023  29.609  1.00  0.00    -0.248 NA
ATOM     45  C   UNL A   1      42.745  26.792  28.968  1.00  0.00     0.031 C 
ATOM     46  C   UNL A   1      38.157  28.812  28.473  1.00  0.00     0.029 A 
ATOM     47  N   UNL A   1      39.774  30.089  29.344  1.00  0.00    -0.354 N 
ATOM     48  C   UNL A   1      43.800  28.643  29.806  1.00  0.00     0.074 A 
ATOM     49  C   UNL A   1      43.903  27.252  29.423  1.00  0.00     0.031 C 
ATOM     50  C   UNL A   1      37.628  30.025  28.718  1.00  0.00     0.029 A 
ATOM     51  C   UNL A   1      38.659  30.890  29.288  1.00  0.00     0.049 A 
ATOM     52  H   UNL A   1      40.639  30.396  29.699  1.00  0.00     0.167 HD
ATOM     53  C   UNL A   1      44.842  29.384  30.258  1.00  0.00     0.031 A 
ATOM     54  C   UNL A   1      38.492  32.176  29.650  1.00  0.00     0.031 A 
ATOM     55  C   UNL A   1      44.751  30.765  30.647  1.00  0.00     0.049 A 
ATOM     56  C   UNL A   1      39.647  32.957  30.209  1.00  0.00     0.074 A 
ATOM     57  C   UNL A   1      45.760  31.606  31.087  1.00  0.00     0.029 A 
ATOM     58  N   UNL A   1      43.583  31.509  30.655  1.00  0.00    -0.354 N 
ATOM     59  N   UNL A   1      40.889  32.581  30.383  1.00  0.00    -0.248 NA
ATOM     60  C   UNL A   1      39.367  34.342  30.615  1.00  0.00     0.031 C 
ATOM     61  C   UNL A   1      45.192  32.844  31.409  1.00  0.00     0.029 A 
ATOM     62  C   UNL A   1      43.838  32.788  31.121  1.00  0.00     0.049 A 
ATOM     63  H   UNL A   1      42.700  31.178  30.371  1.00  0.00     0.167 HD
ATOM     64  C   UNL A   1      41.545  33.690  30.905  1.00  0.00     0.074 A 
ATOM     65  C   UNL A   1      40.564  34.751  31.009  1.00  0.00     0.031 C 
ATOM     66  C   UNL A   1      42.847  33.822  31.257  1.00  0.00     0.031 A 
BRANCH  53  67
ATOM     67  C   UNL A   1      46.173  28.696  30.388  1.00  0.00    -0.014 A 
ATOM     68  C   UNL A   1      47.113  28.721  29.342  1.00  0.00     0.010 A 
ATOM     69  C   UNL A   1      46.501  28.043  31.590  1.00  0.00     0.010 A 
ATOM     70  C   UNL A   1      48.341  28.069  29.481  1.00  0.00     0.020 A 
ATOM     71  C   UNL A   1      47.737  27.409  31.741  1.00  0.00     0.020 A 
ATOM     72  C   UNL A   1      48.642  27.410  30.678  1.00  0.00     0.054 A 
BRANCH  72  73
ATOM     73  S   UNL A   1      50.246  26.580  30.840  1.00  0.00     0.124 S 
ATOM     74  O   UNL A   1      50.928  27.433  31.810  1.00  0.00    -0.237 OA
ATOM     75  O   UNL A   1      49.877  25.251  31.321  1.00  0.00    -0.237 OA
ATOM     76  O   UNL A   1      50.793  26.618  29.485  1.00  0.00    -0.744 OA
ENDBRANCH  72  73
ENDBRANCH  53  67
BRANCH  54  77
ATOM     77  C   UNL A   1      37.169  32.831  29.513  1.00  0.00    -0.014 A 
ATOM     78  C   UNL A   1      36.828  33.506  28.328  1.00  0.00     0.010 A 
ATOM     79  C   UNL A   1      36.275  32.838  30.596  1.00  0.00     0.010 A 
ATOM     80  C   UNL A   1      35.607  34.176  28.227  1.00  0.00     0.020 A 
ATOM     81  C   UNL A   1      35.056  33.512  30.497  1.00  0.00     0.020 A 
ATOM     82  C   UNL A   1      34.726  34.167  29.311  1.00  0.00     0.054 A 
BRANCH  82  83
ATOM     83  S   UNL A   1      33.123  34.996  29.136  1.00  0.00     0.124 S 
ATOM     84  O   UNL A   1      33.512  36.335  28.710  1.00  0.00    -0.237 OA
ATOM     85  O   UNL A   1      32.471  34.164  28.125  1.00  0.00    -0.237 OA
ATOM     86  O   UNL A   1      32.543  34.905  30.473  1.00  0.00    -0.744 OA
ENDBRANCH  82  83
ENDBRANCH  54  77
BRANCH  66  87
ATOM     87  C   UNL A   1      43.278  35.164  31.782  1.00  0.00    -0.014 A 
ATOM     88  C   UNL A   1      43.767  36.158  30.914  1.00  0.00     0.010 A 
ATOM     89  C   UNL A   1      43.189  35.434  33.159  1.00  0.00     0.010 A 
ATOM     90  C   UNL A   1      44.203  37.384  31.423  1.00  0.00     0.020 A 
ATOM     91  C   UNL A   1      43.602  36.667  33.668  1.00  0.00     0.020 A 
ATOM     92  C   UNL A   1      44.126  37.627  32.798  1.00  0.00     0.054 A 
BRANCH  92  93
ATOM     93  S   UNL A   1      44.686  39.228  33.439  1.00  0.00     0.124 S 
ATOM     94  O   UNL A   1      45.194  39.876  32.232  1.00  0.00    -0.237 OA
ATOM     95  O   UNL A   1      43.462  39.803  33.992  1.00  0.00    -0.237 OA
ATOM     96  O   UNL A   1      45.699  38.868  34.428  1.00  0.00    -0.744 OA
ENDBRANCH  92  93
ENDBRANCH  66  87
ENDBRANCH  40  41
ENDBRANCH  33  35
ENDBRANCH  32  33
ENDBRANCH  31  32
ENDBRANCH  30  31
ENDBRANCH  29  30
ENDBRANCH   1  29
TORSDOF 21
ENDMDL
