MODEL 1
REMARK VINA RESULT:     -11.1      0.000      0.000
REMARK SMILES CC1(C)[C@H](C(=O)N(Cc2ccccc2)Cc2ccccc2)CC[C@@]1(C)C(=O)OCCOCCOC(=O)c1ccc(-c2c3nc(c(-c4ccc(S(=O)(=O)[O-])cc4)c4ccc([nH]4)c(-c4ccc(S(=O)(=O)[O-])cc4)c4nc(c(-c5ccc(S(=O)(=O)[O-])cc5)c5ccc2[nH]5)C=C4)C=C3)cc1
REMARK SMILES IDX 31 1 30 2 29 3 28 4 26 5 27 6 24 7 1 8 2 9 3 10 4 11 22 12
REMARK SMILES IDX 23 13 25 14 5 15 6 16 7 17 8 18 9 19 10 20 14 21 11 22 13 23
REMARK SMILES IDX 12 24 15 25 16 26 17 27 21 28 18 29 20 30 19 31 32 32 33 33
REMARK SMILES IDX 34 34 35 35 36 36 37 37 38 38 96 39 39 40 95 41 40 42 41 43
REMARK SMILES IDX 42 44 89 45 43 46 94 47 88 48 90 49 44 50 93 51 87 52 86 53
REMARK SMILES IDX 45 55 75 56 56 57 74 58 57 59 60 60 73 61 91 62 58 63 59 64
REMARK SMILES IDX 72 66 92 67 61 68 46 69 47 70 55 71 48 72 54 73 49 74 50 75
REMARK SMILES IDX 51 76 52 77 53 78 76 79 77 80 85 81 78 82 84 83 79 84 80 85
REMARK SMILES IDX 81 86 82 87 83 88 62 89 63 90 71 91 64 92 70 93 65 94 66 95
REMARK SMILES IDX 67 96 68 97 69 98
REMARK H PARENT 90 54 60 65
REMARK Flexibility Score: inf
ROOT
ATOM      1  O   UNL A   1      35.997  33.387  29.205  1.00  0.00    -0.374 OA
ENDROOT
BRANCH   1   2
ATOM      2  C   UNL A   1      35.353  32.934  28.007  1.00  0.00     0.202 C 
BRANCH   2   3
ATOM      3  C   UNL A   1      35.268  31.411  27.846  1.00  0.00     0.261 C 
BRANCH   3   4
ATOM      4  O   UNL A   1      34.096  31.062  27.079  1.00  0.00    -0.463 OA
BRANCH   4   5
ATOM      5  C   UNL A   1      33.855  29.747  26.845  1.00  0.00     0.312 C 
ATOM      6  O   UNL A   1      34.664  28.858  27.081  1.00  0.00    -0.252 OA
BRANCH   5   7
ATOM      7  C   UNL A   1      32.388  29.494  26.405  1.00  0.00     0.071 C 
ATOM      8  C   UNL A   1      33.349  28.827  23.993  1.00  0.00     0.013 C 
ATOM      9  C   UNL A   1      32.186  28.739  25.017  1.00  0.00    -0.008 C 
ATOM     10  C   UNL A   1      31.005  29.330  24.248  1.00  0.00     0.013 C 
ATOM     11  C   UNL A   1      32.057  27.254  25.460  1.00  0.00     0.085 C 
ATOM     12  C   UNL A   1      31.512  27.201  26.875  1.00  0.00     0.015 C 
ATOM     13  C   UNL A   1      31.701  28.579  27.468  1.00  0.00     0.020 C 
ATOM     14  C   UNL A   1      31.646  30.850  26.507  1.00  0.00     0.024 C 
BRANCH  11  15
ATOM     15  C   UNL A   1      31.517  26.098  24.602  1.00  0.00     0.226 C 
ATOM     16  O   UNL A   1      30.289  26.127  24.416  1.00  0.00    -0.275 OA
ATOM     17  N   UNL A   1      32.288  25.143  23.947  1.00  0.00    -0.334 N 
BRANCH  17  18
ATOM     18  C   UNL A   1      33.702  25.310  23.584  1.00  0.00     0.155 C 
BRANCH  18  19
ATOM     19  C   UNL A   1      34.724  24.319  24.118  1.00  0.00    -0.029 A 
ATOM     20  C   UNL A   1      35.352  23.344  23.337  1.00  0.00     0.005 A 
ATOM     21  C   UNL A   1      34.986  24.307  25.502  1.00  0.00     0.005 A 
ATOM     22  C   UNL A   1      36.232  22.412  23.894  1.00  0.00     0.000 A 
ATOM     23  C   UNL A   1      35.839  23.354  26.070  1.00  0.00     0.000 A 
ATOM     24  C   UNL A   1      36.472  22.413  25.262  1.00  0.00     0.000 A 
ENDBRANCH  18  19
ENDBRANCH  17  18
BRANCH  17  25
ATOM     25  C   UNL A   1      31.540  24.120  23.177  1.00  0.00     0.155 C 
BRANCH  25  26
ATOM     26  C   UNL A   1      31.805  22.683  23.586  1.00  0.00    -0.029 A 
ATOM     27  C   UNL A   1      32.074  21.705  22.615  1.00  0.00     0.005 A 
ATOM     28  C   UNL A   1      31.789  22.287  24.932  1.00  0.00     0.005 A 
ATOM     29  C   UNL A   1      32.404  20.398  22.987  1.00  0.00     0.000 A 
ATOM     30  C   UNL A   1      32.110  20.981  25.303  1.00  0.00     0.000 A 
ATOM     31  C   UNL A   1      32.434  20.042  24.332  1.00  0.00     0.000 A 
ENDBRANCH  25  26
ENDBRANCH  17  25
ENDBRANCH  11  15
ENDBRANCH   5   7
ENDBRANCH   4   5
ENDBRANCH   3   4
ENDBRANCH   2   3
ENDBRANCH   1   2
BRANCH   1  32
ATOM     32  C   UNL A   1      35.144  33.547  30.335  1.00  0.00     0.202 C 
BRANCH  32  33
ATOM     33  C   UNL A   1      35.266  32.487  31.431  1.00  0.00     0.261 C 
BRANCH  33  34
ATOM     34  O   UNL A   1      36.254  31.500  31.087  1.00  0.00    -0.460 OA
BRANCH  34  35
ATOM     35  C   UNL A   1      37.434  31.657  31.725  1.00  0.00     0.338 C 
ATOM     36  O   UNL A   1      37.615  32.199  32.811  1.00  0.00    -0.246 OA
BRANCH  35  37
ATOM     37  C   UNL A   1      38.501  30.923  31.025  1.00  0.00     0.060 A 
ATOM     38  C   UNL A   1      39.497  30.345  31.822  1.00  0.00     0.016 A 
ATOM     39  C   UNL A   1      38.582  30.859  29.631  1.00  0.00     0.016 A 
ATOM     40  C   UNL A   1      40.617  29.771  31.233  1.00  0.00     0.010 A 
ATOM     41  C   UNL A   1      39.713  30.284  29.039  1.00  0.00     0.010 A 
ATOM     42  C   UNL A   1      40.756  29.782  29.840  1.00  0.00    -0.014 A 
BRANCH  42  43
ATOM     43  C   UNL A   1      42.070  29.432  29.250  1.00  0.00     0.031 A 
ATOM     44  C   UNL A   1      42.277  28.041  28.711  1.00  0.00     0.074 A 
ATOM     45  C   UNL A   1      43.040  30.358  29.133  1.00  0.00     0.049 A 
ATOM     46  N   UNL A   1      43.334  27.522  28.144  1.00  0.00    -0.248 NA
ATOM     47  C   UNL A   1      41.137  27.112  28.822  1.00  0.00     0.031 C 
ATOM     48  C   UNL A   1      42.940  31.749  29.572  1.00  0.00     0.029 A 
ATOM     49  N   UNL A   1      44.302  30.262  28.605  1.00  0.00    -0.354 N 
ATOM     50  C   UNL A   1      42.995  26.208  27.843  1.00  0.00     0.074 A 
ATOM     51  C   UNL A   1      41.643  26.000  28.310  1.00  0.00     0.031 C 
ATOM     52  C   UNL A   1      44.097  32.376  29.301  1.00  0.00     0.029 A 
ATOM     53  C   UNL A   1      45.029  31.425  28.698  1.00  0.00     0.049 A 
ATOM     54  H   UNL A   1      44.655  29.438  28.196  1.00  0.00     0.167 HD
ATOM     55  C   UNL A   1      43.743  25.261  27.229  1.00  0.00     0.031 A 
ATOM     56  C   UNL A   1      46.307  31.686  28.356  1.00  0.00     0.031 A 
ATOM     57  C   UNL A   1      45.087  25.473  26.762  1.00  0.00     0.049 A 
ATOM     58  C   UNL A   1      47.137  30.596  27.729  1.00  0.00     0.074 A 
ATOM     59  C   UNL A   1      45.919  24.582  26.107  1.00  0.00     0.029 A 
ATOM     60  N   UNL A   1      45.798  26.654  26.906  1.00  0.00    -0.354 N 
ATOM     61  N   UNL A   1      46.792  29.366  27.427  1.00  0.00    -0.248 NA
ATOM     62  C   UNL A   1      48.527  30.931  27.387  1.00  0.00     0.031 C 
ATOM     63  C   UNL A   1      47.153  25.207  25.905  1.00  0.00     0.029 A 
ATOM     64  C   UNL A   1      47.069  26.507  26.378  1.00  0.00     0.049 A 
ATOM     65  H   UNL A   1      45.450  27.477  27.322  1.00  0.00     0.167 HD
ATOM     66  C   UNL A   1      47.913  28.793  26.833  1.00  0.00     0.074 A 
ATOM     67  C   UNL A   1      48.940  29.814  26.806  1.00  0.00     0.031 C 
ATOM     68  C   UNL A   1      48.077  27.535  26.353  1.00  0.00     0.031 A 
BRANCH  55  69
ATOM     69  C   UNL A   1      43.139  23.893  27.050  1.00  0.00    -0.014 A 
ATOM     70  C   UNL A   1      43.165  22.941  28.084  1.00  0.00     0.010 A 
ATOM     71  C   UNL A   1      42.475  23.583  25.849  1.00  0.00     0.010 A 
ATOM     72  C   UNL A   1      42.553  21.695  27.912  1.00  0.00     0.020 A 
ATOM     73  C   UNL A   1      41.842  22.349  25.682  1.00  0.00     0.020 A 
ATOM     74  C   UNL A   1      41.895  21.407  26.713  1.00  0.00     0.054 A 
BRANCH  74  75
ATOM     75  S   UNL A   1      41.067  19.803  26.536  1.00  0.00     0.124 S 
ATOM     76  O   UNL A   1      42.017  19.063  25.708  1.00  0.00    -0.237 OA
ATOM     77  O   UNL A   1      40.952  19.348  27.918  1.00  0.00    -0.237 OA
ATOM     78  O   UNL A   1      39.802  20.134  25.884  1.00  0.00    -0.744 OA
ENDBRANCH  74  75
ENDBRANCH  55  69
BRANCH  56  79
ATOM     79  C   UNL A   1      46.895  33.025  28.633  1.00  0.00    -0.014 A 
ATOM     80  C   UNL A   1      46.835  34.055  27.679  1.00  0.00     0.010 A 
ATOM     81  C   UNL A   1      47.544  33.267  29.858  1.00  0.00     0.010 A 
ATOM     82  C   UNL A   1      47.438  35.291  27.932  1.00  0.00     0.020 A 
ATOM     83  C   UNL A   1      48.120  34.511  30.128  1.00  0.00     0.020 A 
ATOM     84  C   UNL A   1      48.077  35.510  29.155  1.00  0.00     0.054 A 
BRANCH  84  85
ATOM     85  S   UNL A   1      48.830  37.129  29.475  1.00  0.00     0.124 S 
ATOM     86  O   UNL A   1      49.905  36.786  30.401  1.00  0.00    -0.237 OA
ATOM     87  O   UNL A   1      49.254  37.551  28.141  1.00  0.00    -0.237 OA
ATOM     88  O   UNL A   1      47.735  37.909  30.047  1.00  0.00    -0.744 OA
ENDBRANCH  84  85
ENDBRANCH  56  79
BRANCH  68  89
ATOM     89  C   UNL A   1      49.401  27.199  25.719  1.00  0.00    -0.014 A 
ATOM     90  C   UNL A   1      49.599  27.322  24.333  1.00  0.00     0.010 A 
ATOM     91  C   UNL A   1      50.479  26.811  26.535  1.00  0.00     0.010 A 
ATOM     92  C   UNL A   1      50.845  27.032  23.770  1.00  0.00     0.020 A 
ATOM     93  C   UNL A   1      51.734  26.548  25.980  1.00  0.00     0.020 A 
ATOM     94  C   UNL A   1      51.905  26.647  24.597  1.00  0.00     0.054 A 
BRANCH  94  95
ATOM     95  S   UNL A   1      53.524  26.319  23.849  1.00  0.00     0.124 S 
ATOM     96  O   UNL A   1      54.208  27.596  24.033  1.00  0.00    -0.237 OA
ATOM     97  O   UNL A   1      54.033  25.212  24.654  1.00  0.00    -0.237 OA
ATOM     98  O   UNL A   1      53.204  25.977  22.464  1.00  0.00    -0.744 OA
ENDBRANCH  94  95
ENDBRANCH  68  89
ENDBRANCH  42  43
ENDBRANCH  35  37
ENDBRANCH  34  35
ENDBRANCH  33  34
ENDBRANCH  32  33
ENDBRANCH   1  32
TORSDOF 22
ENDMDL
MODEL 2
REMARK VINA RESULT:     -11.1      0.860      7.749
REMARK SMILES CC1(C)[C@H](C(=O)N(Cc2ccccc2)Cc2ccccc2)CC[C@@]1(C)C(=O)OCCOCCOC(=O)c1ccc(-c2c3nc(c(-c4ccc(S(=O)(=O)[O-])cc4)c4ccc([nH]4)c(-c4ccc(S(=O)(=O)[O-])cc4)c4nc(c(-c5ccc(S(=O)(=O)[O-])cc5)c5ccc2[nH]5)C=C4)C=C3)cc1
REMARK SMILES IDX 31 1 30 2 29 3 28 4 26 5 27 6 24 7 1 8 2 9 3 10 4 11 22 12
REMARK SMILES IDX 23 13 25 14 5 15 6 16 7 17 8 18 9 19 10 20 14 21 11 22 13 23
REMARK SMILES IDX 12 24 15 25 16 26 17 27 21 28 18 29 20 30 19 31 32 32 33 33
REMARK SMILES IDX 34 34 35 35 36 36 37 37 38 38 96 39 39 40 95 41 40 42 41 43
REMARK SMILES IDX 42 44 89 45 43 46 94 47 88 48 90 49 44 50 93 51 87 52 86 53
REMARK SMILES IDX 45 55 75 56 56 57 74 58 57 59 60 60 73 61 91 62 58 63 59 64
REMARK SMILES IDX 72 66 92 67 61 68 46 69 47 70 55 71 48 72 54 73 49 74 50 75
REMARK SMILES IDX 51 76 52 77 53 78 76 79 77 80 85 81 78 82 84 83 79 84 80 85
REMARK SMILES IDX 81 86 82 87 83 88 62 89 63 90 71 91 64 92 70 93 65 94 66 95
REMARK SMILES IDX 67 96 68 97 69 98
REMARK H PARENT 90 54 60 65
REMARK Flexibility Score: inf
ROOT
ATOM      1  O   UNL A   1      34.140  33.175  29.192  1.00  0.00    -0.374 OA
ENDROOT
BRANCH   1   2
ATOM      2  C   UNL A   1      35.092  32.932  28.147  1.00  0.00     0.202 C 
BRANCH   2   3
ATOM      3  C   UNL A   1      35.161  31.482  27.651  1.00  0.00     0.261 C 
BRANCH   3   4
ATOM      4  O   UNL A   1      33.898  31.101  27.066  1.00  0.00    -0.463 OA
BRANCH   4   5
ATOM      5  C   UNL A   1      33.729  29.806  26.700  1.00  0.00     0.312 C 
ATOM      6  O   UNL A   1      34.602  28.953  26.803  1.00  0.00    -0.252 OA
BRANCH   5   7
ATOM      7  C   UNL A   1      32.261  29.502  26.295  1.00  0.00     0.071 C 
ATOM      8  C   UNL A   1      33.193  28.813  23.878  1.00  0.00     0.013 C 
ATOM      9  C   UNL A   1      32.053  28.713  24.927  1.00  0.00    -0.008 C 
ATOM     10  C   UNL A   1      30.841  29.254  24.171  1.00  0.00     0.013 C 
ATOM     11  C   UNL A   1      31.976  27.235  25.402  1.00  0.00     0.085 C 
ATOM     12  C   UNL A   1      31.462  27.195  26.829  1.00  0.00     0.015 C 
ATOM     13  C   UNL A   1      31.622  28.590  27.390  1.00  0.00     0.020 C 
ATOM     14  C   UNL A   1      31.482  30.838  26.386  1.00  0.00     0.024 C 
BRANCH  11  15
ATOM     15  C   UNL A   1      31.452  26.046  24.578  1.00  0.00     0.226 C 
ATOM     16  O   UNL A   1      30.224  26.053  24.392  1.00  0.00    -0.275 OA
ATOM     17  N   UNL A   1      32.237  25.084  23.951  1.00  0.00    -0.334 N 
BRANCH  17  18
ATOM     18  C   UNL A   1      33.649  25.260  23.583  1.00  0.00     0.155 C 
BRANCH  18  19
ATOM     19  C   UNL A   1      34.679  24.275  24.112  1.00  0.00    -0.029 A 
ATOM     20  C   UNL A   1      35.354  23.344  23.316  1.00  0.00     0.005 A 
ATOM     21  C   UNL A   1      34.901  24.219  25.502  1.00  0.00     0.005 A 
ATOM     22  C   UNL A   1      36.240  22.414  23.866  1.00  0.00     0.000 A 
ATOM     23  C   UNL A   1      35.760  23.267  26.061  1.00  0.00     0.000 A 
ATOM     24  C   UNL A   1      36.440  22.372  25.240  1.00  0.00     0.000 A 
ENDBRANCH  18  19
ENDBRANCH  17  18
BRANCH  17  25
ATOM     25  C   UNL A   1      31.504  24.029  23.212  1.00  0.00     0.155 C 
BRANCH  25  26
ATOM     26  C   UNL A   1      31.816  22.606  23.638  1.00  0.00    -0.029 A 
ATOM     27  C   UNL A   1      32.143  21.632  22.681  1.00  0.00     0.005 A 
ATOM     28  C   UNL A   1      31.788  22.220  24.986  1.00  0.00     0.005 A 
ATOM     29  C   UNL A   1      32.516  20.342  23.070  1.00  0.00     0.000 A 
ATOM     30  C   UNL A   1      32.152  20.930  25.376  1.00  0.00     0.000 A 
ATOM     31  C   UNL A   1      32.532  19.997  24.419  1.00  0.00     0.000 A 
ENDBRANCH  25  26
ENDBRANCH  17  25
ENDBRANCH  11  15
ENDBRANCH   5   7
ENDBRANCH   4   5
ENDBRANCH   3   4
ENDBRANCH   2   3
ENDBRANCH   1   2
BRANCH   1  32
ATOM     32  C   UNL A   1      34.678  33.710  30.398  1.00  0.00     0.202 C 
BRANCH  32  33
ATOM     33  C   UNL A   1      34.813  32.735  31.569  1.00  0.00     0.261 C 
BRANCH  33  34
ATOM     34  O   UNL A   1      35.560  31.568  31.185  1.00  0.00    -0.460 OA
BRANCH  34  35
ATOM     35  C   UNL A   1      36.624  31.310  31.976  1.00  0.00     0.338 C 
ATOM     36  O   UNL A   1      36.687  31.458  33.193  1.00  0.00    -0.246 OA
BRANCH  35  37
ATOM     37  C   UNL A   1      37.688  30.641  31.210  1.00  0.00     0.060 A 
ATOM     38  C   UNL A   1      38.602  29.870  31.939  1.00  0.00     0.016 A 
ATOM     39  C   UNL A   1      37.847  30.815  29.832  1.00  0.00     0.016 A 
ATOM     40  C   UNL A   1      39.721  29.335  31.312  1.00  0.00     0.010 A 
ATOM     41  C   UNL A   1      38.977  30.279  29.203  1.00  0.00     0.010 A 
ATOM     42  C   UNL A   1      39.942  29.580  29.951  1.00  0.00    -0.014 A 
BRANCH  42  43
ATOM     43  C   UNL A   1      41.267  29.253  29.372  1.00  0.00     0.031 A 
ATOM     44  C   UNL A   1      42.316  30.332  29.304  1.00  0.00     0.074 A 
ATOM     45  C   UNL A   1      41.555  27.999  28.978  1.00  0.00     0.049 A 
ATOM     46  N   UNL A   1      43.540  30.268  28.850  1.00  0.00    -0.248 NA
ATOM     47  C   UNL A   1      41.934  31.660  29.818  1.00  0.00     0.031 C 
ATOM     48  C   UNL A   1      40.639  26.860  29.042  1.00  0.00     0.029 A 
ATOM     49  N   UNL A   1      42.706  27.475  28.447  1.00  0.00    -0.354 N 
ATOM     50  C   UNL A   1      44.071  31.542  29.012  1.00  0.00     0.074 A 
ATOM     51  C   UNL A   1      43.029  32.367  29.583  1.00  0.00     0.031 C 
ATOM     52  C   UNL A   1      41.263  25.771  28.561  1.00  0.00     0.029 A 
ATOM     53  C   UNL A   1      42.609  26.142  28.127  1.00  0.00     0.049 A 
ATOM     54  H   UNL A   1      43.525  28.004  28.307  1.00  0.00     0.167 HD
ATOM     55  C   UNL A   1      45.315  31.985  28.714  1.00  0.00     0.031 A 
ATOM     56  C   UNL A   1      43.497  25.320  27.532  1.00  0.00     0.031 A 
ATOM     57  C   UNL A   1      46.350  31.160  28.149  1.00  0.00     0.049 A 
ATOM     58  C   UNL A   1      44.855  25.853  27.156  1.00  0.00     0.074 A 
ATOM     59  C   UNL A   1      47.651  31.511  27.834  1.00  0.00     0.029 A 
ATOM     60  N   UNL A   1      46.201  29.824  27.810  1.00  0.00    -0.354 N 
ATOM     61  N   UNL A   1      45.349  27.055  27.341  1.00  0.00    -0.248 NA
ATOM     62  C   UNL A   1      45.779  24.918  26.500  1.00  0.00     0.031 C 
ATOM     63  C   UNL A   1      48.271  30.401  27.251  1.00  0.00     0.029 A 
ATOM     64  C   UNL A   1      47.377  29.344  27.261  1.00  0.00     0.049 A 
ATOM     65  H   UNL A   1      45.379  29.296  27.940  1.00  0.00     0.167 HD
ATOM     66  C   UNL A   1      46.651  27.009  26.851  1.00  0.00     0.074 A 
ATOM     67  C   UNL A   1      46.871  25.658  26.375  1.00  0.00     0.031 C 
ATOM     68  C   UNL A   1      47.580  27.995  26.799  1.00  0.00     0.031 A 
BRANCH  55  69
ATOM     69  C   UNL A   1      45.625  33.437  28.963  1.00  0.00    -0.014 A 
ATOM     70  C   UNL A   1      46.182  33.868  30.180  1.00  0.00     0.010 A 
ATOM     71  C   UNL A   1      45.416  34.374  27.934  1.00  0.00     0.010 A 
ATOM     72  C   UNL A   1      46.507  35.215  30.369  1.00  0.00     0.020 A 
ATOM     73  C   UNL A   1      45.763  35.716  28.111  1.00  0.00     0.020 A 
ATOM     74  C   UNL A   1      46.297  36.130  29.333  1.00  0.00     0.054 A 
BRANCH  74  75
ATOM     75  S   UNL A   1      46.775  37.862  29.588  1.00  0.00     0.124 S 
ATOM     76  O   UNL A   1      47.935  37.728  30.465  1.00  0.00    -0.237 OA
ATOM     77  O   UNL A   1      47.063  38.317  28.231  1.00  0.00    -0.237 OA
ATOM     78  O   UNL A   1      45.595  38.461  30.206  1.00  0.00    -0.744 OA
ENDBRANCH  74  75
ENDBRANCH  55  69
BRANCH  56  79
ATOM     79  C   UNL A   1      43.119  23.914  27.220  1.00  0.00    -0.014 A 
ATOM     80  C   UNL A   1      42.592  23.566  25.965  1.00  0.00     0.010 A 
ATOM     81  C   UNL A   1      43.265  22.914  28.200  1.00  0.00     0.010 A 
ATOM     82  C   UNL A   1      42.193  22.251  25.704  1.00  0.00     0.020 A 
ATOM     83  C   UNL A   1      42.896  21.593  27.933  1.00  0.00     0.020 A 
ATOM     84  C   UNL A   1      42.346  21.274  26.690  1.00  0.00     0.054 A 
BRANCH  84  85
ATOM     85  S   UNL A   1      41.846  19.569  26.324  1.00  0.00     0.124 S 
ATOM     86  O   UNL A   1      40.410  19.714  26.109  1.00  0.00    -0.237 OA
ATOM     87  O   UNL A   1      42.637  19.257  25.135  1.00  0.00    -0.237 OA
ATOM     88  O   UNL A   1      42.229  18.835  27.528  1.00  0.00    -0.744 OA
ENDBRANCH  84  85
ENDBRANCH  56  79
BRANCH  68  89
ATOM     89  C   UNL A   1      48.938  27.645  26.246  1.00  0.00    -0.014 A 
ATOM     90  C   UNL A   1      50.027  27.384  27.095  1.00  0.00     0.010 A 
ATOM     91  C   UNL A   1      49.105  27.517  24.855  1.00  0.00     0.010 A 
ATOM     92  C   UNL A   1      51.270  27.033  26.561  1.00  0.00     0.020 A 
ATOM     93  C   UNL A   1      50.338  27.137  24.318  1.00  0.00     0.020 A 
ATOM     94  C   UNL A   1      51.417  26.912  25.175  1.00  0.00     0.054 A 
BRANCH  94  95
ATOM     95  S   UNL A   1      53.028  26.412  24.507  1.00  0.00     0.124 S 
ATOM     96  O   UNL A   1      53.953  27.011  25.466  1.00  0.00    -0.237 OA
ATOM     97  O   UNL A   1      52.949  24.954  24.536  1.00  0.00    -0.237 OA
ATOM     98  O   UNL A   1      53.048  27.001  23.171  1.00  0.00    -0.744 OA
ENDBRANCH  94  95
ENDBRANCH  68  89
ENDBRANCH  42  43
ENDBRANCH  35  37
ENDBRANCH  34  35
ENDBRANCH  33  34
ENDBRANCH  32  33
ENDBRANCH   1  32
TORSDOF 22
ENDMDL
MODEL 3
REMARK VINA RESULT:     -10.9      1.498      7.757
REMARK SMILES CC1(C)[C@H](C(=O)N(Cc2ccccc2)Cc2ccccc2)CC[C@@]1(C)C(=O)OCCOCCOC(=O)c1ccc(-c2c3nc(c(-c4ccc(S(=O)(=O)[O-])cc4)c4ccc([nH]4)c(-c4ccc(S(=O)(=O)[O-])cc4)c4nc(c(-c5ccc(S(=O)(=O)[O-])cc5)c5ccc2[nH]5)C=C4)C=C3)cc1
REMARK SMILES IDX 31 1 30 2 29 3 28 4 26 5 27 6 24 7 1 8 2 9 3 10 4 11 22 12
REMARK SMILES IDX 23 13 25 14 5 15 6 16 7 17 8 18 9 19 10 20 14 21 11 22 13 23
REMARK SMILES IDX 12 24 15 25 16 26 17 27 21 28 18 29 20 30 19 31 32 32 33 33
REMARK SMILES IDX 34 34 35 35 36 36 37 37 38 38 96 39 39 40 95 41 40 42 41 43
REMARK SMILES IDX 42 44 89 45 43 46 94 47 88 48 90 49 44 50 93 51 87 52 86 53
REMARK SMILES IDX 45 55 75 56 56 57 74 58 57 59 60 60 73 61 91 62 58 63 59 64
REMARK SMILES IDX 72 66 92 67 61 68 46 69 47 70 55 71 48 72 54 73 49 74 50 75
REMARK SMILES IDX 51 76 52 77 53 78 76 79 77 80 85 81 78 82 84 83 79 84 80 85
REMARK SMILES IDX 81 86 82 87 83 88 62 89 63 90 71 91 64 92 70 93 65 94 66 95
REMARK SMILES IDX 67 96 68 97 69 98
REMARK H PARENT 90 54 60 65
REMARK Flexibility Score: inf
ROOT
ATOM      1  O   UNL A   1      35.603  32.958  29.392  1.00  0.00    -0.374 OA
ENDROOT
BRANCH   1   2
ATOM      2  C   UNL A   1      34.615  32.537  28.442  1.00  0.00     0.202 C 
BRANCH   2   3
ATOM      3  C   UNL A   1      34.942  31.239  27.692  1.00  0.00     0.261 C 
BRANCH   3   4
ATOM      4  O   UNL A   1      33.813  30.840  26.885  1.00  0.00    -0.463 OA
BRANCH   4   5
ATOM      5  C   UNL A   1      33.630  29.515  26.656  1.00  0.00     0.312 C 
ATOM      6  O   UNL A   1      34.463  28.659  26.928  1.00  0.00    -0.252 OA
BRANCH   5   7
ATOM      7  C   UNL A   1      32.189  29.203  26.170  1.00  0.00     0.071 C 
ATOM      8  C   UNL A   1      33.257  28.549  23.799  1.00  0.00     0.013 C 
ATOM      9  C   UNL A   1      32.063  28.427  24.784  1.00  0.00    -0.008 C 
ATOM     10  C   UNL A   1      30.888  28.966  23.969  1.00  0.00     0.013 C 
ATOM     11  C   UNL A   1      31.975  26.943  25.238  1.00  0.00     0.085 C 
ATOM     12  C   UNL A   1      31.384  26.883  26.635  1.00  0.00     0.015 C 
ATOM     13  C   UNL A   1      31.501  28.273  27.219  1.00  0.00     0.020 C 
ATOM     14  C   UNL A   1      31.394  30.531  26.232  1.00  0.00     0.024 C 
BRANCH  11  15
ATOM     15  C   UNL A   1      31.507  25.759  24.375  1.00  0.00     0.226 C 
ATOM     16  O   UNL A   1      30.283  25.726  24.168  1.00  0.00    -0.275 OA
ATOM     17  N   UNL A   1      32.336  24.842  23.737  1.00  0.00    -0.334 N 
BRANCH  17  18
ATOM     18  C   UNL A   1      33.746  25.079  23.397  1.00  0.00     0.155 C 
BRANCH  18  19
ATOM     19  C   UNL A   1      34.813  24.176  23.997  1.00  0.00    -0.029 A 
ATOM     20  C   UNL A   1      35.372  23.077  23.337  1.00  0.00     0.005 A 
ATOM     21  C   UNL A   1      35.194  24.389  25.337  1.00  0.00     0.005 A 
ATOM     22  C   UNL A   1      36.298  22.239  23.963  1.00  0.00     0.000 A 
ATOM     23  C   UNL A   1      36.095  23.532  25.978  1.00  0.00     0.000 A 
ATOM     24  C   UNL A   1      36.657  22.463  25.286  1.00  0.00     0.000 A 
ENDBRANCH  18  19
ENDBRANCH  17  18
BRANCH  17  25
ATOM     25  C   UNL A   1      31.654  23.782  22.958  1.00  0.00     0.155 C 
BRANCH  25  26
ATOM     26  C   UNL A   1      31.913  22.364  23.432  1.00  0.00    -0.029 A 
ATOM     27  C   UNL A   1      32.081  21.323  22.504  1.00  0.00     0.005 A 
ATOM     28  C   UNL A   1      31.994  22.048  24.796  1.00  0.00     0.005 A 
ATOM     29  C   UNL A   1      32.406  20.031  22.928  1.00  0.00     0.000 A 
ATOM     30  C   UNL A   1      32.311  20.757  25.221  1.00  0.00     0.000 A 
ATOM     31  C   UNL A   1      32.533  19.753  24.286  1.00  0.00     0.000 A 
ENDBRANCH  25  26
ENDBRANCH  17  25
ENDBRANCH  11  15
ENDBRANCH   5   7
ENDBRANCH   4   5
ENDBRANCH   3   4
ENDBRANCH   2   3
ENDBRANCH   1   2
BRANCH   1  32
ATOM     32  C   UNL A   1      35.434  32.457  30.715  1.00  0.00     0.202 C 
BRANCH  32  33
ATOM     33  C   UNL A   1      36.553  31.562  31.248  1.00  0.00     0.261 C 
BRANCH  33  34
ATOM     34  O   UNL A   1      37.289  30.959  30.169  1.00  0.00    -0.460 OA
BRANCH  34  35
ATOM     35  C   UNL A   1      37.411  29.617  30.268  1.00  0.00     0.338 C 
ATOM     36  O   UNL A   1      36.579  28.835  30.718  1.00  0.00    -0.246 OA
BRANCH  35  37
ATOM     37  C   UNL A   1      38.635  29.158  29.591  1.00  0.00     0.060 A 
ATOM     38  C   UNL A   1      39.546  28.426  30.362  1.00  0.00     0.016 A 
ATOM     39  C   UNL A   1      38.933  29.490  28.266  1.00  0.00     0.016 A 
ATOM     40  C   UNL A   1      40.790  28.090  29.842  1.00  0.00     0.010 A 
ATOM     41  C   UNL A   1      40.189  29.155  27.745  1.00  0.00     0.010 A 
ATOM     42  C   UNL A   1      41.138  28.497  28.548  1.00  0.00    -0.014 A 
BRANCH  42  43
ATOM     43  C   UNL A   1      42.554  28.386  28.120  1.00  0.00     0.031 A 
ATOM     44  C   UNL A   1      43.469  29.563  28.326  1.00  0.00     0.074 A 
ATOM     45  C   UNL A   1      43.032  27.232  27.620  1.00  0.00     0.049 A 
ATOM     46  N   UNL A   1      44.739  29.684  28.040  1.00  0.00    -0.248 NA
ATOM     47  C   UNL A   1      42.875  30.765  28.941  1.00  0.00     0.031 C 
ATOM     48  C   UNL A   1      42.254  26.009  27.420  1.00  0.00     0.029 A 
ATOM     49  N   UNL A   1      44.292  26.903  27.191  1.00  0.00    -0.354 N 
ATOM     50  C   UNL A   1      45.093  30.972  28.425  1.00  0.00     0.074 A 
ATOM     51  C   UNL A   1      43.901  31.604  28.945  1.00  0.00     0.031 C 
ATOM     52  C   UNL A   1      43.056  25.063  26.901  1.00  0.00     0.029 A 
ATOM     53  C   UNL A   1      44.392  25.622  26.702  1.00  0.00     0.049 A 
ATOM     54  H   UNL A   1      45.055  27.525  27.230  1.00  0.00     0.167 HD
ATOM     55  C   UNL A   1      46.304  31.573  28.356  1.00  0.00     0.031 A 
ATOM     56  C   UNL A   1      45.436  24.981  26.139  1.00  0.00     0.031 A 
ATOM     57  C   UNL A   1      47.490  30.940  27.842  1.00  0.00     0.049 A 
ATOM     58  C   UNL A   1      46.758  25.694  26.020  1.00  0.00     0.074 A 
ATOM     59  C   UNL A   1      48.769  31.458  27.752  1.00  0.00     0.029 A 
ATOM     60  N   UNL A   1      47.540  29.654  27.327  1.00  0.00    -0.354 N 
ATOM     61  N   UNL A   1      47.082  26.902  26.414  1.00  0.00    -0.248 NA
ATOM     62  C   UNL A   1      47.858  24.952  25.388  1.00  0.00     0.031 C 
ATOM     63  C   UNL A   1      49.582  30.506  27.129  1.00  0.00     0.029 A 
ATOM     64  C   UNL A   1      48.823  29.372  26.890  1.00  0.00     0.049 A 
ATOM     65  H   UNL A   1      46.777  29.033  27.279  1.00  0.00     0.167 HD
ATOM     66  C   UNL A   1      48.431  27.054  26.104  1.00  0.00     0.074 A 
ATOM     67  C   UNL A   1      48.864  25.809  25.504  1.00  0.00     0.031 C 
ATOM     68  C   UNL A   1      49.238  28.125  26.300  1.00  0.00     0.031 A 
BRANCH  55  69
ATOM     69  C   UNL A   1      46.409  33.002  28.819  1.00  0.00    -0.014 A 
ATOM     70  C   UNL A   1      46.209  34.075  27.934  1.00  0.00     0.010 A 
ATOM     71  C   UNL A   1      46.645  33.271  30.181  1.00  0.00     0.010 A 
ATOM     72  C   UNL A   1      46.262  35.393  28.398  1.00  0.00     0.020 A 
ATOM     73  C   UNL A   1      46.674  34.586  30.652  1.00  0.00     0.020 A 
ATOM     74  C   UNL A   1      46.493  35.640  29.755  1.00  0.00     0.054 A 
BRANCH  74  75
ATOM     75  S   UNL A   1      46.507  37.358  30.338  1.00  0.00     0.124 S 
ATOM     76  O   UNL A   1      45.086  37.694  30.317  1.00  0.00    -0.237 OA
ATOM     77  O   UNL A   1      47.104  37.240  31.665  1.00  0.00    -0.237 OA
ATOM     78  O   UNL A   1      47.325  38.055  29.349  1.00  0.00    -0.744 OA
ENDBRANCH  74  75
ENDBRANCH  55  69
BRANCH  56  79
ATOM     79  C   UNL A   1      45.266  23.599  25.611  1.00  0.00    -0.014 A 
ATOM     80  C   UNL A   1      44.894  23.375  24.275  1.00  0.00     0.010 A 
ATOM     81  C   UNL A   1      45.455  22.494  26.462  1.00  0.00     0.010 A 
ATOM     82  C   UNL A   1      44.687  22.073  23.806  1.00  0.00     0.020 A 
ATOM     83  C   UNL A   1      45.279  21.191  25.990  1.00  0.00     0.020 A 
ATOM     84  C   UNL A   1      44.880  20.990  24.668  1.00  0.00     0.054 A 
BRANCH  84  85
ATOM     85  S   UNL A   1      44.631  19.308  24.035  1.00  0.00     0.124 S 
ATOM     86  O   UNL A   1      43.381  18.923  24.680  1.00  0.00    -0.237 OA
ATOM     87  O   UNL A   1      44.559  19.522  22.591  1.00  0.00    -0.237 OA
ATOM     88  O   UNL A   1      45.820  18.592  24.492  1.00  0.00    -0.744 OA
ENDBRANCH  84  85
ENDBRANCH  56  79
BRANCH  68  89
ATOM     89  C   UNL A   1      50.684  27.991  25.899  1.00  0.00    -0.014 A 
ATOM     90  C   UNL A   1      51.674  27.652  26.838  1.00  0.00     0.010 A 
ATOM     91  C   UNL A   1      51.045  28.148  24.548  1.00  0.00     0.010 A 
ATOM     92  C   UNL A   1      53.005  27.505  26.438  1.00  0.00     0.020 A 
ATOM     93  C   UNL A   1      52.368  27.973  24.139  1.00  0.00     0.020 A 
ATOM     94  C   UNL A   1      53.343  27.666  25.091  1.00  0.00     0.054 A 
BRANCH  94  95
ATOM     95  S   UNL A   1      55.070  27.425  24.588  1.00  0.00     0.124 S 
ATOM     96  O   UNL A   1      55.497  26.347  25.477  1.00  0.00    -0.237 OA
ATOM     97  O   UNL A   1      54.948  27.067  23.178  1.00  0.00    -0.237 OA
ATOM     98  O   UNL A   1      55.690  28.724  24.843  1.00  0.00    -0.744 OA
ENDBRANCH  94  95
ENDBRANCH  68  89
ENDBRANCH  42  43
ENDBRANCH  35  37
ENDBRANCH  34  35
ENDBRANCH  33  34
ENDBRANCH  32  33
ENDBRANCH   1  32
TORSDOF 22
ENDMDL
