MODEL 1
REMARK VINA RESULT:     -10.7      0.000      0.000
REMARK SMILES O=C(OCCOCCOC(=O)c1[nH]c2ccc(Cl)cc2c1-c1ccccc1)c1ccc(-c2c3nc(c(-c4ccc(S(=O)(=O)[O-])cc4)c4ccc([nH]4)c(-c4ccc(S(=O)(=O)[O-])cc4)c4nc(c(-c5ccc(S(=O)(=O)[O-])cc5)c5ccc2[nH]5)C=C4)C=C3)cc1
REMARK SMILES IDX 5 1 4 2 3 3 2 4 1 5 28 6 29 7 87 8 30 9 86 10 31 11 32 12
REMARK SMILES IDX 33 13 80 14 34 15 85 16 79 17 81 18 35 19 84 20 78 21 77 22
REMARK SMILES IDX 36 24 66 25 47 26 65 27 48 28 51 29 64 30 82 31 49 32 50 33
REMARK SMILES IDX 63 35 83 36 52 37 37 38 38 39 46 40 39 41 45 42 40 43 41 44
REMARK SMILES IDX 42 45 43 46 44 47 67 48 68 49 76 50 69 51 75 52 70 53 71 54
REMARK SMILES IDX 72 55 73 56 74 57 53 58 54 59 62 60 55 61 61 62 56 63 57 64
REMARK SMILES IDX 58 65 59 66 60 67 6 68 7 69 8 70 9 71 10 72 11 73 12 74
REMARK SMILES IDX 13 75 21 76 14 77 20 79 15 80 19 81 16 82 17 83 18 84 22 85
REMARK SMILES IDX 23 86 27 87 24 88 26 89 25 90
REMARK H PARENT 81 23 51 34 13 78
REMARK Flexibility Score: inf
ROOT
ATOM      1  C   UNL A   1      33.767  28.876  25.350  1.00  0.00     0.202 C 
ENDROOT
BRANCH   1   2
ATOM      2  C   UNL A   1      32.732  29.470  26.304  1.00  0.00     0.261 C 
BRANCH   2   3
ATOM      3  O   UNL A   1      33.357  29.797  27.557  1.00  0.00    -0.460 OA
BRANCH   3   4
ATOM      4  C   UNL A   1      34.415  30.600  27.810  1.00  0.00     0.338 C 
ATOM      5  O   UNL A   1      34.246  31.816  27.731  1.00  0.00    -0.246 OA
BRANCH   4   6
ATOM      6  C   UNL A   1      35.782  30.113  28.183  1.00  0.00     0.060 A 
ATOM      7  C   UNL A   1      36.139  29.530  29.401  1.00  0.00     0.016 A 
ATOM      8  C   UNL A   1      36.763  30.170  27.175  1.00  0.00     0.016 A 
ATOM      9  C   UNL A   1      37.432  29.072  29.639  1.00  0.00     0.010 A 
ATOM     10  C   UNL A   1      38.057  29.686  27.392  1.00  0.00     0.010 A 
ATOM     11  C   UNL A   1      38.400  29.156  28.639  1.00  0.00    -0.014 A 
BRANCH  11  12
ATOM     12  C   UNL A   1      39.785  28.783  28.972  1.00  0.00     0.031 A 
ATOM     13  C   UNL A   1      40.594  29.723  29.815  1.00  0.00     0.074 A 
ATOM     14  C   UNL A   1      40.256  27.573  28.624  1.00  0.00     0.049 A 
ATOM     15  N   UNL A   1      41.807  29.584  30.274  1.00  0.00    -0.248 NA
ATOM     16  C   UNL A   1      39.934  30.979  30.211  1.00  0.00     0.031 C 
ATOM     17  C   UNL A   1      39.501  26.554  27.891  1.00  0.00     0.029 A 
ATOM     18  N   UNL A   1      41.466  26.980  28.872  1.00  0.00    -0.354 N 
ATOM     19  C   UNL A   1      42.065  30.740  31.001  1.00  0.00     0.074 A 
ATOM     20  C   UNL A   1      40.884  31.572  30.917  1.00  0.00     0.031 C 
ATOM     21  C   UNL A   1      40.256  25.448  27.779  1.00  0.00     0.029 A 
ATOM     22  C   UNL A   1      41.559  25.696  28.390  1.00  0.00     0.049 A 
ATOM     23  H   UNL A   1      42.199  27.431  29.350  1.00  0.00     0.167 HD
ATOM     24  C   UNL A   1      43.191  31.081  31.669  1.00  0.00     0.031 A 
ATOM     25  C   UNL A   1      42.586  24.828  28.435  1.00  0.00     0.031 A 
ATOM     26  C   UNL A   1      44.368  30.260  31.706  1.00  0.00     0.049 A 
ATOM     27  C   UNL A   1      43.859  25.262  29.111  1.00  0.00     0.074 A 
ATOM     28  C   UNL A   1      45.597  30.531  32.277  1.00  0.00     0.029 A 
ATOM     29  N   UNL A   1      44.457  28.996  31.138  1.00  0.00    -0.354 N 
ATOM     30  N   UNL A   1      44.110  26.383  29.748  1.00  0.00    -0.248 NA
ATOM     31  C   UNL A   1      44.988  24.325  29.066  1.00  0.00     0.031 C 
ATOM     32  C   UNL A   1      46.442  29.443  32.019  1.00  0.00     0.029 A 
ATOM     33  C   UNL A   1      45.723  28.478  31.329  1.00  0.00     0.049 A 
ATOM     34  H   UNL A   1      43.723  28.536  30.667  1.00  0.00     0.167 HD
ATOM     35  C   UNL A   1      45.423  26.282  30.188  1.00  0.00     0.074 A 
ATOM     36  C   UNL A   1      45.908  24.984  29.760  1.00  0.00     0.031 C 
ATOM     37  C   UNL A   1      46.166  27.181  30.882  1.00  0.00     0.031 A 
BRANCH  24  38
ATOM     38  C   UNL A   1      43.198  32.435  32.321  1.00  0.00    -0.014 A 
ATOM     39  C   UNL A   1      43.645  33.577  31.632  1.00  0.00     0.010 A 
ATOM     40  C   UNL A   1      42.832  32.548  33.674  1.00  0.00     0.010 A 
ATOM     41  C   UNL A   1      43.788  34.795  32.303  1.00  0.00     0.020 A 
ATOM     42  C   UNL A   1      42.955  33.770  34.343  1.00  0.00     0.020 A 
ATOM     43  C   UNL A   1      43.462  34.878  33.660  1.00  0.00     0.054 A 
BRANCH  43  44
ATOM     44  S   UNL A   1      43.717  36.449  34.531  1.00  0.00     0.124 S 
ATOM     45  O   UNL A   1      44.067  35.991  35.875  1.00  0.00    -0.237 OA
ATOM     46  O   UNL A   1      44.805  37.065  33.777  1.00  0.00    -0.237 OA
ATOM     47  O   UNL A   1      42.425  37.119  34.419  1.00  0.00    -0.744 OA
ENDBRANCH  43  44
ENDBRANCH  24  38
BRANCH  25  48
ATOM     48  C   UNL A   1      42.454  23.483  27.810  1.00  0.00    -0.014 A 
ATOM     49  C   UNL A   1      42.966  23.234  26.525  1.00  0.00     0.010 A 
ATOM     50  C   UNL A   1      41.842  22.430  28.515  1.00  0.00     0.010 A 
ATOM     51  C   UNL A   1      42.867  21.958  25.957  1.00  0.00     0.020 A 
ATOM     52  C   UNL A   1      41.761  21.149  27.960  1.00  0.00     0.020 A 
ATOM     53  C   UNL A   1      42.269  20.923  26.681  1.00  0.00     0.054 A 
BRANCH  53  54
ATOM     54  S   UNL A   1      42.215  19.258  25.958  1.00  0.00     0.124 S 
ATOM     55  O   UNL A   1      42.767  18.441  27.034  1.00  0.00    -0.237 OA
ATOM     56  O   UNL A   1      40.790  19.074  25.690  1.00  0.00    -0.237 OA
ATOM     57  O   UNL A   1      43.052  19.377  24.766  1.00  0.00    -0.744 OA
ENDBRANCH  53  54
ENDBRANCH  25  48
BRANCH  37  58
ATOM     58  C   UNL A   1      47.570  26.778  31.230  1.00  0.00    -0.014 A 
ATOM     59  C   UNL A   1      47.847  26.068  32.411  1.00  0.00     0.010 A 
ATOM     60  C   UNL A   1      48.613  27.058  30.329  1.00  0.00     0.010 A 
ATOM     61  C   UNL A   1      49.152  25.664  32.697  1.00  0.00     0.020 A 
ATOM     62  C   UNL A   1      49.916  26.639  30.603  1.00  0.00     0.020 A 
ATOM     63  C   UNL A   1      50.179  25.953  31.792  1.00  0.00     0.054 A 
BRANCH  63  64
ATOM     64  S   UNL A   1      51.857  25.371  32.155  1.00  0.00     0.124 S 
ATOM     65  O   UNL A   1      51.664  23.926  32.238  1.00  0.00    -0.237 OA
ATOM     66  O   UNL A   1      52.620  25.837  30.999  1.00  0.00    -0.237 OA
ATOM     67  O   UNL A   1      52.185  26.032  33.416  1.00  0.00    -0.744 OA
ENDBRANCH  63  64
ENDBRANCH  37  58
ENDBRANCH  11  12
ENDBRANCH   4   6
ENDBRANCH   3   4
ENDBRANCH   2   3
ENDBRANCH   1   2
BRANCH   1  68
ATOM     68  O   UNL A   1      33.717  27.452  25.287  1.00  0.00    -0.374 OA
BRANCH  68  69
ATOM     69  C   UNL A   1      32.508  26.846  25.762  1.00  0.00     0.202 C 
BRANCH  69  70
ATOM     70  C   UNL A   1      32.256  25.564  24.966  1.00  0.00     0.261 C 
BRANCH  70  71
ATOM     71  O   UNL A   1      33.357  24.677  25.197  1.00  0.00    -0.459 OA
BRANCH  71  72
ATOM     72  C   UNL A   1      33.844  24.042  24.099  1.00  0.00     0.355 C 
ATOM     73  O   UNL A   1      34.377  24.575  23.133  1.00  0.00    -0.244 OA
BRANCH  72  74
ATOM     74  C   UNL A   1      33.828  22.616  24.322  1.00  0.00     0.134 A 
ATOM     75  N   UNL A   1      32.698  21.882  24.052  1.00  0.00    -0.349 N 
ATOM     76  C   UNL A   1      34.809  21.719  24.730  1.00  0.00     0.022 A 
ATOM     77  C   UNL A   1      32.969  20.537  24.095  1.00  0.00     0.047 A 
ATOM     78  H   UNL A   1      31.813  22.267  23.856  1.00  0.00     0.167 HD
ATOM     79  C   UNL A   1      34.278  20.400  24.562  1.00  0.00     0.010 A 
ATOM     80  C   UNL A   1      32.157  19.448  23.758  1.00  0.00     0.028 A 
ATOM     81  C   UNL A   1      34.788  19.097  24.745  1.00  0.00     0.031 A 
ATOM     82  C   UNL A   1      32.694  18.169  23.925  1.00  0.00     0.022 A 
ATOM     83  C   UNL A   1      33.985  18.000  24.421  1.00  0.00     0.041 A 
ATOM     84  Cl  UNL A   1      34.606  16.406  24.632  1.00  0.00    -0.084 Cl
BRANCH  76  85
ATOM     85  C   UNL A   1      36.142  22.150  25.127  1.00  0.00    -0.015 A 
ATOM     86  C   UNL A   1      37.242  21.302  24.928  1.00  0.00     0.009 A 
ATOM     87  C   UNL A   1      36.321  23.351  25.822  1.00  0.00     0.009 A 
ATOM     88  C   UNL A   1      38.489  21.623  25.466  1.00  0.00     0.001 A 
ATOM     89  C   UNL A   1      37.572  23.677  26.348  1.00  0.00     0.001 A 
ATOM     90  C   UNL A   1      38.651  22.807  26.183  1.00  0.00     0.000 A 
ENDBRANCH  76  85
ENDBRANCH  72  74
ENDBRANCH  71  72
ENDBRANCH  70  71
ENDBRANCH  69  70
ENDBRANCH  68  69
ENDBRANCH   1  68
TORSDOF 18
ENDMDL
MODEL 2
REMARK VINA RESULT:     -10.5      3.408      9.780
REMARK SMILES O=C(OCCOCCOC(=O)c1[nH]c2ccc(Cl)cc2c1-c1ccccc1)c1ccc(-c2c3nc(c(-c4ccc(S(=O)(=O)[O-])cc4)c4ccc([nH]4)c(-c4ccc(S(=O)(=O)[O-])cc4)c4nc(c(-c5ccc(S(=O)(=O)[O-])cc5)c5ccc2[nH]5)C=C4)C=C3)cc1
REMARK SMILES IDX 5 1 4 2 3 3 2 4 1 5 28 6 29 7 87 8 30 9 86 10 31 11 32 12
REMARK SMILES IDX 33 13 80 14 34 15 85 16 79 17 81 18 35 19 84 20 78 21 77 22
REMARK SMILES IDX 36 24 66 25 47 26 65 27 48 28 51 29 64 30 82 31 49 32 50 33
REMARK SMILES IDX 63 35 83 36 52 37 37 38 38 39 46 40 39 41 45 42 40 43 41 44
REMARK SMILES IDX 42 45 43 46 44 47 67 48 68 49 76 50 69 51 75 52 70 53 71 54
REMARK SMILES IDX 72 55 73 56 74 57 53 58 54 59 62 60 55 61 61 62 56 63 57 64
REMARK SMILES IDX 58 65 59 66 60 67 6 68 7 69 8 70 9 71 10 72 11 73 12 74
REMARK SMILES IDX 13 75 21 76 14 77 20 79 15 80 19 81 16 82 17 83 18 84 22 85
REMARK SMILES IDX 23 86 27 87 24 88 26 89 25 90
REMARK H PARENT 81 23 51 34 13 78
REMARK Flexibility Score: inf
ROOT
ATOM      1  C   UNL A   1      35.350  23.257  26.293  1.00  0.00     0.202 C 
ENDROOT
BRANCH   1   2
ATOM      2  C   UNL A   1      36.556  23.364  25.359  1.00  0.00     0.261 C 
BRANCH   2   3
ATOM      3  O   UNL A   1      37.594  22.474  25.803  1.00  0.00    -0.460 OA
BRANCH   3   4
ATOM      4  C   UNL A   1      38.859  22.751  26.193  1.00  0.00     0.338 C 
ATOM      5  O   UNL A   1      39.703  21.863  26.077  1.00  0.00    -0.246 OA
BRANCH   4   6
ATOM      6  C   UNL A   1      39.308  24.065  26.754  1.00  0.00     0.060 A 
ATOM      7  C   UNL A   1      40.022  25.048  26.065  1.00  0.00     0.016 A 
ATOM      8  C   UNL A   1      38.888  24.363  28.064  1.00  0.00     0.016 A 
ATOM      9  C   UNL A   1      40.361  26.258  26.664  1.00  0.00     0.010 A 
ATOM     10  C   UNL A   1      39.196  25.587  28.666  1.00  0.00     0.010 A 
ATOM     11  C   UNL A   1      39.958  26.530  27.970  1.00  0.00    -0.014 A 
BRANCH  11  12
ATOM     12  C   UNL A   1      40.446  27.763  28.612  1.00  0.00     0.031 A 
ATOM     13  C   UNL A   1      41.909  27.875  28.920  1.00  0.00     0.074 A 
ATOM     14  C   UNL A   1      39.610  28.799  28.800  1.00  0.00     0.049 A 
ATOM     15  N   UNL A   1      42.572  28.876  29.431  1.00  0.00    -0.248 NA
ATOM     16  C   UNL A   1      42.740  26.705  28.584  1.00  0.00     0.031 C 
ATOM     17  C   UNL A   1      38.191  28.813  28.435  1.00  0.00     0.029 A 
ATOM     18  N   UNL A   1      39.838  30.050  29.307  1.00  0.00    -0.354 N 
ATOM     19  C   UNL A   1      43.894  28.455  29.493  1.00  0.00     0.074 A 
ATOM     20  C   UNL A   1      43.940  27.106  28.973  1.00  0.00     0.031 C 
ATOM     21  C   UNL A   1      37.685  30.028  28.700  1.00  0.00     0.029 A 
ATOM     22  C   UNL A   1      38.728  30.860  29.293  1.00  0.00     0.049 A 
ATOM     23  H   UNL A   1      40.714  30.341  29.649  1.00  0.00     0.167 HD
ATOM     24  C   UNL A   1      44.972  29.131  29.955  1.00  0.00     0.031 A 
ATOM     25  C   UNL A   1      38.577  32.128  29.720  1.00  0.00     0.031 A 
ATOM     26  C   UNL A   1      44.899  30.455  30.506  1.00  0.00     0.049 A 
ATOM     27  C   UNL A   1      39.771  32.831  30.307  1.00  0.00     0.074 A 
ATOM     28  C   UNL A   1      45.903  31.212  31.080  1.00  0.00     0.029 A 
ATOM     29  N   UNL A   1      43.740  31.219  30.551  1.00  0.00    -0.354 N 
ATOM     30  N   UNL A   1      41.008  32.401  30.412  1.00  0.00    -0.248 NA
ATOM     31  C   UNL A   1      39.552  34.180  30.842  1.00  0.00     0.031 C 
ATOM     32  C   UNL A   1      45.339  32.421  31.508  1.00  0.00     0.029 A 
ATOM     33  C   UNL A   1      43.997  32.433  31.157  1.00  0.00     0.049 A 
ATOM     34  H   UNL A   1      42.863  30.936  30.202  1.00  0.00     0.167 HD
ATOM     35  C   UNL A   1      41.717  33.430  31.017  1.00  0.00     0.074 A 
ATOM     36  C   UNL A   1      40.774  34.511  31.239  1.00  0.00     0.031 C 
ATOM     37  C   UNL A   1      43.028  33.481  31.362  1.00  0.00     0.031 A 
BRANCH  24  38
ATOM     38  C   UNL A   1      46.279  28.390  29.950  1.00  0.00    -0.014 A 
ATOM     39  C   UNL A   1      47.171  28.487  28.866  1.00  0.00     0.010 A 
ATOM     40  C   UNL A   1      46.578  27.515  31.010  1.00  0.00     0.010 A 
ATOM     41  C   UNL A   1      48.306  27.673  28.812  1.00  0.00     0.020 A 
ATOM     42  C   UNL A   1      47.723  26.713  30.967  1.00  0.00     0.020 A 
ATOM     43  C   UNL A   1      48.563  26.776  29.853  1.00  0.00     0.054 A 
BRANCH  43  44
ATOM     44  S   UNL A   1      50.003  25.680  29.734  1.00  0.00     0.124 S 
ATOM     45  O   UNL A   1      49.653  24.853  28.580  1.00  0.00    -0.237 OA
ATOM     46  O   UNL A   1      51.106  26.614  29.523  1.00  0.00    -0.237 OA
ATOM     47  O   UNL A   1      50.015  24.985  31.018  1.00  0.00    -0.744 OA
ENDBRANCH  43  44
ENDBRANCH  24  38
BRANCH  25  48
ATOM     48  C   UNL A   1      37.250  32.795  29.623  1.00  0.00    -0.014 A 
ATOM     49  C   UNL A   1      36.347  32.761  30.700  1.00  0.00     0.010 A 
ATOM     50  C   UNL A   1      36.893  33.499  28.458  1.00  0.00     0.010 A 
ATOM     51  C   UNL A   1      35.114  33.418  30.613  1.00  0.00     0.020 A 
ATOM     52  C   UNL A   1      35.672  34.175  28.376  1.00  0.00     0.020 A 
ATOM     53  C   UNL A   1      34.787  34.125  29.452  1.00  0.00     0.054 A 
BRANCH  53  54
ATOM     54  S   UNL A   1      33.215  35.031  29.385  1.00  0.00     0.124 S 
ATOM     55  O   UNL A   1      32.462  34.261  28.400  1.00  0.00    -0.237 OA
ATOM     56  O   UNL A   1      32.735  34.940  30.762  1.00  0.00    -0.237 OA
ATOM     57  O   UNL A   1      33.613  36.372  28.963  1.00  0.00    -0.744 OA
ENDBRANCH  53  54
ENDBRANCH  25  48
BRANCH  37  58
ATOM     58  C   UNL A   1      43.514  34.751  31.999  1.00  0.00    -0.014 A 
ATOM     59  C   UNL A   1      43.818  35.880  31.219  1.00  0.00     0.010 A 
ATOM     60  C   UNL A   1      43.605  34.832  33.400  1.00  0.00     0.010 A 
ATOM     61  C   UNL A   1      44.227  37.066  31.831  1.00  0.00     0.020 A 
ATOM     62  C   UNL A   1      43.996  36.022  34.016  1.00  0.00     0.020 A 
ATOM     63  C   UNL A   1      44.316  37.129  33.225  1.00  0.00     0.054 A 
BRANCH  63  64
ATOM     64  S   UNL A   1      44.795  38.695  34.005  1.00  0.00     0.124 S 
ATOM     65  O   UNL A   1      43.547  39.112  34.637  1.00  0.00    -0.237 OA
ATOM     66  O   UNL A   1      45.859  38.290  34.920  1.00  0.00    -0.237 OA
ATOM     67  O   UNL A   1      45.231  39.518  32.879  1.00  0.00    -0.744 OA
ENDBRANCH  63  64
ENDBRANCH  37  58
ENDBRANCH  11  12
ENDBRANCH   4   6
ENDBRANCH   3   4
ENDBRANCH   2   3
ENDBRANCH   1   2
BRANCH   1  68
ATOM     68  O   UNL A   1      34.110  23.513  25.636  1.00  0.00    -0.374 OA
BRANCH  68  69
ATOM     69  C   UNL A   1      33.395  24.674  26.079  1.00  0.00     0.202 C 
BRANCH  69  70
ATOM     70  C   UNL A   1      31.965  24.263  26.437  1.00  0.00     0.261 C 
BRANCH  70  71
ATOM     71  O   UNL A   1      31.080  25.284  25.961  1.00  0.00    -0.459 OA
BRANCH  71  72
ATOM     72  C   UNL A   1      30.813  25.260  24.629  1.00  0.00     0.355 C 
ATOM     73  O   UNL A   1      30.734  24.260  23.927  1.00  0.00    -0.244 OA
BRANCH  72  74
ATOM     74  C   UNL A   1      30.430  26.581  24.192  1.00  0.00     0.134 A 
ATOM     75  N   UNL A   1      29.343  26.755  23.367  1.00  0.00    -0.349 N 
ATOM     76  C   UNL A   1      30.919  27.848  24.493  1.00  0.00     0.022 A 
ATOM     77  C   UNL A   1      29.008  28.082  23.276  1.00  0.00     0.047 A 
ATOM     78  H   UNL A   1      28.870  26.026  22.904  1.00  0.00     0.167 HD
ATOM     79  C   UNL A   1      30.006  28.801  23.936  1.00  0.00     0.010 A 
ATOM     80  C   UNL A   1      27.906  28.687  22.661  1.00  0.00     0.028 A 
ATOM     81  C   UNL A   1      29.920  30.210  23.945  1.00  0.00     0.031 A 
ATOM     82  C   UNL A   1      27.830  30.082  22.705  1.00  0.00     0.022 A 
ATOM     83  C   UNL A   1      28.829  30.828  23.327  1.00  0.00     0.041 A 
ATOM     84  Cl  UNL A   1      28.712  32.547  23.343  1.00  0.00    -0.084 Cl
BRANCH  76  85
ATOM     85  C   UNL A   1      32.094  28.051  25.329  1.00  0.00    -0.015 A 
ATOM     86  C   UNL A   1      31.941  28.400  26.680  1.00  0.00     0.009 A 
ATOM     87  C   UNL A   1      33.375  28.026  24.768  1.00  0.00     0.009 A 
ATOM     88  C   UNL A   1      33.048  28.775  27.442  1.00  0.00     0.001 A 
ATOM     89  C   UNL A   1      34.483  28.388  25.537  1.00  0.00     0.001 A 
ATOM     90  C   UNL A   1      34.318  28.776  26.867  1.00  0.00     0.000 A 
ENDBRANCH  76  85
ENDBRANCH  72  74
ENDBRANCH  71  72
ENDBRANCH  70  71
ENDBRANCH  69  70
ENDBRANCH  68  69
ENDBRANCH   1  68
TORSDOF 18
ENDMDL
MODEL 3
REMARK VINA RESULT:     -10.5      0.705      8.219
REMARK SMILES O=C(OCCOCCOC(=O)c1[nH]c2ccc(Cl)cc2c1-c1ccccc1)c1ccc(-c2c3nc(c(-c4ccc(S(=O)(=O)[O-])cc4)c4ccc([nH]4)c(-c4ccc(S(=O)(=O)[O-])cc4)c4nc(c(-c5ccc(S(=O)(=O)[O-])cc5)c5ccc2[nH]5)C=C4)C=C3)cc1
REMARK SMILES IDX 5 1 4 2 3 3 2 4 1 5 28 6 29 7 87 8 30 9 86 10 31 11 32 12
REMARK SMILES IDX 33 13 80 14 34 15 85 16 79 17 81 18 35 19 84 20 78 21 77 22
REMARK SMILES IDX 36 24 66 25 47 26 65 27 48 28 51 29 64 30 82 31 49 32 50 33
REMARK SMILES IDX 63 35 83 36 52 37 37 38 38 39 46 40 39 41 45 42 40 43 41 44
REMARK SMILES IDX 42 45 43 46 44 47 67 48 68 49 76 50 69 51 75 52 70 53 71 54
REMARK SMILES IDX 72 55 73 56 74 57 53 58 54 59 62 60 55 61 61 62 56 63 57 64
REMARK SMILES IDX 58 65 59 66 60 67 6 68 7 69 8 70 9 71 10 72 11 73 12 74
REMARK SMILES IDX 13 75 21 76 14 77 20 79 15 80 19 81 16 82 17 83 18 84 22 85
REMARK SMILES IDX 23 86 27 87 24 88 26 89 25 90
REMARK H PARENT 81 23 51 34 13 78
REMARK Flexibility Score: inf
ROOT
ATOM      1  C   UNL A   1      33.849  28.701  25.331  1.00  0.00     0.202 C 
ENDROOT
BRANCH   1   2
ATOM      2  C   UNL A   1      32.791  29.234  26.296  1.00  0.00     0.261 C 
BRANCH   2   3
ATOM      3  O   UNL A   1      33.390  29.494  27.578  1.00  0.00    -0.460 OA
BRANCH   3   4
ATOM      4  C   UNL A   1      34.355  30.377  27.917  1.00  0.00     0.338 C 
ATOM      5  O   UNL A   1      34.071  31.574  27.897  1.00  0.00    -0.246 OA
BRANCH   4   6
ATOM      6  C   UNL A   1      35.749  30.002  28.317  1.00  0.00     0.060 A 
ATOM      7  C   UNL A   1      36.139  29.522  29.569  1.00  0.00     0.016 A 
ATOM      8  C   UNL A   1      36.727  30.056  27.306  1.00  0.00     0.016 A 
ATOM      9  C   UNL A   1      37.457  29.162  29.834  1.00  0.00     0.010 A 
ATOM     10  C   UNL A   1      38.048  29.669  27.552  1.00  0.00     0.010 A 
ATOM     11  C   UNL A   1      38.420  29.242  28.829  1.00  0.00    -0.014 A 
BRANCH  11  12
ATOM     12  C   UNL A   1      39.826  28.979  29.183  1.00  0.00     0.031 A 
ATOM     13  C   UNL A   1      40.418  27.652  28.812  1.00  0.00     0.074 A 
ATOM     14  C   UNL A   1      40.578  29.958  29.715  1.00  0.00     0.049 A 
ATOM     15  N   UNL A   1      41.638  27.219  28.974  1.00  0.00    -0.248 NA
ATOM     16  C   UNL A   1      39.515  26.695  28.151  1.00  0.00     0.031 C 
ATOM     17  C   UNL A   1      40.109  31.313  30.013  1.00  0.00     0.029 A 
ATOM     18  N   UNL A   1      41.903  29.977  30.062  1.00  0.00    -0.354 N 
ATOM     19  C   UNL A   1      41.649  25.933  28.448  1.00  0.00     0.074 A 
ATOM     20  C   UNL A   1      40.313  25.654  27.968  1.00  0.00     0.031 C 
ATOM     21  C   UNL A   1      41.142  32.042  30.468  1.00  0.00     0.029 A 
ATOM     22  C   UNL A   1      42.330  31.195  30.535  1.00  0.00     0.049 A 
ATOM     23  H   UNL A   1      42.493  29.194  29.980  1.00  0.00     0.167 HD
ATOM     24  C   UNL A   1      42.680  25.059  28.383  1.00  0.00     0.031 A 
ATOM     25  C   UNL A   1      43.544  31.574  30.977  1.00  0.00     0.031 A 
ATOM     26  C   UNL A   1      43.989  25.339  28.901  1.00  0.00     0.049 A 
ATOM     27  C   UNL A   1      44.654  30.558  30.973  1.00  0.00     0.074 A 
ATOM     28  C   UNL A   1      45.091  24.508  28.970  1.00  0.00     0.029 A 
ATOM     29  N   UNL A   1      44.367  26.558  29.449  1.00  0.00    -0.354 N 
ATOM     30  N   UNL A   1      44.637  29.324  30.524  1.00  0.00    -0.248 NA
ATOM     31  C   UNL A   1      45.940  30.977  31.543  1.00  0.00     0.031 C 
ATOM     32  C   UNL A   1      46.126  25.215  29.596  1.00  0.00     0.029 A 
ATOM     33  C   UNL A   1      45.681  26.500  29.873  1.00  0.00     0.049 A 
ATOM     34  H   UNL A   1      43.784  27.348  29.525  1.00  0.00     0.167 HD
ATOM     35  C   UNL A   1      45.912  28.822  30.748  1.00  0.00     0.074 A 
ATOM     36  C   UNL A   1      46.680  29.891  31.357  1.00  0.00     0.031 C 
ATOM     37  C   UNL A   1      46.407  27.588  30.479  1.00  0.00     0.031 A 
BRANCH  24  38
ATOM     38  C   UNL A   1      42.374  23.705  27.805  1.00  0.00    -0.014 A 
ATOM     39  C   UNL A   1      42.054  22.613  28.631  1.00  0.00     0.010 A 
ATOM     40  C   UNL A   1      42.494  23.507  26.418  1.00  0.00     0.010 A 
ATOM     41  C   UNL A   1      41.924  21.332  28.087  1.00  0.00     0.020 A 
ATOM     42  C   UNL A   1      42.345  22.229  25.868  1.00  0.00     0.020 A 
ATOM     43  C   UNL A   1      42.092  21.145  26.712  1.00  0.00     0.054 A 
BRANCH  43  44
ATOM     44  S   UNL A   1      41.987  19.466  26.033  1.00  0.00     0.124 S 
ATOM     45  O   UNL A   1      42.880  19.555  24.879  1.00  0.00    -0.237 OA
ATOM     46  O   UNL A   1      42.469  18.639  27.136  1.00  0.00    -0.237 OA
ATOM     47  O   UNL A   1      40.570  19.312  25.713  1.00  0.00    -0.744 OA
ENDBRANCH  43  44
ENDBRANCH  24  38
BRANCH  25  48
ATOM     48  C   UNL A   1      43.758  32.961  31.473  1.00  0.00    -0.014 A 
ATOM     49  C   UNL A   1      43.401  33.320  32.784  1.00  0.00     0.010 A 
ATOM     50  C   UNL A   1      44.354  33.927  30.640  1.00  0.00     0.010 A 
ATOM     51  C   UNL A   1      43.634  34.619  33.253  1.00  0.00     0.020 A 
ATOM     52  C   UNL A   1      44.610  35.218  31.112  1.00  0.00     0.020 A 
ATOM     53  C   UNL A   1      44.242  35.558  32.415  1.00  0.00     0.054 A 
BRANCH  53  54
ATOM     54  S   UNL A   1      44.604  37.215  33.063  1.00  0.00     0.124 S 
ATOM     55  O   UNL A   1      43.652  38.043  32.330  1.00  0.00    -0.237 OA
ATOM     56  O   UNL A   1      44.342  37.062  34.492  1.00  0.00    -0.237 OA
ATOM     57  O   UNL A   1      46.009  37.416  32.716  1.00  0.00    -0.744 OA
ENDBRANCH  53  54
ENDBRANCH  25  48
BRANCH  37  58
ATOM     58  C   UNL A   1      47.847  27.341  30.829  1.00  0.00    -0.014 A 
ATOM     59  C   UNL A   1      48.873  27.645  29.918  1.00  0.00     0.010 A 
ATOM     60  C   UNL A   1      48.175  26.862  32.109  1.00  0.00     0.010 A 
ATOM     61  C   UNL A   1      50.209  27.450  30.276  1.00  0.00     0.020 A 
ATOM     62  C   UNL A   1      49.510  26.684  32.477  1.00  0.00     0.020 A 
ATOM     63  C   UNL A   1      50.518  26.969  31.552  1.00  0.00     0.054 A 
BRANCH  63  64
ATOM     64  S   UNL A   1      52.260  26.776  32.018  1.00  0.00     0.124 S 
ATOM     65  O   UNL A   1      52.763  28.140  31.880  1.00  0.00    -0.237 OA
ATOM     66  O   UNL A   1      52.176  26.273  33.387  1.00  0.00    -0.237 OA
ATOM     67  O   UNL A   1      52.773  25.818  31.041  1.00  0.00    -0.744 OA
ENDBRANCH  63  64
ENDBRANCH  37  58
ENDBRANCH  11  12
ENDBRANCH   4   6
ENDBRANCH   3   4
ENDBRANCH   2   3
ENDBRANCH   1   2
BRANCH   1  68
ATOM     68  O   UNL A   1      33.786  27.286  25.157  1.00  0.00    -0.374 OA
BRANCH  68  69
ATOM     69  C   UNL A   1      32.516  26.679  25.428  1.00  0.00     0.202 C 
BRANCH  69  70
ATOM     70  C   UNL A   1      32.256  25.597  24.378  1.00  0.00     0.261 C 
BRANCH  70  71
ATOM     71  O   UNL A   1      32.952  24.412  24.785  1.00  0.00    -0.459 OA
BRANCH  71  72
ATOM     72  C   UNL A   1      33.636  23.764  23.806  1.00  0.00     0.355 C 
ATOM     73  O   UNL A   1      34.248  24.288  22.883  1.00  0.00    -0.244 OA
BRANCH  72  74
ATOM     74  C   UNL A   1      33.710  22.357  24.122  1.00  0.00     0.134 A 
ATOM     75  N   UNL A   1      32.644  21.528  23.863  1.00  0.00    -0.349 N 
ATOM     76  C   UNL A   1      34.734  21.561  24.622  1.00  0.00     0.022 A 
ATOM     77  C   UNL A   1      33.006  20.212  24.004  1.00  0.00     0.047 A 
ATOM     78  H   UNL A   1      31.743  21.836  23.612  1.00  0.00     0.167 HD
ATOM     79  C   UNL A   1      34.302  20.198  24.524  1.00  0.00     0.010 A 
ATOM     80  C   UNL A   1      32.284  19.048  23.713  1.00  0.00     0.028 A 
ATOM     81  C   UNL A   1      34.894  18.950  24.810  1.00  0.00     0.031 A 
ATOM     82  C   UNL A   1      32.902  17.824  23.982  1.00  0.00     0.022 A 
ATOM     83  C   UNL A   1      34.181  17.779  24.532  1.00  0.00     0.041 A 
ATOM     84  Cl  UNL A   1      34.902  16.251  24.869  1.00  0.00    -0.084 Cl
BRANCH  76  85
ATOM     85  C   UNL A   1      36.018  22.110  25.035  1.00  0.00    -0.015 A 
ATOM     86  C   UNL A   1      37.186  21.346  24.894  1.00  0.00     0.009 A 
ATOM     87  C   UNL A   1      36.082  23.345  25.689  1.00  0.00     0.009 A 
ATOM     88  C   UNL A   1      38.388  21.784  25.450  1.00  0.00     0.001 A 
ATOM     89  C   UNL A   1      37.289  23.788  26.233  1.00  0.00     0.001 A 
ATOM     90  C   UNL A   1      38.437  23.002  26.126  1.00  0.00     0.000 A 
ENDBRANCH  76  85
ENDBRANCH  72  74
ENDBRANCH  71  72
ENDBRANCH  70  71
ENDBRANCH  69  70
ENDBRANCH  68  69
ENDBRANCH   1  68
TORSDOF 18
ENDMDL
