MODEL 1
REMARK VINA RESULT:      -9.9      0.000      0.000
REMARK SMILES O=C(Cn1nc(-c2ccco2)ccc1=O)OCCOCCOC(=O)c1ccc(-c2c3nc(c(-c4ccc(S(=O)(=O)[O-])cc4)c4ccc([nH]4)c(-c4ccc(S(=O)(=O)[O-])cc4)c4nc(c(-c5ccc(S(=O)(=O)[O-])cc5)c5ccc2[nH]5)C=C4)C=C3)cc1
REMARK SMILES IDX 20 1 19 2 18 3 17 4 16 5 2 6 1 7 3 8 4 9 5 10 14 11 6 12
REMARK SMILES IDX 13 13 15 14 12 15 7 16 8 17 11 18 9 19 10 20 21 21 22 22
REMARK SMILES IDX 23 23 24 24 25 25 26 26 84 27 27 28 83 29 28 30 29 31 30 32
REMARK SMILES IDX 77 33 31 34 82 35 76 36 78 37 32 38 81 39 75 40 74 41 33 43
REMARK SMILES IDX 63 44 44 45 62 46 45 47 48 48 61 49 79 50 46 51 47 52 60 54
REMARK SMILES IDX 80 55 49 56 34 57 35 58 43 59 36 60 42 61 37 62 38 63 39 64
REMARK SMILES IDX 40 65 41 66 64 67 65 68 73 69 66 70 72 71 67 72 68 73 69 74
REMARK SMILES IDX 70 75 71 76 50 77 51 78 59 79 52 80 58 81 53 82 54 83 55 84
REMARK SMILES IDX 56 85 57 86
REMARK H PARENT 78 42 48 53
REMARK Flexibility Score: inf
ROOT
ATOM      1  C   UNL A   1      37.030  30.240  32.759  1.00  0.00     0.202 C 
ENDROOT
BRANCH   1   2
ATOM      2  O   UNL A   1      37.830  31.366  33.134  1.00  0.00    -0.374 OA
BRANCH   2   3
ATOM      3  C   UNL A   1      38.108  31.471  34.530  1.00  0.00     0.202 C 
BRANCH   3   4
ATOM      4  C   UNL A   1      37.497  32.694  35.210  1.00  0.00     0.261 C 
BRANCH   4   5
ATOM      5  O   UNL A   1      36.265  33.121  34.609  1.00  0.00    -0.462 OA
BRANCH   5   6
ATOM      6  C   UNL A   1      36.065  34.363  34.112  1.00  0.00     0.328 C 
ATOM      7  O   UNL A   1      37.003  34.932  33.547  1.00  0.00    -0.250 OA
BRANCH   6   8
ATOM      8  C   UNL A   1      34.751  35.097  34.343  1.00  0.00     0.270 C 
BRANCH   8   9
ATOM      9  N   UNL A   1      34.092  35.656  33.169  1.00  0.00    -0.218 N 
ATOM     10  N   UNL A   1      33.999  34.792  32.105  1.00  0.00    -0.166 NA
ATOM     11  C   UNL A   1      33.830  37.018  33.078  1.00  0.00     0.267 A 
ATOM     12  C   UNL A   1      33.622  35.273  30.962  1.00  0.00     0.126 A 
ATOM     13  C   UNL A   1      33.218  37.472  31.813  1.00  0.00     0.076 A 
ATOM     14  O   UNL A   1      34.038  37.844  33.960  1.00  0.00    -0.268 OA
ATOM     15  C   UNL A   1      33.132  36.652  30.766  1.00  0.00     0.040 A 
BRANCH  12  16
ATOM     16  C   UNL A   1      33.752  34.412  29.819  1.00  0.00     0.154 A 
ATOM     17  C   UNL A   1      34.823  33.676  29.349  1.00  0.00     0.052 A 
ATOM     18  O   UNL A   1      32.736  34.383  28.903  1.00  0.00    -0.463 OA
ATOM     19  C   UNL A   1      34.459  33.209  28.066  1.00  0.00     0.043 A 
ATOM     20  C   UNL A   1      33.190  33.685  27.831  1.00  0.00     0.196 A 
ENDBRANCH  12  16
ENDBRANCH   8   9
ENDBRANCH   6   8
ENDBRANCH   5   6
ENDBRANCH   4   5
ENDBRANCH   3   4
ENDBRANCH   2   3
ENDBRANCH   1   2
BRANCH   1  21
ATOM     21  C   UNL A   1      36.296  30.430  31.429  1.00  0.00     0.261 C 
BRANCH  21  22
ATOM     22  O   UNL A   1      36.438  29.253  30.623  1.00  0.00    -0.460 OA
BRANCH  22  23
ATOM     23  C   UNL A   1      36.623  29.472  29.298  1.00  0.00     0.338 C 
ATOM     24  O   UNL A   1      35.872  30.065  28.540  1.00  0.00    -0.246 OA
BRANCH  23  25
ATOM     25  C   UNL A   1      38.004  29.067  28.942  1.00  0.00     0.060 A 
ATOM     26  C   UNL A   1      38.552  29.339  27.685  1.00  0.00     0.016 A 
ATOM     27  C   UNL A   1      38.740  28.337  29.888  1.00  0.00     0.016 A 
ATOM     28  C   UNL A   1      39.851  28.923  27.396  1.00  0.00     0.010 A 
ATOM     29  C   UNL A   1      40.043  27.932  29.603  1.00  0.00     0.010 A 
ATOM     30  C   UNL A   1      40.619  28.257  28.368  1.00  0.00    -0.014 A 
BRANCH  30  31
ATOM     31  C   UNL A   1      42.084  28.147  28.176  1.00  0.00     0.031 A 
ATOM     32  C   UNL A   1      42.738  26.932  27.604  1.00  0.00     0.074 A 
ATOM     33  C   UNL A   1      42.821  29.215  28.540  1.00  0.00     0.049 A 
ATOM     34  N   UNL A   1      43.987  26.774  27.252  1.00  0.00    -0.248 NA
ATOM     35  C   UNL A   1      41.898  25.741  27.409  1.00  0.00     0.031 C 
ATOM     36  C   UNL A   1      42.277  30.428  29.155  1.00  0.00     0.029 A 
ATOM     37  N   UNL A   1      44.162  29.470  28.426  1.00  0.00    -0.354 N 
ATOM     38  C   UNL A   1      44.084  25.480  26.759  1.00  0.00     0.074 A 
ATOM     39  C   UNL A   1      42.777  24.874  26.915  1.00  0.00     0.031 C 
ATOM     40  C   UNL A   1      43.264  31.319  29.315  1.00  0.00     0.029 A 
ATOM     41  C   UNL A   1      44.513  30.731  28.843  1.00  0.00     0.049 A 
ATOM     42  H   UNL A   1      44.809  28.815  28.079  1.00  0.00     0.167 HD
ATOM     43  C   UNL A   1      45.163  24.871  26.208  1.00  0.00     0.031 A 
ATOM     44  C   UNL A   1      45.702  31.362  28.831  1.00  0.00     0.031 A 
ATOM     45  C   UNL A   1      46.466  25.484  26.102  1.00  0.00     0.049 A 
ATOM     46  C   UNL A   1      46.884  30.662  28.231  1.00  0.00     0.074 A 
ATOM     47  C   UNL A   1      47.617  24.958  25.539  1.00  0.00     0.029 A 
ATOM     48  N   UNL A   1      46.798  26.748  26.571  1.00  0.00    -0.354 N 
ATOM     49  N   UNL A   1      46.941  29.467  27.693  1.00  0.00    -0.248 NA
ATOM     50  C   UNL A   1      48.154  31.397  28.214  1.00  0.00     0.031 C 
ATOM     51  C   UNL A   1      48.657  25.872  25.730  1.00  0.00     0.029 A 
ATOM     52  C   UNL A   1      48.141  27.005  26.340  1.00  0.00     0.049 A 
ATOM     53  H   UNL A   1      46.171  27.370  27.005  1.00  0.00     0.167 HD
ATOM     54  C   UNL A   1      48.254  29.304  27.271  1.00  0.00     0.074 A 
ATOM     55  C   UNL A   1      48.947  30.539  27.583  1.00  0.00     0.031 C 
ATOM     56  C   UNL A   1      48.832  28.226  26.685  1.00  0.00     0.031 A 
BRANCH  43  57
ATOM     57  C   UNL A   1      44.989  23.480  25.651  1.00  0.00    -0.014 A 
ATOM     58  C   UNL A   1      45.372  22.356  26.406  1.00  0.00     0.010 A 
ATOM     59  C   UNL A   1      44.563  23.291  24.322  1.00  0.00     0.010 A 
ATOM     60  C   UNL A   1      45.359  21.078  25.838  1.00  0.00     0.020 A 
ATOM     61  C   UNL A   1      44.521  22.012  23.759  1.00  0.00     0.020 A 
ATOM     62  C   UNL A   1      44.941  20.914  24.515  1.00  0.00     0.054 A 
BRANCH  62  63
ATOM     63  S   UNL A   1      44.951  19.252  23.787  1.00  0.00     0.124 S 
ATOM     64  O   UNL A   1      44.088  18.510  24.700  1.00  0.00    -0.237 OA
ATOM     65  O   UNL A   1      44.406  19.486  22.452  1.00  0.00    -0.237 OA
ATOM     66  O   UNL A   1      46.362  18.875  23.815  1.00  0.00    -0.744 OA
ENDBRANCH  62  63
ENDBRANCH  43  57
BRANCH  44  67
ATOM     67  C   UNL A   1      45.775  32.757  29.347  1.00  0.00    -0.014 A 
ATOM     68  C   UNL A   1      45.994  32.993  30.717  1.00  0.00     0.010 A 
ATOM     69  C   UNL A   1      45.492  33.843  28.501  1.00  0.00     0.010 A 
ATOM     70  C   UNL A   1      45.859  34.278  31.245  1.00  0.00     0.020 A 
ATOM     71  C   UNL A   1      45.390  35.137  29.021  1.00  0.00     0.020 A 
ATOM     72  C   UNL A   1      45.541  35.340  30.395  1.00  0.00     0.054 A 
BRANCH  72  73
ATOM     73  S   UNL A   1      45.292  36.986  31.115  1.00  0.00     0.124 S 
ATOM     74  O   UNL A   1      46.342  37.761  30.458  1.00  0.00    -0.237 OA
ATOM     75  O   UNL A   1      43.927  37.307  30.712  1.00  0.00    -0.237 OA
ATOM     76  O   UNL A   1      45.482  36.765  32.547  1.00  0.00    -0.744 OA
ENDBRANCH  72  73
ENDBRANCH  44  67
BRANCH  56  77
ATOM     77  C   UNL A   1      50.304  28.310  26.369  1.00  0.00    -0.014 A 
ATOM     78  C   UNL A   1      50.729  28.631  25.066  1.00  0.00     0.010 A 
ATOM     79  C   UNL A   1      51.268  27.984  27.340  1.00  0.00     0.010 A 
ATOM     80  C   UNL A   1      52.086  28.600  24.733  1.00  0.00     0.020 A 
ATOM     81  C   UNL A   1      52.629  27.986  27.020  1.00  0.00     0.020 A 
ATOM     82  C   UNL A   1      53.028  28.272  25.712  1.00  0.00     0.054 A 
BRANCH  82  83
ATOM     83  S   UNL A   1      54.784  28.234  25.263  1.00  0.00     0.124 S 
ATOM     84  O   UNL A   1      54.752  27.596  23.950  1.00  0.00    -0.237 OA
ATOM     85  O   UNL A   1      55.148  29.649  25.268  1.00  0.00    -0.237 OA
ATOM     86  O   UNL A   1      55.393  27.440  26.329  1.00  0.00    -0.744 OA
ENDBRANCH  82  83
ENDBRANCH  56  77
ENDBRANCH  30  31
ENDBRANCH  23  25
ENDBRANCH  22  23
ENDBRANCH  21  22
ENDBRANCH   1  21
TORSDOF 19
ENDMDL
MODEL 2
REMARK VINA RESULT:      -9.9      5.593     13.894
REMARK SMILES O=C(Cn1nc(-c2ccco2)ccc1=O)OCCOCCOC(=O)c1ccc(-c2c3nc(c(-c4ccc(S(=O)(=O)[O-])cc4)c4ccc([nH]4)c(-c4ccc(S(=O)(=O)[O-])cc4)c4nc(c(-c5ccc(S(=O)(=O)[O-])cc5)c5ccc2[nH]5)C=C4)C=C3)cc1
REMARK SMILES IDX 20 1 19 2 18 3 17 4 16 5 2 6 1 7 3 8 4 9 5 10 14 11 6 12
REMARK SMILES IDX 13 13 15 14 12 15 7 16 8 17 11 18 9 19 10 20 21 21 22 22
REMARK SMILES IDX 23 23 24 24 25 25 26 26 84 27 27 28 83 29 28 30 29 31 30 32
REMARK SMILES IDX 77 33 31 34 82 35 76 36 78 37 32 38 81 39 75 40 74 41 33 43
REMARK SMILES IDX 63 44 44 45 62 46 45 47 48 48 61 49 79 50 46 51 47 52 60 54
REMARK SMILES IDX 80 55 49 56 34 57 35 58 43 59 36 60 42 61 37 62 38 63 39 64
REMARK SMILES IDX 40 65 41 66 64 67 65 68 73 69 66 70 72 71 67 72 68 73 69 74
REMARK SMILES IDX 70 75 71 76 50 77 51 78 59 79 52 80 58 81 53 82 54 83 55 84
REMARK SMILES IDX 56 85 57 86
REMARK H PARENT 78 42 48 53
REMARK Flexibility Score: inf
ROOT
ATOM      1  C   UNL A   1      43.919  25.218  26.331  1.00  0.00     0.202 C 
ENDROOT
BRANCH   1   2
ATOM      2  O   UNL A   1      44.008  24.241  27.375  1.00  0.00    -0.374 OA
BRANCH   2   3
ATOM      3  C   UNL A   1      45.334  23.832  27.707  1.00  0.00     0.202 C 
BRANCH   3   4
ATOM      4  C   UNL A   1      46.272  23.683  26.511  1.00  0.00     0.261 C 
BRANCH   4   5
ATOM      5  O   UNL A   1      46.253  22.368  25.936  1.00  0.00    -0.462 OA
BRANCH   5   6
ATOM      6  C   UNL A   1      45.800  22.101  24.689  1.00  0.00     0.328 C 
ATOM      7  O   UNL A   1      45.653  23.039  23.900  1.00  0.00    -0.250 OA
BRANCH   6   8
ATOM      8  C   UNL A   1      45.369  20.695  24.297  1.00  0.00     0.270 C 
BRANCH   8   9
ATOM      9  N   UNL A   1      44.200  20.149  24.976  1.00  0.00    -0.218 N 
ATOM     10  N   UNL A   1      43.242  21.081  25.293  1.00  0.00    -0.166 NA
ATOM     11  C   UNL A   1      44.203  18.852  25.474  1.00  0.00     0.267 A 
ATOM     12  C   UNL A   1      42.277  20.719  26.079  1.00  0.00     0.126 A 
ATOM     13  C   UNL A   1      42.986  18.437  26.199  1.00  0.00     0.076 A 
ATOM     14  O   UNL A   1      45.110  18.038  25.334  1.00  0.00    -0.268 OA
ATOM     15  C   UNL A   1      42.052  19.330  26.526  1.00  0.00     0.040 A 
BRANCH  12  16
ATOM     16  C   UNL A   1      41.420  21.759  26.580  1.00  0.00     0.154 A 
ATOM     17  C   UNL A   1      41.424  22.444  27.780  1.00  0.00     0.052 A 
ATOM     18  O   UNL A   1      40.292  22.073  25.874  1.00  0.00    -0.463 OA
ATOM     19  C   UNL A   1      40.219  23.181  27.827  1.00  0.00     0.043 A 
ATOM     20  C   UNL A   1      39.556  22.904  26.654  1.00  0.00     0.196 A 
ENDBRANCH  12  16
ENDBRANCH   8   9
ENDBRANCH   6   8
ENDBRANCH   5   6
ENDBRANCH   4   5
ENDBRANCH   3   4
ENDBRANCH   2   3
ENDBRANCH   1   2
BRANCH   1  21
ATOM     21  C   UNL A   1      42.745  24.985  25.378  1.00  0.00     0.261 C 
BRANCH  21  22
ATOM     22  O   UNL A   1      41.659  25.855  25.724  1.00  0.00    -0.460 OA
BRANCH  22  23
ATOM     23  C   UNL A   1      41.936  27.180  25.675  1.00  0.00     0.338 C 
ATOM     24  O   UNL A   1      42.287  27.821  24.698  1.00  0.00    -0.246 OA
BRANCH  23  25
ATOM     25  C   UNL A   1      41.532  27.794  26.962  1.00  0.00     0.060 A 
ATOM     26  C   UNL A   1      40.713  27.123  27.875  1.00  0.00     0.016 A 
ATOM     27  C   UNL A   1      41.945  29.110  27.222  1.00  0.00     0.016 A 
ATOM     28  C   UNL A   1      40.350  27.751  29.066  1.00  0.00     0.010 A 
ATOM     29  C   UNL A   1      41.592  29.733  28.419  1.00  0.00     0.010 A 
ATOM     30  C   UNL A   1      40.824  29.042  29.364  1.00  0.00    -0.014 A 
BRANCH  30  31
ATOM     31  C   UNL A   1      40.730  29.538  30.757  1.00  0.00     0.031 A 
ATOM     32  C   UNL A   1      41.767  29.249  31.793  1.00  0.00     0.074 A 
ATOM     33  C   UNL A   1      39.649  30.283  31.058  1.00  0.00     0.049 A 
ATOM     34  N   UNL A   1      41.870  29.747  32.997  1.00  0.00    -0.248 NA
ATOM     35  C   UNL A   1      42.814  28.277  31.447  1.00  0.00     0.031 C 
ATOM     36  C   UNL A   1      38.556  30.577  30.127  1.00  0.00     0.029 A 
ATOM     37  N   UNL A   1      39.300  30.948  32.204  1.00  0.00    -0.354 N 
ATOM     38  C   UNL A   1      43.011  29.180  33.548  1.00  0.00     0.074 A 
ATOM     39  C   UNL A   1      43.533  28.252  32.565  1.00  0.00     0.031 C 
ATOM     40  C   UNL A   1      37.687  31.406  30.719  1.00  0.00     0.029 A 
ATOM     41  C   UNL A   1      38.142  31.678  32.079  1.00  0.00     0.049 A 
ATOM     42  H   UNL A   1      39.827  30.908  33.035  1.00  0.00     0.167 HD
ATOM     43  C   UNL A   1      43.575  29.435  34.754  1.00  0.00     0.031 A 
ATOM     44  C   UNL A   1      37.519  32.496  32.947  1.00  0.00     0.031 A 
ATOM     45  C   UNL A   1      43.012  30.336  35.732  1.00  0.00     0.049 A 
ATOM     46  C   UNL A   1      38.154  32.750  34.281  1.00  0.00     0.074 A 
ATOM     47  C   UNL A   1      43.520  30.680  36.974  1.00  0.00     0.029 A 
ATOM     48  N   UNL A   1      41.816  31.028  35.589  1.00  0.00    -0.354 N 
ATOM     49  N   UNL A   1      39.279  32.269  34.757  1.00  0.00    -0.248 NA
ATOM     50  C   UNL A   1      37.456  33.668  35.186  1.00  0.00     0.031 C 
ATOM     51  C   UNL A   1      42.601  31.521  37.607  1.00  0.00     0.029 A 
ATOM     52  C   UNL A   1      41.555  31.770  36.732  1.00  0.00     0.049 A 
ATOM     53  H   UNL A   1      41.239  30.996  34.794  1.00  0.00     0.167 HD
ATOM     54  C   UNL A   1      39.425  32.829  36.019  1.00  0.00     0.074 A 
ATOM     55  C   UNL A   1      38.292  33.712  36.216  1.00  0.00     0.031 C 
ATOM     56  C   UNL A   1      40.406  32.622  36.933  1.00  0.00     0.031 A 
BRANCH  43  57
ATOM     57  C   UNL A   1      44.882  28.759  35.087  1.00  0.00    -0.014 A 
ATOM     58  C   UNL A   1      46.102  29.318  34.665  1.00  0.00     0.010 A 
ATOM     59  C   UNL A   1      44.895  27.498  35.713  1.00  0.00     0.010 A 
ATOM     60  C   UNL A   1      47.302  28.621  34.835  1.00  0.00     0.020 A 
ATOM     61  C   UNL A   1      46.095  26.809  35.911  1.00  0.00     0.020 A 
ATOM     62  C   UNL A   1      47.291  27.366  35.449  1.00  0.00     0.054 A 
BRANCH  62  63
ATOM     63  S   UNL A   1      48.854  26.465  35.642  1.00  0.00     0.124 S 
ATOM     64  O   UNL A   1      49.838  27.463  35.235  1.00  0.00    -0.237 OA
ATOM     65  O   UNL A   1      48.851  26.123  37.063  1.00  0.00    -0.237 OA
ATOM     66  O   UNL A   1      48.707  25.327  34.738  1.00  0.00    -0.744 OA
ENDBRANCH  62  63
ENDBRANCH  43  57
BRANCH  44  67
ATOM     67  C   UNL A   1      36.264  33.170  32.518  1.00  0.00    -0.014 A 
ATOM     68  C   UNL A   1      36.294  34.132  31.490  1.00  0.00     0.010 A 
ATOM     69  C   UNL A   1      35.065  32.956  33.220  1.00  0.00     0.010 A 
ATOM     70  C   UNL A   1      35.171  34.917  31.221  1.00  0.00     0.020 A 
ATOM     71  C   UNL A   1      33.928  33.716  32.929  1.00  0.00     0.020 A 
ATOM     72  C   UNL A   1      34.000  34.714  31.955  1.00  0.00     0.054 A 
BRANCH  72  73
ATOM     73  S   UNL A   1      32.580  35.799  31.642  1.00  0.00     0.124 S 
ATOM     74  O   UNL A   1      31.540  35.170  32.453  1.00  0.00    -0.237 OA
ATOM     75  O   UNL A   1      33.055  37.093  32.120  1.00  0.00    -0.237 OA
ATOM     76  O   UNL A   1      32.388  35.703  30.196  1.00  0.00    -0.744 OA
ENDBRANCH  72  73
ENDBRANCH  44  67
BRANCH  56  77
ATOM     77  C   UNL A   1      40.288  33.336  38.256  1.00  0.00    -0.014 A 
ATOM     78  C   UNL A   1      39.396  32.864  39.236  1.00  0.00     0.010 A 
ATOM     79  C   UNL A   1      40.997  34.527  38.497  1.00  0.00     0.010 A 
ATOM     80  C   UNL A   1      39.194  33.581  40.419  1.00  0.00     0.020 A 
ATOM     81  C   UNL A   1      40.825  35.229  39.693  1.00  0.00     0.020 A 
ATOM     82  C   UNL A   1      39.907  34.763  40.637  1.00  0.00     0.054 A 
BRANCH  82  83
ATOM     83  S   UNL A   1      39.632  35.682  42.176  1.00  0.00     0.124 S 
ATOM     84  O   UNL A   1      39.028  36.920  41.691  1.00  0.00    -0.237 OA
ATOM     85  O   UNL A   1      38.743  34.797  42.925  1.00  0.00    -0.237 OA
ATOM     86  O   UNL A   1      40.975  35.820  42.737  1.00  0.00    -0.744 OA
ENDBRANCH  82  83
ENDBRANCH  56  77
ENDBRANCH  30  31
ENDBRANCH  23  25
ENDBRANCH  22  23
ENDBRANCH  21  22
ENDBRANCH   1  21
TORSDOF 19
ENDMDL
MODEL 3
REMARK VINA RESULT:      -9.9      6.624     13.474
REMARK SMILES O=C(Cn1nc(-c2ccco2)ccc1=O)OCCOCCOC(=O)c1ccc(-c2c3nc(c(-c4ccc(S(=O)(=O)[O-])cc4)c4ccc([nH]4)c(-c4ccc(S(=O)(=O)[O-])cc4)c4nc(c(-c5ccc(S(=O)(=O)[O-])cc5)c5ccc2[nH]5)C=C4)C=C3)cc1
REMARK SMILES IDX 20 1 19 2 18 3 17 4 16 5 2 6 1 7 3 8 4 9 5 10 14 11 6 12
REMARK SMILES IDX 13 13 15 14 12 15 7 16 8 17 11 18 9 19 10 20 21 21 22 22
REMARK SMILES IDX 23 23 24 24 25 25 26 26 84 27 27 28 83 29 28 30 29 31 30 32
REMARK SMILES IDX 77 33 31 34 82 35 76 36 78 37 32 38 81 39 75 40 74 41 33 43
REMARK SMILES IDX 63 44 44 45 62 46 45 47 48 48 61 49 79 50 46 51 47 52 60 54
REMARK SMILES IDX 80 55 49 56 34 57 35 58 43 59 36 60 42 61 37 62 38 63 39 64
REMARK SMILES IDX 40 65 41 66 64 67 65 68 73 69 66 70 72 71 67 72 68 73 69 74
REMARK SMILES IDX 70 75 71 76 50 77 51 78 59 79 52 80 58 81 53 82 54 83 55 84
REMARK SMILES IDX 56 85 57 86
REMARK H PARENT 78 42 48 53
REMARK Flexibility Score: inf
ROOT
ATOM      1  C   UNL A   1      43.026  23.264  26.454  1.00  0.00     0.202 C 
ENDROOT
BRANCH   1   2
ATOM      2  O   UNL A   1      41.923  22.400  26.154  1.00  0.00    -0.374 OA
BRANCH   2   3
ATOM      3  C   UNL A   1      40.967  22.257  27.204  1.00  0.00     0.202 C 
BRANCH   3   4
ATOM      4  C   UNL A   1      39.608  22.894  26.918  1.00  0.00     0.261 C 
BRANCH   4   5
ATOM      5  O   UNL A   1      38.924  22.296  25.807  1.00  0.00    -0.462 OA
BRANCH   5   6
ATOM      6  C   UNL A   1      37.636  22.560  25.489  1.00  0.00     0.328 C 
ATOM      7  O   UNL A   1      36.976  23.278  26.245  1.00  0.00    -0.250 OA
BRANCH   6   8
ATOM      8  C   UNL A   1      36.972  21.895  24.292  1.00  0.00     0.270 C 
BRANCH   8   9
ATOM      9  N   UNL A   1      35.554  21.581  24.413  1.00  0.00    -0.218 N 
ATOM     10  N   UNL A   1      35.289  20.280  24.769  1.00  0.00    -0.166 NA
ATOM     11  C   UNL A   1      34.585  22.463  23.952  1.00  0.00     0.267 A 
ATOM     12  C   UNL A   1      34.063  19.866  24.692  1.00  0.00     0.126 A 
ATOM     13  C   UNL A   1      33.186  22.004  24.072  1.00  0.00     0.076 A 
ATOM     14  O   UNL A   1      34.799  23.579  23.490  1.00  0.00    -0.268 OA
ATOM     15  C   UNL A   1      32.912  20.742  24.402  1.00  0.00     0.040 A 
BRANCH  12  16
ATOM     16  C   UNL A   1      33.843  18.454  24.844  1.00  0.00     0.154 A 
ATOM     17  C   UNL A   1      34.339  17.373  24.140  1.00  0.00     0.052 A 
ATOM     18  O   UNL A   1      32.872  18.033  25.710  1.00  0.00    -0.463 OA
ATOM     19  C   UNL A   1      33.605  16.243  24.567  1.00  0.00     0.043 A 
ATOM     20  C   UNL A   1      32.711  16.701  25.506  1.00  0.00     0.196 A 
ENDBRANCH  12  16
ENDBRANCH   8   9
ENDBRANCH   6   8
ENDBRANCH   5   6
ENDBRANCH   4   5
ENDBRANCH   3   4
ENDBRANCH   2   3
ENDBRANCH   1   2
BRANCH   1  21
ATOM     21  C   UNL A   1      43.484  24.102  25.258  1.00  0.00     0.261 C 
BRANCH  21  22
ATOM     22  O   UNL A   1      43.371  25.497  25.571  1.00  0.00    -0.460 OA
BRANCH  22  23
ATOM     23  C   UNL A   1      42.107  25.953  25.752  1.00  0.00     0.338 C 
ATOM     24  O   UNL A   1      41.145  25.754  25.029  1.00  0.00    -0.246 OA
BRANCH  23  25
ATOM     25  C   UNL A   1      42.015  26.562  27.100  1.00  0.00     0.060 A 
ATOM     26  C   UNL A   1      42.893  27.566  27.519  1.00  0.00     0.016 A 
ATOM     27  C   UNL A   1      41.050  26.057  27.985  1.00  0.00     0.016 A 
ATOM     28  C   UNL A   1      42.772  28.096  28.803  1.00  0.00     0.010 A 
ATOM     29  C   UNL A   1      40.921  26.595  29.265  1.00  0.00     0.010 A 
ATOM     30  C   UNL A   1      41.757  27.644  29.667  1.00  0.00    -0.014 A 
BRANCH  30  31
ATOM     31  C   UNL A   1      41.421  28.451  30.864  1.00  0.00     0.031 A 
ATOM     32  C   UNL A   1      42.220  28.401  32.126  1.00  0.00     0.074 A 
ATOM     33  C   UNL A   1      40.345  29.254  30.765  1.00  0.00     0.049 A 
ATOM     34  N   UNL A   1      42.114  29.163  33.183  1.00  0.00    -0.248 NA
ATOM     35  C   UNL A   1      43.259  27.366  32.227  1.00  0.00     0.031 C 
ATOM     36  C   UNL A   1      39.472  29.333  29.591  1.00  0.00     0.029 A 
ATOM     37  N   UNL A   1      39.816  30.169  31.637  1.00  0.00    -0.354 N 
ATOM     38  C   UNL A   1      43.093  28.730  34.066  1.00  0.00     0.074 A 
ATOM     39  C   UNL A   1      43.745  27.596  33.443  1.00  0.00     0.031 C 
ATOM     40  C   UNL A   1      38.551  30.284  29.793  1.00  0.00     0.029 A 
ATOM     41  C   UNL A   1      38.747  30.860  31.119  1.00  0.00     0.049 A 
ATOM     42  H   UNL A   1      40.168  30.318  32.544  1.00  0.00     0.167 HD
ATOM     43  C   UNL A   1      43.425  29.253  35.271  1.00  0.00     0.031 A 
ATOM     44  C   UNL A   1      38.012  31.861  31.638  1.00  0.00     0.031 A 
ATOM     45  C   UNL A   1      42.732  30.361  35.887  1.00  0.00     0.049 A 
ATOM     46  C   UNL A   1      38.389  32.413  32.980  1.00  0.00     0.074 A 
ATOM     47  C   UNL A   1      43.007  30.978  37.096  1.00  0.00     0.029 A 
ATOM     48  N   UNL A   1      41.627  31.011  35.354  1.00  0.00    -0.354 N 
ATOM     49  N   UNL A   1      39.372  32.046  33.768  1.00  0.00    -0.248 NA
ATOM     50  C   UNL A   1      37.579  33.521  33.494  1.00  0.00     0.031 C 
ATOM     51  C   UNL A   1      42.030  31.951  37.324  1.00  0.00     0.029 A 
ATOM     52  C   UNL A   1      41.189  31.999  36.223  1.00  0.00     0.049 A 
ATOM     53  H   UNL A   1      41.214  30.800  34.486  1.00  0.00     0.167 HD
ATOM     54  C   UNL A   1      39.300  32.881  34.875  1.00  0.00     0.074 A 
ATOM     55  C   UNL A   1      38.200  33.796  34.635  1.00  0.00     0.031 C 
ATOM     56  C   UNL A   1      40.071  32.883  35.991  1.00  0.00     0.031 A 
BRANCH  43  57
ATOM     57  C   UNL A   1      44.603  28.662  36.005  1.00  0.00    -0.014 A 
ATOM     58  C   UNL A   1      45.910  29.106  35.732  1.00  0.00     0.010 A 
ATOM     59  C   UNL A   1      44.427  27.571  36.878  1.00  0.00     0.010 A 
ATOM     60  C   UNL A   1      47.015  28.458  36.292  1.00  0.00     0.020 A 
ATOM     61  C   UNL A   1      45.527  26.939  37.464  1.00  0.00     0.020 A 
ATOM     62  C   UNL A   1      46.817  27.372  37.149  1.00  0.00     0.054 A 
BRANCH  62  63
ATOM     63  S   UNL A   1      48.263  26.529  37.850  1.00  0.00     0.124 S 
ATOM     64  O   UNL A   1      49.288  26.786  36.844  1.00  0.00    -0.237 OA
ATOM     65  O   UNL A   1      48.444  27.217  39.127  1.00  0.00    -0.237 OA
ATOM     66  O   UNL A   1      47.829  25.139  37.960  1.00  0.00    -0.744 OA
ENDBRANCH  62  63
ENDBRANCH  43  57
BRANCH  44  67
ATOM     67  C   UNL A   1      36.903  32.429  30.822  1.00  0.00    -0.014 A 
ATOM     68  C   UNL A   1      37.172  33.403  29.842  1.00  0.00     0.010 A 
ATOM     69  C   UNL A   1      35.568  32.101  31.114  1.00  0.00     0.010 A 
ATOM     70  C   UNL A   1      36.128  34.089  29.219  1.00  0.00     0.020 A 
ATOM     71  C   UNL A   1      34.519  32.762  30.466  1.00  0.00     0.020 A 
ATOM     72  C   UNL A   1      34.808  33.775  29.549  1.00  0.00     0.054 A 
BRANCH  72  73
ATOM     73  S   UNL A   1      33.470  34.734  28.786  1.00  0.00     0.124 S 
ATOM     74  O   UNL A   1      34.194  35.888  28.256  1.00  0.00    -0.237 OA
ATOM     75  O   UNL A   1      32.944  33.808  27.787  1.00  0.00    -0.237 OA
ATOM     76  O   UNL A   1      32.572  35.018  29.904  1.00  0.00    -0.744 OA
ENDBRANCH  72  73
ENDBRANCH  44  67
BRANCH  56  77
ATOM     77  C   UNL A   1      39.737  33.886  37.067  1.00  0.00    -0.014 A 
ATOM     78  C   UNL A   1      40.257  35.191  37.002  1.00  0.00     0.010 A 
ATOM     79  C   UNL A   1      38.980  33.509  38.191  1.00  0.00     0.010 A 
ATOM     80  C   UNL A   1      40.049  36.093  38.049  1.00  0.00     0.020 A 
ATOM     81  C   UNL A   1      38.740  34.418  39.225  1.00  0.00     0.020 A 
ATOM     82  C   UNL A   1      39.295  35.698  39.158  1.00  0.00     0.054 A 
BRANCH  82  83
ATOM     83  S   UNL A   1      39.036  36.879  40.509  1.00  0.00     0.124 S 
ATOM     84  O   UNL A   1      38.538  38.054  39.800  1.00  0.00    -0.237 OA
ATOM     85  O   UNL A   1      38.062  36.193  41.355  1.00  0.00    -0.237 OA
ATOM     86  O   UNL A   1      40.366  37.023  41.098  1.00  0.00    -0.744 OA
ENDBRANCH  82  83
ENDBRANCH  56  77
ENDBRANCH  30  31
ENDBRANCH  23  25
ENDBRANCH  22  23
ENDBRANCH  21  22
ENDBRANCH   1  21
TORSDOF 19
ENDMDL
