MODEL 1
REMARK VINA RESULT:      -9.0      0.000      0.000
REMARK SMILES CCCCCCOC(=O)Nc1cccc(-c2ccc([C@@H](C)C(=O)OCCOCCOC(=O)c3ccc(-c4c5nc(c(-c6ccc(S(=O)(=O)[O-])cc6)c6ccc([nH]6)c(-c6ccc(S(=O)(=O)[O-])cc6)c6nc(c(-c7ccc(S(=O)(=O)[O-])cc7)c7ccc4[nH]7)C=C6)C=C5)cc3)cc2F)c1
REMARK SMILES IDX 24 1 22 2 23 3 20 4 21 5 19 6 16 7 17 8 94 9 18 10 93 11
REMARK SMILES IDX 95 12 15 13 11 14 12 15 96 16 13 17 14 18 10 19 8 20 9 21
REMARK SMILES IDX 7 23 6 24 5 25 4 26 3 27 2 28 1 29 25 30 26 31 27 32 28 33
REMARK SMILES IDX 29 34 30 35 31 36 32 37 33 38 34 39 92 40 35 41 91 42 36 43
REMARK SMILES IDX 37 44 38 45 85 46 39 47 90 48 84 49 86 50 40 51 89 52 83 53
REMARK SMILES IDX 82 54 41 56 71 57 52 58 70 59 53 60 56 61 69 62 87 63 54 64
REMARK SMILES IDX 55 65 68 67 88 68 57 69 42 70 43 71 51 72 44 73 50 74 45 75
REMARK SMILES IDX 46 76 47 77 48 78 49 79 72 80 73 81 81 82 74 83 80 84 75 85
REMARK SMILES IDX 76 86 77 87 78 88 79 89 58 90 59 91 67 92 60 93 66 94 61 95
REMARK SMILES IDX 62 96 63 97 64 98 65 99
REMARK H PARENT 10 22 86 55 56 66
REMARK Flexibility Score: inf
ROOT
ATOM      1  O   UNL A   1      43.489  19.539  26.144  1.00  0.00    -0.463 OA
ENDROOT
BRANCH   1   2
ATOM      2  C   UNL A   1      44.049  19.265  24.939  1.00  0.00     0.313 C 
ATOM      3  O   UNL A   1      43.825  18.253  24.280  1.00  0.00    -0.252 OA
BRANCH   2   4
ATOM      4  C   UNL A   1      45.031  20.325  24.465  1.00  0.00     0.126 C 
ATOM      5  C   UNL A   1      46.458  19.829  24.681  1.00  0.00     0.025 C 
BRANCH   4   6
ATOM      6  C   UNL A   1      44.843  21.750  24.974  1.00  0.00    -0.031 A 
ATOM      7  C   UNL A   1      44.379  24.302  26.167  1.00  0.00     0.018 A 
ATOM      8  C   UNL A   1      43.617  23.862  25.074  1.00  0.00     0.012 A 
ATOM      9  C   UNL A   1      45.407  23.458  26.611  1.00  0.00     0.131 A 
ATOM     10  C   UNL A   1      43.845  22.607  24.486  1.00  0.00     0.005 A 
ATOM     11  C   UNL A   1      45.640  22.210  26.032  1.00  0.00     0.044 A 
ATOM     12  F   UNL A   1      46.173  23.817  27.655  1.00  0.00    -0.206 F 
BRANCH   7  13
ATOM     13  C   UNL A   1      44.069  25.559  26.869  1.00  0.00    -0.013 A 
ATOM     14  C   UNL A   1      44.146  28.000  26.976  1.00  0.00     0.045 A 
ATOM     15  C   UNL A   1      43.760  27.959  28.316  1.00  0.00     0.026 A 
ATOM     16  C   UNL A   1      44.292  26.806  26.260  1.00  0.00     0.035 A 
ATOM     17  C   UNL A   1      43.472  26.736  28.920  1.00  0.00     0.003 A 
ATOM     18  C   UNL A   1      43.629  25.547  28.203  1.00  0.00     0.009 A 
BRANCH  14  19
ATOM     19  N   UNL A   1      44.490  29.243  26.426  1.00  0.00    -0.291 N 
ATOM     20  C   UNL A   1      44.142  30.486  26.876  1.00  0.00     0.411 C 
ATOM     21  O   UNL A   1      44.153  31.455  26.126  1.00  0.00    -0.224 OA
ATOM     22  H   UNL A   1      45.050  29.218  25.617  1.00  0.00     0.173 HD
BRANCH  20  23
ATOM     23  O   UNL A   1      43.922  30.529  28.213  1.00  0.00    -0.449 OA
BRANCH  23  24
ATOM     24  C   UNL A   1      44.268  31.732  28.920  1.00  0.00     0.235 C 
BRANCH  24  25
ATOM     25  C   UNL A   1      43.653  31.778  30.323  1.00  0.00     0.042 C 
BRANCH  25  26
ATOM     26  C   UNL A   1      42.132  31.979  30.382  1.00  0.00     0.003 C 
BRANCH  26  27
ATOM     27  C   UNL A   1      41.648  33.405  30.092  1.00  0.00    -0.000 C 
BRANCH  27  28
ATOM     28  C   UNL A   1      40.399  33.836  30.860  1.00  0.00    -0.003 C 
ATOM     29  C   UNL A   1      40.706  34.295  32.276  1.00  0.00     0.004 C 
ENDBRANCH  27  28
ENDBRANCH  26  27
ENDBRANCH  25  26
ENDBRANCH  24  25
ENDBRANCH  23  24
ENDBRANCH  20  23
ENDBRANCH  14  19
ENDBRANCH   7  13
ENDBRANCH   4   6
ENDBRANCH   2   4
ENDBRANCH   1   2
BRANCH   1  30
ATOM     30  C   UNL A   1      42.062  19.735  26.152  1.00  0.00     0.261 C 
BRANCH  30  31
ATOM     31  C   UNL A   1      41.654  20.743  27.228  1.00  0.00     0.202 C 
BRANCH  31  32
ATOM     32  O   UNL A   1      40.275  21.116  27.238  1.00  0.00    -0.374 OA
BRANCH  32  33
ATOM     33  C   UNL A   1      39.908  22.268  26.477  1.00  0.00     0.202 C 
BRANCH  33  34
ATOM     34  C   UNL A   1      40.525  23.600  26.916  1.00  0.00     0.261 C 
BRANCH  34  35
ATOM     35  O   UNL A   1      39.627  24.706  26.718  1.00  0.00    -0.460 OA
BRANCH  35  36
ATOM     36  C   UNL A   1      40.234  25.906  26.543  1.00  0.00     0.338 C 
ATOM     37  O   UNL A   1      40.799  26.307  25.540  1.00  0.00    -0.246 OA
BRANCH  36  38
ATOM     38  C   UNL A   1      39.965  26.779  27.703  1.00  0.00     0.060 A 
ATOM     39  C   UNL A   1      40.394  28.110  27.622  1.00  0.00     0.016 A 
ATOM     40  C   UNL A   1      39.378  26.293  28.873  1.00  0.00     0.016 A 
ATOM     41  C   UNL A   1      40.284  28.949  28.729  1.00  0.00     0.010 A 
ATOM     42  C   UNL A   1      39.278  27.135  29.987  1.00  0.00     0.010 A 
ATOM     43  C   UNL A   1      39.762  28.455  29.931  1.00  0.00    -0.014 A 
BRANCH  43  44
ATOM     44  C   UNL A   1      39.860  29.275  31.164  1.00  0.00     0.031 A 
ATOM     45  C   UNL A   1      40.991  29.019  32.123  1.00  0.00     0.074 A 
ATOM     46  C   UNL A   1      38.973  30.255  31.415  1.00  0.00     0.049 A 
ATOM     47  N   UNL A   1      41.251  29.594  33.269  1.00  0.00    -0.248 NA
ATOM     48  C   UNL A   1      41.959  27.977  31.738  1.00  0.00     0.031 C 
ATOM     49  C   UNL A   1      37.863  30.636  30.542  1.00  0.00     0.029 A 
ATOM     50  N   UNL A   1      38.868  31.109  32.485  1.00  0.00    -0.354 N 
ATOM     51  C   UNL A   1      42.403  28.980  33.747  1.00  0.00     0.074 A 
ATOM     52  C   UNL A   1      42.779  27.972  32.779  1.00  0.00     0.031 C 
ATOM     53  C   UNL A   1      37.183  31.643  31.118  1.00  0.00     0.029 A 
ATOM     54  C   UNL A   1      37.787  31.954  32.412  1.00  0.00     0.049 A 
ATOM     55  H   UNL A   1      39.506  31.114  33.235  1.00  0.00     0.167 HD
ATOM     56  C   UNL A   1      43.089  29.233  34.887  1.00  0.00     0.031 A 
ATOM     57  C   UNL A   1      37.325  32.860  33.297  1.00  0.00     0.031 A 
ATOM     58  C   UNL A   1      42.710  30.227  35.855  1.00  0.00     0.049 A 
ATOM     59  C   UNL A   1      38.060  33.072  34.593  1.00  0.00     0.074 A 
ATOM     60  C   UNL A   1      43.349  30.566  37.035  1.00  0.00     0.029 A 
ATOM     61  N   UNL A   1      41.587  31.035  35.762  1.00  0.00    -0.354 N 
ATOM     62  N   UNL A   1      39.160  32.497  35.021  1.00  0.00    -0.248 NA
ATOM     63  C   UNL A   1      37.497  34.060  35.525  1.00  0.00     0.031 C 
ATOM     64  C   UNL A   1      42.583  31.542  37.682  1.00  0.00     0.029 A 
ATOM     65  C   UNL A   1      41.500  31.853  36.876  1.00  0.00     0.049 A 
ATOM     66  H   UNL A   1      40.948  31.028  35.014  1.00  0.00     0.167 HD
ATOM     67  C   UNL A   1      39.431  33.072  36.259  1.00  0.00     0.074 A 
ATOM     68  C   UNL A   1      38.389  34.047  36.507  1.00  0.00     0.031 C 
ATOM     69  C   UNL A   1      40.456  32.818  37.110  1.00  0.00     0.031 A 
BRANCH  56  70
ATOM     70  C   UNL A   1      44.306  28.392  35.166  1.00  0.00    -0.014 A 
ATOM     71  C   UNL A   1      45.590  28.814  34.778  1.00  0.00     0.010 A 
ATOM     72  C   UNL A   1      44.165  27.176  35.858  1.00  0.00     0.010 A 
ATOM     73  C   UNL A   1      46.707  28.017  35.044  1.00  0.00     0.020 A 
ATOM     74  C   UNL A   1      45.281  26.387  36.147  1.00  0.00     0.020 A 
ATOM     75  C   UNL A   1      46.544  26.805  35.723  1.00  0.00     0.054 A 
BRANCH  75  76
ATOM     76  S   UNL A   1      48.011  25.796  36.069  1.00  0.00     0.124 S 
ATOM     77  O   UNL A   1      47.909  25.603  37.513  1.00  0.00    -0.237 OA
ATOM     78  O   UNL A   1      47.780  24.604  35.258  1.00  0.00    -0.237 OA
ATOM     79  O   UNL A   1      49.122  26.639  35.631  1.00  0.00    -0.744 OA
ENDBRANCH  75  76
ENDBRANCH  56  70
BRANCH  57  80
ATOM     80  C   UNL A   1      36.081  33.621  32.995  1.00  0.00    -0.014 A 
ATOM     81  C   UNL A   1      34.818  33.033  33.169  1.00  0.00     0.010 A 
ATOM     82  C   UNL A   1      36.161  34.948  32.534  1.00  0.00     0.010 A 
ATOM     83  C   UNL A   1      33.655  33.754  32.876  1.00  0.00     0.020 A 
ATOM     84  C   UNL A   1      35.003  35.680  32.265  1.00  0.00     0.020 A 
ATOM     85  C   UNL A   1      33.756  35.075  32.429  1.00  0.00     0.054 A 
BRANCH  85  86
ATOM     86  S   UNL A   1      32.235  36.013  32.112  1.00  0.00     0.124 S 
ATOM     87  O   UNL A   1      31.232  35.203  32.795  1.00  0.00    -0.237 OA
ATOM     88  O   UNL A   1      32.529  37.307  32.722  1.00  0.00    -0.237 OA
ATOM     89  O   UNL A   1      32.143  36.028  30.653  1.00  0.00    -0.744 OA
ENDBRANCH  85  86
ENDBRANCH  57  80
BRANCH  69  90
ATOM     90  C   UNL A   1      40.525  33.626  38.379  1.00  0.00    -0.014 A 
ATOM     91  C   UNL A   1      41.453  34.672  38.527  1.00  0.00     0.010 A 
ATOM     92  C   UNL A   1      39.601  33.378  39.410  1.00  0.00     0.010 A 
ATOM     93  C   UNL A   1      41.469  35.441  39.695  1.00  0.00     0.020 A 
ATOM     94  C   UNL A   1      39.598  34.160  40.569  1.00  0.00     0.020 A 
ATOM     95  C   UNL A   1      40.541  35.180  40.708  1.00  0.00     0.054 A 
BRANCH  95  96
ATOM     96  S   UNL A   1      40.546  36.227  42.190  1.00  0.00     0.124 S 
ATOM     97  O   UNL A   1      41.505  37.266  41.824  1.00  0.00    -0.237 OA
ATOM     98  O   UNL A   1      39.154  36.660  42.283  1.00  0.00    -0.237 OA
ATOM     99  O   UNL A   1      40.983  35.322  43.252  1.00  0.00    -0.744 OA
ENDBRANCH  95  96
ENDBRANCH  69  90
ENDBRANCH  43  44
ENDBRANCH  36  38
ENDBRANCH  35  36
ENDBRANCH  34  35
ENDBRANCH  33  34
ENDBRANCH  32  33
ENDBRANCH  31  32
ENDBRANCH  30  31
ENDBRANCH   1  30
TORSDOF 26
ENDMDL
MODEL 2
REMARK VINA RESULT:      -8.8      1.251      2.816
REMARK SMILES CCCCCCOC(=O)Nc1cccc(-c2ccc([C@@H](C)C(=O)OCCOCCOC(=O)c3ccc(-c4c5nc(c(-c6ccc(S(=O)(=O)[O-])cc6)c6ccc([nH]6)c(-c6ccc(S(=O)(=O)[O-])cc6)c6nc(c(-c7ccc(S(=O)(=O)[O-])cc7)c7ccc4[nH]7)C=C6)C=C5)cc3)cc2F)c1
REMARK SMILES IDX 24 1 22 2 23 3 20 4 21 5 19 6 16 7 17 8 94 9 18 10 93 11
REMARK SMILES IDX 95 12 15 13 11 14 12 15 96 16 13 17 14 18 10 19 8 20 9 21
REMARK SMILES IDX 7 23 6 24 5 25 4 26 3 27 2 28 1 29 25 30 26 31 27 32 28 33
REMARK SMILES IDX 29 34 30 35 31 36 32 37 33 38 34 39 92 40 35 41 91 42 36 43
REMARK SMILES IDX 37 44 38 45 85 46 39 47 90 48 84 49 86 50 40 51 89 52 83 53
REMARK SMILES IDX 82 54 41 56 71 57 52 58 70 59 53 60 56 61 69 62 87 63 54 64
REMARK SMILES IDX 55 65 68 67 88 68 57 69 42 70 43 71 51 72 44 73 50 74 45 75
REMARK SMILES IDX 46 76 47 77 48 78 49 79 72 80 73 81 81 82 74 83 80 84 75 85
REMARK SMILES IDX 76 86 77 87 78 88 79 89 58 90 59 91 67 92 60 93 66 94 61 95
REMARK SMILES IDX 62 96 63 97 64 98 65 99
REMARK H PARENT 10 22 86 55 56 66
REMARK Flexibility Score: inf
ROOT
ATOM      1  O   UNL A   1      43.553  19.250  26.020  1.00  0.00    -0.463 OA
ENDROOT
BRANCH   1   2
ATOM      2  C   UNL A   1      44.083  19.166  24.774  1.00  0.00     0.313 C 
ATOM      3  O   UNL A   1      43.729  18.357  23.920  1.00  0.00    -0.252 OA
BRANCH   2   4
ATOM      4  C   UNL A   1      45.204  20.159  24.517  1.00  0.00     0.126 C 
ATOM      5  C   UNL A   1      46.528  19.567  24.992  1.00  0.00     0.025 C 
BRANCH   4   6
ATOM      6  C   UNL A   1      45.016  21.591  25.007  1.00  0.00    -0.031 A 
ATOM      7  C   UNL A   1      44.587  24.158  26.181  1.00  0.00     0.018 A 
ATOM      8  C   UNL A   1      43.712  23.648  25.211  1.00  0.00     0.012 A 
ATOM      9  C   UNL A   1      45.704  23.376  26.509  1.00  0.00     0.131 A 
ATOM     10  C   UNL A   1      43.922  22.386  24.632  1.00  0.00     0.005 A 
ATOM     11  C   UNL A   1      45.920  22.121  25.939  1.00  0.00     0.044 A 
ATOM     12  F   UNL A   1      46.582  23.802  27.432  1.00  0.00    -0.206 F 
BRANCH   7  13
ATOM     13  C   UNL A   1      44.311  25.423  26.883  1.00  0.00    -0.013 A 
ATOM     14  C   UNL A   1      44.516  27.854  27.028  1.00  0.00     0.045 A 
ATOM     15  C   UNL A   1      44.060  27.820  28.346  1.00  0.00     0.026 A 
ATOM     16  C   UNL A   1      44.633  26.661  26.304  1.00  0.00     0.035 A 
ATOM     17  C   UNL A   1      43.675  26.609  28.918  1.00  0.00     0.003 A 
ATOM     18  C   UNL A   1      43.803  25.421  28.193  1.00  0.00     0.009 A 
BRANCH  14  19
ATOM     19  N   UNL A   1      44.955  29.082  26.512  1.00  0.00    -0.291 N 
ATOM     20  C   UNL A   1      45.949  29.303  25.601  1.00  0.00     0.411 C 
ATOM     21  O   UNL A   1      46.505  30.392  25.524  1.00  0.00    -0.224 OA
ATOM     22  H   UNL A   1      44.490  29.883  26.847  1.00  0.00     0.173 HD
BRANCH  20  23
ATOM     23  O   UNL A   1      46.141  28.261  24.754  1.00  0.00    -0.449 OA
BRANCH  23  24
ATOM     24  C   UNL A   1      47.475  28.002  24.286  1.00  0.00     0.235 C 
BRANCH  24  25
ATOM     25  C   UNL A   1      47.744  26.505  24.097  1.00  0.00     0.042 C 
BRANCH  25  26
ATOM     26  C   UNL A   1      48.217  25.746  25.345  1.00  0.00     0.003 C 
BRANCH  26  27
ATOM     27  C   UNL A   1      49.469  26.317  26.022  1.00  0.00    -0.000 C 
BRANCH  27  28
ATOM     28  C   UNL A   1      49.338  26.571  27.524  1.00  0.00    -0.003 C 
ATOM     29  C   UNL A   1      47.906  26.852  27.951  1.00  0.00     0.004 C 
ENDBRANCH  27  28
ENDBRANCH  26  27
ENDBRANCH  25  26
ENDBRANCH  24  25
ENDBRANCH  23  24
ENDBRANCH  20  23
ENDBRANCH  14  19
ENDBRANCH   7  13
ENDBRANCH   4   6
ENDBRANCH   2   4
ENDBRANCH   1   2
BRANCH   1  30
ATOM     30  C   UNL A   1      42.129  19.454  26.094  1.00  0.00     0.261 C 
BRANCH  30  31
ATOM     31  C   UNL A   1      41.782  20.516  27.139  1.00  0.00     0.202 C 
BRANCH  31  32
ATOM     32  O   UNL A   1      40.459  21.051  27.064  1.00  0.00    -0.374 OA
BRANCH  32  33
ATOM     33  C   UNL A   1      40.284  22.253  26.314  1.00  0.00     0.202 C 
BRANCH  33  34
ATOM     34  C   UNL A   1      40.762  23.548  26.981  1.00  0.00     0.261 C 
BRANCH  34  35
ATOM     35  O   UNL A   1      39.811  24.617  26.835  1.00  0.00    -0.460 OA
BRANCH  35  36
ATOM     36  C   UNL A   1      40.357  25.834  26.595  1.00  0.00     0.338 C 
ATOM     37  O   UNL A   1      40.873  26.220  25.560  1.00  0.00    -0.246 OA
BRANCH  36  38
ATOM     38  C   UNL A   1      40.084  26.740  27.729  1.00  0.00     0.060 A 
ATOM     39  C   UNL A   1      40.636  28.026  27.674  1.00  0.00     0.016 A 
ATOM     40  C   UNL A   1      39.372  26.320  28.855  1.00  0.00     0.016 A 
ATOM     41  C   UNL A   1      40.521  28.884  28.767  1.00  0.00     0.010 A 
ATOM     42  C   UNL A   1      39.267  27.180  29.955  1.00  0.00     0.010 A 
ATOM     43  C   UNL A   1      39.871  28.451  29.929  1.00  0.00    -0.014 A 
BRANCH  43  44
ATOM     44  C   UNL A   1      39.951  29.272  31.163  1.00  0.00     0.031 A 
ATOM     45  C   UNL A   1      41.077  29.025  32.132  1.00  0.00     0.074 A 
ATOM     46  C   UNL A   1      39.055  30.245  31.406  1.00  0.00     0.049 A 
ATOM     47  N   UNL A   1      41.323  29.602  33.279  1.00  0.00    -0.248 NA
ATOM     48  C   UNL A   1      42.056  27.991  31.754  1.00  0.00     0.031 C 
ATOM     49  C   UNL A   1      37.949  30.617  30.524  1.00  0.00     0.029 A 
ATOM     50  N   UNL A   1      38.934  31.097  32.475  1.00  0.00    -0.354 N 
ATOM     51  C   UNL A   1      42.476  28.997  33.767  1.00  0.00     0.074 A 
ATOM     52  C   UNL A   1      42.867  27.993  32.802  1.00  0.00     0.031 C 
ATOM     53  C   UNL A   1      37.256  31.618  31.094  1.00  0.00     0.029 A 
ATOM     54  C   UNL A   1      37.848  31.934  32.393  1.00  0.00     0.049 A 
ATOM     55  H   UNL A   1      39.566  31.108  33.230  1.00  0.00     0.167 HD
ATOM     56  C   UNL A   1      43.151  29.257  34.912  1.00  0.00     0.031 A 
ATOM     57  C   UNL A   1      37.370  32.837  33.274  1.00  0.00     0.031 A 
ATOM     58  C   UNL A   1      42.755  30.248  35.877  1.00  0.00     0.049 A 
ATOM     59  C   UNL A   1      38.093  33.055  34.576  1.00  0.00     0.074 A 
ATOM     60  C   UNL A   1      43.382  30.592  37.062  1.00  0.00     0.029 A 
ATOM     61  N   UNL A   1      41.627  31.047  35.774  1.00  0.00    -0.354 N 
ATOM     62  N   UNL A   1      39.194  32.489  35.013  1.00  0.00    -0.248 NA
ATOM     63  C   UNL A   1      37.515  34.039  35.503  1.00  0.00     0.031 C 
ATOM     64  C   UNL A   1      42.603  31.562  37.702  1.00  0.00     0.029 A 
ATOM     65  C   UNL A   1      41.524  31.864  36.887  1.00  0.00     0.049 A 
ATOM     66  H   UNL A   1      40.994  31.034  35.021  1.00  0.00     0.167 HD
ATOM     67  C   UNL A   1      39.451  33.066  36.253  1.00  0.00     0.074 A 
ATOM     68  C   UNL A   1      38.399  34.033  36.492  1.00  0.00     0.031 C 
ATOM     69  C   UNL A   1      40.470  32.820  37.113  1.00  0.00     0.031 A 
BRANCH  56  70
ATOM     70  C   UNL A   1      44.372  28.426  35.202  1.00  0.00    -0.014 A 
ATOM     71  C   UNL A   1      44.269  27.172  35.830  1.00  0.00     0.010 A 
ATOM     72  C   UNL A   1      45.639  28.893  34.809  1.00  0.00     0.010 A 
ATOM     73  C   UNL A   1      45.416  26.417  36.093  1.00  0.00     0.020 A 
ATOM     74  C   UNL A   1      46.785  28.131  35.049  1.00  0.00     0.020 A 
ATOM     75  C   UNL A   1      46.668  26.905  35.705  1.00  0.00     0.054 A 
BRANCH  75  76
ATOM     76  S   UNL A   1      48.138  25.899  36.045  1.00  0.00     0.124 S 
ATOM     77  O   UNL A   1      47.590  24.545  36.012  1.00  0.00    -0.237 OA
ATOM     78  O   UNL A   1      49.026  26.244  34.938  1.00  0.00    -0.237 OA
ATOM     79  O   UNL A   1      48.578  26.360  37.360  1.00  0.00    -0.744 OA
ENDBRANCH  75  76
ENDBRANCH  56  70
BRANCH  57  80
ATOM     80  C   UNL A   1      36.123  33.588  32.962  1.00  0.00    -0.014 A 
ATOM     81  C   UNL A   1      34.863  32.992  33.133  1.00  0.00     0.010 A 
ATOM     82  C   UNL A   1      36.197  34.912  32.493  1.00  0.00     0.010 A 
ATOM     83  C   UNL A   1      33.697  33.704  32.831  1.00  0.00     0.020 A 
ATOM     84  C   UNL A   1      35.035  35.635  32.213  1.00  0.00     0.020 A 
ATOM     85  C   UNL A   1      33.791  35.023  32.376  1.00  0.00     0.054 A 
BRANCH  85  86
ATOM     86  S   UNL A   1      32.265  35.948  32.046  1.00  0.00     0.124 S 
ATOM     87  O   UNL A   1      32.517  37.205  32.742  1.00  0.00    -0.237 OA
ATOM     88  O   UNL A   1      32.252  36.023  30.586  1.00  0.00    -0.237 OA
ATOM     89  O   UNL A   1      31.224  35.105  32.628  1.00  0.00    -0.744 OA
ENDBRANCH  85  86
ENDBRANCH  57  80
BRANCH  69  90
ATOM     90  C   UNL A   1      40.523  33.629  38.382  1.00  0.00    -0.014 A 
ATOM     91  C   UNL A   1      39.929  33.163  39.568  1.00  0.00     0.010 A 
ATOM     92  C   UNL A   1      41.238  34.841  38.403  1.00  0.00     0.010 A 
ATOM     93  C   UNL A   1      40.030  33.908  40.747  1.00  0.00     0.020 A 
ATOM     94  C   UNL A   1      41.363  35.575  39.585  1.00  0.00     0.020 A 
ATOM     95  C   UNL A   1      40.747  35.108  40.749  1.00  0.00     0.054 A 
BRANCH  95  96
ATOM     96  S   UNL A   1      40.910  36.029  42.304  1.00  0.00     0.124 S 
ATOM     97  O   UNL A   1      41.290  34.976  43.241  1.00  0.00    -0.237 OA
ATOM     98  O   UNL A   1      41.955  37.002  41.993  1.00  0.00    -0.237 OA
ATOM     99  O   UNL A   1      39.581  36.598  42.511  1.00  0.00    -0.744 OA
ENDBRANCH  95  96
ENDBRANCH  69  90
ENDBRANCH  43  44
ENDBRANCH  36  38
ENDBRANCH  35  36
ENDBRANCH  34  35
ENDBRANCH  33  34
ENDBRANCH  32  33
ENDBRANCH  31  32
ENDBRANCH  30  31
ENDBRANCH   1  30
TORSDOF 26
ENDMDL
MODEL 3
REMARK VINA RESULT:      -8.5      4.661      7.187
REMARK SMILES CCCCCCOC(=O)Nc1cccc(-c2ccc([C@@H](C)C(=O)OCCOCCOC(=O)c3ccc(-c4c5nc(c(-c6ccc(S(=O)(=O)[O-])cc6)c6ccc([nH]6)c(-c6ccc(S(=O)(=O)[O-])cc6)c6nc(c(-c7ccc(S(=O)(=O)[O-])cc7)c7ccc4[nH]7)C=C6)C=C5)cc3)cc2F)c1
REMARK SMILES IDX 24 1 22 2 23 3 20 4 21 5 19 6 16 7 17 8 94 9 18 10 93 11
REMARK SMILES IDX 95 12 15 13 11 14 12 15 96 16 13 17 14 18 10 19 8 20 9 21
REMARK SMILES IDX 7 23 6 24 5 25 4 26 3 27 2 28 1 29 25 30 26 31 27 32 28 33
REMARK SMILES IDX 29 34 30 35 31 36 32 37 33 38 34 39 92 40 35 41 91 42 36 43
REMARK SMILES IDX 37 44 38 45 85 46 39 47 90 48 84 49 86 50 40 51 89 52 83 53
REMARK SMILES IDX 82 54 41 56 71 57 52 58 70 59 53 60 56 61 69 62 87 63 54 64
REMARK SMILES IDX 55 65 68 67 88 68 57 69 42 70 43 71 51 72 44 73 50 74 45 75
REMARK SMILES IDX 46 76 47 77 48 78 49 79 72 80 73 81 81 82 74 83 80 84 75 85
REMARK SMILES IDX 76 86 77 87 78 88 79 89 58 90 59 91 67 92 60 93 66 94 61 95
REMARK SMILES IDX 62 96 63 97 64 98 65 99
REMARK H PARENT 10 22 86 55 56 66
REMARK Flexibility Score: inf
ROOT
ATOM      1  O   UNL A   1      37.088  21.233  26.028  1.00  0.00    -0.463 OA
ENDROOT
BRANCH   1   2
ATOM      2  C   UNL A   1      35.916  21.634  25.476  1.00  0.00     0.313 C 
ATOM      3  O   UNL A   1      35.707  21.718  24.268  1.00  0.00    -0.252 OA
BRANCH   2   4
ATOM      4  C   UNL A   1      34.856  22.015  26.497  1.00  0.00     0.126 C 
ATOM      5  C   UNL A   1      33.903  20.841  26.704  1.00  0.00     0.025 C 
BRANCH   4   6
ATOM      6  C   UNL A   1      34.104  23.326  26.291  1.00  0.00    -0.031 A 
ATOM      7  C   UNL A   1      32.893  25.902  26.077  1.00  0.00     0.018 A 
ATOM      8  C   UNL A   1      32.274  24.866  26.793  1.00  0.00     0.012 A 
ATOM      9  C   UNL A   1      34.100  25.601  25.432  1.00  0.00     0.131 A 
ATOM     10  C   UNL A   1      32.869  23.598  26.898  1.00  0.00     0.005 A 
ATOM     11  C   UNL A   1      34.698  24.344  25.531  1.00  0.00     0.044 A 
ATOM     12  F   UNL A   1      34.747  26.547  24.730  1.00  0.00    -0.206 F 
BRANCH   7  13
ATOM     13  C   UNL A   1      32.341  27.267  26.062  1.00  0.00    -0.013 A 
ATOM     14  C   UNL A   1      31.163  29.064  24.897  1.00  0.00     0.045 A 
ATOM     15  C   UNL A   1      31.540  29.966  25.893  1.00  0.00     0.026 A 
ATOM     16  C   UNL A   1      31.558  27.724  24.989  1.00  0.00     0.035 A 
ATOM     17  C   UNL A   1      32.262  29.518  26.998  1.00  0.00     0.003 A 
ATOM     18  C   UNL A   1      32.661  28.182  27.080  1.00  0.00     0.009 A 
BRANCH  14  19
ATOM     19  N   UNL A   1      30.495  29.565  23.771  1.00  0.00    -0.291 N 
ATOM     20  C   UNL A   1      30.641  29.180  22.467  1.00  0.00     0.411 C 
ATOM     21  O   UNL A   1      30.322  29.927  21.549  1.00  0.00    -0.224 OA
ATOM     22  H   UNL A   1      29.841  30.281  23.939  1.00  0.00     0.173 HD
BRANCH  20  23
ATOM     23  O   UNL A   1      31.038  27.891  22.331  1.00  0.00    -0.449 OA
BRANCH  23  24
ATOM     24  C   UNL A   1      32.438  27.629  22.141  1.00  0.00     0.235 C 
BRANCH  24  25
ATOM     25  C   UNL A   1      32.687  26.514  21.119  1.00  0.00     0.042 C 
BRANCH  25  26
ATOM     26  C   UNL A   1      32.062  25.151  21.448  1.00  0.00     0.003 C 
BRANCH  26  27
ATOM     27  C   UNL A   1      32.959  24.196  22.246  1.00  0.00    -0.000 C 
BRANCH  27  28
ATOM     28  C   UNL A   1      32.223  23.265  23.209  1.00  0.00    -0.003 C 
ATOM     29  C   UNL A   1      30.782  23.685  23.450  1.00  0.00     0.004 C 
ENDBRANCH  27  28
ENDBRANCH  26  27
ENDBRANCH  25  26
ENDBRANCH  24  25
ENDBRANCH  23  24
ENDBRANCH  20  23
ENDBRANCH  14  19
ENDBRANCH   7  13
ENDBRANCH   4   6
ENDBRANCH   2   4
ENDBRANCH   1   2
BRANCH   1  30
ATOM     30  C   UNL A   1      38.220  22.097  25.814  1.00  0.00     0.261 C 
BRANCH  30  31
ATOM     31  C   UNL A   1      39.534  21.326  25.966  1.00  0.00     0.202 C 
BRANCH  31  32
ATOM     32  O   UNL A   1      40.573  22.004  26.673  1.00  0.00    -0.374 OA
BRANCH  32  33
ATOM     33  C   UNL A   1      41.884  21.956  26.108  1.00  0.00     0.202 C 
BRANCH  33  34
ATOM     34  C   UNL A   1      42.471  23.290  25.633  1.00  0.00     0.261 C 
BRANCH  34  35
ATOM     35  O   UNL A   1      41.643  24.408  25.999  1.00  0.00    -0.460 OA
BRANCH  35  36
ATOM     36  C   UNL A   1      42.225  25.622  25.840  1.00  0.00     0.338 C 
ATOM     37  O   UNL A   1      42.590  26.133  24.795  1.00  0.00    -0.246 OA
BRANCH  36  38
ATOM     38  C   UNL A   1      42.204  26.360  27.118  1.00  0.00     0.060 A 
ATOM     39  C   UNL A   1      41.278  25.948  28.086  1.00  0.00     0.016 A 
ATOM     40  C   UNL A   1      43.014  27.476  27.341  1.00  0.00     0.016 A 
ATOM     41  C   UNL A   1      41.122  26.680  29.261  1.00  0.00     0.010 A 
ATOM     42  C   UNL A   1      42.847  28.216  28.518  1.00  0.00     0.010 A 
ATOM     43  C   UNL A   1      41.877  27.842  29.466  1.00  0.00    -0.014 A 
BRANCH  43  44
ATOM     44  C   UNL A   1      41.547  28.740  30.601  1.00  0.00     0.031 A 
ATOM     45  C   UNL A   1      42.369  28.658  31.859  1.00  0.00     0.074 A 
ATOM     46  C   UNL A   1      40.550  29.638  30.505  1.00  0.00     0.049 A 
ATOM     47  N   UNL A   1      42.238  29.322  32.978  1.00  0.00    -0.248 NA
ATOM     48  C   UNL A   1      43.487  27.698  31.854  1.00  0.00     0.031 C 
ATOM     49  C   UNL A   1      39.714  29.852  29.324  1.00  0.00     0.029 A 
ATOM     50  N   UNL A   1      40.070  30.538  31.424  1.00  0.00    -0.354 N 
ATOM     51  C   UNL A   1      43.248  28.858  33.814  1.00  0.00     0.074 A 
ATOM     52  C   UNL A   1      43.967  27.839  33.081  1.00  0.00     0.031 C 
ATOM     53  C   UNL A   1      38.817  30.816  29.595  1.00  0.00     0.029 A 
ATOM     54  C   UNL A   1      38.994  31.264  30.976  1.00  0.00     0.049 A 
ATOM     55  H   UNL A   1      40.461  30.653  32.321  1.00  0.00     0.167 HD
ATOM     56  C   UNL A   1      43.551  29.247  35.075  1.00  0.00     0.031 A 
ATOM     57  C   UNL A   1      38.223  32.169  31.612  1.00  0.00     0.031 A 
ATOM     58  C   UNL A   1      42.829  30.253  35.807  1.00  0.00     0.049 A 
ATOM     59  C   UNL A   1      38.532  32.531  33.040  1.00  0.00     0.074 A 
ATOM     60  C   UNL A   1      43.069  30.725  37.086  1.00  0.00     0.029 A 
ATOM     61  N   UNL A   1      41.720  30.936  35.330  1.00  0.00    -0.354 N 
ATOM     62  N   UNL A   1      39.503  32.097  33.810  1.00  0.00    -0.248 NA
ATOM     63  C   UNL A   1      37.645  33.510  33.686  1.00  0.00     0.031 C 
ATOM     64  C   UNL A   1      42.073  31.654  37.403  1.00  0.00     0.029 A 
ATOM     65  C   UNL A   1      41.248  31.805  36.300  1.00  0.00     0.049 A 
ATOM     66  H   UNL A   1      41.328  30.819  34.436  1.00  0.00     0.167 HD
ATOM     67  C   UNL A   1      39.357  32.769  35.020  1.00  0.00     0.074 A 
ATOM     68  C   UNL A   1      38.213  33.646  34.878  1.00  0.00     0.031 C 
ATOM     69  C   UNL A   1      40.107  32.671  36.145  1.00  0.00     0.031 A 
BRANCH  56  70
ATOM     70  C   UNL A   1      44.698  28.552  35.758  1.00  0.00    -0.014 A 
ATOM     71  C   UNL A   1      46.009  29.053  35.675  1.00  0.00     0.010 A 
ATOM     72  C   UNL A   1      44.453  27.397  36.523  1.00  0.00     0.010 A 
ATOM     73  C   UNL A   1      47.061  28.391  36.315  1.00  0.00     0.020 A 
ATOM     74  C   UNL A   1      45.498  26.745  37.183  1.00  0.00     0.020 A 
ATOM     75  C   UNL A   1      46.799  27.237  37.061  1.00  0.00     0.054 A 
BRANCH  75  76
ATOM     76  S   UNL A   1      48.179  26.406  37.894  1.00  0.00     0.124 S 
ATOM     77  O   UNL A   1      49.148  26.273  36.809  1.00  0.00    -0.237 OA
ATOM     78  O   UNL A   1      48.539  27.354  38.945  1.00  0.00    -0.237 OA
ATOM     79  O   UNL A   1      47.595  25.151  38.363  1.00  0.00    -0.744 OA
ENDBRANCH  75  76
ENDBRANCH  56  70
BRANCH  57  80
ATOM     80  C   UNL A   1      37.064  32.780  30.907  1.00  0.00    -0.014 A 
ATOM     81  C   UNL A   1      37.239  33.890  30.063  1.00  0.00     0.010 A 
ATOM     82  C   UNL A   1      35.773  32.246  31.076  1.00  0.00     0.010 A 
ATOM     83  C   UNL A   1      36.142  34.462  29.410  1.00  0.00     0.020 A 
ATOM     84  C   UNL A   1      34.679  32.798  30.406  1.00  0.00     0.020 A 
ATOM     85  C   UNL A   1      34.869  33.910  29.584  1.00  0.00     0.054 A 
BRANCH  85  86
ATOM     86  S   UNL A   1      33.469  34.630  28.681  1.00  0.00     0.124 S 
ATOM     87  O   UNL A   1      34.090  35.772  28.019  1.00  0.00    -0.237 OA
ATOM     88  O   UNL A   1      33.062  33.534  27.805  1.00  0.00    -0.237 OA
ATOM     89  O   UNL A   1      32.516  34.959  29.738  1.00  0.00    -0.744 OA
ENDBRANCH  85  86
ENDBRANCH  57  80
BRANCH  69  90
ATOM     90  C   UNL A   1      39.741  33.556  37.307  1.00  0.00    -0.014 A 
ATOM     91  C   UNL A   1      38.904  33.094  38.339  1.00  0.00     0.010 A 
ATOM     92  C   UNL A   1      40.300  34.843  37.401  1.00  0.00     0.010 A 
ATOM     93  C   UNL A   1      38.615  33.916  39.433  1.00  0.00     0.020 A 
ATOM     94  C   UNL A   1      40.033  35.658  38.505  1.00  0.00     0.020 A 
ATOM     95  C   UNL A   1      39.182  35.192  39.509  1.00  0.00     0.054 A 
BRANCH  95  96
ATOM     96  S   UNL A   1      38.835  36.218  40.965  1.00  0.00     0.124 S 
ATOM     97  O   UNL A   1      38.449  37.488  40.355  1.00  0.00    -0.237 OA
ATOM     98  O   UNL A   1      37.758  35.485  41.626  1.00  0.00    -0.237 OA
ATOM     99  O   UNL A   1      40.104  36.234  41.689  1.00  0.00    -0.744 OA
ENDBRANCH  95  96
ENDBRANCH  69  90
ENDBRANCH  43  44
ENDBRANCH  36  38
ENDBRANCH  35  36
ENDBRANCH  34  35
ENDBRANCH  33  34
ENDBRANCH  32  33
ENDBRANCH  31  32
ENDBRANCH  30  31
ENDBRANCH   1  30
TORSDOF 26
ENDMDL
