MODEL 1
REMARK VINA RESULT:     -10.1      0.000      0.000
REMARK SMILES C[C@H]1SCCC[C@]1(Nc1ccc(Cl)cc1)C(=O)OCCOCCOC(=O)c1ccc(-c2c3nc(c(-c4ccc(S(=O)(=O)[O-])cc4)c4ccc([nH]4)c(-c4ccc(S(=O)(=O)[O-])cc4)c4nc(c(-c5ccc(S(=O)(=O)[O-])cc5)c5ccc2[nH]5)C=C4)C=C3)cc1
REMARK SMILES IDX 22 1 21 2 20 3 19 4 18 5 16 6 17 7 7 8 1 9 2 10 3 11 4 12
REMARK SMILES IDX 6 13 5 14 8 15 9 17 10 18 15 19 11 20 14 21 12 22 13 23
REMARK SMILES IDX 23 24 24 25 25 26 26 27 27 28 28 29 86 30 29 31 85 32 30 33
REMARK SMILES IDX 31 34 32 35 79 36 33 37 84 38 78 39 80 40 34 41 83 42 77 43
REMARK SMILES IDX 76 44 35 46 65 47 46 48 64 49 47 50 50 51 63 52 81 53 48 54
REMARK SMILES IDX 49 55 62 57 82 58 51 59 36 60 37 61 45 62 38 63 44 64 39 65
REMARK SMILES IDX 40 66 41 67 42 68 43 69 66 70 67 71 75 72 68 73 74 74 69 75
REMARK SMILES IDX 70 76 71 77 72 78 73 79 52 80 53 81 61 82 54 83 60 84 55 85
REMARK SMILES IDX 56 86 57 87 58 88 59 89
REMARK H PARENT 8 16 80 45 50 56
REMARK Flexibility Score: inf
ROOT
ATOM      1  C   UNL A   1      32.143  30.548  25.940  1.00  0.00     0.202 C 
ENDROOT
BRANCH   1   2
ATOM      2  O   UNL A   1      32.793  29.390  25.422  1.00  0.00    -0.374 OA
BRANCH   2   3
ATOM      3  C   UNL A   1      31.976  28.276  25.062  1.00  0.00     0.202 C 
BRANCH   3   4
ATOM      4  C   UNL A   1      32.410  27.476  23.833  1.00  0.00     0.261 C 
BRANCH   4   5
ATOM      5  O   UNL A   1      33.447  26.532  24.154  1.00  0.00    -0.461 OA
BRANCH   5   6
ATOM      6  C   UNL A   1      33.446  25.384  23.426  1.00  0.00     0.333 C 
ATOM      7  O   UNL A   1      33.727  25.350  22.229  1.00  0.00    -0.249 OA
BRANCH   6   8
ATOM      8  C   UNL A   1      33.044  24.116  24.259  1.00  0.00     0.147 C 
ATOM      9  C   UNL A   1      30.706  23.513  23.161  1.00  0.00     0.022 C 
ATOM     10  C   UNL A   1      31.487  23.953  24.407  1.00  0.00     0.080 C 
ATOM     11  S   UNL A   1      31.001  22.697  25.685  1.00  0.00    -0.156 SA
ATOM     12  C   UNL A   1      31.896  23.361  27.104  1.00  0.00     0.070 C 
ATOM     13  C   UNL A   1      33.681  24.416  25.656  1.00  0.00     0.042 C 
ATOM     14  C   UNL A   1      33.375  23.448  26.791  1.00  0.00     0.014 C 
BRANCH   8  15
ATOM     15  N   UNL A   1      33.652  22.847  23.744  1.00  0.00    -0.369 N 
ATOM     16  H   UNL A   1      33.129  22.257  23.156  1.00  0.00     0.161 HD
BRANCH  15  17
ATOM     17  C   UNL A   1      34.953  22.500  24.096  1.00  0.00     0.035 A 
ATOM     18  C   UNL A   1      35.227  21.291  24.746  1.00  0.00     0.027 A 
ATOM     19  C   UNL A   1      35.992  23.427  23.952  1.00  0.00     0.027 A 
ATOM     20  C   UNL A   1      36.484  21.040  25.300  1.00  0.00     0.022 A 
ATOM     21  C   UNL A   1      37.252  23.183  24.505  1.00  0.00     0.022 A 
ATOM     22  C   UNL A   1      37.487  21.997  25.194  1.00  0.00     0.041 A 
ATOM     23  Cl  UNL A   1      39.011  21.720  25.938  1.00  0.00    -0.084 Cl
ENDBRANCH  15  17
ENDBRANCH   8  15
ENDBRANCH   6   8
ENDBRANCH   5   6
ENDBRANCH   4   5
ENDBRANCH   3   4
ENDBRANCH   2   3
ENDBRANCH   1   2
BRANCH   1  24
ATOM     24  C   UNL A   1      32.701  31.137  27.240  1.00  0.00     0.261 C 
BRANCH  24  25
ATOM     25  O   UNL A   1      33.725  30.306  27.815  1.00  0.00    -0.460 OA
BRANCH  25  26
ATOM     26  C   UNL A   1      34.723  30.995  28.418  1.00  0.00     0.338 C 
ATOM     27  O   UNL A   1      34.620  32.060  29.017  1.00  0.00    -0.246 OA
BRANCH  26  28
ATOM     28  C   UNL A   1      35.970  30.210  28.432  1.00  0.00     0.060 A 
ATOM     29  C   UNL A   1      36.314  29.588  29.639  1.00  0.00     0.016 A 
ATOM     30  C   UNL A   1      36.837  30.162  27.337  1.00  0.00     0.016 A 
ATOM     31  C   UNL A   1      37.558  28.983  29.783  1.00  0.00     0.010 A 
ATOM     32  C   UNL A   1      38.092  29.558  27.486  1.00  0.00     0.010 A 
ATOM     33  C   UNL A   1      38.476  29.012  28.725  1.00  0.00    -0.014 A 
BRANCH  33  34
ATOM     34  C   UNL A   1      39.885  28.635  28.995  1.00  0.00     0.031 A 
ATOM     35  C   UNL A   1      40.781  29.625  29.695  1.00  0.00     0.074 A 
ATOM     36  C   UNL A   1      40.338  27.402  28.702  1.00  0.00     0.049 A 
ATOM     37  N   UNL A   1      42.028  29.494  30.067  1.00  0.00    -0.248 NA
ATOM     38  C   UNL A   1      40.188  30.932  30.025  1.00  0.00     0.031 C 
ATOM     39  C   UNL A   1      39.557  26.341  28.068  1.00  0.00     0.029 A 
ATOM     40  N   UNL A   1      41.570  26.835  28.911  1.00  0.00    -0.354 N 
ATOM     41  C   UNL A   1      42.366  30.695  30.681  1.00  0.00     0.074 A 
ATOM     42  C   UNL A   1      41.208  31.557  30.596  1.00  0.00     0.031 C 
ATOM     43  C   UNL A   1      40.333  25.251  27.933  1.00  0.00     0.029 A 
ATOM     44  C   UNL A   1      41.667  25.544  28.452  1.00  0.00     0.049 A 
ATOM     45  H   UNL A   1      42.315  27.309  29.348  1.00  0.00     0.167 HD
ATOM     46  C   UNL A   1      43.531  31.047  31.277  1.00  0.00     0.031 A 
ATOM     47  C   UNL A   1      42.717  24.698  28.442  1.00  0.00     0.031 A 
ATOM     48  C   UNL A   1      44.692  30.199  31.346  1.00  0.00     0.049 A 
ATOM     49  C   UNL A   1      44.022  25.134  29.053  1.00  0.00     0.074 A 
ATOM     50  C   UNL A   1      45.928  30.474  31.905  1.00  0.00     0.029 A 
ATOM     51  N   UNL A   1      44.757  28.909  30.843  1.00  0.00    -0.354 N 
ATOM     52  N   UNL A   1      44.325  26.275  29.627  1.00  0.00    -0.248 NA
ATOM     53  C   UNL A   1      45.122  24.160  29.034  1.00  0.00     0.031 C 
ATOM     54  C   UNL A   1      46.755  29.363  31.704  1.00  0.00     0.029 A 
ATOM     55  C   UNL A   1      46.015  28.377  31.071  1.00  0.00     0.049 A 
ATOM     56  H   UNL A   1      44.019  28.441  30.390  1.00  0.00     0.167 HD
ATOM     57  C   UNL A   1      45.640  26.143  30.061  1.00  0.00     0.074 A 
ATOM     58  C   UNL A   1      46.068  24.808  29.699  1.00  0.00     0.031 C 
ATOM     59  C   UNL A   1      46.425  27.045  30.704  1.00  0.00     0.031 A 
BRANCH  46  60
ATOM     60  C   UNL A   1      43.610  32.421  31.887  1.00  0.00    -0.014 A 
ATOM     61  C   UNL A   1      43.350  32.621  33.255  1.00  0.00     0.010 A 
ATOM     62  C   UNL A   1      43.980  33.522  31.093  1.00  0.00     0.010 A 
ATOM     63  C   UNL A   1      43.428  33.900  33.811  1.00  0.00     0.020 A 
ATOM     64  C   UNL A   1      44.085  34.799  31.651  1.00  0.00     0.020 A 
ATOM     65  C   UNL A   1      43.793  34.982  33.004  1.00  0.00     0.054 A 
BRANCH  65  66
ATOM     66  S   UNL A   1      43.912  36.628  33.757  1.00  0.00     0.124 S 
ATOM     67  O   UNL A   1      44.637  36.343  34.993  1.00  0.00    -0.237 OA
ATOM     68  O   UNL A   1      44.654  37.388  32.755  1.00  0.00    -0.237 OA
ATOM     69  O   UNL A   1      42.518  37.031  33.932  1.00  0.00    -0.744 OA
ENDBRANCH  65  66
ENDBRANCH  46  60
BRANCH  47  70
ATOM     70  C   UNL A   1      42.586  23.358  27.807  1.00  0.00    -0.014 A 
ATOM     71  C   UNL A   1      42.164  22.241  28.549  1.00  0.00     0.010 A 
ATOM     72  C   UNL A   1      42.906  23.194  26.447  1.00  0.00     0.010 A 
ATOM     73  C   UNL A   1      42.095  20.979  27.950  1.00  0.00     0.020 A 
ATOM     74  C   UNL A   1      42.810  21.940  25.838  1.00  0.00     0.020 A 
ATOM     75  C   UNL A   1      42.422  20.836  26.599  1.00  0.00     0.054 A 
BRANCH  75  76
ATOM     76  S   UNL A   1      42.299  19.197  25.831  1.00  0.00     0.124 S 
ATOM     77  O   UNL A   1      43.125  19.358  24.640  1.00  0.00    -0.237 OA
ATOM     78  O   UNL A   1      42.842  18.320  26.865  1.00  0.00    -0.237 OA
ATOM     79  O   UNL A   1      40.867  19.043  25.586  1.00  0.00    -0.744 OA
ENDBRANCH  75  76
ENDBRANCH  47  70
BRANCH  59  80
ATOM     80  C   UNL A   1      47.809  26.600  31.096  1.00  0.00    -0.014 A 
ATOM     81  C   UNL A   1      48.902  26.749  30.224  1.00  0.00     0.010 A 
ATOM     82  C   UNL A   1      48.022  26.045  32.372  1.00  0.00     0.010 A 
ATOM     83  C   UNL A   1      50.172  26.308  30.602  1.00  0.00     0.020 A 
ATOM     84  C   UNL A   1      49.295  25.628  32.764  1.00  0.00     0.020 A 
ATOM     85  C   UNL A   1      50.360  25.743  31.867  1.00  0.00     0.054 A 
BRANCH  85  86
ATOM     86  S   UNL A   1      52.020  25.186  32.342  1.00  0.00     0.124 S 
ATOM     87  O   UNL A   1      51.856  23.736  32.372  1.00  0.00    -0.237 OA
ATOM     88  O   UNL A   1      52.855  25.703  31.259  1.00  0.00    -0.237 OA
ATOM     89  O   UNL A   1      52.237  25.818  33.641  1.00  0.00    -0.744 OA
ENDBRANCH  85  86
ENDBRANCH  59  80
ENDBRANCH  33  34
ENDBRANCH  26  28
ENDBRANCH  25  26
ENDBRANCH  24  25
ENDBRANCH   1  24
TORSDOF 19
ENDMDL
MODEL 2
REMARK VINA RESULT:      -9.7      2.917      8.172
REMARK SMILES C[C@H]1SCCC[C@]1(Nc1ccc(Cl)cc1)C(=O)OCCOCCOC(=O)c1ccc(-c2c3nc(c(-c4ccc(S(=O)(=O)[O-])cc4)c4ccc([nH]4)c(-c4ccc(S(=O)(=O)[O-])cc4)c4nc(c(-c5ccc(S(=O)(=O)[O-])cc5)c5ccc2[nH]5)C=C4)C=C3)cc1
REMARK SMILES IDX 22 1 21 2 20 3 19 4 18 5 16 6 17 7 7 8 1 9 2 10 3 11 4 12
REMARK SMILES IDX 6 13 5 14 8 15 9 17 10 18 15 19 11 20 14 21 12 22 13 23
REMARK SMILES IDX 23 24 24 25 25 26 26 27 27 28 28 29 86 30 29 31 85 32 30 33
REMARK SMILES IDX 31 34 32 35 79 36 33 37 84 38 78 39 80 40 34 41 83 42 77 43
REMARK SMILES IDX 76 44 35 46 65 47 46 48 64 49 47 50 50 51 63 52 81 53 48 54
REMARK SMILES IDX 49 55 62 57 82 58 51 59 36 60 37 61 45 62 38 63 44 64 39 65
REMARK SMILES IDX 40 66 41 67 42 68 43 69 66 70 67 71 75 72 68 73 74 74 69 75
REMARK SMILES IDX 70 76 71 77 72 78 73 79 52 80 53 81 61 82 54 83 60 84 55 85
REMARK SMILES IDX 56 86 57 87 58 88 59 89
REMARK H PARENT 8 16 80 45 50 56
REMARK Flexibility Score: inf
ROOT
ATOM      1  C   UNL A   1      36.292  21.651  24.382  1.00  0.00     0.202 C 
ENDROOT
BRANCH   1   2
ATOM      2  O   UNL A   1      35.122  21.712  25.194  1.00  0.00    -0.374 OA
BRANCH   2   3
ATOM      3  C   UNL A   1      34.134  22.688  24.861  1.00  0.00     0.202 C 
BRANCH   3   4
ATOM      4  C   UNL A   1      34.462  23.625  23.697  1.00  0.00     0.261 C 
BRANCH   4   5
ATOM      5  O   UNL A   1      34.299  25.006  24.065  1.00  0.00    -0.461 OA
BRANCH   5   6
ATOM      6  C   UNL A   1      33.541  25.756  23.222  1.00  0.00     0.333 C 
ATOM      7  O   UNL A   1      33.876  26.012  22.068  1.00  0.00    -0.249 OA
BRANCH   6   8
ATOM      8  C   UNL A   1      32.204  26.264  23.871  1.00  0.00     0.147 C 
ATOM      9  C   UNL A   1      30.727  24.064  23.769  1.00  0.00     0.022 C 
ATOM     10  C   UNL A   1      30.936  25.516  23.319  1.00  0.00     0.080 C 
ATOM     11  S   UNL A   1      29.340  26.344  23.780  1.00  0.00    -0.156 SA
ATOM     12  C   UNL A   1      29.667  27.995  23.130  1.00  0.00     0.070 C 
ATOM     13  C   UNL A   1      32.168  27.766  23.431  1.00  0.00     0.042 C 
ATOM     14  C   UNL A   1      30.916  28.566  23.767  1.00  0.00     0.014 C 
BRANCH   8  15
ATOM     15  N   UNL A   1      32.218  26.228  25.368  1.00  0.00    -0.369 N 
ATOM     16  H   UNL A   1      31.892  25.429  25.842  1.00  0.00     0.161 HD
BRANCH  15  17
ATOM     17  C   UNL A   1      32.688  27.319  26.092  1.00  0.00     0.035 A 
ATOM     18  C   UNL A   1      31.803  28.208  26.714  1.00  0.00     0.027 A 
ATOM     19  C   UNL A   1      34.050  27.641  26.076  1.00  0.00     0.027 A 
ATOM     20  C   UNL A   1      32.253  29.420  27.244  1.00  0.00     0.022 A 
ATOM     21  C   UNL A   1      34.507  28.852  26.603  1.00  0.00     0.022 A 
ATOM     22  C   UNL A   1      33.603  29.745  27.169  1.00  0.00     0.041 A 
ATOM     23  Cl  UNL A   1      34.146  31.266  27.755  1.00  0.00    -0.084 Cl
ENDBRANCH  15  17
ENDBRANCH   8  15
ENDBRANCH   6   8
ENDBRANCH   5   6
ENDBRANCH   4   5
ENDBRANCH   3   4
ENDBRANCH   2   3
ENDBRANCH   1   2
BRANCH   1  24
ATOM     24  C   UNL A   1      37.643  21.697  25.103  1.00  0.00     0.261 C 
BRANCH  24  25
ATOM     25  O   UNL A   1      37.845  22.942  25.797  1.00  0.00    -0.460 OA
BRANCH  25  26
ATOM     26  C   UNL A   1      39.096  23.104  26.290  1.00  0.00     0.338 C 
ATOM     27  O   UNL A   1      40.054  22.357  26.117  1.00  0.00    -0.246 OA
BRANCH  26  28
ATOM     28  C   UNL A   1      39.239  24.419  26.938  1.00  0.00     0.060 A 
ATOM     29  C   UNL A   1      40.074  25.350  26.307  1.00  0.00     0.016 A 
ATOM     30  C   UNL A   1      38.663  24.710  28.178  1.00  0.00     0.016 A 
ATOM     31  C   UNL A   1      40.401  26.541  26.945  1.00  0.00     0.010 A 
ATOM     32  C   UNL A   1      38.999  25.907  28.823  1.00  0.00     0.010 A 
ATOM     33  C   UNL A   1      39.909  26.803  28.231  1.00  0.00    -0.014 A 
BRANCH  33  34
ATOM     34  C   UNL A   1      40.503  27.920  29.006  1.00  0.00     0.031 A 
ATOM     35  C   UNL A   1      39.680  29.161  29.239  1.00  0.00     0.074 A 
ATOM     36  C   UNL A   1      41.719  27.799  29.569  1.00  0.00     0.049 A 
ATOM     37  N   UNL A   1      39.980  30.238  29.918  1.00  0.00    -0.248 NA
ATOM     38  C   UNL A   1      38.340  29.188  28.629  1.00  0.00     0.031 C 
ATOM     39  C   UNL A   1      42.592  26.631  29.456  1.00  0.00     0.029 A 
ATOM     40  N   UNL A   1      42.425  28.673  30.356  1.00  0.00    -0.354 N 
ATOM     41  C   UNL A   1      38.866  31.065  29.826  1.00  0.00     0.074 A 
ATOM     42  C   UNL A   1      37.900  30.384  28.992  1.00  0.00     0.031 C 
ATOM     43  C   UNL A   1      43.722  26.865  30.146  1.00  0.00     0.029 A 
ATOM     44  C   UNL A   1      43.661  28.203  30.730  1.00  0.00     0.049 A 
ATOM     45  H   UNL A   1      42.079  29.554  30.627  1.00  0.00     0.167 HD
ATOM     46  C   UNL A   1      38.657  32.276  30.396  1.00  0.00     0.031 A 
ATOM     47  C   UNL A   1      44.636  28.791  31.452  1.00  0.00     0.031 A 
ATOM     48  C   UNL A   1      39.623  32.964  31.209  1.00  0.00     0.049 A 
ATOM     49  C   UNL A   1      44.405  30.166  32.023  1.00  0.00     0.074 A 
ATOM     50  C   UNL A   1      39.516  34.207  31.810  1.00  0.00     0.029 A 
ATOM     51  N   UNL A   1      40.874  32.466  31.540  1.00  0.00    -0.354 N 
ATOM     52  N   UNL A   1      43.346  30.934  31.923  1.00  0.00    -0.248 NA
ATOM     53  C   UNL A   1      45.495  30.744  32.821  1.00  0.00     0.031 C 
ATOM     54  C   UNL A   1      40.720  34.477  32.472  1.00  0.00     0.029 A 
ATOM     55  C   UNL A   1      41.552  33.379  32.330  1.00  0.00     0.049 A 
ATOM     56  H   UNL A   1      41.227  31.592  31.255  1.00  0.00     0.167 HD
ATOM     57  C   UNL A   1      43.633  32.072  32.669  1.00  0.00     0.074 A 
ATOM     58  C   UNL A   1      44.955  31.884  33.227  1.00  0.00     0.031 C 
ATOM     59  C   UNL A   1      42.870  33.175  32.878  1.00  0.00     0.031 A 
BRANCH  46  60
ATOM     60  C   UNL A   1      37.331  32.942  30.140  1.00  0.00    -0.014 A 
ATOM     61  C   UNL A   1      36.262  32.795  31.042  1.00  0.00     0.010 A 
ATOM     62  C   UNL A   1      37.160  33.752  29.002  1.00  0.00     0.010 A 
ATOM     63  C   UNL A   1      35.036  33.419  30.796  1.00  0.00     0.020 A 
ATOM     64  C   UNL A   1      35.944  34.399  28.765  1.00  0.00     0.020 A 
ATOM     65  C   UNL A   1      34.885  34.216  29.657  1.00  0.00     0.054 A 
BRANCH  65  66
ATOM     66  S   UNL A   1      33.291  35.036  29.375  1.00  0.00     0.124 S 
ATOM     67  O   UNL A   1      32.691  34.184  28.351  1.00  0.00    -0.237 OA
ATOM     68  O   UNL A   1      32.661  34.977  30.690  1.00  0.00    -0.237 OA
ATOM     69  O   UNL A   1      33.665  36.376  28.928  1.00  0.00    -0.744 OA
ENDBRANCH  65  66
ENDBRANCH  46  60
BRANCH  47  70
ATOM     70  C   UNL A   1      45.934  28.092  31.656  1.00  0.00    -0.014 A 
ATOM     71  C   UNL A   1      47.014  28.294  30.778  1.00  0.00     0.010 A 
ATOM     72  C   UNL A   1      46.085  27.198  32.731  1.00  0.00     0.010 A 
ATOM     73  C   UNL A   1      48.210  27.590  30.955  1.00  0.00     0.020 A 
ATOM     74  C   UNL A   1      47.288  26.515  32.928  1.00  0.00     0.020 A 
ATOM     75  C   UNL A   1      48.338  26.703  32.028  1.00  0.00     0.054 A 
BRANCH  75  76
ATOM     76  S   UNL A   1      49.906  25.820  32.258  1.00  0.00     0.124 S 
ATOM     77  O   UNL A   1      49.981  25.014  31.045  1.00  0.00    -0.237 OA
ATOM     78  O   UNL A   1      50.873  26.910  32.356  1.00  0.00    -0.237 OA
ATOM     79  O   UNL A   1      49.696  25.073  33.496  1.00  0.00    -0.744 OA
ENDBRANCH  75  76
ENDBRANCH  47  70
BRANCH  59  80
ATOM     80  C   UNL A   1      43.430  34.242  33.781  1.00  0.00    -0.014 A 
ATOM     81  C   UNL A   1      44.179  35.317  33.270  1.00  0.00     0.010 A 
ATOM     82  C   UNL A   1      43.179  34.178  35.164  1.00  0.00     0.010 A 
ATOM     83  C   UNL A   1      44.707  36.282  34.131  1.00  0.00     0.020 A 
ATOM     84  C   UNL A   1      43.682  35.156  36.025  1.00  0.00     0.020 A 
ATOM     85  C   UNL A   1      44.462  36.191  35.505  1.00  0.00     0.054 A 
BRANCH  85  86
ATOM     86  S   UNL A   1      45.148  37.461  36.604  1.00  0.00     0.124 S 
ATOM     87  O   UNL A   1      46.575  37.377  36.309  1.00  0.00    -0.237 OA
ATOM     88  O   UNL A   1      44.482  38.678  36.146  1.00  0.00    -0.237 OA
ATOM     89  O   UNL A   1      44.758  37.010  37.938  1.00  0.00    -0.744 OA
ENDBRANCH  85  86
ENDBRANCH  59  80
ENDBRANCH  33  34
ENDBRANCH  26  28
ENDBRANCH  25  26
ENDBRANCH  24  25
ENDBRANCH   1  24
TORSDOF 19
ENDMDL
MODEL 3
REMARK VINA RESULT:      -9.6      2.026      2.555
REMARK SMILES C[C@H]1SCCC[C@]1(Nc1ccc(Cl)cc1)C(=O)OCCOCCOC(=O)c1ccc(-c2c3nc(c(-c4ccc(S(=O)(=O)[O-])cc4)c4ccc([nH]4)c(-c4ccc(S(=O)(=O)[O-])cc4)c4nc(c(-c5ccc(S(=O)(=O)[O-])cc5)c5ccc2[nH]5)C=C4)C=C3)cc1
REMARK SMILES IDX 22 1 21 2 20 3 19 4 18 5 16 6 17 7 7 8 1 9 2 10 3 11 4 12
REMARK SMILES IDX 6 13 5 14 8 15 9 17 10 18 15 19 11 20 14 21 12 22 13 23
REMARK SMILES IDX 23 24 24 25 25 26 26 27 27 28 28 29 86 30 29 31 85 32 30 33
REMARK SMILES IDX 31 34 32 35 79 36 33 37 84 38 78 39 80 40 34 41 83 42 77 43
REMARK SMILES IDX 76 44 35 46 65 47 46 48 64 49 47 50 50 51 63 52 81 53 48 54
REMARK SMILES IDX 49 55 62 57 82 58 51 59 36 60 37 61 45 62 38 63 44 64 39 65
REMARK SMILES IDX 40 66 41 67 42 68 43 69 66 70 67 71 75 72 68 73 74 74 69 75
REMARK SMILES IDX 70 76 71 77 72 78 73 79 52 80 53 81 61 82 54 83 60 84 55 85
REMARK SMILES IDX 56 86 57 87 58 88 59 89
REMARK H PARENT 8 16 80 45 50 56
REMARK Flexibility Score: inf
ROOT
ATOM      1  C   UNL A   1      31.804  30.370  25.533  1.00  0.00     0.202 C 
ENDROOT
BRANCH   1   2
ATOM      2  O   UNL A   1      32.142  29.028  25.195  1.00  0.00    -0.374 OA
BRANCH   2   3
ATOM      3  C   UNL A   1      31.345  28.372  24.208  1.00  0.00     0.202 C 
BRANCH   3   4
ATOM      4  C   UNL A   1      32.093  27.532  23.172  1.00  0.00     0.261 C 
BRANCH   4   5
ATOM      5  O   UNL A   1      33.106  26.714  23.782  1.00  0.00    -0.461 OA
BRANCH   5   6
ATOM      6  C   UNL A   1      33.344  25.520  23.178  1.00  0.00     0.333 C 
ATOM      7  O   UNL A   1      33.822  25.424  22.049  1.00  0.00    -0.249 OA
BRANCH   6   8
ATOM      8  C   UNL A   1      32.943  24.283  24.058  1.00  0.00     0.147 C 
ATOM      9  C   UNL A   1      30.472  23.839  23.202  1.00  0.00     0.022 C 
ATOM     10  C   UNL A   1      31.401  24.226  24.361  1.00  0.00     0.080 C 
ATOM     11  S   UNL A   1      30.960  23.009  25.691  1.00  0.00    -0.156 SA
ATOM     12  C   UNL A   1      32.035  23.613  27.009  1.00  0.00     0.070 C 
ATOM     13  C   UNL A   1      33.734  24.542  25.383  1.00  0.00     0.042 C 
ATOM     14  C   UNL A   1      33.477  23.599  26.551  1.00  0.00     0.014 C 
BRANCH   8  15
ATOM     15  N   UNL A   1      33.410  22.975  23.496  1.00  0.00    -0.369 N 
ATOM     16  H   UNL A   1      32.824  22.465  22.892  1.00  0.00     0.161 HD
BRANCH  15  17
ATOM     17  C   UNL A   1      34.667  22.479  23.826  1.00  0.00     0.035 A 
ATOM     18  C   UNL A   1      34.806  21.315  24.592  1.00  0.00     0.027 A 
ATOM     19  C   UNL A   1      35.816  23.225  23.537  1.00  0.00     0.027 A 
ATOM     20  C   UNL A   1      36.045  20.941  25.115  1.00  0.00     0.022 A 
ATOM     21  C   UNL A   1      37.060  22.857  24.058  1.00  0.00     0.022 A 
ATOM     22  C   UNL A   1      37.165  21.725  24.861  1.00  0.00     0.041 A 
ATOM     23  Cl  UNL A   1      38.676  21.306  25.564  1.00  0.00    -0.084 Cl
ENDBRANCH  15  17
ENDBRANCH   8  15
ENDBRANCH   6   8
ENDBRANCH   5   6
ENDBRANCH   4   5
ENDBRANCH   3   4
ENDBRANCH   2   3
ENDBRANCH   1   2
BRANCH   1  24
ATOM     24  C   UNL A   1      32.097  30.821  26.969  1.00  0.00     0.261 C 
BRANCH  24  25
ATOM     25  O   UNL A   1      33.298  30.224  27.490  1.00  0.00    -0.460 OA
BRANCH  25  26
ATOM     26  C   UNL A   1      34.307  31.103  27.698  1.00  0.00     0.338 C 
ATOM     27  O   UNL A   1      34.211  32.323  27.774  1.00  0.00    -0.246 OA
BRANCH  26  28
ATOM     28  C   UNL A   1      35.561  30.397  28.016  1.00  0.00     0.060 A 
ATOM     29  C   UNL A   1      35.630  29.755  29.259  1.00  0.00     0.016 A 
ATOM     30  C   UNL A   1      36.679  30.444  27.179  1.00  0.00     0.016 A 
ATOM     31  C   UNL A   1      36.835  29.225  29.705  1.00  0.00     0.010 A 
ATOM     32  C   UNL A   1      37.894  29.915  27.633  1.00  0.00     0.010 A 
ATOM     33  C   UNL A   1      37.988  29.349  28.918  1.00  0.00    -0.014 A 
BRANCH  33  34
ATOM     34  C   UNL A   1      39.305  29.052  29.533  1.00  0.00     0.031 A 
ATOM     35  C   UNL A   1      39.760  29.876  30.710  1.00  0.00     0.074 A 
ATOM     36  C   UNL A   1      40.045  28.012  29.109  1.00  0.00     0.049 A 
ATOM     37  N   UNL A   1      40.849  29.767  31.425  1.00  0.00    -0.248 NA
ATOM     38  C   UNL A   1      38.864  30.963  31.140  1.00  0.00     0.031 C 
ATOM     39  C   UNL A   1      39.692  27.112  28.012  1.00  0.00     0.029 A 
ATOM     40  N   UNL A   1      41.249  27.534  29.563  1.00  0.00    -0.354 N 
ATOM     41  C   UNL A   1      40.766  30.762  32.394  1.00  0.00     0.074 A 
ATOM     42  C   UNL A   1      39.541  31.490  32.149  1.00  0.00     0.031 C 
ATOM     43  C   UNL A   1      40.663  26.192  27.873  1.00  0.00     0.029 A 
ATOM     44  C   UNL A   1      41.713  26.451  28.856  1.00  0.00     0.049 A 
ATOM     45  H   UNL A   1      41.734  27.930  30.322  1.00  0.00     0.167 HD
ATOM     46  C   UNL A   1      41.624  31.037  33.405  1.00  0.00     0.031 A 
ATOM     47  C   UNL A   1      42.861  25.755  28.981  1.00  0.00     0.031 A 
ATOM     48  C   UNL A   1      42.854  30.327  33.639  1.00  0.00     0.049 A 
ATOM     49  C   UNL A   1      43.830  26.119  30.074  1.00  0.00     0.074 A 
ATOM     50  C   UNL A   1      43.804  30.547  34.621  1.00  0.00     0.029 A 
ATOM     51  N   UNL A   1      43.301  29.255  32.882  1.00  0.00    -0.354 N 
ATOM     52  N   UNL A   1      43.737  27.066  30.979  1.00  0.00    -0.248 NA
ATOM     53  C   UNL A   1      45.052  25.309  30.176  1.00  0.00     0.031 C 
ATOM     54  C   UNL A   1      44.846  29.632  34.434  1.00  0.00     0.029 A 
ATOM     55  C   UNL A   1      44.517  28.807  33.370  1.00  0.00     0.049 A 
ATOM     56  H   UNL A   1      42.825  28.869  32.111  1.00  0.00     0.167 HD
ATOM     57  C   UNL A   1      44.873  26.944  31.773  1.00  0.00     0.074 A 
ATOM     58  C   UNL A   1      45.628  25.823  31.252  1.00  0.00     0.031 C 
ATOM     59  C   UNL A   1      45.256  27.690  32.840  1.00  0.00     0.031 A 
BRANCH  46  60
ATOM     60  C   UNL A   1      41.266  32.172  34.328  1.00  0.00    -0.014 A 
ATOM     61  C   UNL A   1      41.651  33.493  34.032  1.00  0.00     0.010 A 
ATOM     62  C   UNL A   1      40.507  31.923  35.486  1.00  0.00     0.010 A 
ATOM     63  C   UNL A   1      41.311  34.539  34.894  1.00  0.00     0.020 A 
ATOM     64  C   UNL A   1      40.143  32.971  36.337  1.00  0.00     0.020 A 
ATOM     65  C   UNL A   1      40.561  34.271  36.042  1.00  0.00     0.054 A 
BRANCH  65  66
ATOM     66  S   UNL A   1      40.111  35.651  37.130  1.00  0.00     0.124 S 
ATOM     67  O   UNL A   1      41.365  35.899  37.837  1.00  0.00    -0.237 OA
ATOM     68  O   UNL A   1      39.708  36.688  36.184  1.00  0.00    -0.237 OA
ATOM     69  O   UNL A   1      39.031  35.108  37.951  1.00  0.00    -0.744 OA
ENDBRANCH  65  66
ENDBRANCH  46  60
BRANCH  47  70
ATOM     70  C   UNL A   1      43.171  24.655  28.027  1.00  0.00    -0.014 A 
ATOM     71  C   UNL A   1      42.818  23.324  28.314  1.00  0.00     0.010 A 
ATOM     72  C   UNL A   1      43.844  24.939  26.826  1.00  0.00     0.010 A 
ATOM     73  C   UNL A   1      43.162  22.295  27.431  1.00  0.00     0.020 A 
ATOM     74  C   UNL A   1      44.163  23.918  25.927  1.00  0.00     0.020 A 
ATOM     75  C   UNL A   1      43.835  22.599  26.244  1.00  0.00     0.054 A 
BRANCH  75  76
ATOM     76  S   UNL A   1      44.248  21.255  25.097  1.00  0.00     0.124 S 
ATOM     77  O   UNL A   1      43.157  20.315  25.328  1.00  0.00    -0.237 OA
ATOM     78  O   UNL A   1      44.241  21.929  23.802  1.00  0.00    -0.237 OA
ATOM     79  O   UNL A   1      45.565  20.813  25.552  1.00  0.00    -0.744 OA
ENDBRANCH  75  76
ENDBRANCH  47  70
BRANCH  59  80
ATOM     80  C   UNL A   1      46.528  27.290  33.540  1.00  0.00    -0.014 A 
ATOM     81  C   UNL A   1      47.770  27.840  33.176  1.00  0.00     0.010 A 
ATOM     82  C   UNL A   1      46.472  26.365  34.599  1.00  0.00     0.010 A 
ATOM     83  C   UNL A   1      48.939  27.435  33.827  1.00  0.00     0.020 A 
ATOM     84  C   UNL A   1      47.634  25.978  35.270  1.00  0.00     0.020 A 
ATOM     85  C   UNL A   1      48.865  26.501  34.865  1.00  0.00     0.054 A 
BRANCH  85  86
ATOM     86  S   UNL A   1      50.393  25.998  35.702  1.00  0.00     0.124 S 
ATOM     87  O   UNL A   1      51.374  26.097  34.626  1.00  0.00    -0.237 OA
ATOM     88  O   UNL A   1      50.521  26.994  36.765  1.00  0.00    -0.237 OA
ATOM     89  O   UNL A   1      50.104  24.642  36.162  1.00  0.00    -0.744 OA
ENDBRANCH  85  86
ENDBRANCH  59  80
ENDBRANCH  33  34
ENDBRANCH  26  28
ENDBRANCH  25  26
ENDBRANCH  24  25
ENDBRANCH   1  24
TORSDOF 19
ENDMDL
