MODEL 1
REMARK VINA RESULT:     -10.5      0.000      0.000
REMARK SMILES CCC(CC)(NC(=O)c1cc(C)ccc1OC)C(=O)OCCOCCOC(=O)c1ccc(-c2c3nc(c(-c4ccc(S(=O)(=O)[O-])cc4)c4ccc([nH]4)c(-c4ccc(S(=O)(=O)[O-])cc4)c4nc(c(-c5ccc(S(=O)(=O)[O-])cc5)c5ccc2[nH]5)C=C4)C=C3)cc1
REMARK SMILES IDX 23 1 22 2 21 3 20 4 18 5 19 6 3 7 2 8 1 9 4 10 5 11 6 12
REMARK SMILES IDX 7 13 8 15 9 16 10 17 15 18 11 19 14 20 12 21 13 22 16 23
REMARK SMILES IDX 17 24 24 25 25 26 26 27 27 28 28 29 29 30 30 31 88 32 31 33
REMARK SMILES IDX 87 34 32 35 33 36 34 37 81 38 35 39 86 40 80 41 82 42 36 43
REMARK SMILES IDX 85 44 79 45 78 46 37 48 67 49 48 50 66 51 49 52 52 53 65 54
REMARK SMILES IDX 83 55 50 56 51 57 64 59 84 60 53 61 38 62 39 63 47 64 40 65
REMARK SMILES IDX 46 66 41 67 42 68 43 69 44 70 45 71 68 72 69 73 77 74 70 75
REMARK SMILES IDX 76 76 71 77 72 78 73 79 74 80 75 81 54 82 55 83 63 84 56 85
REMARK SMILES IDX 62 86 57 87 58 88 59 89 60 90 61 91
REMARK H PARENT 6 14 82 47 52 58
REMARK Flexibility Score: inf
ROOT
ATOM      1  O   UNL A   1      35.124  33.928  27.620  1.00  0.00    -0.374 OA
ENDROOT
BRANCH   1   2
ATOM      2  C   UNL A   1      34.738  34.719  28.697  1.00  0.00     0.202 C 
BRANCH   2   3
ATOM      3  C   UNL A   1      34.279  33.977  29.840  1.00  0.00     0.261 C 
BRANCH   3   4
ATOM      4  O   UNL A   1      35.327  33.913  30.734  1.00  0.00    -0.461 OA
BRANCH   4   5
ATOM      5  C   UNL A   1      35.033  33.016  31.679  1.00  0.00     0.331 C 
ATOM      6  O   UNL A   1      33.926  32.542  31.898  1.00  0.00    -0.249 OA
BRANCH   5   7
ATOM      7  C   UNL A   1      36.254  32.831  32.506  1.00  0.00     0.137 C 
BRANCH   7   8
ATOM      8  C   UNL A   1      35.772  33.331  33.957  1.00  0.00     0.037 C 
ATOM      9  C   UNL A   1      35.046  34.718  34.060  1.00  0.00     0.007 C 
ENDBRANCH   7   8
BRANCH   7  10
ATOM     10  C   UNL A   1      37.212  33.884  31.878  1.00  0.00     0.037 C 
ATOM     11  C   UNL A   1      38.224  34.556  32.775  1.00  0.00     0.007 C 
ENDBRANCH   7  10
BRANCH   7  12
ATOM     12  N   UNL A   1      36.692  31.200  32.514  1.00  0.00    -0.336 N 
ATOM     13  C   UNL A   1      37.630  30.108  32.831  1.00  0.00     0.255 C 
ATOM     14  H   UNL A   1      35.931  30.745  32.086  1.00  0.00     0.165 HD
ATOM     15  O   UNL A   1      37.083  29.003  32.625  1.00  0.00    -0.269 OA
BRANCH  13  16
ATOM     16  C   UNL A   1      39.156  29.940  33.416  1.00  0.00     0.082 A 
ATOM     17  C   UNL A   1      40.176  28.452  33.158  1.00  0.00     0.021 A 
ATOM     18  C   UNL A   1      39.987  31.238  34.330  1.00  0.00     0.131 A 
ATOM     19  C   UNL A   1      41.941  28.291  33.646  1.00  0.00    -0.050 A 
ATOM     20  C   UNL A   1      41.921  30.972  34.908  1.00  0.00     0.047 A 
ATOM     21  C   UNL A   1      43.110  27.686  32.805  1.00  0.00     0.044 C 
ATOM     22  C   UNL A   1      42.783  29.507  34.546  1.00  0.00     0.007 A 
BRANCH  18  23
ATOM     23  O   UNL A   1      38.905  31.921  34.955  1.00  0.00    -0.496 OA
ATOM     24  C   UNL A   1      38.522  31.389  36.253  1.00  0.00     0.278 C 
ENDBRANCH  18  23
ENDBRANCH  13  16
ENDBRANCH   7  12
ENDBRANCH   5   7
ENDBRANCH   4   5
ENDBRANCH   3   4
ENDBRANCH   2   3
ENDBRANCH   1   2
BRANCH   1  25
ATOM     25  C   UNL A   1      34.630  32.653  27.952  1.00  0.00     0.202 C 
BRANCH  25  26
ATOM     26  C   UNL A   1      35.639  31.446  28.187  1.00  0.00     0.261 C 
BRANCH  26  27
ATOM     27  O   UNL A   1      37.082  31.383  28.807  1.00  0.00    -0.460 OA
BRANCH  27  28
ATOM     28  C   UNL A   1      38.330  31.058  29.264  1.00  0.00     0.338 C 
ATOM     29  O   UNL A   1      38.918  31.784  30.065  1.00  0.00    -0.246 OA
BRANCH  28  30
ATOM     30  C   UNL A   1      39.040  29.770  28.930  1.00  0.00     0.060 A 
ATOM     31  C   UNL A   1      39.561  28.814  29.841  1.00  0.00     0.016 A 
ATOM     32  C   UNL A   1      39.319  29.585  27.609  1.00  0.00     0.016 A 
ATOM     33  C   UNL A   1      40.680  27.987  29.494  1.00  0.00     0.010 A 
ATOM     34  C   UNL A   1      40.529  28.969  27.366  1.00  0.00     0.010 A 
ATOM     35  C   UNL A   1      41.310  28.221  28.282  1.00  0.00    -0.014 A 
BRANCH  35  36
ATOM     36  C   UNL A   1      42.726  27.904  27.788  1.00  0.00     0.031 A 
ATOM     37  C   UNL A   1      42.931  26.426  27.871  1.00  0.00     0.074 A 
ATOM     38  C   UNL A   1      43.653  28.765  27.216  1.00  0.00     0.049 A 
ATOM     39  N   UNL A   1      43.681  25.845  28.766  1.00  0.00    -0.248 NA
ATOM     40  C   UNL A   1      42.027  25.429  27.205  1.00  0.00     0.031 C 
ATOM     41  C   UNL A   1      44.899  28.576  26.457  1.00  0.00     0.029 A 
ATOM     42  N   UNL A   1      43.629  30.150  27.166  1.00  0.00    -0.354 N 
ATOM     43  C   UNL A   1      43.662  24.534  28.325  1.00  0.00     0.074 A 
ATOM     44  C   UNL A   1      42.309  24.346  27.923  1.00  0.00     0.031 C 
ATOM     45  C   UNL A   1      45.636  29.722  26.397  1.00  0.00     0.029 A 
ATOM     46  C   UNL A   1      44.866  30.784  27.013  1.00  0.00     0.049 A 
ATOM     47  H   UNL A   1      42.789  30.659  27.236  1.00  0.00     0.167 HD
ATOM     48  C   UNL A   1      44.712  24.067  27.566  1.00  0.00     0.031 A 
ATOM     49  C   UNL A   1      45.189  31.819  27.851  1.00  0.00     0.031 A 
ATOM     50  C   UNL A   1      45.798  25.065  27.476  1.00  0.00     0.049 A 
ATOM     51  C   UNL A   1      45.949  31.008  28.896  1.00  0.00     0.074 A 
ATOM     52  C   UNL A   1      46.502  25.645  26.437  1.00  0.00     0.029 A 
ATOM     53  N   UNL A   1      46.095  25.843  28.598  1.00  0.00    -0.354 N 
ATOM     54  N   UNL A   1      45.743  29.723  29.089  1.00  0.00    -0.248 NA
ATOM     55  C   UNL A   1      47.189  31.473  29.508  1.00  0.00     0.031 C 
ATOM     56  C   UNL A   1      47.208  26.781  26.965  1.00  0.00     0.029 A 
ATOM     57  C   UNL A   1      46.837  26.965  28.294  1.00  0.00     0.049 A 
ATOM     58  H   UNL A   1      45.804  25.615  29.511  1.00  0.00     0.167 HD
ATOM     59  C   UNL A   1      46.914  29.159  29.491  1.00  0.00     0.074 A 
ATOM     60  C   UNL A   1      47.750  30.301  29.856  1.00  0.00     0.031 C 
ATOM     61  C   UNL A   1      47.271  27.844  29.382  1.00  0.00     0.031 A 
BRANCH  48  62
ATOM     62  C   UNL A   1      44.601  22.831  26.656  1.00  0.00    -0.014 A 
ATOM     63  C   UNL A   1      45.745  22.413  25.959  1.00  0.00     0.010 A 
ATOM     64  C   UNL A   1      43.453  22.018  26.461  1.00  0.00     0.010 A 
ATOM     65  C   UNL A   1      45.764  21.241  25.182  1.00  0.00     0.020 A 
ATOM     66  C   UNL A   1      43.453  20.842  25.695  1.00  0.00     0.020 A 
ATOM     67  C   UNL A   1      44.624  20.446  25.078  1.00  0.00     0.054 A 
BRANCH  67  68
ATOM     68  S   UNL A   1      44.713  18.868  24.197  1.00  0.00     0.124 S 
ATOM     69  O   UNL A   1      44.507  19.272  22.809  1.00  0.00    -0.237 OA
ATOM     70  O   UNL A   1      46.057  18.405  24.529  1.00  0.00    -0.237 OA
ATOM     71  O   UNL A   1      43.628  18.079  24.779  1.00  0.00    -0.744 OA
ENDBRANCH  67  68
ENDBRANCH  48  62
BRANCH  49  72
ATOM     72  C   UNL A   1      43.975  32.805  28.050  1.00  0.00    -0.014 A 
ATOM     73  C   UNL A   1      43.444  33.435  29.670  1.00  0.00     0.010 A 
ATOM     74  C   UNL A   1      43.775  33.822  26.599  1.00  0.00     0.010 A 
ATOM     75  C   UNL A   1      42.860  35.192  29.810  1.00  0.00     0.020 A 
ATOM     76  C   UNL A   1      43.272  35.486  26.580  1.00  0.00     0.020 A 
ATOM     77  C   UNL A   1      42.821  36.276  28.091  1.00  0.00     0.054 A 
BRANCH  77  78
ATOM     78  S   UNL A   1      42.751  38.318  27.505  1.00  0.00     0.124 S 
ATOM     79  O   UNL A   1      41.715  38.582  26.512  1.00  0.00    -0.237 OA
ATOM     80  O   UNL A   1      42.466  38.953  28.783  1.00  0.00    -0.237 OA
ATOM     81  O   UNL A   1      44.108  38.461  26.996  1.00  0.00    -0.744 OA
ENDBRANCH  77  78
ENDBRANCH  49  72
BRANCH  61  82
ATOM     82  C   UNL A   1      48.141  27.248  30.440  1.00  0.00    -0.014 A 
ATOM     83  C   UNL A   1      47.682  27.046  31.747  1.00  0.00     0.010 A 
ATOM     84  C   UNL A   1      49.395  26.705  30.083  1.00  0.00     0.010 A 
ATOM     85  C   UNL A   1      48.505  26.479  32.704  1.00  0.00     0.020 A 
ATOM     86  C   UNL A   1      50.184  26.044  31.009  1.00  0.00     0.020 A 
ATOM     87  C   UNL A   1      49.755  25.995  32.329  1.00  0.00     0.054 A 
BRANCH  87  88
ATOM     88  S   UNL A   1      50.815  25.308  33.603  1.00  0.00     0.124 S 
ATOM     89  O   UNL A   1      50.178  24.014  33.838  1.00  0.00    -0.237 OA
ATOM     90  O   UNL A   1      52.116  25.257  32.938  1.00  0.00    -0.237 OA
ATOM     91  O   UNL A   1      50.711  26.269  34.696  1.00  0.00    -0.744 OA
ENDBRANCH  87  88
ENDBRANCH  61  82
ENDBRANCH  35  36
ENDBRANCH  28  30
ENDBRANCH  27  28
ENDBRANCH  26  27
ENDBRANCH  25  26
ENDBRANCH   1  25
TORSDOF 22
ENDMDL
MODEL 2
REMARK VINA RESULT:      -9.6      4.538      7.870
REMARK SMILES CCC(CC)(NC(=O)c1cc(C)ccc1OC)C(=O)OCCOCCOC(=O)c1ccc(-c2c3nc(c(-c4ccc(S(=O)(=O)[O-])cc4)c4ccc([nH]4)c(-c4ccc(S(=O)(=O)[O-])cc4)c4nc(c(-c5ccc(S(=O)(=O)[O-])cc5)c5ccc2[nH]5)C=C4)C=C3)cc1
REMARK SMILES IDX 23 1 22 2 21 3 20 4 18 5 19 6 3 7 2 8 1 9 4 10 5 11 6 12
REMARK SMILES IDX 7 13 8 15 9 16 10 17 15 18 11 19 14 20 12 21 13 22 16 23
REMARK SMILES IDX 17 24 24 25 25 26 26 27 27 28 28 29 29 30 30 31 88 32 31 33
REMARK SMILES IDX 87 34 32 35 33 36 34 37 81 38 35 39 86 40 80 41 82 42 36 43
REMARK SMILES IDX 85 44 79 45 78 46 37 48 67 49 48 50 66 51 49 52 52 53 65 54
REMARK SMILES IDX 83 55 50 56 51 57 64 59 84 60 53 61 38 62 39 63 47 64 40 65
REMARK SMILES IDX 46 66 41 67 42 68 43 69 44 70 45 71 68 72 69 73 77 74 70 75
REMARK SMILES IDX 76 76 71 77 72 78 73 79 74 80 75 81 54 82 55 83 63 84 56 85
REMARK SMILES IDX 62 86 57 87 58 88 59 89 60 90 61 91
REMARK H PARENT 6 14 82 47 52 58
REMARK Flexibility Score: inf
ROOT
ATOM      1  O   UNL A   1      38.964  32.945  34.603  1.00  0.00    -0.374 OA
ENDROOT
BRANCH   1   2
ATOM      2  C   UNL A   1      37.765  32.333  34.252  1.00  0.00     0.202 C 
BRANCH   2   3
ATOM      3  C   UNL A   1      36.622  32.812  34.980  1.00  0.00     0.261 C 
BRANCH   3   4
ATOM      4  O   UNL A   1      35.594  32.966  34.075  1.00  0.00    -0.461 OA
BRANCH   4   5
ATOM      5  C   UNL A   1      35.449  34.265  33.804  1.00  0.00     0.331 C 
ATOM      6  O   UNL A   1      35.342  35.162  34.630  1.00  0.00    -0.249 OA
BRANCH   5   7
ATOM      7  C   UNL A   1      35.278  34.393  32.333  1.00  0.00     0.137 C 
BRANCH   7   8
ATOM      8  C   UNL A   1      34.396  35.732  32.199  1.00  0.00     0.037 C 
ATOM      9  C   UNL A   1      32.834  35.596  32.219  1.00  0.00     0.007 C 
ENDBRANCH   7   8
BRANCH   7  10
ATOM     10  C   UNL A   1      34.397  33.150  32.018  1.00  0.00     0.037 C 
ATOM     11  C   UNL A   1      35.069  31.917  31.463  1.00  0.00     0.007 C 
ENDBRANCH   7  10
BRANCH   7  12
ATOM     12  N   UNL A   1      36.790  34.556  31.599  1.00  0.00    -0.336 N 
ATOM     13  C   UNL A   1      37.875  34.057  30.734  1.00  0.00     0.255 C 
ATOM     14  H   UNL A   1      37.113  35.433  31.906  1.00  0.00     0.165 HD
ATOM     15  O   UNL A   1      38.719  34.960  30.545  1.00  0.00    -0.269 OA
BRANCH  13  16
ATOM     16  C   UNL A   1      38.255  32.680  29.923  1.00  0.00     0.082 A 
ATOM     17  C   UNL A   1      39.774  31.719  30.226  1.00  0.00     0.021 A 
ATOM     18  C   UNL A   1      37.178  31.960  28.686  1.00  0.00     0.131 A 
ATOM     19  C   UNL A   1      40.155  30.089  29.466  1.00  0.00    -0.050 A 
ATOM     20  C   UNL A   1      37.689  30.187  27.826  1.00  0.00     0.047 A 
ATOM     21  C   UNL A   1      40.733  28.821  30.172  1.00  0.00     0.044 C 
ATOM     22  C   UNL A   1      39.157  29.360  28.254  1.00  0.00     0.007 A 
BRANCH  18  23
ATOM     23  O   UNL A   1      36.500  33.097  28.163  1.00  0.00    -0.496 OA
ATOM     24  C   UNL A   1      35.065  32.925  27.996  1.00  0.00     0.278 C 
ENDBRANCH  18  23
ENDBRANCH  13  16
ENDBRANCH   7  12
ENDBRANCH   5   7
ENDBRANCH   4   5
ENDBRANCH   3   4
ENDBRANCH   2   3
ENDBRANCH   1   2
BRANCH   1  25
ATOM     25  C   UNL A   1      38.722  33.424  35.904  1.00  0.00     0.202 C 
BRANCH  25  26
ATOM     26  C   UNL A   1      39.595  34.620  36.486  1.00  0.00     0.261 C 
BRANCH  26  27
ATOM     27  O   UNL A   1      40.821  35.411  35.902  1.00  0.00    -0.460 OA
BRANCH  27  28
ATOM     28  C   UNL A   1      41.905  35.883  35.214  1.00  0.00     0.338 C 
ATOM     29  O   UNL A   1      42.366  36.999  35.451  1.00  0.00    -0.246 OA
BRANCH  28  30
ATOM     30  C   UNL A   1      42.683  35.072  34.209  1.00  0.00     0.060 A 
ATOM     31  C   UNL A   1      44.057  35.204  33.876  1.00  0.00     0.016 A 
ATOM     32  C   UNL A   1      41.942  34.212  33.457  1.00  0.00     0.016 A 
ATOM     33  C   UNL A   1      44.545  34.848  32.575  1.00  0.00     0.010 A 
ATOM     34  C   UNL A   1      42.361  34.097  32.147  1.00  0.00     0.010 A 
ATOM     35  C   UNL A   1      43.620  34.471  31.615  1.00  0.00    -0.014 A 
BRANCH  35  36
ATOM     36  C   UNL A   1      43.677  34.478  30.082  1.00  0.00     0.031 A 
ATOM     37  C   UNL A   1      44.113  33.122  29.625  1.00  0.00     0.074 A 
ATOM     38  C   UNL A   1      43.272  35.476  29.208  1.00  0.00     0.049 A 
ATOM     39  N   UNL A   1      45.296  32.864  29.143  1.00  0.00    -0.248 NA
ATOM     40  C   UNL A   1      43.405  31.855  30.008  1.00  0.00     0.031 C 
ATOM     41  C   UNL A   1      43.003  35.530  27.762  1.00  0.00     0.029 A 
ATOM     42  N   UNL A   1      42.943  36.792  29.493  1.00  0.00    -0.354 N 
ATOM     43  C   UNL A   1      45.142  31.551  28.737  1.00  0.00     0.074 A 
ATOM     44  C   UNL A   1      44.376  30.973  29.789  1.00  0.00     0.031 C 
ATOM     45  C   UNL A   1      42.956  36.812  27.302  1.00  0.00     0.029 A 
ATOM     46  C   UNL A   1      43.070  37.703  28.440  1.00  0.00     0.049 A 
ATOM     47  H   UNL A   1      42.639  37.071  30.387  1.00  0.00     0.167 HD
ATOM     48  C   UNL A   1      44.866  31.287  27.413  1.00  0.00     0.031 A 
ATOM     49  C   UNL A   1      43.744  38.877  28.655  1.00  0.00     0.031 A 
ATOM     50  C   UNL A   1      44.932  32.515  26.593  1.00  0.00     0.049 A 
ATOM     51  C   UNL A   1      45.116  38.417  28.171  1.00  0.00     0.074 A 
ATOM     52  C   UNL A   1      44.078  33.133  25.699  1.00  0.00     0.029 A 
ATOM     53  N   UNL A   1      45.912  33.468  26.882  1.00  0.00    -0.354 N 
ATOM     54  N   UNL A   1      45.484  37.154  28.166  1.00  0.00    -0.248 NA
ATOM     55  C   UNL A   1      45.986  39.256  27.353  1.00  0.00     0.031 C 
ATOM     56  C   UNL A   1      44.567  34.467  25.474  1.00  0.00     0.029 A 
ATOM     57  C   UNL A   1      45.644  34.701  26.325  1.00  0.00     0.049 A 
ATOM     58  H   UNL A   1      46.710  33.280  27.427  1.00  0.00     0.167 HD
ATOM     59  C   UNL A   1      46.342  36.963  27.128  1.00  0.00     0.074 A 
ATOM     60  C   UNL A   1      46.720  38.318  26.729  1.00  0.00     0.031 C 
ATOM     61  C   UNL A   1      46.616  35.782  26.497  1.00  0.00     0.031 A 
BRANCH  48  62
ATOM     62  C   UNL A   1      44.233  29.968  26.938  1.00  0.00    -0.014 A 
ATOM     63  C   UNL A   1      45.086  28.907  26.594  1.00  0.00     0.010 A 
ATOM     64  C   UNL A   1      42.847  29.676  26.838  1.00  0.00     0.010 A 
ATOM     65  C   UNL A   1      44.597  27.636  26.241  1.00  0.00     0.020 A 
ATOM     66  C   UNL A   1      42.340  28.413  26.494  1.00  0.00     0.020 A 
ATOM     67  C   UNL A   1      43.225  27.389  26.222  1.00  0.00     0.054 A 
BRANCH  67  68
ATOM     68  S   UNL A   1      42.625  25.710  25.912  1.00  0.00     0.124 S 
ATOM     69  O   UNL A   1      43.825  25.031  25.435  1.00  0.00    -0.237 OA
ATOM     70  O   UNL A   1      42.150  25.304  27.233  1.00  0.00    -0.237 OA
ATOM     71  O   UNL A   1      41.577  25.891  24.910  1.00  0.00    -0.744 OA
ENDBRANCH  67  68
ENDBRANCH  48  62
BRANCH  49  72
ATOM     72  C   UNL A   1      43.346  39.530  30.033  1.00  0.00    -0.014 A 
ATOM     73  C   UNL A   1      44.346  39.386  31.543  1.00  0.00     0.010 A 
ATOM     74  C   UNL A   1      42.383  41.005  29.750  1.00  0.00     0.010 A 
ATOM     75  C   UNL A   1      44.482  40.848  32.681  1.00  0.00     0.020 A 
ATOM     76  C   UNL A   1      42.431  42.455  30.706  1.00  0.00     0.020 A 
ATOM     77  C   UNL A   1      43.440  42.510  32.153  1.00  0.00     0.054 A 
BRANCH  77  78
ATOM     78  S   UNL A   1      43.433  44.588  32.603  1.00  0.00     0.124 S 
ATOM     79  O   UNL A   1      44.450  44.953  33.585  1.00  0.00    -0.237 OA
ATOM     80  O   UNL A   1      43.710  45.146  31.288  1.00  0.00    -0.237 OA
ATOM     81  O   UNL A   1      42.067  44.718  33.089  1.00  0.00    -0.744 OA
ENDBRANCH  77  78
ENDBRANCH  49  72
BRANCH  61  82
ATOM     82  C   UNL A   1      47.992  35.559  25.960  1.00  0.00    -0.014 A 
ATOM     83  C   UNL A   1      48.665  34.343  26.133  1.00  0.00     0.010 A 
ATOM     84  C   UNL A   1      48.568  36.523  25.104  1.00  0.00     0.010 A 
ATOM     85  C   UNL A   1      49.934  34.159  25.613  1.00  0.00     0.020 A 
ATOM     86  C   UNL A   1      49.792  36.305  24.495  1.00  0.00     0.020 A 
ATOM     87  C   UNL A   1      50.492  35.149  24.810  1.00  0.00     0.054 A 
BRANCH  87  88
ATOM     88  S   UNL A   1      52.157  34.897  24.190  1.00  0.00     0.124 S 
ATOM     89  O   UNL A   1      52.926  34.884  25.432  1.00  0.00    -0.237 OA
ATOM     90  O   UNL A   1      52.048  33.611  23.503  1.00  0.00    -0.237 OA
ATOM     91  O   UNL A   1      52.382  36.049  23.322  1.00  0.00    -0.744 OA
ENDBRANCH  87  88
ENDBRANCH  61  82
ENDBRANCH  35  36
ENDBRANCH  28  30
ENDBRANCH  27  28
ENDBRANCH  26  27
ENDBRANCH  25  26
ENDBRANCH   1  25
TORSDOF 22
ENDMDL
MODEL 3
REMARK VINA RESULT:      -9.6      5.182     11.875
REMARK SMILES CCC(CC)(NC(=O)c1cc(C)ccc1OC)C(=O)OCCOCCOC(=O)c1ccc(-c2c3nc(c(-c4ccc(S(=O)(=O)[O-])cc4)c4ccc([nH]4)c(-c4ccc(S(=O)(=O)[O-])cc4)c4nc(c(-c5ccc(S(=O)(=O)[O-])cc5)c5ccc2[nH]5)C=C4)C=C3)cc1
REMARK SMILES IDX 23 1 22 2 21 3 20 4 18 5 19 6 3 7 2 8 1 9 4 10 5 11 6 12
REMARK SMILES IDX 7 13 8 15 9 16 10 17 15 18 11 19 14 20 12 21 13 22 16 23
REMARK SMILES IDX 17 24 24 25 25 26 26 27 27 28 28 29 29 30 30 31 88 32 31 33
REMARK SMILES IDX 87 34 32 35 33 36 34 37 81 38 35 39 86 40 80 41 82 42 36 43
REMARK SMILES IDX 85 44 79 45 78 46 37 48 67 49 48 50 66 51 49 52 52 53 65 54
REMARK SMILES IDX 83 55 50 56 51 57 64 59 84 60 53 61 38 62 39 63 47 64 40 65
REMARK SMILES IDX 46 66 41 67 42 68 43 69 44 70 45 71 68 72 69 73 77 74 70 75
REMARK SMILES IDX 76 76 71 77 72 78 73 79 74 80 75 81 54 82 55 83 63 84 56 85
REMARK SMILES IDX 62 86 57 87 58 88 59 89 60 90 61 91
REMARK H PARENT 6 14 82 47 52 58
REMARK Flexibility Score: inf
ROOT
ATOM      1  O   UNL A   1      38.516  21.418  25.794  1.00  0.00    -0.374 OA
ENDROOT
BRANCH   1   2
ATOM      2  C   UNL A   1      37.301  22.084  25.678  1.00  0.00     0.202 C 
BRANCH   2   3
ATOM      3  C   UNL A   1      36.201  21.244  25.292  1.00  0.00     0.261 C 
BRANCH   3   4
ATOM      4  O   UNL A   1      35.149  22.071  24.963  1.00  0.00    -0.461 OA
BRANCH   4   5
ATOM      5  C   UNL A   1      34.187  21.932  25.878  1.00  0.00     0.331 C 
ATOM      6  O   UNL A   1      34.355  21.642  27.056  1.00  0.00    -0.249 OA
BRANCH   5   7
ATOM      7  C   UNL A   1      32.885  22.030  25.168  1.00  0.00     0.137 C 
BRANCH   7   8
ATOM      8  C   UNL A   1      32.399  20.497  25.116  1.00  0.00     0.037 C 
ATOM      9  C   UNL A   1      33.128  19.522  24.127  1.00  0.00     0.007 C 
ENDBRANCH   7   8
BRANCH   7  10
ATOM     10  C   UNL A   1      33.342  22.485  23.752  1.00  0.00     0.037 C 
ATOM     11  C   UNL A   1      32.486  22.106  22.567  1.00  0.00     0.007 C 
ENDBRANCH   7  10
BRANCH   7  12
ATOM     12  N   UNL A   1      31.826  22.998  26.058  1.00  0.00    -0.336 N 
ATOM     13  C   UNL A   1      31.247  24.307  26.411  1.00  0.00     0.255 C 
ATOM     14  H   UNL A   1      31.353  22.362  26.642  1.00  0.00     0.165 HD
ATOM     15  O   UNL A   1      30.264  24.150  27.166  1.00  0.00    -0.269 OA
BRANCH  13  16
ATOM     16  C   UNL A   1      31.502  25.891  26.054  1.00  0.00     0.082 A 
ATOM     17  C   UNL A   1      32.390  27.041  27.154  1.00  0.00     0.021 A 
ATOM     18  C   UNL A   1      30.965  26.631  24.513  1.00  0.00     0.131 A 
ATOM     19  C   UNL A   1      32.844  28.769  26.720  1.00  0.00    -0.050 A 
ATOM     20  C   UNL A   1      31.436  28.573  24.121  1.00  0.00     0.047 A 
ATOM     21  C   UNL A   1      34.210  29.485  26.967  1.00  0.00     0.044 C 
ATOM     22  C   UNL A   1      32.335  29.536  25.254  1.00  0.00     0.007 A 
BRANCH  18  23
ATOM     23  O   UNL A   1      29.820  25.856  24.176  1.00  0.00    -0.496 OA
ATOM     24  C   UNL A   1      28.620  26.631  23.907  1.00  0.00     0.278 C 
ENDBRANCH  18  23
ENDBRANCH  13  16
ENDBRANCH   7  12
ENDBRANCH   5   7
ENDBRANCH   4   5
ENDBRANCH   3   4
ENDBRANCH   2   3
ENDBRANCH   1   2
BRANCH   1  25
ATOM     25  C   UNL A   1      39.458  22.460  25.875  1.00  0.00     0.202 C 
BRANCH  25  26
ATOM     26  C   UNL A   1      39.708  23.200  27.261  1.00  0.00     0.261 C 
BRANCH  26  27
ATOM     27  O   UNL A   1      39.872  24.719  27.631  1.00  0.00    -0.460 OA
BRANCH  27  28
ATOM     28  C   UNL A   1      39.866  26.084  27.716  1.00  0.00     0.338 C 
ATOM     29  O   UNL A   1      38.812  26.704  27.851  1.00  0.00    -0.246 OA
BRANCH  28  30
ATOM     30  C   UNL A   1      41.113  26.931  27.762  1.00  0.00     0.060 A 
ATOM     31  C   UNL A   1      42.345  26.615  28.394  1.00  0.00     0.016 A 
ATOM     32  C   UNL A   1      40.984  28.186  27.248  1.00  0.00     0.016 A 
ATOM     33  C   UNL A   1      43.213  27.644  28.889  1.00  0.00     0.010 A 
ATOM     34  C   UNL A   1      41.693  29.155  27.929  1.00  0.00     0.010 A 
ATOM     35  C   UNL A   1      42.767  28.954  28.831  1.00  0.00    -0.014 A 
BRANCH  35  36
ATOM     36  C   UNL A   1      43.156  30.203  29.631  1.00  0.00     0.031 A 
ATOM     37  C   UNL A   1      41.911  30.793  30.214  1.00  0.00     0.074 A 
ATOM     38  C   UNL A   1      44.426  30.677  29.927  1.00  0.00     0.049 A 
ATOM     39  N   UNL A   1      41.354  31.888  29.779  1.00  0.00    -0.248 NA
ATOM     40  C   UNL A   1      40.961  30.021  31.084  1.00  0.00     0.031 C 
ATOM     41  C   UNL A   1      44.960  31.660  30.884  1.00  0.00     0.029 A 
ATOM     42  N   UNL A   1      45.641  30.288  29.384  1.00  0.00    -0.354 N 
ATOM     43  C   UNL A   1      40.361  32.078  30.722  1.00  0.00     0.074 A 
ATOM     44  C   UNL A   1      39.867  30.762  30.944  1.00  0.00     0.031 C 
ATOM     45  C   UNL A   1      46.234  32.032  30.572  1.00  0.00     0.029 A 
ATOM     46  C   UNL A   1      46.676  31.226  29.451  1.00  0.00     0.049 A 
ATOM     47  H   UNL A   1      45.768  29.402  28.973  1.00  0.00     0.167 HD
ATOM     48  C   UNL A   1      40.584  32.951  31.764  1.00  0.00     0.031 A 
ATOM     49  C   UNL A   1      47.397  31.500  28.318  1.00  0.00     0.031 A 
ATOM     50  C   UNL A   1      41.861  33.676  31.597  1.00  0.00     0.049 A 
ATOM     51  C   UNL A   1      46.591  32.706  27.849  1.00  0.00     0.074 A 
ATOM     52  C   UNL A   1      42.973  33.881  32.392  1.00  0.00     0.029 A 
ATOM     53  N   UNL A   1      42.250  34.072  30.315  1.00  0.00    -0.354 N 
ATOM     54  N   UNL A   1      45.334  32.899  28.185  1.00  0.00    -0.248 NA
ATOM     55  C   UNL A   1      47.213  33.909  27.304  1.00  0.00     0.031 C 
ATOM     56  C   UNL A   1      44.024  34.395  31.555  1.00  0.00     0.029 A 
ATOM     57  C   UNL A   1      43.591  34.385  30.232  1.00  0.00     0.049 A 
ATOM     58  H   UNL A   1      41.632  34.121  29.550  1.00  0.00     0.167 HD
ATOM     59  C   UNL A   1      45.109  34.239  28.251  1.00  0.00     0.074 A 
ATOM     60  C   UNL A   1      46.267  34.824  27.577  1.00  0.00     0.031 C 
ATOM     61  C   UNL A   1      44.127  34.872  28.960  1.00  0.00     0.031 A 
BRANCH  48  62
ATOM     62  C   UNL A   1      39.787  32.904  33.080  1.00  0.00    -0.014 A 
ATOM     63  C   UNL A   1      40.266  32.092  34.119  1.00  0.00     0.010 A 
ATOM     64  C   UNL A   1      38.609  33.635  33.388  1.00  0.00     0.010 A 
ATOM     65  C   UNL A   1      39.658  32.060  35.387  1.00  0.00     0.020 A 
ATOM     66  C   UNL A   1      37.991  33.621  34.647  1.00  0.00     0.020 A 
ATOM     67  C   UNL A   1      38.539  32.849  35.652  1.00  0.00     0.054 A 
BRANCH  67  68
ATOM     68  S   UNL A   1      37.865  32.906  37.330  1.00  0.00     0.124 S 
ATOM     69  O   UNL A   1      38.718  33.897  37.978  1.00  0.00    -0.237 OA
ATOM     70  O   UNL A   1      36.484  33.318  37.093  1.00  0.00    -0.237 OA
ATOM     71  O   UNL A   1      38.024  31.538  37.820  1.00  0.00    -0.744 OA
ENDBRANCH  67  68
ENDBRANCH  48  62
BRANCH  49  72
ATOM     72  C   UNL A   1      47.764  30.184  27.531  1.00  0.00    -0.014 A 
ATOM     73  C   UNL A   1      48.614  28.765  28.282  1.00  0.00     0.010 A 
ATOM     74  C   UNL A   1      46.587  29.914  26.218  1.00  0.00     0.010 A 
ATOM     75  C   UNL A   1      48.116  27.046  27.786  1.00  0.00     0.020 A 
ATOM     76  C   UNL A   1      46.003  28.370  25.671  1.00  0.00     0.020 A 
ATOM     77  C   UNL A   1      46.658  26.893  26.379  1.00  0.00     0.054 A 
BRANCH  77  78
ATOM     78  S   UNL A   1      45.288  25.432  25.667  1.00  0.00     0.124 S 
ATOM     79  O   UNL A   1      44.014  26.011  25.250  1.00  0.00    -0.237 OA
ATOM     80  O   UNL A   1      46.039  24.886  24.546  1.00  0.00    -0.237 OA
ATOM     81  O   UNL A   1      45.197  24.597  26.856  1.00  0.00    -0.744 OA
ENDBRANCH  77  78
ENDBRANCH  49  72
BRANCH  61  82
ATOM     82  C   UNL A   1      43.542  36.130  28.406  1.00  0.00    -0.014 A 
ATOM     83  C   UNL A   1      42.665  36.119  27.313  1.00  0.00     0.010 A 
ATOM     84  C   UNL A   1      43.724  37.346  29.100  1.00  0.00     0.010 A 
ATOM     85  C   UNL A   1      42.127  37.298  26.829  1.00  0.00     0.020 A 
ATOM     86  C   UNL A   1      43.107  38.513  28.684  1.00  0.00     0.020 A 
ATOM     87  C   UNL A   1      42.364  38.488  27.512  1.00  0.00     0.054 A 
BRANCH  87  88
ATOM     88  S   UNL A   1      41.689  40.004  26.831  1.00  0.00     0.124 S 
ATOM     89  O   UNL A   1      40.719  39.480  25.872  1.00  0.00    -0.237 OA
ATOM     90  O   UNL A   1      41.120  40.654  28.010  1.00  0.00    -0.237 OA
ATOM     91  O   UNL A   1      42.850  40.671  26.251  1.00  0.00    -0.744 OA
ENDBRANCH  87  88
ENDBRANCH  61  82
ENDBRANCH  35  36
ENDBRANCH  28  30
ENDBRANCH  27  28
ENDBRANCH  26  27
ENDBRANCH  25  26
ENDBRANCH   1  25
TORSDOF 22
ENDMDL
