MODEL 1
REMARK VINA RESULT:     -11.0      0.000      0.000
REMARK SMILES Cc1ccc(Nc2c(F)cccc2I)c(CC(=O)OCCOCCOC(=O)c2ccc(-c3c4nc(c(-c5ccc(S(=O)(=O)[O-])cc5)c5ccc([nH]5)c(-c5ccc(S(=O)(=O)[O-])cc5)c5nc(c(-c6ccc(S(=O)(=O)[O-])cc6)c6ccc3[nH]6)C=C5)C=C4)cc2)c1
REMARK SMILES IDX 22 1 21 2 20 3 19 4 17 5 18 6 16 7 15 8 1 9 2 10 3 11 88 12
REMARK SMILES IDX 4 13 5 14 6 15 7 17 8 18 13 19 9 20 10 21 12 22 14 23 11 24
REMARK SMILES IDX 23 25 24 26 25 27 26 28 27 29 28 30 29 31 87 32 30 33 86 34
REMARK SMILES IDX 31 35 32 36 33 37 80 38 34 39 85 40 79 41 81 42 35 43 84 44
REMARK SMILES IDX 78 45 77 46 36 48 66 49 47 50 65 51 48 52 51 53 64 54 82 55
REMARK SMILES IDX 49 56 50 57 63 59 83 60 52 61 37 62 38 63 46 64 39 65 45 66
REMARK SMILES IDX 40 67 41 68 42 69 43 70 44 71 67 72 68 73 76 74 69 75 75 76
REMARK SMILES IDX 70 77 71 78 72 79 73 80 74 81 53 82 54 83 62 84 55 85 61 86
REMARK SMILES IDX 56 87 57 88 58 89 59 90 60 91
REMARK H PARENT 6 16 81 47 51 58
REMARK Flexibility Score: inf
ROOT
ATOM      1  O   UNL A   1      36.495  22.360  24.082  1.00  0.00    -0.374 OA
ENDROOT
BRANCH   1   2
ATOM      2  C   UNL A   1      35.246  22.974  24.334  1.00  0.00     0.202 C 
BRANCH   2   3
ATOM      3  C   UNL A   1      35.336  23.559  25.725  1.00  0.00     0.261 C 
BRANCH   3   4
ATOM      4  O   UNL A   1      34.101  24.079  26.192  1.00  0.00    -0.463 OA
BRANCH   4   5
ATOM      5  C   UNL A   1      33.335  23.298  27.019  1.00  0.00     0.310 C 
ATOM      6  O   UNL A   1      33.714  22.575  27.918  1.00  0.00    -0.252 OA
BRANCH   5   7
ATOM      7  C   UNL A   1      31.869  23.425  26.631  1.00  0.00     0.160 C 
BRANCH   7   8
ATOM      8  C   UNL A   1      31.634  22.770  25.281  1.00  0.00    -0.013 A 
ATOM      9  C   UNL A   1      32.917  19.410  23.976  1.00  0.00     0.044 C 
ATOM     10  C   UNL A   1      32.313  20.782  24.010  1.00  0.00    -0.051 A 
ATOM     11  C   UNL A   1      32.152  21.515  22.842  1.00  0.00     0.005 A 
ATOM     12  C   UNL A   1      31.986  21.392  25.218  1.00  0.00     0.009 A 
ATOM     13  C   UNL A   1      31.726  22.850  22.892  1.00  0.00     0.026 A 
ATOM     14  C   UNL A   1      31.478  23.527  24.101  1.00  0.00     0.042 A 
BRANCH  14  15
ATOM     15  N   UNL A   1      31.150  24.912  24.127  1.00  0.00    -0.352 N 
ATOM     16  H   UNL A   1      30.253  25.129  24.472  1.00  0.00     0.167 HD
BRANCH  15  17
ATOM     17  C   UNL A   1      31.935  26.027  23.727  1.00  0.00     0.088 A 
ATOM     18  C   UNL A   1      32.286  26.230  22.382  1.00  0.00     0.147 A 
ATOM     19  C   UNL A   1      32.536  26.897  24.658  1.00  0.00     0.040 A 
ATOM     20  F   UNL A   1      31.625  25.584  21.408  1.00  0.00    -0.205 F 
ATOM     21  C   UNL A   1      33.309  27.093  21.998  1.00  0.00     0.041 A 
ATOM     22  C   UNL A   1      33.622  27.713  24.294  1.00  0.00     0.017 A 
ATOM     23  I   UNL A   1      31.719  27.227  26.568  1.00  0.00    -0.042 I 
ATOM     24  C   UNL A   1      34.027  27.786  22.963  1.00  0.00     0.004 A 
ENDBRANCH  15  17
ENDBRANCH  14  15
ENDBRANCH   7   8
ENDBRANCH   5   7
ENDBRANCH   4   5
ENDBRANCH   3   4
ENDBRANCH   2   3
ENDBRANCH   1   2
BRANCH   1  25
ATOM     25  C   UNL A   1      36.746  21.178  24.798  1.00  0.00     0.202 C 
BRANCH  25  26
ATOM     26  C   UNL A   1      38.146  21.218  25.395  1.00  0.00     0.261 C 
BRANCH  26  27
ATOM     27  O   UNL A   1      38.668  22.566  25.537  1.00  0.00    -0.460 OA
BRANCH  27  28
ATOM     28  C   UNL A   1      39.511  22.816  26.587  1.00  0.00     0.338 C 
ATOM     29  O   UNL A   1      40.192  21.954  27.119  1.00  0.00    -0.246 OA
BRANCH  28  30
ATOM     30  C   UNL A   1      39.710  24.268  26.818  1.00  0.00     0.060 A 
ATOM     31  C   UNL A   1      40.477  25.053  25.945  1.00  0.00     0.016 A 
ATOM     32  C   UNL A   1      39.241  24.806  28.013  1.00  0.00     0.016 A 
ATOM     33  C   UNL A   1      40.928  26.317  26.352  1.00  0.00     0.010 A 
ATOM     34  C   UNL A   1      39.784  25.992  28.459  1.00  0.00     0.010 A 
ATOM     35  C   UNL A   1      40.645  26.746  27.645  1.00  0.00    -0.014 A 
BRANCH  35  36
ATOM     36  C   UNL A   1      41.174  27.940  28.302  1.00  0.00     0.031 A 
ATOM     37  C   UNL A   1      40.234  29.053  28.558  1.00  0.00     0.074 A 
ATOM     38  C   UNL A   1      42.377  27.915  28.921  1.00  0.00     0.049 A 
ATOM     39  N   UNL A   1      40.580  30.165  29.098  1.00  0.00    -0.248 NA
ATOM     40  C   UNL A   1      38.813  29.036  28.193  1.00  0.00     0.031 C 
ATOM     41  C   UNL A   1      42.832  28.710  30.066  1.00  0.00     0.029 A 
ATOM     42  N   UNL A   1      43.497  27.160  28.625  1.00  0.00    -0.354 N 
ATOM     43  C   UNL A   1      39.436  30.802  29.504  1.00  0.00     0.074 A 
ATOM     44  C   UNL A   1      38.365  30.136  28.809  1.00  0.00     0.031 C 
ATOM     45  C   UNL A   1      44.165  28.583  30.201  1.00  0.00     0.029 A 
ATOM     46  C   UNL A   1      44.640  27.829  29.051  1.00  0.00     0.049 A 
ATOM     47  H   UNL A   1      43.487  26.282  28.181  1.00  0.00     0.167 HD
ATOM     48  C   UNL A   1      39.549  31.734  30.488  1.00  0.00     0.031 A 
ATOM     49  C   UNL A   1      45.579  28.222  28.142  1.00  0.00     0.031 A 
ATOM     50  C   UNL A   1      40.963  32.042  30.757  1.00  0.00     0.049 A 
ATOM     51  C   UNL A   1      45.541  29.738  28.004  1.00  0.00     0.074 A 
ATOM     52  C   UNL A   1      41.831  31.812  31.810  1.00  0.00     0.029 A 
ATOM     53  N   UNL A   1      41.768  32.399  29.679  1.00  0.00    -0.354 N 
ATOM     54  N   UNL A   1      44.644  30.476  28.606  1.00  0.00    -0.248 NA
ATOM     55  C   UNL A   1      46.453  30.555  27.213  1.00  0.00     0.031 C 
ATOM     56  C   UNL A   1      43.168  31.992  31.324  1.00  0.00     0.029 A 
ATOM     57  C   UNL A   1      43.112  32.373  29.993  1.00  0.00     0.049 A 
ATOM     58  H   UNL A   1      41.418  32.644  28.792  1.00  0.00     0.167 HD
ATOM     59  C   UNL A   1      44.845  31.795  28.366  1.00  0.00     0.074 A 
ATOM     60  C   UNL A   1      45.956  31.793  27.421  1.00  0.00     0.031 C 
ATOM     61  C   UNL A   1      44.089  32.762  28.972  1.00  0.00     0.031 A 
BRANCH  48  62
ATOM     62  C   UNL A   1      38.395  32.260  31.313  1.00  0.00    -0.014 A 
ATOM     63  C   UNL A   1      38.209  33.653  31.411  1.00  0.00     0.010 A 
ATOM     64  C   UNL A   1      37.518  31.462  32.080  1.00  0.00     0.010 A 
ATOM     65  C   UNL A   1      37.213  34.216  32.227  1.00  0.00     0.020 A 
ATOM     66  C   UNL A   1      36.499  32.010  32.877  1.00  0.00     0.020 A 
ATOM     67  C   UNL A   1      36.360  33.389  32.954  1.00  0.00     0.054 A 
BRANCH  67  68
ATOM     68  S   UNL A   1      35.089  34.138  34.006  1.00  0.00     0.124 S 
ATOM     69  O   UNL A   1      35.566  33.819  35.349  1.00  0.00    -0.237 OA
ATOM     70  O   UNL A   1      35.156  35.547  33.631  1.00  0.00    -0.237 OA
ATOM     71  O   UNL A   1      33.859  33.452  33.610  1.00  0.00    -0.744 OA
ENDBRANCH  67  68
ENDBRANCH  48  62
BRANCH  49  72
ATOM     72  C   UNL A   1      45.778  27.160  27.091  1.00  0.00    -0.014 A 
ATOM     73  C   UNL A   1      46.484  26.003  27.515  1.00  0.00     0.010 A 
ATOM     74  C   UNL A   1      44.868  27.016  26.025  1.00  0.00     0.010 A 
ATOM     75  C   UNL A   1      46.164  24.728  27.022  1.00  0.00     0.020 A 
ATOM     76  C   UNL A   1      44.551  25.733  25.524  1.00  0.00     0.020 A 
ATOM     77  C   UNL A   1      45.169  24.594  26.055  1.00  0.00     0.054 A 
BRANCH  77  78
ATOM     78  S   UNL A   1      44.563  22.914  25.659  1.00  0.00     0.124 S 
ATOM     79  O   UNL A   1      43.626  22.662  26.746  1.00  0.00    -0.237 OA
ATOM     80  O   UNL A   1      43.956  23.091  24.340  1.00  0.00    -0.237 OA
ATOM     81  O   UNL A   1      45.780  22.110  25.673  1.00  0.00    -0.744 OA
ENDBRANCH  77  78
ENDBRANCH  49  72
BRANCH  61  82
ATOM     82  C   UNL A   1      44.188  34.214  28.607  1.00  0.00    -0.014 A 
ATOM     83  C   UNL A   1      44.732  35.179  29.461  1.00  0.00     0.010 A 
ATOM     84  C   UNL A   1      43.693  34.655  27.358  1.00  0.00     0.010 A 
ATOM     85  C   UNL A   1      44.924  36.492  29.022  1.00  0.00     0.020 A 
ATOM     86  C   UNL A   1      43.839  35.968  26.926  1.00  0.00     0.020 A 
ATOM     87  C   UNL A   1      44.500  36.869  27.747  1.00  0.00     0.054 A 
BRANCH  87  88
ATOM     88  S   UNL A   1      44.795  38.557  27.188  1.00  0.00     0.124 S 
ATOM     89  O   UNL A   1      45.040  39.266  28.440  1.00  0.00    -0.237 OA
ATOM     90  O   UNL A   1      45.962  38.385  26.324  1.00  0.00    -0.237 OA
ATOM     91  O   UNL A   1      43.559  38.919  26.501  1.00  0.00    -0.744 OA
ENDBRANCH  87  88
ENDBRANCH  61  82
ENDBRANCH  35  36
ENDBRANCH  28  30
ENDBRANCH  27  28
ENDBRANCH  26  27
ENDBRANCH  25  26
ENDBRANCH   1  25
TORSDOF 20
ENDMDL
MODEL 2
REMARK VINA RESULT:     -10.9      3.912     10.062
REMARK SMILES Cc1ccc(Nc2c(F)cccc2I)c(CC(=O)OCCOCCOC(=O)c2ccc(-c3c4nc(c(-c5ccc(S(=O)(=O)[O-])cc5)c5ccc([nH]5)c(-c5ccc(S(=O)(=O)[O-])cc5)c5nc(c(-c6ccc(S(=O)(=O)[O-])cc6)c6ccc3[nH]6)C=C5)C=C4)cc2)c1
REMARK SMILES IDX 22 1 21 2 20 3 19 4 17 5 18 6 16 7 15 8 1 9 2 10 3 11 88 12
REMARK SMILES IDX 4 13 5 14 6 15 7 17 8 18 13 19 9 20 10 21 12 22 14 23 11 24
REMARK SMILES IDX 23 25 24 26 25 27 26 28 27 29 28 30 29 31 87 32 30 33 86 34
REMARK SMILES IDX 31 35 32 36 33 37 80 38 34 39 85 40 79 41 81 42 35 43 84 44
REMARK SMILES IDX 78 45 77 46 36 48 66 49 47 50 65 51 48 52 51 53 64 54 82 55
REMARK SMILES IDX 49 56 50 57 63 59 83 60 52 61 37 62 38 63 46 64 39 65 45 66
REMARK SMILES IDX 40 67 41 68 42 69 43 70 44 71 67 72 68 73 76 74 69 75 75 76
REMARK SMILES IDX 70 77 71 78 72 79 73 80 74 81 53 82 54 83 62 84 55 85 61 86
REMARK SMILES IDX 56 87 57 88 58 89 59 90 60 91
REMARK H PARENT 6 16 81 47 51 58
REMARK Flexibility Score: inf
ROOT
ATOM      1  O   UNL A   1      31.449  28.940  26.146  1.00  0.00    -0.374 OA
ENDROOT
BRANCH   1   2
ATOM      2  C   UNL A   1      31.348  27.842  27.032  1.00  0.00     0.202 C 
BRANCH   2   3
ATOM      3  C   UNL A   1      30.930  26.658  26.190  1.00  0.00     0.261 C 
BRANCH   3   4
ATOM      4  O   UNL A   1      30.940  25.433  26.907  1.00  0.00    -0.463 OA
BRANCH   4   5
ATOM      5  C   UNL A   1      31.395  24.307  26.269  1.00  0.00     0.310 C 
ATOM      6  O   UNL A   1      30.735  23.397  25.811  1.00  0.00    -0.252 OA
BRANCH   5   7
ATOM      7  C   UNL A   1      32.916  24.319  26.231  1.00  0.00     0.160 C 
BRANCH   7   8
ATOM      8  C   UNL A   1      33.396  24.191  24.796  1.00  0.00    -0.013 A 
ATOM      9  C   UNL A   1      33.112  26.702  21.924  1.00  0.00     0.044 C 
ATOM     10  C   UNL A   1      33.336  25.423  22.673  1.00  0.00    -0.051 A 
ATOM     11  C   UNL A   1      33.374  24.207  22.005  1.00  0.00     0.005 A 
ATOM     12  C   UNL A   1      33.418  25.411  24.063  1.00  0.00     0.009 A 
ATOM     13  C   UNL A   1      33.436  23.003  22.720  1.00  0.00     0.026 A 
ATOM     14  C   UNL A   1      33.423  22.950  24.127  1.00  0.00     0.042 A 
BRANCH  14  15
ATOM     15  N   UNL A   1      33.379  21.710  24.826  1.00  0.00    -0.352 N 
ATOM     16  H   UNL A   1      32.894  21.724  25.683  1.00  0.00     0.167 HD
BRANCH  15  17
ATOM     17  C   UNL A   1      33.936  20.454  24.461  1.00  0.00     0.088 A 
ATOM     18  C   UNL A   1      33.144  19.435  23.910  1.00  0.00     0.147 A 
ATOM     19  C   UNL A   1      35.264  20.101  24.772  1.00  0.00     0.040 A 
ATOM     20  F   UNL A   1      31.933  19.720  23.406  1.00  0.00    -0.205 F 
ATOM     21  C   UNL A   1      33.563  18.107  23.855  1.00  0.00     0.041 A 
ATOM     22  C   UNL A   1      35.673  18.756  24.796  1.00  0.00     0.017 A 
ATOM     23  I   UNL A   1      36.783  21.542  24.982  1.00  0.00    -0.042 I 
ATOM     24  C   UNL A   1      34.806  17.755  24.363  1.00  0.00     0.004 A 
ENDBRANCH  15  17
ENDBRANCH  14  15
ENDBRANCH   7   8
ENDBRANCH   5   7
ENDBRANCH   4   5
ENDBRANCH   3   4
ENDBRANCH   2   3
ENDBRANCH   1   2
BRANCH   1  25
ATOM     25  C   UNL A   1      31.575  30.200  26.753  1.00  0.00     0.202 C 
BRANCH  25  26
ATOM     26  C   UNL A   1      32.985  30.738  26.550  1.00  0.00     0.261 C 
BRANCH  26  27
ATOM     27  O   UNL A   1      33.854  30.506  27.691  1.00  0.00    -0.460 OA
BRANCH  27  28
ATOM     28  C   UNL A   1      34.649  29.391  27.669  1.00  0.00     0.338 C 
ATOM     29  O   UNL A   1      34.368  28.379  27.047  1.00  0.00    -0.246 OA
BRANCH  28  30
ATOM     30  C   UNL A   1      35.994  29.646  28.243  1.00  0.00     0.060 A 
ATOM     31  C   UNL A   1      37.074  30.039  27.439  1.00  0.00     0.016 A 
ATOM     32  C   UNL A   1      36.198  29.335  29.584  1.00  0.00     0.016 A 
ATOM     33  C   UNL A   1      38.384  29.945  27.930  1.00  0.00     0.010 A 
ATOM     34  C   UNL A   1      37.487  29.126  30.023  1.00  0.00     0.010 A 
ATOM     35  C   UNL A   1      38.588  29.409  29.197  1.00  0.00    -0.014 A 
BRANCH  35  36
ATOM     36  C   UNL A   1      39.876  29.069  29.802  1.00  0.00     0.031 A 
ATOM     37  C   UNL A   1      40.526  27.814  29.367  1.00  0.00     0.074 A 
ATOM     38  C   UNL A   1      40.584  29.995  30.490  1.00  0.00     0.049 A 
ATOM     39  N   UNL A   1      41.640  27.389  29.844  1.00  0.00    -0.248 NA
ATOM     40  C   UNL A   1      39.964  26.891  28.375  1.00  0.00     0.031 C 
ATOM     41  C   UNL A   1      42.036  30.091  30.662  1.00  0.00     0.029 A 
ATOM     42  N   UNL A   1      40.129  31.072  31.227  1.00  0.00    -0.354 N 
ATOM     43  C   UNL A   1      42.115  26.426  28.991  1.00  0.00     0.074 A 
ATOM     44  C   UNL A   1      40.989  26.057  28.173  1.00  0.00     0.031 C 
ATOM     45  C   UNL A   1      42.317  30.985  31.629  1.00  0.00     0.029 A 
ATOM     46  C   UNL A   1      41.050  31.381  32.224  1.00  0.00     0.049 A 
ATOM     47  H   UNL A   1      39.283  31.549  31.071  1.00  0.00     0.167 HD
ATOM     48  C   UNL A   1      43.450  26.168  29.014  1.00  0.00     0.031 A 
ATOM     49  C   UNL A   1      40.692  31.280  33.538  1.00  0.00     0.031 A 
ATOM     50  C   UNL A   1      44.093  26.837  30.157  1.00  0.00     0.049 A 
ATOM     51  C   UNL A   1      41.405  30.088  34.162  1.00  0.00     0.074 A 
ATOM     52  C   UNL A   1      44.983  27.886  30.302  1.00  0.00     0.029 A 
ATOM     53  N   UNL A   1      43.554  26.624  31.423  1.00  0.00    -0.354 N 
ATOM     54  N   UNL A   1      42.140  29.264  33.463  1.00  0.00    -0.248 NA
ATOM     55  C   UNL A   1      41.371  29.704  35.569  1.00  0.00     0.031 C 
ATOM     56  C   UNL A   1      44.925  28.326  31.666  1.00  0.00     0.029 A 
ATOM     57  C   UNL A   1      44.038  27.517  32.358  1.00  0.00     0.049 A 
ATOM     58  H   UNL A   1      42.901  25.916  31.628  1.00  0.00     0.167 HD
ATOM     59  C   UNL A   1      42.704  28.314  34.248  1.00  0.00     0.074 A 
ATOM     60  C   UNL A   1      42.131  28.588  35.561  1.00  0.00     0.031 C 
ATOM     61  C   UNL A   1      43.594  27.399  33.750  1.00  0.00     0.031 A 
BRANCH  48  62
ATOM     62  C   UNL A   1      44.205  25.438  27.925  1.00  0.00    -0.014 A 
ATOM     63  C   UNL A   1      43.900  25.719  26.579  1.00  0.00     0.010 A 
ATOM     64  C   UNL A   1      45.153  24.414  28.145  1.00  0.00     0.010 A 
ATOM     65  C   UNL A   1      44.498  25.020  25.518  1.00  0.00     0.020 A 
ATOM     66  C   UNL A   1      45.780  23.727  27.093  1.00  0.00     0.020 A 
ATOM     67  C   UNL A   1      45.439  24.028  25.781  1.00  0.00     0.054 A 
BRANCH  67  68
ATOM     68  S   UNL A   1      46.192  23.134  24.396  1.00  0.00     0.124 S 
ATOM     69  O   UNL A   1      45.092  23.057  23.439  1.00  0.00    -0.237 OA
ATOM     70  O   UNL A   1      47.298  24.008  24.018  1.00  0.00    -0.237 OA
ATOM     71  O   UNL A   1      46.590  21.854  24.981  1.00  0.00    -0.744 OA
ENDBRANCH  67  68
ENDBRANCH  48  62
BRANCH  49  72
ATOM     72  C   UNL A   1      39.287  31.785  33.746  1.00  0.00    -0.014 A 
ATOM     73  C   UNL A   1      39.074  33.154  33.431  1.00  0.00     0.010 A 
ATOM     74  C   UNL A   1      38.183  30.914  33.653  1.00  0.00     0.010 A 
ATOM     75  C   UNL A   1      37.865  33.597  32.875  1.00  0.00     0.020 A 
ATOM     76  C   UNL A   1      36.963  31.363  33.099  1.00  0.00     0.020 A 
ATOM     77  C   UNL A   1      36.825  32.691  32.674  1.00  0.00     0.054 A 
BRANCH  77  78
ATOM     78  S   UNL A   1      35.388  33.222  31.675  1.00  0.00     0.124 S 
ATOM     79  O   UNL A   1      35.831  32.924  30.318  1.00  0.00    -0.237 OA
ATOM     80  O   UNL A   1      34.310  32.374  32.180  1.00  0.00    -0.237 OA
ATOM     81  O   UNL A   1      35.262  34.638  32.002  1.00  0.00    -0.744 OA
ENDBRANCH  77  78
ENDBRANCH  49  72
BRANCH  61  82
ATOM     82  C   UNL A   1      44.110  26.248  34.561  1.00  0.00    -0.014 A 
ATOM     83  C   UNL A   1      43.406  25.050  34.719  1.00  0.00     0.010 A 
ATOM     84  C   UNL A   1      45.352  26.365  35.228  1.00  0.00     0.010 A 
ATOM     85  C   UNL A   1      43.989  23.961  35.371  1.00  0.00     0.020 A 
ATOM     86  C   UNL A   1      45.926  25.302  35.916  1.00  0.00     0.020 A 
ATOM     87  C   UNL A   1      45.256  24.088  35.942  1.00  0.00     0.054 A 
BRANCH  87  88
ATOM     88  S   UNL A   1      46.006  22.657  36.743  1.00  0.00     0.124 S 
ATOM     89  O   UNL A   1      45.290  21.542  36.130  1.00  0.00    -0.237 OA
ATOM     90  O   UNL A   1      47.407  22.797  36.352  1.00  0.00    -0.237 OA
ATOM     91  O   UNL A   1      45.730  22.867  38.162  1.00  0.00    -0.744 OA
ENDBRANCH  87  88
ENDBRANCH  61  82
ENDBRANCH  35  36
ENDBRANCH  28  30
ENDBRANCH  27  28
ENDBRANCH  26  27
ENDBRANCH  25  26
ENDBRANCH   1  25
TORSDOF 20
ENDMDL
MODEL 3
REMARK VINA RESULT:     -10.8      1.776      3.078
REMARK SMILES Cc1ccc(Nc2c(F)cccc2I)c(CC(=O)OCCOCCOC(=O)c2ccc(-c3c4nc(c(-c5ccc(S(=O)(=O)[O-])cc5)c5ccc([nH]5)c(-c5ccc(S(=O)(=O)[O-])cc5)c5nc(c(-c6ccc(S(=O)(=O)[O-])cc6)c6ccc3[nH]6)C=C5)C=C4)cc2)c1
REMARK SMILES IDX 22 1 21 2 20 3 19 4 17 5 18 6 16 7 15 8 1 9 2 10 3 11 88 12
REMARK SMILES IDX 4 13 5 14 6 15 7 17 8 18 13 19 9 20 10 21 12 22 14 23 11 24
REMARK SMILES IDX 23 25 24 26 25 27 26 28 27 29 28 30 29 31 87 32 30 33 86 34
REMARK SMILES IDX 31 35 32 36 33 37 80 38 34 39 85 40 79 41 81 42 35 43 84 44
REMARK SMILES IDX 78 45 77 46 36 48 66 49 47 50 65 51 48 52 51 53 64 54 82 55
REMARK SMILES IDX 49 56 50 57 63 59 83 60 52 61 37 62 38 63 46 64 39 65 45 66
REMARK SMILES IDX 40 67 41 68 42 69 43 70 44 71 67 72 68 73 76 74 69 75 75 76
REMARK SMILES IDX 70 77 71 78 72 79 73 80 74 81 53 82 54 83 62 84 55 85 61 86
REMARK SMILES IDX 56 87 57 88 58 89 59 90 60 91
REMARK H PARENT 6 16 81 47 51 58
REMARK Flexibility Score: inf
ROOT
ATOM      1  O   UNL A   1      35.859  22.722  24.596  1.00  0.00    -0.374 OA
ENDROOT
BRANCH   1   2
ATOM      2  C   UNL A   1      35.592  23.592  23.514  1.00  0.00     0.202 C 
BRANCH   2   3
ATOM      3  C   UNL A   1      34.088  23.625  23.359  1.00  0.00     0.261 C 
BRANCH   3   4
ATOM      4  O   UNL A   1      33.658  24.438  22.278  1.00  0.00    -0.463 OA
BRANCH   4   5
ATOM      5  C   UNL A   1      33.443  25.772  22.511  1.00  0.00     0.310 C 
ATOM      6  O   UNL A   1      33.656  26.701  21.758  1.00  0.00    -0.252 OA
BRANCH   5   7
ATOM      7  C   UNL A   1      32.905  25.966  23.922  1.00  0.00     0.160 C 
BRANCH   7   8
ATOM      8  C   UNL A   1      33.023  27.427  24.322  1.00  0.00    -0.013 A 
ATOM      9  C   UNL A   1      35.013  28.987  27.192  1.00  0.00     0.044 C 
ATOM     10  C   UNL A   1      34.032  28.824  26.070  1.00  0.00    -0.051 A 
ATOM     11  C   UNL A   1      32.996  29.731  25.896  1.00  0.00     0.005 A 
ATOM     12  C   UNL A   1      34.078  27.712  25.234  1.00  0.00     0.009 A 
ATOM     13  C   UNL A   1      31.997  29.497  24.941  1.00  0.00     0.026 A 
ATOM     14  C   UNL A   1      31.960  28.336  24.145  1.00  0.00     0.042 A 
BRANCH  14  15
ATOM     15  N   UNL A   1      30.876  28.074  23.259  1.00  0.00    -0.352 N 
ATOM     16  H   UNL A   1      31.128  27.879  22.327  1.00  0.00     0.167 HD
BRANCH  15  17
ATOM     17  C   UNL A   1      29.481  28.051  23.531  1.00  0.00     0.088 A 
ATOM     18  C   UNL A   1      28.863  26.921  24.089  1.00  0.00     0.147 A 
ATOM     19  C   UNL A   1      28.617  29.083  23.117  1.00  0.00     0.040 A 
ATOM     20  F   UNL A   1      29.603  25.973  24.686  1.00  0.00    -0.205 F 
ATOM     21  C   UNL A   1      27.483  26.730  24.058  1.00  0.00     0.041 A 
ATOM     22  C   UNL A   1      27.231  28.872  23.007  1.00  0.00     0.017 A 
ATOM     23  I   UNL A   1      29.281  31.064  22.869  1.00  0.00    -0.042 I 
ATOM     24  C   UNL A   1      26.669  27.678  23.453  1.00  0.00     0.004 A 
ENDBRANCH  15  17
ENDBRANCH  14  15
ENDBRANCH   7   8
ENDBRANCH   5   7
ENDBRANCH   4   5
ENDBRANCH   3   4
ENDBRANCH   2   3
ENDBRANCH   1   2
BRANCH   1  25
ATOM     25  C   UNL A   1      36.502  21.519  24.264  1.00  0.00     0.202 C 
BRANCH  25  26
ATOM     26  C   UNL A   1      37.727  21.321  25.146  1.00  0.00     0.261 C 
BRANCH  26  27
ATOM     27  O   UNL A   1      37.921  22.396  26.103  1.00  0.00    -0.460 OA
BRANCH  27  28
ATOM     28  C   UNL A   1      39.198  22.647  26.527  1.00  0.00     0.338 C 
ATOM     29  O   UNL A   1      40.092  21.816  26.494  1.00  0.00    -0.246 OA
BRANCH  28  30
ATOM     30  C   UNL A   1      39.440  24.092  26.766  1.00  0.00     0.060 A 
ATOM     31  C   UNL A   1      40.195  24.867  25.874  1.00  0.00     0.016 A 
ATOM     32  C   UNL A   1      39.025  24.629  27.981  1.00  0.00     0.016 A 
ATOM     33  C   UNL A   1      40.690  26.116  26.277  1.00  0.00     0.010 A 
ATOM     34  C   UNL A   1      39.612  25.796  28.420  1.00  0.00     0.010 A 
ATOM     35  C   UNL A   1      40.462  26.538  27.583  1.00  0.00    -0.014 A 
BRANCH  35  36
ATOM     36  C   UNL A   1      41.043  27.713  28.232  1.00  0.00     0.031 A 
ATOM     37  C   UNL A   1      40.145  28.857  28.505  1.00  0.00     0.074 A 
ATOM     38  C   UNL A   1      42.254  27.646  28.832  1.00  0.00     0.049 A 
ATOM     39  N   UNL A   1      40.537  29.955  29.040  1.00  0.00    -0.248 NA
ATOM     40  C   UNL A   1      38.719  28.889  28.162  1.00  0.00     0.031 C 
ATOM     41  C   UNL A   1      42.753  28.423  29.971  1.00  0.00     0.029 A 
ATOM     42  N   UNL A   1      43.342  26.854  28.517  1.00  0.00    -0.354 N 
ATOM     43  C   UNL A   1      39.422  30.631  29.465  1.00  0.00     0.074 A 
ATOM     44  C   UNL A   1      38.318  30.002  28.786  1.00  0.00     0.031 C 
ATOM     45  C   UNL A   1      44.084  28.250  30.084  1.00  0.00     0.029 A 
ATOM     46  C   UNL A   1      44.514  27.482  28.926  1.00  0.00     0.049 A 
ATOM     47  H   UNL A   1      43.295  25.977  28.073  1.00  0.00     0.167 HD
ATOM     48  C   UNL A   1      39.583  31.557  30.447  1.00  0.00     0.031 A 
ATOM     49  C   UNL A   1      45.451  27.844  28.002  1.00  0.00     0.031 A 
ATOM     50  C   UNL A   1      41.011  31.816  30.694  1.00  0.00     0.049 A 
ATOM     51  C   UNL A   1      45.462  29.361  27.866  1.00  0.00     0.074 A 
ATOM     52  C   UNL A   1      41.887  31.556  31.733  1.00  0.00     0.029 A 
ATOM     53  N   UNL A   1      41.810  32.147  29.603  1.00  0.00    -0.354 N 
ATOM     54  N   UNL A   1      44.602  30.128  28.483  1.00  0.00    -0.248 NA
ATOM     55  C   UNL A   1      46.389  30.148  27.061  1.00  0.00     0.031 C 
ATOM     56  C   UNL A   1      43.222  31.690  31.226  1.00  0.00     0.029 A 
ATOM     57  C   UNL A   1      43.157  32.075  29.896  1.00  0.00     0.049 A 
ATOM     58  H   UNL A   1      41.454  32.405  28.722  1.00  0.00     0.167 HD
ATOM     59  C   UNL A   1      44.844  31.440  28.241  1.00  0.00     0.074 A 
ATOM     60  C   UNL A   1      45.938  31.402  27.278  1.00  0.00     0.031 C 
ATOM     61  C   UNL A   1      44.131  32.432  28.860  1.00  0.00     0.031 A 
BRANCH  48  62
ATOM     62  C   UNL A   1      38.461  32.121  31.291  1.00  0.00    -0.014 A 
ATOM     63  C   UNL A   1      38.398  33.513  31.496  1.00  0.00     0.010 A 
ATOM     64  C   UNL A   1      37.497  31.350  31.977  1.00  0.00     0.010 A 
ATOM     65  C   UNL A   1      37.437  34.100  32.336  1.00  0.00     0.020 A 
ATOM     66  C   UNL A   1      36.512  31.925  32.797  1.00  0.00     0.020 A 
ATOM     67  C   UNL A   1      36.496  33.302  32.980  1.00  0.00     0.054 A 
BRANCH  67  68
ATOM     68  S   UNL A   1      35.271  34.080  34.066  1.00  0.00     0.124 S 
ATOM     69  O   UNL A   1      35.369  35.487  33.690  1.00  0.00    -0.237 OA
ATOM     70  O   UNL A   1      34.034  33.408  33.681  1.00  0.00    -0.237 OA
ATOM     71  O   UNL A   1      35.748  33.767  35.413  1.00  0.00    -0.744 OA
ENDBRANCH  67  68
ENDBRANCH  48  62
BRANCH  49  72
ATOM     72  C   UNL A   1      45.597  26.778  26.947  1.00  0.00    -0.014 A 
ATOM     73  C   UNL A   1      46.256  25.590  27.363  1.00  0.00     0.010 A 
ATOM     74  C   UNL A   1      44.674  26.676  25.887  1.00  0.00     0.010 A 
ATOM     75  C   UNL A   1      45.878  24.332  26.870  1.00  0.00     0.020 A 
ATOM     76  C   UNL A   1      44.299  25.409  25.386  1.00  0.00     0.020 A 
ATOM     77  C   UNL A   1      44.872  24.243  25.909  1.00  0.00     0.054 A 
BRANCH  77  78
ATOM     78  S   UNL A   1      44.190  22.592  25.513  1.00  0.00     0.124 S 
ATOM     79  O   UNL A   1      45.399  21.798  25.326  1.00  0.00    -0.237 OA
ATOM     80  O   UNL A   1      43.410  22.268  26.706  1.00  0.00    -0.237 OA
ATOM     81  O   UNL A   1      43.402  22.838  24.311  1.00  0.00    -0.744 OA
ENDBRANCH  77  78
ENDBRANCH  49  72
BRANCH  61  82
ATOM     82  C   UNL A   1      44.274  33.880  28.495  1.00  0.00    -0.014 A 
ATOM     83  C   UNL A   1      43.982  34.377  27.221  1.00  0.00     0.010 A 
ATOM     84  C   UNL A   1      44.749  34.800  29.459  1.00  0.00     0.010 A 
ATOM     85  C   UNL A   1      44.003  35.751  26.970  1.00  0.00     0.020 A 
ATOM     86  C   UNL A   1      44.814  36.165  29.209  1.00  0.00     0.020 A 
ATOM     87  C   UNL A   1      44.393  36.637  27.975  1.00  0.00     0.054 A 
BRANCH  87  88
ATOM     88  S   UNL A   1      44.374  38.409  27.641  1.00  0.00     0.124 S 
ATOM     89  O   UNL A   1      44.650  38.980  28.955  1.00  0.00    -0.237 OA
ATOM     90  O   UNL A   1      45.449  38.538  26.660  1.00  0.00    -0.237 OA
ATOM     91  O   UNL A   1      43.029  38.653  27.127  1.00  0.00    -0.744 OA
ENDBRANCH  87  88
ENDBRANCH  61  82
ENDBRANCH  35  36
ENDBRANCH  28  30
ENDBRANCH  27  28
ENDBRANCH  26  27
ENDBRANCH  25  26
ENDBRANCH   1  25
TORSDOF 20
ENDMDL
