MODEL 1
REMARK VINA RESULT:     -10.7      0.000      0.000
REMARK SMILES C/C=C(\C)[C@H]1C(C)=C[C@H]2CC[C@@H](OS(=O)(=O)[O-])[C@@H](C)[C@H]2[C@H]1/C=C/C=C/C(=O)OCCOCCOC(=O)c1ccc(-c2c3nc(c(-c4ccc(S(=O)(=O)[O-])cc4)c4ccc([nH]4)c(-c4ccc(S(=O)(=O)[O-])cc4)c4nc(c(-c5ccc(S(=O)(=O)[O-])cc5)c5ccc2[nH]5)C=C4)C=C3)cc1
REMARK SMILES IDX 30 1 29 2 28 3 26 4 27 5 25 6 24 7 23 8 22 9 21 10 5 11 6 12
REMARK SMILES IDX 7 13 8 14 20 15 9 16 18 17 10 18 12 19 19 20 11 21 3 22 1 23
REMARK SMILES IDX 2 24 4 25 13 26 14 27 15 28 16 29 17 30 31 31 32 32 33 33
REMARK SMILES IDX 34 34 35 35 36 36 37 37 38 38 96 39 39 40 95 41 40 42 41 43
REMARK SMILES IDX 42 44 89 45 43 46 94 47 88 48 90 49 44 50 93 51 87 52 86 53
REMARK SMILES IDX 45 55 75 56 56 57 74 58 57 59 60 60 73 61 91 62 58 63 59 64
REMARK SMILES IDX 72 66 92 67 61 68 46 69 47 70 55 71 48 72 54 73 49 74 50 75
REMARK SMILES IDX 51 76 52 77 53 78 76 79 77 80 85 81 78 82 84 83 79 84 80 85
REMARK SMILES IDX 81 86 82 87 83 88 62 89 63 90 71 91 64 92 70 93 65 94 66 95
REMARK SMILES IDX 67 96 68 97 69 98
REMARK H PARENT 90 54 60 65
REMARK Flexibility Score: inf
ROOT
ATOM      1  C   UNL A   1      34.873  32.504  30.115  1.00  0.00     0.202 C 
ENDROOT
BRANCH   1   2
ATOM      2  C   UNL A   1      35.025  32.529  28.593  1.00  0.00     0.261 C 
BRANCH   2   3
ATOM      3  O   UNL A   1      35.029  31.204  28.047  1.00  0.00    -0.460 OA
BRANCH   3   4
ATOM      4  C   UNL A   1      33.858  30.844  27.485  1.00  0.00     0.330 C 
ATOM      5  O   UNL A   1      32.833  31.509  27.418  1.00  0.00    -0.247 OA
BRANCH   4   6
ATOM      6  C   UNL A   1      33.995  29.614  26.703  1.00  0.00     0.093 C 
ATOM      7  C   UNL A   1      33.604  28.357  26.965  1.00  0.00     0.007 C 
BRANCH   7   8
ATOM      8  C   UNL A   1      33.901  27.399  25.940  1.00  0.00    -0.004 C 
ATOM      9  C   UNL A   1      33.958  26.066  25.907  1.00  0.00    -0.022 C 
BRANCH   9  10
ATOM     10  C   UNL A   1      34.201  25.337  24.572  1.00  0.00     0.027 C 
ATOM     11  C   UNL A   1      34.316  23.733  24.592  1.00  0.00     0.047 C 
ATOM     12  C   UNL A   1      33.572  23.021  23.450  1.00  0.00    -0.069 C 
ATOM     13  C   UNL A   1      33.348  21.532  23.518  1.00  0.00     0.040 C 
ATOM     14  C   UNL A   1      33.217  23.677  22.324  1.00  0.00    -0.024 C 
ATOM     15  C   UNL A   1      33.320  25.930  23.415  1.00  0.00     0.009 C 
ATOM     16  C   UNL A   1      33.502  25.136  22.107  1.00  0.00     0.016 C 
ATOM     17  C   UNL A   1      31.812  26.218  23.717  1.00  0.00     0.021 C 
ATOM     18  C   UNL A   1      32.715  25.761  20.932  1.00  0.00     0.011 C 
ATOM     19  C   UNL A   1      31.215  27.008  22.536  1.00  0.00     0.141 C 
ATOM     20  C   UNL A   1      30.910  25.020  24.070  1.00  0.00     0.011 C 
ATOM     21  C   UNL A   1      31.281  26.188  21.246  1.00  0.00     0.034 C 
BRANCH  11  22
ATOM     22  C   UNL A   1      34.196  23.107  26.006  1.00  0.00    -0.070 C 
ATOM     23  C   UNL A   1      32.796  22.491  28.071  1.00  0.00     0.035 C 
ATOM     24  C   UNL A   1      33.022  22.905  26.647  1.00  0.00    -0.031 C 
ATOM     25  C   UNL A   1      35.538  22.819  26.650  1.00  0.00     0.040 C 
ENDBRANCH  11  22
BRANCH  19  26
ATOM     26  O   UNL A   1      29.864  27.358  22.817  1.00  0.00    -0.276 OA
BRANCH  26  27
ATOM     27  S   UNL A   1      29.510  28.939  22.954  1.00  0.00     0.217 S 
ATOM     28  O   UNL A   1      28.087  29.103  23.129  1.00  0.00    -0.213 OA
ATOM     29  O   UNL A   1      30.454  29.541  23.869  1.00  0.00    -0.213 OA
ATOM     30  O   UNL A   1      29.853  29.524  21.494  1.00  0.00    -0.726 OA
ENDBRANCH  26  27
ENDBRANCH  19  26
ENDBRANCH   9  10
ENDBRANCH   7   8
ENDBRANCH   4   6
ENDBRANCH   3   4
ENDBRANCH   2   3
ENDBRANCH   1   2
BRANCH   1  31
ATOM     31  O   UNL A   1      35.005  33.734  30.825  1.00  0.00    -0.374 OA
BRANCH  31  32
ATOM     32  C   UNL A   1      36.110  33.889  31.713  1.00  0.00     0.202 C 
BRANCH  32  33
ATOM     33  C   UNL A   1      37.408  33.131  31.403  1.00  0.00     0.261 C 
BRANCH  33  34
ATOM     34  O   UNL A   1      37.747  32.141  32.385  1.00  0.00    -0.460 OA
BRANCH  34  35
ATOM     35  C   UNL A   1      37.547  30.855  31.999  1.00  0.00     0.338 C 
ATOM     36  O   UNL A   1      36.524  30.201  32.104  1.00  0.00    -0.246 OA
BRANCH  35  37
ATOM     37  C   UNL A   1      38.726  30.390  31.247  1.00  0.00     0.060 A 
ATOM     38  C   UNL A   1      39.863  29.992  31.963  1.00  0.00     0.016 A 
ATOM     39  C   UNL A   1      38.728  30.395  29.853  1.00  0.00     0.016 A 
ATOM     40  C   UNL A   1      41.010  29.591  31.283  1.00  0.00     0.010 A 
ATOM     41  C   UNL A   1      39.887  30.012  29.173  1.00  0.00     0.010 A 
ATOM     42  C   UNL A   1      41.036  29.619  29.883  1.00  0.00    -0.014 A 
BRANCH  42  43
ATOM     43  C   UNL A   1      42.286  29.306  29.151  1.00  0.00     0.031 A 
ATOM     44  C   UNL A   1      42.491  27.925  28.596  1.00  0.00     0.074 A 
ATOM     45  C   UNL A   1      43.235  30.247  29.001  1.00  0.00     0.049 A 
ATOM     46  N   UNL A   1      43.549  27.417  28.018  1.00  0.00    -0.248 NA
ATOM     47  C   UNL A   1      41.358  26.993  28.714  1.00  0.00     0.031 C 
ATOM     48  C   UNL A   1      43.128  31.635  29.454  1.00  0.00     0.029 A 
ATOM     49  N   UNL A   1      44.485  30.171  28.441  1.00  0.00    -0.354 N 
ATOM     50  C   UNL A   1      43.216  26.101  27.715  1.00  0.00     0.074 A 
ATOM     51  C   UNL A   1      41.867  25.885  28.192  1.00  0.00     0.031 C 
ATOM     52  C   UNL A   1      44.275  32.275  29.168  1.00  0.00     0.029 A 
ATOM     53  C   UNL A   1      45.211  31.333  28.559  1.00  0.00     0.049 A 
ATOM     54  H   UNL A   1      44.830  29.363  27.997  1.00  0.00     0.167 HD
ATOM     55  C   UNL A   1      43.971  25.161  27.097  1.00  0.00     0.031 A 
ATOM     56  C   UNL A   1      46.496  31.597  28.249  1.00  0.00     0.031 A 
ATOM     57  C   UNL A   1      45.320  25.381  26.643  1.00  0.00     0.049 A 
ATOM     58  C   UNL A   1      47.346  30.507  27.651  1.00  0.00     0.074 A 
ATOM     59  C   UNL A   1      46.160  24.501  25.983  1.00  0.00     0.029 A 
ATOM     60  N   UNL A   1      46.033  26.558  26.817  1.00  0.00    -0.354 N 
ATOM     61  N   UNL A   1      47.008  29.279  27.335  1.00  0.00    -0.248 NA
ATOM     62  C   UNL A   1      48.751  30.837  27.371  1.00  0.00     0.031 C 
ATOM     63  C   UNL A   1      47.404  25.120  25.824  1.00  0.00     0.029 A 
ATOM     64  C   UNL A   1      47.318  26.412  26.320  1.00  0.00     0.049 A 
ATOM     65  H   UNL A   1      45.679  27.378  27.232  1.00  0.00     0.167 HD
ATOM     66  C   UNL A   1      48.155  28.695  26.805  1.00  0.00     0.074 A 
ATOM     67  C   UNL A   1      49.186  29.712  26.819  1.00  0.00     0.031 C 
ATOM     68  C   UNL A   1      48.339  27.430  26.352  1.00  0.00     0.031 A 
BRANCH  55  69
ATOM     69  C   UNL A   1      43.373  23.790  26.916  1.00  0.00    -0.014 A 
ATOM     70  C   UNL A   1      42.854  23.372  25.677  1.00  0.00     0.010 A 
ATOM     71  C   UNL A   1      43.374  22.885  27.995  1.00  0.00     0.010 A 
ATOM     72  C   UNL A   1      42.316  22.091  25.531  1.00  0.00     0.020 A 
ATOM     73  C   UNL A   1      42.864  21.593  27.844  1.00  0.00     0.020 A 
ATOM     74  C   UNL A   1      42.324  21.209  26.616  1.00  0.00     0.054 A 
BRANCH  74  75
ATOM     75  S   UNL A   1      41.641  19.544  26.388  1.00  0.00     0.124 S 
ATOM     76  O   UNL A   1      42.350  19.087  25.196  1.00  0.00    -0.237 OA
ATOM     77  O   UNL A   1      42.011  18.875  27.633  1.00  0.00    -0.237 OA
ATOM     78  O   UNL A   1      40.210  19.775  26.210  1.00  0.00    -0.744 OA
ENDBRANCH  74  75
ENDBRANCH  55  69
BRANCH  56  79
ATOM     79  C   UNL A   1      47.068  32.940  28.540  1.00  0.00    -0.014 A 
ATOM     80  C   UNL A   1      47.584  33.242  29.811  1.00  0.00     0.010 A 
ATOM     81  C   UNL A   1      47.104  33.928  27.536  1.00  0.00     0.010 A 
ATOM     82  C   UNL A   1      48.116  34.507  30.078  1.00  0.00     0.020 A 
ATOM     83  C   UNL A   1      47.664  35.183  27.789  1.00  0.00     0.020 A 
ATOM     84  C   UNL A   1      48.159  35.468  29.062  1.00  0.00     0.054 A 
BRANCH  84  85
ATOM     85  S   UNL A   1      48.910  37.080  29.417  1.00  0.00     0.124 S 
ATOM     86  O   UNL A   1      50.312  36.727  29.612  1.00  0.00    -0.237 OA
ATOM     87  O   UNL A   1      48.609  37.840  28.206  1.00  0.00    -0.237 OA
ATOM     88  O   UNL A   1      48.205  37.530  30.617  1.00  0.00    -0.744 OA
ENDBRANCH  84  85
ENDBRANCH  56  79
BRANCH  68  89
ATOM     89  C   UNL A   1      49.705  27.070  25.824  1.00  0.00    -0.014 A 
ATOM     90  C   UNL A   1      50.185  27.621  24.622  1.00  0.00     0.010 A 
ATOM     91  C   UNL A   1      50.543  26.224  26.572  1.00  0.00     0.010 A 
ATOM     92  C   UNL A   1      51.471  27.314  24.168  1.00  0.00     0.020 A 
ATOM     93  C   UNL A   1      51.841  25.939  26.137  1.00  0.00     0.020 A 
ATOM     94  C   UNL A   1      52.293  26.480  24.931  1.00  0.00     0.054 A 
BRANCH  94  95
ATOM     95  S   UNL A   1      53.977  26.147  24.347  1.00  0.00     0.124 S 
ATOM     96  O   UNL A   1      54.735  27.234  24.962  1.00  0.00    -0.237 OA
ATOM     97  O   UNL A   1      54.243  24.814  24.883  1.00  0.00    -0.237 OA
ATOM     98  O   UNL A   1      53.861  26.216  22.892  1.00  0.00    -0.744 OA
ENDBRANCH  94  95
ENDBRANCH  68  89
ENDBRANCH  42  43
ENDBRANCH  35  37
ENDBRANCH  34  35
ENDBRANCH  33  34
ENDBRANCH  32  33
ENDBRANCH  31  32
ENDBRANCH   1  31
TORSDOF 22
ENDMDL
MODEL 2
REMARK VINA RESULT:     -10.4      1.838      3.483
REMARK SMILES C/C=C(\C)[C@H]1C(C)=C[C@H]2CC[C@@H](OS(=O)(=O)[O-])[C@@H](C)[C@H]2[C@H]1/C=C/C=C/C(=O)OCCOCCOC(=O)c1ccc(-c2c3nc(c(-c4ccc(S(=O)(=O)[O-])cc4)c4ccc([nH]4)c(-c4ccc(S(=O)(=O)[O-])cc4)c4nc(c(-c5ccc(S(=O)(=O)[O-])cc5)c5ccc2[nH]5)C=C4)C=C3)cc1
REMARK SMILES IDX 30 1 29 2 28 3 26 4 27 5 25 6 24 7 23 8 22 9 21 10 5 11 6 12
REMARK SMILES IDX 7 13 8 14 20 15 9 16 18 17 10 18 12 19 19 20 11 21 3 22 1 23
REMARK SMILES IDX 2 24 4 25 13 26 14 27 15 28 16 29 17 30 31 31 32 32 33 33
REMARK SMILES IDX 34 34 35 35 36 36 37 37 38 38 96 39 39 40 95 41 40 42 41 43
REMARK SMILES IDX 42 44 89 45 43 46 94 47 88 48 90 49 44 50 93 51 87 52 86 53
REMARK SMILES IDX 45 55 75 56 56 57 74 58 57 59 60 60 73 61 91 62 58 63 59 64
REMARK SMILES IDX 72 66 92 67 61 68 46 69 47 70 55 71 48 72 54 73 49 74 50 75
REMARK SMILES IDX 51 76 52 77 53 78 76 79 77 80 85 81 78 82 84 83 79 84 80 85
REMARK SMILES IDX 81 86 82 87 83 88 62 89 63 90 71 91 64 92 70 93 65 94 66 95
REMARK SMILES IDX 67 96 68 97 69 98
REMARK H PARENT 90 54 60 65
REMARK Flexibility Score: inf
ROOT
ATOM      1  C   UNL A   1      34.827  32.287  29.993  1.00  0.00     0.202 C 
ENDROOT
BRANCH   1   2
ATOM      2  C   UNL A   1      35.115  32.028  28.513  1.00  0.00     0.261 C 
BRANCH   2   3
ATOM      3  O   UNL A   1      34.818  30.672  28.153  1.00  0.00    -0.460 OA
BRANCH   3   4
ATOM      4  C   UNL A   1      33.631  30.521  27.533  1.00  0.00     0.330 C 
ATOM      5  O   UNL A   1      32.879  31.406  27.147  1.00  0.00    -0.247 OA
BRANCH   4   6
ATOM      6  C   UNL A   1      33.415  29.134  27.122  1.00  0.00     0.093 C 
ATOM      7  C   UNL A   1      33.939  28.424  26.109  1.00  0.00     0.007 C 
BRANCH   7   8
ATOM      8  C   UNL A   1      33.497  27.063  26.025  1.00  0.00    -0.004 C 
ATOM      9  C   UNL A   1      33.302  26.214  25.014  1.00  0.00    -0.022 C 
BRANCH   9  10
ATOM     10  C   UNL A   1      32.923  24.749  25.298  1.00  0.00     0.027 C 
ATOM     11  C   UNL A   1      32.048  23.963  24.201  1.00  0.00     0.047 C 
ATOM     12  C   UNL A   1      32.506  22.519  23.929  1.00  0.00    -0.069 C 
ATOM     13  C   UNL A   1      31.974  21.781  22.727  1.00  0.00     0.040 C 
ATOM     14  C   UNL A   1      33.282  21.849  24.807  1.00  0.00    -0.024 C 
ATOM     15  C   UNL A   1      34.128  23.939  25.898  1.00  0.00     0.009 C 
ATOM     16  C   UNL A   1      33.766  22.455  26.094  1.00  0.00     0.016 C 
ATOM     17  C   UNL A   1      35.532  24.114  25.229  1.00  0.00     0.021 C 
ATOM     18  C   UNL A   1      34.908  21.662  26.770  1.00  0.00     0.011 C 
ATOM     19  C   UNL A   1      36.589  23.429  26.116  1.00  0.00     0.141 C 
ATOM     20  C   UNL A   1      35.689  23.664  23.764  1.00  0.00     0.011 C 
ATOM     21  C   UNL A   1      36.312  21.929  26.229  1.00  0.00     0.034 C 
BRANCH  11  22
ATOM     22  C   UNL A   1      31.659  24.820  22.969  1.00  0.00    -0.070 C 
ATOM     23  C   UNL A   1      32.280  25.980  20.762  1.00  0.00     0.035 C 
ATOM     24  C   UNL A   1      32.470  25.030  21.906  1.00  0.00    -0.031 C 
ATOM     25  C   UNL A   1      30.302  25.483  23.105  1.00  0.00     0.040 C 
ENDBRANCH  11  22
BRANCH  19  26
ATOM     26  O   UNL A   1      37.890  23.641  25.577  1.00  0.00    -0.276 OA
BRANCH  26  27
ATOM     27  S   UNL A   1      39.036  24.210  26.580  1.00  0.00     0.217 S 
ATOM     28  O   UNL A   1      40.039  24.915  25.819  1.00  0.00    -0.213 OA
ATOM     29  O   UNL A   1      38.385  24.824  27.717  1.00  0.00    -0.213 OA
ATOM     30  O   UNL A   1      39.746  22.873  27.128  1.00  0.00    -0.726 OA
ENDBRANCH  26  27
ENDBRANCH  19  26
ENDBRANCH   9  10
ENDBRANCH   7   8
ENDBRANCH   4   6
ENDBRANCH   3   4
ENDBRANCH   2   3
ENDBRANCH   1   2
BRANCH   1  31
ATOM     31  O   UNL A   1      35.082  33.593  30.509  1.00  0.00    -0.374 OA
BRANCH  31  32
ATOM     32  C   UNL A   1      36.111  33.747  31.483  1.00  0.00     0.202 C 
BRANCH  32  33
ATOM     33  C   UNL A   1      37.394  32.918  31.330  1.00  0.00     0.261 C 
BRANCH  33  34
ATOM     34  O   UNL A   1      37.548  31.903  32.332  1.00  0.00    -0.460 OA
BRANCH  34  35
ATOM     35  C   UNL A   1      37.376  30.630  31.894  1.00  0.00     0.338 C 
ATOM     36  O   UNL A   1      36.358  29.961  31.941  1.00  0.00    -0.246 OA
BRANCH  35  37
ATOM     37  C   UNL A   1      38.584  30.205  31.165  1.00  0.00     0.060 A 
ATOM     38  C   UNL A   1      39.715  29.830  31.903  1.00  0.00     0.016 A 
ATOM     39  C   UNL A   1      38.619  30.225  29.771  1.00  0.00     0.016 A 
ATOM     40  C   UNL A   1      40.888  29.468  31.246  1.00  0.00     0.010 A 
ATOM     41  C   UNL A   1      39.804  29.881  29.115  1.00  0.00     0.010 A 
ATOM     42  C   UNL A   1      40.946  29.512  29.848  1.00  0.00    -0.014 A 
BRANCH  42  43
ATOM     43  C   UNL A   1      42.221  29.241  29.142  1.00  0.00     0.031 A 
ATOM     44  C   UNL A   1      42.481  27.869  28.588  1.00  0.00     0.074 A 
ATOM     45  C   UNL A   1      43.144  30.211  29.017  1.00  0.00     0.049 A 
ATOM     46  N   UNL A   1      43.566  27.397  28.030  1.00  0.00    -0.248 NA
ATOM     47  C   UNL A   1      41.375  26.902  28.676  1.00  0.00     0.031 C 
ATOM     48  C   UNL A   1      42.984  31.593  29.473  1.00  0.00     0.029 A 
ATOM     49  N   UNL A   1      44.407  30.177  28.484  1.00  0.00    -0.354 N 
ATOM     50  C   UNL A   1      43.282  26.073  27.715  1.00  0.00     0.074 A 
ATOM     51  C   UNL A   1      41.929  25.813  28.162  1.00  0.00     0.031 C 
ATOM     52  C   UNL A   1      44.116  32.270  29.215  1.00  0.00     0.029 A 
ATOM     53  C   UNL A   1      45.094  31.360  28.624  1.00  0.00     0.049 A 
ATOM     54  H   UNL A   1      44.786  29.382  28.045  1.00  0.00     0.167 HD
ATOM     55  C   UNL A   1      44.078  25.159  27.111  1.00  0.00     0.031 A 
ATOM     56  C   UNL A   1      46.377  31.665  28.342  1.00  0.00     0.031 A 
ATOM     57  C   UNL A   1      45.430  25.423  26.688  1.00  0.00     0.049 A 
ATOM     58  C   UNL A   1      47.273  30.604  27.760  1.00  0.00     0.074 A 
ATOM     59  C   UNL A   1      46.311  24.572  26.043  1.00  0.00     0.029 A 
ATOM     60  N   UNL A   1      46.102  26.621  26.882  1.00  0.00    -0.354 N 
ATOM     61  N   UNL A   1      46.981  29.367  27.432  1.00  0.00    -0.248 NA
ATOM     62  C   UNL A   1      48.673  30.979  27.512  1.00  0.00     0.031 C 
ATOM     63  C   UNL A   1      47.538  25.230  25.915  1.00  0.00     0.029 A 
ATOM     64  C   UNL A   1      47.401  26.516  26.413  1.00  0.00     0.049 A 
ATOM     65  H   UNL A   1      45.714  27.427  27.292  1.00  0.00     0.167 HD
ATOM     66  C   UNL A   1      48.156  28.822  26.925  1.00  0.00     0.074 A 
ATOM     67  C   UNL A   1      49.155  29.870  26.966  1.00  0.00     0.031 C 
ATOM     68  C   UNL A   1      48.389  27.565  26.471  1.00  0.00     0.031 A 
BRANCH  55  69
ATOM     69  C   UNL A   1      43.527  23.771  26.912  1.00  0.00    -0.014 A 
ATOM     70  C   UNL A   1      43.158  23.303  25.638  1.00  0.00     0.010 A 
ATOM     71  C   UNL A   1      43.422  22.902  28.015  1.00  0.00     0.010 A 
ATOM     72  C   UNL A   1      42.661  22.006  25.477  1.00  0.00     0.020 A 
ATOM     73  C   UNL A   1      42.953  21.595  27.853  1.00  0.00     0.020 A 
ATOM     74  C   UNL A   1      42.561  21.161  26.586  1.00  0.00     0.054 A 
BRANCH  74  75
ATOM     75  S   UNL A   1      41.936  19.476  26.341  1.00  0.00     0.124 S 
ATOM     76  O   UNL A   1      42.649  19.062  25.135  1.00  0.00    -0.237 OA
ATOM     77  O   UNL A   1      42.343  18.803  27.572  1.00  0.00    -0.237 OA
ATOM     78  O   UNL A   1      40.496  19.658  26.180  1.00  0.00    -0.744 OA
ENDBRANCH  74  75
ENDBRANCH  55  69
BRANCH  56  79
ATOM     79  C   UNL A   1      46.901  33.024  28.651  1.00  0.00    -0.014 A 
ATOM     80  C   UNL A   1      46.782  34.069  27.720  1.00  0.00     0.010 A 
ATOM     81  C   UNL A   1      47.520  33.281  29.890  1.00  0.00     0.010 A 
ATOM     82  C   UNL A   1      47.280  35.341  28.015  1.00  0.00     0.020 A 
ATOM     83  C   UNL A   1      47.990  34.559  30.201  1.00  0.00     0.020 A 
ATOM     84  C   UNL A   1      47.875  35.580  29.258  1.00  0.00     0.054 A 
BRANCH  84  85
ATOM     85  S   UNL A   1      48.458  37.255  29.640  1.00  0.00     0.124 S 
ATOM     86  O   UNL A   1      47.207  38.003  29.714  1.00  0.00    -0.237 OA
ATOM     87  O   UNL A   1      49.158  37.062  30.907  1.00  0.00    -0.237 OA
ATOM     88  O   UNL A   1      49.319  37.584  28.504  1.00  0.00    -0.744 OA
ENDBRANCH  84  85
ENDBRANCH  56  79
BRANCH  68  89
ATOM     89  C   UNL A   1      49.777  27.250  25.972  1.00  0.00    -0.014 A 
ATOM     90  C   UNL A   1      50.109  27.397  24.613  1.00  0.00     0.010 A 
ATOM     91  C   UNL A   1      50.778  26.867  26.884  1.00  0.00     0.010 A 
ATOM     92  C   UNL A   1      51.411  27.145  24.172  1.00  0.00     0.020 A 
ATOM     93  C   UNL A   1      52.089  26.645  26.452  1.00  0.00     0.020 A 
ATOM     94  C   UNL A   1      52.394  26.776  25.096  1.00  0.00     0.054 A 
BRANCH  94  95
ATOM     95  S   UNL A   1      54.088  26.513  24.504  1.00  0.00     0.124 S 
ATOM     96  O   UNL A   1      54.527  25.385  25.322  1.00  0.00    -0.237 OA
ATOM     97  O   UNL A   1      53.888  26.220  23.086  1.00  0.00    -0.237 OA
ATOM     98  O   UNL A   1      54.756  27.782  24.784  1.00  0.00    -0.744 OA
ENDBRANCH  94  95
ENDBRANCH  68  89
ENDBRANCH  42  43
ENDBRANCH  35  37
ENDBRANCH  34  35
ENDBRANCH  33  34
ENDBRANCH  32  33
ENDBRANCH  31  32
ENDBRANCH   1  31
TORSDOF 22
ENDMDL
MODEL 3
REMARK VINA RESULT:      -9.8      5.618     11.705
REMARK SMILES C/C=C(\C)[C@H]1C(C)=C[C@H]2CC[C@@H](OS(=O)(=O)[O-])[C@@H](C)[C@H]2[C@H]1/C=C/C=C/C(=O)OCCOCCOC(=O)c1ccc(-c2c3nc(c(-c4ccc(S(=O)(=O)[O-])cc4)c4ccc([nH]4)c(-c4ccc(S(=O)(=O)[O-])cc4)c4nc(c(-c5ccc(S(=O)(=O)[O-])cc5)c5ccc2[nH]5)C=C4)C=C3)cc1
REMARK SMILES IDX 30 1 29 2 28 3 26 4 27 5 25 6 24 7 23 8 22 9 21 10 5 11 6 12
REMARK SMILES IDX 7 13 8 14 20 15 9 16 18 17 10 18 12 19 19 20 11 21 3 22 1 23
REMARK SMILES IDX 2 24 4 25 13 26 14 27 15 28 16 29 17 30 31 31 32 32 33 33
REMARK SMILES IDX 34 34 35 35 36 36 37 37 38 38 96 39 39 40 95 41 40 42 41 43
REMARK SMILES IDX 42 44 89 45 43 46 94 47 88 48 90 49 44 50 93 51 87 52 86 53
REMARK SMILES IDX 45 55 75 56 56 57 74 58 57 59 60 60 73 61 91 62 58 63 59 64
REMARK SMILES IDX 72 66 92 67 61 68 46 69 47 70 55 71 48 72 54 73 49 74 50 75
REMARK SMILES IDX 51 76 52 77 53 78 76 79 77 80 85 81 78 82 84 83 79 84 80 85
REMARK SMILES IDX 81 86 82 87 83 88 62 89 63 90 71 91 64 92 70 93 65 94 66 95
REMARK SMILES IDX 67 96 68 97 69 98
REMARK H PARENT 90 54 60 65
REMARK Flexibility Score: inf
ROOT
ATOM      1  C   UNL A   1      41.525  21.687  26.075  1.00  0.00     0.202 C 
ENDROOT
BRANCH   1   2
ATOM      2  C   UNL A   1      41.181  22.580  27.269  1.00  0.00     0.261 C 
BRANCH   2   3
ATOM      3  O   UNL A   1      39.911  23.220  27.092  1.00  0.00    -0.460 OA
BRANCH   3   4
ATOM      4  C   UNL A   1      39.044  22.510  26.342  1.00  0.00     0.330 C 
ATOM      5  O   UNL A   1      39.194  21.375  25.912  1.00  0.00    -0.247 OA
BRANCH   4   6
ATOM      6  C   UNL A   1      37.733  23.158  26.284  1.00  0.00     0.093 C 
ATOM      7  C   UNL A   1      37.039  23.648  25.244  1.00  0.00     0.007 C 
BRANCH   7   8
ATOM      8  C   UNL A   1      35.759  24.205  25.574  1.00  0.00    -0.004 C 
ATOM      9  C   UNL A   1      34.780  24.761  24.857  1.00  0.00    -0.022 C 
BRANCH   9  10
ATOM     10  C   UNL A   1      33.455  25.156  25.537  1.00  0.00     0.027 C 
ATOM     11  C   UNL A   1      32.619  26.382  24.917  1.00  0.00     0.047 C 
ATOM     12  C   UNL A   1      31.101  26.148  24.836  1.00  0.00    -0.069 C 
ATOM     13  C   UNL A   1      30.245  27.076  24.013  1.00  0.00     0.040 C 
ATOM     14  C   UNL A   1      30.493  25.202  25.584  1.00  0.00    -0.024 C 
ATOM     15  C   UNL A   1      32.603  23.897  25.931  1.00  0.00     0.009 C 
ATOM     16  C   UNL A   1      31.243  24.304  26.527  1.00  0.00     0.016 C 
ATOM     17  C   UNL A   1      32.459  22.751  24.876  1.00  0.00     0.021 C 
ATOM     18  C   UNL A   1      30.428  23.080  27.008  1.00  0.00     0.011 C 
ATOM     19  C   UNL A   1      31.799  21.536  25.556  1.00  0.00     0.141 C 
ATOM     20  C   UNL A   1      31.740  23.080  23.554  1.00  0.00     0.011 C 
ATOM     21  C   UNL A   1      30.396  21.888  26.053  1.00  0.00     0.034 C 
BRANCH  11  22
ATOM     22  C   UNL A   1      33.293  27.052  23.691  1.00  0.00    -0.070 C 
ATOM     23  C   UNL A   1      34.491  29.051  22.609  1.00  0.00     0.035 C 
ATOM     24  C   UNL A   1      33.969  28.223  23.745  1.00  0.00    -0.031 C 
ATOM     25  C   UNL A   1      33.046  26.310  22.393  1.00  0.00     0.040 C 
ENDBRANCH  11  22
BRANCH  19  26
ATOM     26  O   UNL A   1      31.729  20.445  24.643  1.00  0.00    -0.276 OA
BRANCH  26  27
ATOM     27  S   UNL A   1      32.841  19.268  24.790  1.00  0.00     0.217 S 
ATOM     28  O   UNL A   1      34.163  19.844  24.757  1.00  0.00    -0.213 OA
ATOM     29  O   UNL A   1      32.433  18.384  25.860  1.00  0.00    -0.213 OA
ATOM     30  O   UNL A   1      32.681  18.433  23.423  1.00  0.00    -0.726 OA
ENDBRANCH  26  27
ENDBRANCH  19  26
ENDBRANCH   9  10
ENDBRANCH   7   8
ENDBRANCH   4   6
ENDBRANCH   3   4
ENDBRANCH   2   3
ENDBRANCH   1   2
BRANCH   1  31
ATOM     31  O   UNL A   1      42.455  22.179  25.112  1.00  0.00    -0.374 OA
BRANCH  31  32
ATOM     32  C   UNL A   1      43.307  23.259  25.484  1.00  0.00     0.202 C 
BRANCH  32  33
ATOM     33  C   UNL A   1      43.014  24.653  24.910  1.00  0.00     0.261 C 
BRANCH  33  34
ATOM     34  O   UNL A   1      42.764  25.648  25.913  1.00  0.00    -0.460 OA
BRANCH  34  35
ATOM     35  C   UNL A   1      43.856  26.345  26.318  1.00  0.00     0.338 C 
ATOM     36  O   UNL A   1      44.898  26.509  25.708  1.00  0.00    -0.246 OA
BRANCH  35  37
ATOM     37  C   UNL A   1      43.537  27.053  27.570  1.00  0.00     0.060 A 
ATOM     38  C   UNL A   1      42.745  26.402  28.525  1.00  0.00     0.016 A 
ATOM     39  C   UNL A   1      43.972  28.361  27.779  1.00  0.00     0.016 A 
ATOM     40  C   UNL A   1      42.386  27.059  29.699  1.00  0.00     0.010 A 
ATOM     41  C   UNL A   1      43.594  29.026  28.949  1.00  0.00     0.010 A 
ATOM     42  C   UNL A   1      42.791  28.382  29.909  1.00  0.00    -0.014 A 
BRANCH  42  43
ATOM     43  C   UNL A   1      42.320  29.130  31.099  1.00  0.00     0.031 A 
ATOM     44  C   UNL A   1      41.057  29.937  31.012  1.00  0.00     0.074 A 
ATOM     45  C   UNL A   1      43.030  29.099  32.241  1.00  0.00     0.049 A 
ATOM     46  N   UNL A   1      40.528  30.741  31.899  1.00  0.00    -0.248 NA
ATOM     47  C   UNL A   1      40.290  29.828  29.761  1.00  0.00     0.031 C 
ATOM     48  C   UNL A   1      44.246  28.313  32.459  1.00  0.00     0.029 A 
ATOM     49  N   UNL A   1      42.840  29.761  33.427  1.00  0.00    -0.354 N 
ATOM     50  C   UNL A   1      39.376  31.247  31.309  1.00  0.00     0.074 A 
ATOM     51  C   UNL A   1      39.293  30.674  29.981  1.00  0.00     0.031 C 
ATOM     52  C   UNL A   1      44.702  28.553  33.700  1.00  0.00     0.029 A 
ATOM     53  C   UNL A   1      43.843  29.543  34.344  1.00  0.00     0.049 A 
ATOM     54  H   UNL A   1      42.062  30.336  33.606  1.00  0.00     0.167 HD
ATOM     55  C   UNL A   1      38.472  32.113  31.828  1.00  0.00     0.031 A 
ATOM     56  C   UNL A   1      44.063  30.108  35.548  1.00  0.00     0.031 A 
ATOM     57  C   UNL A   1      38.574  32.692  33.143  1.00  0.00     0.049 A 
ATOM     58  C   UNL A   1      43.096  31.140  36.064  1.00  0.00     0.074 A 
ATOM     59  C   UNL A   1      37.697  33.559  33.771  1.00  0.00     0.029 A 
ATOM     60  N   UNL A   1      39.624  32.478  34.024  1.00  0.00    -0.354 N 
ATOM     61  N   UNL A   1      41.990  31.581  35.513  1.00  0.00    -0.248 NA
ATOM     62  C   UNL A   1      43.408  31.752  37.363  1.00  0.00     0.031 C 
ATOM     63  C   UNL A   1      38.252  33.926  35.001  1.00  0.00     0.029 A 
ATOM     64  C   UNL A   1      39.440  33.232  35.172  1.00  0.00     0.049 A 
ATOM     65  H   UNL A   1      40.386  31.877  33.860  1.00  0.00     0.167 HD
ATOM     66  C   UNL A   1      41.466  32.512  36.405  1.00  0.00     0.074 A 
ATOM     67  C   UNL A   1      42.363  32.550  37.543  1.00  0.00     0.031 C 
ATOM     68  C   UNL A   1      40.347  33.270  36.291  1.00  0.00     0.031 A 
BRANCH  55  69
ATOM     69  C   UNL A   1      37.315  32.525  30.955  1.00  0.00    -0.014 A 
ATOM     70  C   UNL A   1      37.369  33.688  30.166  1.00  0.00     0.010 A 
ATOM     71  C   UNL A   1      36.171  31.707  30.887  1.00  0.00     0.010 A 
ATOM     72  C   UNL A   1      36.288  34.043  29.354  1.00  0.00     0.020 A 
ATOM     73  C   UNL A   1      35.100  32.043  30.054  1.00  0.00     0.020 A 
ATOM     74  C   UNL A   1      35.160  33.218  29.304  1.00  0.00     0.054 A 
BRANCH  74  75
ATOM     75  S   UNL A   1      33.783  33.693  28.222  1.00  0.00     0.124 S 
ATOM     76  O   UNL A   1      33.320  32.396  27.736  1.00  0.00    -0.237 OA
ATOM     77  O   UNL A   1      32.877  34.378  29.141  1.00  0.00    -0.237 OA
ATOM     78  O   UNL A   1      34.409  34.547  27.216  1.00  0.00    -0.744 OA
ENDBRANCH  74  75
ENDBRANCH  55  69
BRANCH  56  79
ATOM     79  C   UNL A   1      45.277  29.739  36.328  1.00  0.00    -0.014 A 
ATOM     80  C   UNL A   1      46.482  30.440  36.158  1.00  0.00     0.010 A 
ATOM     81  C   UNL A   1      45.228  28.679  37.256  1.00  0.00     0.010 A 
ATOM     82  C   UNL A   1      47.618  30.085  36.891  1.00  0.00     0.020 A 
ATOM     83  C   UNL A   1      46.352  28.343  38.013  1.00  0.00     0.020 A 
ATOM     84  C   UNL A   1      47.544  29.042  37.820  1.00  0.00     0.054 A 
BRANCH  84  85
ATOM     85  S   UNL A   1      49.015  28.641  38.802  1.00  0.00     0.124 S 
ATOM     86  O   UNL A   1      48.905  27.193  38.939  1.00  0.00    -0.237 OA
ATOM     87  O   UNL A   1      50.101  29.117  37.948  1.00  0.00    -0.237 OA
ATOM     88  O   UNL A   1      48.822  29.404  40.034  1.00  0.00    -0.744 OA
ENDBRANCH  84  85
ENDBRANCH  56  79
BRANCH  68  89
ATOM     89  C   UNL A   1      40.019  34.203  37.429  1.00  0.00    -0.014 A 
ATOM     90  C   UNL A   1      39.164  33.802  38.471  1.00  0.00     0.010 A 
ATOM     91  C   UNL A   1      40.626  35.471  37.492  1.00  0.00     0.010 A 
ATOM     92  C   UNL A   1      38.904  34.661  39.543  1.00  0.00     0.020 A 
ATOM     93  C   UNL A   1      40.394  36.321  38.577  1.00  0.00     0.020 A 
ATOM     94  C   UNL A   1      39.525  35.913  39.592  1.00  0.00     0.054 A 
BRANCH  94  95
ATOM     95  S   UNL A   1      39.216  36.982  41.024  1.00  0.00     0.124 S 
ATOM     96  O   UNL A   1      40.572  37.328  41.445  1.00  0.00    -0.237 OA
ATOM     97  O   UNL A   1      38.441  38.076  40.443  1.00  0.00    -0.237 OA
ATOM     98  O   UNL A   1      38.478  36.123  41.946  1.00  0.00    -0.744 OA
ENDBRANCH  94  95
ENDBRANCH  68  89
ENDBRANCH  42  43
ENDBRANCH  35  37
ENDBRANCH  34  35
ENDBRANCH  33  34
ENDBRANCH  32  33
ENDBRANCH  31  32
ENDBRANCH   1  31
TORSDOF 22
ENDMDL
