MODEL 1
REMARK VINA RESULT:     -12.2      0.000      0.000
REMARK SMILES Cc1ccc(-c2c(C)sc(NC(=O)[C@H]3CC=CC[C@H]3C(=O)OCCOCCOC(=O)c3ccc(-c4c5nc(c(-c6ccc(S(=O)(=O)[O-])cc6)c6ccc([nH]6)c(-c6ccc(S(=O)(=O)[O-])cc6)c6nc(c(-c7ccc(S(=O)(=O)[O-])cc7)c7ccc4[nH]7)C=C6)C=C5)cc3)c2C(N)=O)cc1
REMARK SMILES IDX 25 1 24 2 23 3 22 4 20 5 21 6 19 7 14 8 15 9 16 10 18 11
REMARK SMILES IDX 17 12 12 13 11 14 13 16 10 17 6 18 7 19 91 20 8 21 9 22 5 23
REMARK SMILES IDX 1 24 2 25 3 26 96 27 4 28 95 29 92 30 93 31 94 32 26 35
REMARK SMILES IDX 27 36 28 37 29 38 30 39 31 40 32 41 90 42 33 43 89 44 34 45
REMARK SMILES IDX 35 46 36 47 83 48 37 49 88 50 82 51 84 52 38 53 87 54 81 55
REMARK SMILES IDX 80 56 39 58 69 59 50 60 68 61 51 62 54 63 67 64 85 65 52 66
REMARK SMILES IDX 53 67 66 69 86 70 55 71 40 72 41 73 49 74 42 75 48 76 43 77
REMARK SMILES IDX 44 78 45 79 46 80 47 81 70 82 71 83 79 84 72 85 78 86 73 87
REMARK SMILES IDX 74 88 75 89 76 90 77 91 56 92 57 93 65 94 58 95 64 96 59 97
REMARK SMILES IDX 60 98 61 99 62 100 63 101
REMARK H PARENT 11 15 93 33 93 34 84 57 54 68
REMARK Flexibility Score: inf
ROOT
ATOM      1  O   UNL A   1      35.996  20.534  25.251  1.00  0.00    -0.374 OA
ENDROOT
BRANCH   1   2
ATOM      2  C   UNL A   1      35.346  19.404  24.684  1.00  0.00     0.202 C 
BRANCH   2   3
ATOM      3  C   UNL A   1      33.871  19.620  24.860  1.00  0.00     0.261 C 
BRANCH   3   4
ATOM      4  O   UNL A   1      33.282  20.354  23.768  1.00  0.00    -0.463 OA
BRANCH   4   5
ATOM      5  C   UNL A   1      33.264  21.702  23.862  1.00  0.00     0.310 C 
ATOM      6  O   UNL A   1      33.708  22.494  23.034  1.00  0.00    -0.252 OA
BRANCH   5   7
ATOM      7  C   UNL A   1      32.597  22.161  25.109  1.00  0.00     0.116 C 
ATOM      8  C   UNL A   1      33.543  22.699  26.197  1.00  0.00     0.097 C 
ATOM      9  C   UNL A   1      32.774  22.897  27.507  1.00  0.00     0.041 C 
ATOM     10  C   UNL A   1      31.303  23.210  27.336  1.00  0.00    -0.030 C 
ATOM     11  C   UNL A   1      31.376  23.020  24.842  1.00  0.00     0.043 C 
ATOM     12  C   UNL A   1      30.682  23.291  26.147  1.00  0.00    -0.030 C 
BRANCH   8  13
ATOM     13  C   UNL A   1      34.668  23.730  25.859  1.00  0.00     0.229 C 
ATOM     14  N   UNL A   1      34.570  24.742  24.940  1.00  0.00    -0.317 N 
ATOM     15  H   UNL A   1      35.273  24.766  24.251  1.00  0.00     0.170 HD
ATOM     16  O   UNL A   1      35.791  23.561  26.358  1.00  0.00    -0.274 OA
BRANCH  14  17
ATOM     17  C   UNL A   1      33.614  25.729  24.861  1.00  0.00     0.109 A 
ATOM     18  C   UNL A   1      31.749  27.053  24.493  1.00  0.00     0.010 A 
ATOM     19  C   UNL A   1      31.996  27.205  25.851  1.00  0.00     0.012 A 
ATOM     20  C   UNL A   1      32.739  26.164  23.861  1.00  0.00     0.082 A 
ATOM     21  C   UNL A   1      31.159  27.713  26.974  1.00  0.00     0.057 C 
ATOM     22  S   UNL A   1      33.641  26.897  26.096  1.00  0.00    -0.122 S 
BRANCH  18  23
ATOM     23  C   UNL A   1      30.660  27.829  23.914  1.00  0.00    -0.016 A 
ATOM     24  C   UNL A   1      27.573  30.381  22.342  1.00  0.00     0.044 C 
ATOM     25  C   UNL A   1      28.634  29.496  22.917  1.00  0.00    -0.051 A 
ATOM     26  C   UNL A   1      28.425  28.114  23.050  1.00  0.00     0.004 A 
ATOM     27  C   UNL A   1      29.866  30.038  23.281  1.00  0.00     0.004 A 
ATOM     28  C   UNL A   1      29.428  27.283  23.564  1.00  0.00     0.009 A 
ATOM     29  C   UNL A   1      30.873  29.208  23.750  1.00  0.00     0.009 A 
ENDBRANCH  18  23
BRANCH  20  30
ATOM     30  C   UNL A   1      32.728  25.799  22.437  1.00  0.00     0.252 C 
ATOM     31  N   UNL A   1      31.765  24.947  21.979  1.00  0.00    -0.365 N 
ATOM     32  O   UNL A   1      33.577  26.169  21.629  1.00  0.00    -0.269 OA
ATOM     33  H   UNL A   1      31.064  24.622  22.588  1.00  0.00     0.159 HD
ATOM     34  H   UNL A   1      31.773  24.655  21.038  1.00  0.00     0.159 HD
ENDBRANCH  20  30
ENDBRANCH  14  17
ENDBRANCH   8  13
ENDBRANCH   5   7
ENDBRANCH   4   5
ENDBRANCH   3   4
ENDBRANCH   2   3
ENDBRANCH   1   2
BRANCH   1  35
ATOM     35  C   UNL A   1      37.119  21.048  24.574  1.00  0.00     0.202 C 
BRANCH  35  36
ATOM     36  C   UNL A   1      38.420  21.175  25.375  1.00  0.00     0.261 C 
BRANCH  36  37
ATOM     37  O   UNL A   1      38.683  22.454  26.001  1.00  0.00    -0.460 OA
BRANCH  37  38
ATOM     38  C   UNL A   1      39.718  22.657  26.845  1.00  0.00     0.338 C 
ATOM     39  O   UNL A   1      40.355  21.781  27.401  1.00  0.00    -0.246 OA
BRANCH  38  40
ATOM     40  C   UNL A   1      39.947  24.104  27.034  1.00  0.00     0.060 A 
ATOM     41  C   UNL A   1      40.467  24.945  26.039  1.00  0.00     0.016 A 
ATOM     42  C   UNL A   1      39.746  24.581  28.321  1.00  0.00     0.016 A 
ATOM     43  C   UNL A   1      40.895  26.243  26.366  1.00  0.00     0.010 A 
ATOM     44  C   UNL A   1      40.268  25.813  28.660  1.00  0.00     0.010 A 
ATOM     45  C   UNL A   1      40.858  26.652  27.696  1.00  0.00    -0.014 A 
BRANCH  45  46
ATOM     46  C   UNL A   1      41.378  27.912  28.249  1.00  0.00     0.031 A 
ATOM     47  C   UNL A   1      40.386  28.979  28.493  1.00  0.00     0.074 A 
ATOM     48  C   UNL A   1      42.598  27.975  28.837  1.00  0.00     0.049 A 
ATOM     49  N   UNL A   1      40.660  30.117  29.017  1.00  0.00    -0.248 NA
ATOM     50  C   UNL A   1      38.970  28.853  28.141  1.00  0.00     0.031 C 
ATOM     51  C   UNL A   1      43.052  28.819  29.949  1.00  0.00     0.029 A 
ATOM     52  N   UNL A   1      43.745  27.236  28.551  1.00  0.00    -0.354 N 
ATOM     53  C   UNL A   1      39.475  30.698  29.396  1.00  0.00     0.074 A 
ATOM     54  C   UNL A   1      38.452  29.938  28.726  1.00  0.00     0.031 C 
ATOM     55  C   UNL A   1      44.397  28.766  30.038  1.00  0.00     0.029 A 
ATOM     56  C   UNL A   1      44.860  28.009  28.885  1.00  0.00     0.049 A 
ATOM     57  H   UNL A   1      43.766  26.325  28.178  1.00  0.00     0.167 HD
ATOM     58  C   UNL A   1      39.519  31.667  30.352  1.00  0.00     0.031 A 
ATOM     59  C   UNL A   1      45.709  28.411  27.901  1.00  0.00     0.031 A 
ATOM     60  C   UNL A   1      40.913  32.025  30.648  1.00  0.00     0.049 A 
ATOM     61  C   UNL A   1      45.640  29.911  27.854  1.00  0.00     0.074 A 
ATOM     62  C   UNL A   1      41.764  31.767  31.710  1.00  0.00     0.029 A 
ATOM     63  N   UNL A   1      41.722  32.455  29.597  1.00  0.00    -0.354 N 
ATOM     64  N   UNL A   1      44.563  30.582  28.171  1.00  0.00    -0.248 NA
ATOM     65  C   UNL A   1      46.805  30.761  27.653  1.00  0.00     0.031 C 
ATOM     66  C   UNL A   1      43.103  31.955  31.247  1.00  0.00     0.029 A 
ATOM     67  C   UNL A   1      43.062  32.349  29.916  1.00  0.00     0.049 A 
ATOM     68  H   UNL A   1      41.382  32.791  28.736  1.00  0.00     0.167 HD
ATOM     69  C   UNL A   1      44.906  31.881  28.393  1.00  0.00     0.074 A 
ATOM     70  C   UNL A   1      46.303  31.963  27.986  1.00  0.00     0.031 C 
ATOM     71  C   UNL A   1      44.075  32.800  28.966  1.00  0.00     0.031 A 
BRANCH  58  72
ATOM     72  C   UNL A   1      38.332  32.149  31.157  1.00  0.00    -0.014 A 
ATOM     73  C   UNL A   1      37.490  33.144  30.618  1.00  0.00     0.010 A 
ATOM     74  C   UNL A   1      38.008  31.716  32.459  1.00  0.00     0.010 A 
ATOM     75  C   UNL A   1      36.404  33.677  31.334  1.00  0.00     0.020 A 
ATOM     76  C   UNL A   1      36.926  32.234  33.188  1.00  0.00     0.020 A 
ATOM     77  C   UNL A   1      36.127  33.215  32.619  1.00  0.00     0.054 A 
BRANCH  77  78
ATOM     78  S   UNL A   1      34.714  33.896  33.523  1.00  0.00     0.124 S 
ATOM     79  O   UNL A   1      33.598  33.113  32.998  1.00  0.00    -0.237 OA
ATOM     80  O   UNL A   1      35.073  33.630  34.913  1.00  0.00    -0.237 OA
ATOM     81  O   UNL A   1      34.706  35.309  33.146  1.00  0.00    -0.744 OA
ENDBRANCH  77  78
ENDBRANCH  58  72
BRANCH  59  82
ATOM     82  C   UNL A   1      45.782  27.415  26.776  1.00  0.00    -0.014 A 
ATOM     83  C   UNL A   1      46.768  26.398  26.883  1.00  0.00     0.010 A 
ATOM     84  C   UNL A   1      44.686  27.176  25.929  1.00  0.00     0.010 A 
ATOM     85  C   UNL A   1      46.594  25.142  26.285  1.00  0.00     0.020 A 
ATOM     86  C   UNL A   1      44.511  25.914  25.323  1.00  0.00     0.020 A 
ATOM     87  C   UNL A   1      45.433  24.889  25.559  1.00  0.00     0.054 A 
BRANCH  87  88
ATOM     88  S   UNL A   1      45.075  23.178  25.045  1.00  0.00     0.124 S 
ATOM     89  O   UNL A   1      45.977  22.390  25.882  1.00  0.00    -0.237 OA
ATOM     90  O   UNL A   1      43.660  23.053  25.382  1.00  0.00    -0.237 OA
ATOM     91  O   UNL A   1      45.385  23.179  23.619  1.00  0.00    -0.744 OA
ENDBRANCH  87  88
ENDBRANCH  59  82
BRANCH  71  92
ATOM     92  C   UNL A   1      44.163  34.268  28.655  1.00  0.00    -0.014 A 
ATOM     93  C   UNL A   1      45.000  35.146  29.357  1.00  0.00     0.010 A 
ATOM     94  C   UNL A   1      43.549  34.757  27.478  1.00  0.00     0.010 A 
ATOM     95  C   UNL A   1      45.175  36.465  28.941  1.00  0.00     0.020 A 
ATOM     96  C   UNL A   1      43.775  36.050  27.013  1.00  0.00     0.020 A 
ATOM     97  C   UNL A   1      44.567  36.905  27.767  1.00  0.00     0.054 A 
BRANCH  97  98
ATOM     98  S   UNL A   1      44.873  38.594  27.221  1.00  0.00     0.124 S 
ATOM     99  O   UNL A   1      45.143  39.268  28.489  1.00  0.00    -0.237 OA
ATOM    100  O   UNL A   1      46.026  38.440  26.335  1.00  0.00    -0.237 OA
ATOM    101  O   UNL A   1      43.630  38.976  26.559  1.00  0.00    -0.744 OA
ENDBRANCH  97  98
ENDBRANCH  71  92
ENDBRANCH  45  46
ENDBRANCH  38  40
ENDBRANCH  37  38
ENDBRANCH  36  37
ENDBRANCH  35  36
ENDBRANCH   1  35
TORSDOF 21
ENDMDL
MODEL 2
REMARK VINA RESULT:     -12.1      1.710      2.741
REMARK SMILES Cc1ccc(-c2c(C)sc(NC(=O)[C@H]3CC=CC[C@H]3C(=O)OCCOCCOC(=O)c3ccc(-c4c5nc(c(-c6ccc(S(=O)(=O)[O-])cc6)c6ccc([nH]6)c(-c6ccc(S(=O)(=O)[O-])cc6)c6nc(c(-c7ccc(S(=O)(=O)[O-])cc7)c7ccc4[nH]7)C=C6)C=C5)cc3)c2C(N)=O)cc1
REMARK SMILES IDX 25 1 24 2 23 3 22 4 20 5 21 6 19 7 14 8 15 9 16 10 18 11
REMARK SMILES IDX 17 12 12 13 11 14 13 16 10 17 6 18 7 19 91 20 8 21 9 22 5 23
REMARK SMILES IDX 1 24 2 25 3 26 96 27 4 28 95 29 92 30 93 31 94 32 26 35
REMARK SMILES IDX 27 36 28 37 29 38 30 39 31 40 32 41 90 42 33 43 89 44 34 45
REMARK SMILES IDX 35 46 36 47 83 48 37 49 88 50 82 51 84 52 38 53 87 54 81 55
REMARK SMILES IDX 80 56 39 58 69 59 50 60 68 61 51 62 54 63 67 64 85 65 52 66
REMARK SMILES IDX 53 67 66 69 86 70 55 71 40 72 41 73 49 74 42 75 48 76 43 77
REMARK SMILES IDX 44 78 45 79 46 80 47 81 70 82 71 83 79 84 72 85 78 86 73 87
REMARK SMILES IDX 74 88 75 89 76 90 77 91 56 92 57 93 65 94 58 95 64 96 59 97
REMARK SMILES IDX 60 98 61 99 62 100 63 101
REMARK H PARENT 11 15 93 33 93 34 84 57 54 68
REMARK Flexibility Score: inf
ROOT
ATOM      1  O   UNL A   1      35.615  19.567  24.997  1.00  0.00    -0.374 OA
ENDROOT
BRANCH   1   2
ATOM      2  C   UNL A   1      34.278  19.265  24.621  1.00  0.00     0.202 C 
BRANCH   2   3
ATOM      3  C   UNL A   1      33.390  19.838  25.687  1.00  0.00     0.261 C 
BRANCH   3   4
ATOM      4  O   UNL A   1      32.167  20.386  25.157  1.00  0.00    -0.463 OA
BRANCH   4   5
ATOM      5  C   UNL A   1      31.868  21.665  25.476  1.00  0.00     0.310 C 
ATOM      6  O   UNL A   1      30.800  22.071  25.928  1.00  0.00    -0.252 OA
BRANCH   5   7
ATOM      7  C   UNL A   1      33.021  22.576  25.246  1.00  0.00     0.116 C 
ATOM      8  C   UNL A   1      33.078  23.218  23.849  1.00  0.00     0.097 C 
ATOM      9  C   UNL A   1      34.425  23.921  23.651  1.00  0.00     0.041 C 
ATOM     10  C   UNL A   1      35.062  24.438  24.923  1.00  0.00    -0.030 C 
ATOM     11  C   UNL A   1      33.254  23.533  26.399  1.00  0.00     0.043 C 
ATOM     12  C   UNL A   1      34.529  24.288  26.149  1.00  0.00    -0.030 C 
BRANCH   8  13
ATOM     13  C   UNL A   1      31.817  23.884  23.208  1.00  0.00     0.229 C 
ATOM     14  N   UNL A   1      31.143  24.964  23.715  1.00  0.00    -0.317 N 
ATOM     15  H   UNL A   1      30.176  24.841  23.853  1.00  0.00     0.170 HD
ATOM     16  O   UNL A   1      31.292  23.330  22.230  1.00  0.00    -0.274 OA
BRANCH  14  17
ATOM     17  C   UNL A   1      31.648  26.199  24.054  1.00  0.00     0.109 A 
ATOM     18  C   UNL A   1      32.690  28.039  24.999  1.00  0.00     0.010 A 
ATOM     19  C   UNL A   1      33.084  28.086  23.668  1.00  0.00     0.012 A 
ATOM     20  C   UNL A   1      31.795  26.898  25.256  1.00  0.00     0.082 A 
ATOM     21  C   UNL A   1      34.184  28.810  22.971  1.00  0.00     0.057 C 
ATOM     22  S   UNL A   1      31.899  27.282  22.769  1.00  0.00    -0.122 S 
BRANCH  18  23
ATOM     23  C   UNL A   1      33.126  29.123  25.871  1.00  0.00    -0.016 A 
ATOM     24  C   UNL A   1      34.583  32.104  28.609  1.00  0.00     0.044 C 
ATOM     25  C   UNL A   1      34.058  31.055  27.679  1.00  0.00    -0.051 A 
ATOM     26  C   UNL A   1      32.883  31.270  26.942  1.00  0.00     0.004 A 
ATOM     27  C   UNL A   1      34.768  29.869  27.502  1.00  0.00     0.004 A 
ATOM     28  C   UNL A   1      32.406  30.299  26.053  1.00  0.00     0.009 A 
ATOM     29  C   UNL A   1      34.318  28.927  26.589  1.00  0.00     0.009 A 
ENDBRANCH  18  23
BRANCH  20  30
ATOM     30  C   UNL A   1      31.228  26.577  26.573  1.00  0.00     0.252 C 
ATOM     31  N   UNL A   1      31.186  27.548  27.532  1.00  0.00    -0.365 N 
ATOM     32  O   UNL A   1      30.837  25.456  26.896  1.00  0.00    -0.269 OA
ATOM     33  H   UNL A   1      31.489  28.460  27.322  1.00  0.00     0.159 HD
ATOM     34  H   UNL A   1      30.854  27.335  28.434  1.00  0.00     0.159 HD
ENDBRANCH  20  30
ENDBRANCH  14  17
ENDBRANCH   8  13
ENDBRANCH   5   7
ENDBRANCH   4   5
ENDBRANCH   3   4
ENDBRANCH   2   3
ENDBRANCH   1   2
BRANCH   1  35
ATOM     35  C   UNL A   1      35.995  20.924  25.019  1.00  0.00     0.202 C 
BRANCH  35  36
ATOM     36  C   UNL A   1      37.495  21.228  25.116  1.00  0.00     0.261 C 
BRANCH  36  37
ATOM     37  O   UNL A   1      37.878  22.414  25.854  1.00  0.00    -0.460 OA
BRANCH  37  38
ATOM     38  C   UNL A   1      39.057  22.523  26.503  1.00  0.00     0.338 C 
ATOM     39  O   UNL A   1      39.759  21.591  26.851  1.00  0.00    -0.246 OA
BRANCH  38  40
ATOM     40  C   UNL A   1      39.363  23.943  26.772  1.00  0.00     0.060 A 
ATOM     41  C   UNL A   1      40.062  24.769  25.879  1.00  0.00     0.016 A 
ATOM     42  C   UNL A   1      39.037  24.399  28.040  1.00  0.00     0.016 A 
ATOM     43  C   UNL A   1      40.537  26.022  26.303  1.00  0.00     0.010 A 
ATOM     44  C   UNL A   1      39.599  25.578  28.486  1.00  0.00     0.010 A 
ATOM     45  C   UNL A   1      40.364  26.397  27.633  1.00  0.00    -0.014 A 
BRANCH  45  46
ATOM     46  C   UNL A   1      40.898  27.598  28.291  1.00  0.00     0.031 A 
ATOM     47  C   UNL A   1      39.973  28.744  28.415  1.00  0.00     0.074 A 
ATOM     48  C   UNL A   1      42.017  27.546  29.055  1.00  0.00     0.049 A 
ATOM     49  N   UNL A   1      40.260  29.846  29.004  1.00  0.00    -0.248 NA
ATOM     50  C   UNL A   1      38.621  28.747  27.854  1.00  0.00     0.031 C 
ATOM     51  C   UNL A   1      42.368  28.331  30.244  1.00  0.00     0.029 A 
ATOM     52  N   UNL A   1      43.128  26.715  28.922  1.00  0.00    -0.354 N 
ATOM     53  C   UNL A   1      39.084  30.522  29.220  1.00  0.00     0.074 A 
ATOM     54  C   UNL A   1      38.114  29.864  28.385  1.00  0.00     0.031 C 
ATOM     55  C   UNL A   1      43.675  28.160  30.531  1.00  0.00     0.029 A 
ATOM     56  C   UNL A   1      44.241  27.383  29.438  1.00  0.00     0.049 A 
ATOM     57  H   UNL A   1      43.128  25.811  28.531  1.00  0.00     0.167 HD
ATOM     58  C   UNL A   1      39.066  31.470  30.198  1.00  0.00     0.031 A 
ATOM     59  C   UNL A   1      45.258  27.724  28.603  1.00  0.00     0.031 A 
ATOM     60  C   UNL A   1      40.425  31.701  30.708  1.00  0.00     0.049 A 
ATOM     61  C   UNL A   1      45.323  29.224  28.587  1.00  0.00     0.074 A 
ATOM     62  C   UNL A   1      41.082  31.354  31.876  1.00  0.00     0.029 A 
ATOM     63  N   UNL A   1      41.416  32.074  29.799  1.00  0.00    -0.354 N 
ATOM     64  N   UNL A   1      44.271  29.982  28.759  1.00  0.00    -0.248 NA
ATOM     65  C   UNL A   1      46.572  29.973  28.584  1.00  0.00     0.031 C 
ATOM     66  C   UNL A   1      42.487  31.431  31.621  1.00  0.00     0.029 A 
ATOM     67  C   UNL A   1      42.679  31.847  30.310  1.00  0.00     0.049 A 
ATOM     68  H   UNL A   1      41.238  32.450  28.908  1.00  0.00     0.167 HD
ATOM     69  C   UNL A   1      44.684  31.243  29.065  1.00  0.00     0.074 A 
ATOM     70  C   UNL A   1      46.128  31.209  28.872  1.00  0.00     0.031 C 
ATOM     71  C   UNL A   1      43.857  32.222  29.534  1.00  0.00     0.031 A 
BRANCH  58  72
ATOM     72  C   UNL A   1      37.816  32.041  30.831  1.00  0.00    -0.014 A 
ATOM     73  C   UNL A   1      37.592  33.432  30.783  1.00  0.00     0.010 A 
ATOM     74  C   UNL A   1      36.848  31.291  31.532  1.00  0.00     0.010 A 
ATOM     75  C   UNL A   1      36.482  34.035  31.399  1.00  0.00     0.020 A 
ATOM     76  C   UNL A   1      35.732  31.875  32.150  1.00  0.00     0.020 A 
ATOM     77  C   UNL A   1      35.555  33.250  32.080  1.00  0.00     0.054 A 
BRANCH  77  78
ATOM     78  S   UNL A   1      34.118  34.036  32.852  1.00  0.00     0.124 S 
ATOM     79  O   UNL A   1      33.361  32.890  33.348  1.00  0.00    -0.237 OA
ATOM     80  O   UNL A   1      34.734  34.877  33.876  1.00  0.00    -0.237 OA
ATOM     81  O   UNL A   1      33.486  34.764  31.753  1.00  0.00    -0.744 OA
ENDBRANCH  77  78
ENDBRANCH  58  72
BRANCH  59  82
ATOM     82  C   UNL A   1      45.416  26.742  27.474  1.00  0.00    -0.014 A 
ATOM     83  C   UNL A   1      46.065  25.516  27.776  1.00  0.00     0.010 A 
ATOM     84  C   UNL A   1      44.583  26.778  26.342  1.00  0.00     0.010 A 
ATOM     85  C   UNL A   1      45.782  24.341  27.066  1.00  0.00     0.020 A 
ATOM     86  C   UNL A   1      44.299  25.599  25.623  1.00  0.00     0.020 A 
ATOM     87  C   UNL A   1      44.850  24.379  26.031  1.00  0.00     0.054 A 
BRANCH  87  88
ATOM     88  S   UNL A   1      44.266  22.808  25.317  1.00  0.00     0.124 S 
ATOM     89  O   UNL A   1      42.834  22.829  25.608  1.00  0.00    -0.237 OA
ATOM     90  O   UNL A   1      44.607  22.973  23.908  1.00  0.00    -0.237 OA
ATOM     91  O   UNL A   1      45.036  21.799  26.037  1.00  0.00    -0.744 OA
ENDBRANCH  87  88
ENDBRANCH  59  82
BRANCH  71  92
ATOM     92  C   UNL A   1      44.113  33.681  29.280  1.00  0.00    -0.014 A 
ATOM     93  C   UNL A   1      43.917  34.283  28.029  1.00  0.00     0.010 A 
ATOM     94  C   UNL A   1      44.355  34.536  30.381  1.00  0.00     0.010 A 
ATOM     95  C   UNL A   1      44.012  35.664  27.869  1.00  0.00     0.020 A 
ATOM     96  C   UNL A   1      44.379  35.922  30.246  1.00  0.00     0.020 A 
ATOM     97  C   UNL A   1      44.234  36.474  28.980  1.00  0.00     0.054 A 
BRANCH  97  98
ATOM     98  S   UNL A   1      44.279  38.260  28.747  1.00  0.00     0.124 S 
ATOM     99  O   UNL A   1      42.858  38.598  28.797  1.00  0.00    -0.237 OA
ATOM    100  O   UNL A   1      45.072  38.712  29.888  1.00  0.00    -0.237 OA
ATOM    101  O   UNL A   1      44.918  38.425  27.445  1.00  0.00    -0.744 OA
ENDBRANCH  97  98
ENDBRANCH  71  92
ENDBRANCH  45  46
ENDBRANCH  38  40
ENDBRANCH  37  38
ENDBRANCH  36  37
ENDBRANCH  35  36
ENDBRANCH   1  35
TORSDOF 21
ENDMDL
MODEL 3
REMARK VINA RESULT:     -11.7      3.847      5.985
REMARK SMILES Cc1ccc(-c2c(C)sc(NC(=O)[C@H]3CC=CC[C@H]3C(=O)OCCOCCOC(=O)c3ccc(-c4c5nc(c(-c6ccc(S(=O)(=O)[O-])cc6)c6ccc([nH]6)c(-c6ccc(S(=O)(=O)[O-])cc6)c6nc(c(-c7ccc(S(=O)(=O)[O-])cc7)c7ccc4[nH]7)C=C6)C=C5)cc3)c2C(N)=O)cc1
REMARK SMILES IDX 25 1 24 2 23 3 22 4 20 5 21 6 19 7 14 8 15 9 16 10 18 11
REMARK SMILES IDX 17 12 12 13 11 14 13 16 10 17 6 18 7 19 91 20 8 21 9 22 5 23
REMARK SMILES IDX 1 24 2 25 3 26 96 27 4 28 95 29 92 30 93 31 94 32 26 35
REMARK SMILES IDX 27 36 28 37 29 38 30 39 31 40 32 41 90 42 33 43 89 44 34 45
REMARK SMILES IDX 35 46 36 47 83 48 37 49 88 50 82 51 84 52 38 53 87 54 81 55
REMARK SMILES IDX 80 56 39 58 69 59 50 60 68 61 51 62 54 63 67 64 85 65 52 66
REMARK SMILES IDX 53 67 66 69 86 70 55 71 40 72 41 73 49 74 42 75 48 76 43 77
REMARK SMILES IDX 44 78 45 79 46 80 47 81 70 82 71 83 79 84 72 85 78 86 73 87
REMARK SMILES IDX 74 88 75 89 76 90 77 91 56 92 57 93 65 94 58 95 64 96 59 97
REMARK SMILES IDX 60 98 61 99 62 100 63 101
REMARK H PARENT 11 15 93 33 93 34 84 57 54 68
REMARK Flexibility Score: inf
ROOT
ATOM      1  O   UNL A   1      38.908  24.844  26.503  1.00  0.00    -0.374 OA
ENDROOT
BRANCH   1   2
ATOM      2  C   UNL A   1      38.105  23.676  26.393  1.00  0.00     0.202 C 
BRANCH   2   3
ATOM      3  C   UNL A   1      37.293  23.828  25.140  1.00  0.00     0.261 C 
BRANCH   3   4
ATOM      4  O   UNL A   1      35.874  23.841  25.393  1.00  0.00    -0.463 OA
BRANCH   4   5
ATOM      5  C   UNL A   1      35.062  23.393  24.410  1.00  0.00     0.310 C 
ATOM      6  O   UNL A   1      34.984  23.845  23.270  1.00  0.00    -0.252 OA
BRANCH   5   7
ATOM      7  C   UNL A   1      34.252  22.226  24.850  1.00  0.00     0.116 C 
ATOM      8  C   UNL A   1      32.738  22.353  24.608  1.00  0.00     0.097 C 
ATOM      9  C   UNL A   1      31.998  21.218  25.324  1.00  0.00     0.041 C 
ATOM     10  C   UNL A   1      32.796  19.943  25.482  1.00  0.00    -0.030 C 
ATOM     11  C   UNL A   1      34.858  20.900  24.434  1.00  0.00     0.043 C 
ATOM     12  C   UNL A   1      34.065  19.789  25.063  1.00  0.00    -0.030 C 
BRANCH   8  13
ATOM     13  C   UNL A   1      32.171  22.825  23.229  1.00  0.00     0.229 C 
ATOM     14  N   UNL A   1      31.426  23.956  23.021  1.00  0.00    -0.317 N 
ATOM     15  H   UNL A   1      30.560  23.824  22.572  1.00  0.00     0.170 HD
ATOM     16  O   UNL A   1      32.283  22.065  22.256  1.00  0.00    -0.274 OA
BRANCH  14  17
ATOM     17  C   UNL A   1      31.737  25.254  23.360  1.00  0.00     0.109 A 
ATOM     18  C   UNL A   1      32.482  27.232  24.308  1.00  0.00     0.010 A 
ATOM     19  C   UNL A   1      32.880  27.333  22.982  1.00  0.00     0.012 A 
ATOM     20  C   UNL A   1      31.763  25.970  24.560  1.00  0.00     0.082 A 
ATOM     21  C   UNL A   1      33.869  28.211  22.294  1.00  0.00     0.057 C 
ATOM     22  S   UNL A   1      31.840  26.359  22.072  1.00  0.00    -0.122 S 
BRANCH  18  23
ATOM     23  C   UNL A   1      32.740  28.371  25.180  1.00  0.00    -0.016 A 
ATOM     24  C   UNL A   1      33.683  31.538  27.934  1.00  0.00     0.044 C 
ATOM     25  C   UNL A   1      33.337  30.424  26.997  1.00  0.00    -0.051 A 
ATOM     26  C   UNL A   1      32.199  30.499  26.178  1.00  0.00     0.004 A 
ATOM     27  C   UNL A   1      34.178  29.317  26.897  1.00  0.00     0.004 A 
ATOM     28  C   UNL A   1      31.889  29.467  25.284  1.00  0.00     0.009 A 
ATOM     29  C   UNL A   1      33.893  28.316  25.981  1.00  0.00     0.009 A 
ENDBRANCH  18  23
BRANCH  20  30
ATOM     30  C   UNL A   1      31.234  25.572  25.872  1.00  0.00     0.252 C 
ATOM     31  N   UNL A   1      32.074  24.991  26.777  1.00  0.00    -0.365 N 
ATOM     32  O   UNL A   1      30.052  25.675  26.193  1.00  0.00    -0.269 OA
ATOM     33  H   UNL A   1      33.030  24.886  26.566  1.00  0.00     0.159 HD
ATOM     34  H   UNL A   1      31.724  24.675  27.641  1.00  0.00     0.159 HD
ENDBRANCH  20  30
ENDBRANCH  14  17
ENDBRANCH   8  13
ENDBRANCH   5   7
ENDBRANCH   4   5
ENDBRANCH   3   4
ENDBRANCH   2   3
ENDBRANCH   1   2
BRANCH   1  35
ATOM     35  C   UNL A   1      40.248  24.678  26.905  1.00  0.00     0.202 C 
BRANCH  35  36
ATOM     36  C   UNL A   1      41.307  25.506  26.166  1.00  0.00     0.261 C 
BRANCH  36  37
ATOM     37  O   UNL A   1      40.877  26.770  25.606  1.00  0.00    -0.460 OA
BRANCH  37  38
ATOM     38  C   UNL A   1      41.682  27.853  25.542  1.00  0.00     0.338 C 
ATOM     39  O   UNL A   1      42.470  28.094  24.646  1.00  0.00    -0.246 OA
BRANCH  38  40
ATOM     40  C   UNL A   1      41.502  28.695  26.742  1.00  0.00     0.060 A 
ATOM     41  C   UNL A   1      42.549  29.387  27.370  1.00  0.00     0.016 A 
ATOM     42  C   UNL A   1      40.240  28.661  27.317  1.00  0.00     0.016 A 
ATOM     43  C   UNL A   1      42.356  29.954  28.642  1.00  0.00     0.010 A 
ATOM     44  C   UNL A   1      40.087  29.121  28.609  1.00  0.00     0.010 A 
ATOM     45  C   UNL A   1      41.140  29.760  29.292  1.00  0.00    -0.014 A 
BRANCH  45  46
ATOM     46  C   UNL A   1      40.797  30.159  30.664  1.00  0.00     0.031 A 
ATOM     47  C   UNL A   1      40.037  31.419  30.810  1.00  0.00     0.074 A 
ATOM     48  C   UNL A   1      40.842  29.274  31.690  1.00  0.00     0.049 A 
ATOM     49  N   UNL A   1      39.615  31.885  31.928  1.00  0.00    -0.248 NA
ATOM     50  C   UNL A   1      39.698  32.285  29.680  1.00  0.00     0.031 C 
ATOM     51  C   UNL A   1      40.008  29.204  32.895  1.00  0.00     0.029 A 
ATOM     52  N   UNL A   1      41.686  28.177  31.861  1.00  0.00    -0.354 N 
ATOM     53  C   UNL A   1      38.683  32.854  31.649  1.00  0.00     0.074 A 
ATOM     54  C   UNL A   1      38.857  33.153  30.251  1.00  0.00     0.031 C 
ATOM     55  C   UNL A   1      40.560  28.348  33.780  1.00  0.00     0.029 A 
ATOM     56  C   UNL A   1      41.851  27.960  33.231  1.00  0.00     0.049 A 
ATOM     57  H   UNL A   1      42.095  27.647  31.140  1.00  0.00     0.167 HD
ATOM     58  C   UNL A   1      37.786  33.173  32.623  1.00  0.00     0.031 A 
ATOM     59  C   UNL A   1      43.082  28.120  33.787  1.00  0.00     0.031 A 
ATOM     60  C   UNL A   1      38.146  32.507  33.883  1.00  0.00     0.049 A 
ATOM     61  C   UNL A   1      42.975  29.260  34.759  1.00  0.00     0.074 A 
ATOM     62  C   UNL A   1      37.627  31.429  34.580  1.00  0.00     0.029 A 
ATOM     63  N   UNL A   1      39.417  32.736  34.411  1.00  0.00    -0.354 N 
ATOM     64  N   UNL A   1      42.142  30.255  34.596  1.00  0.00    -0.248 NA
ATOM     65  C   UNL A   1      43.629  29.268  36.060  1.00  0.00     0.031 C 
ATOM     66  C   UNL A   1      38.645  30.954  35.465  1.00  0.00     0.029 A 
ATOM     67  C   UNL A   1      39.768  31.758  35.322  1.00  0.00     0.049 A 
ATOM     68  H   UNL A   1      39.991  33.496  34.165  1.00  0.00     0.167 HD
ATOM     69  C   UNL A   1      42.005  30.910  35.783  1.00  0.00     0.074 A 
ATOM     70  C   UNL A   1      43.008  30.305  36.650  1.00  0.00     0.031 C 
ATOM     71  C   UNL A   1      41.042  31.845  36.029  1.00  0.00     0.031 A 
BRANCH  58  72
ATOM     72  C   UNL A   1      36.486  33.914  32.399  1.00  0.00    -0.014 A 
ATOM     73  C   UNL A   1      36.044  34.839  33.367  1.00  0.00     0.010 A 
ATOM     74  C   UNL A   1      35.624  33.721  31.300  1.00  0.00     0.010 A 
ATOM     75  C   UNL A   1      34.820  35.520  33.250  1.00  0.00     0.020 A 
ATOM     76  C   UNL A   1      34.399  34.394  31.165  1.00  0.00     0.020 A 
ATOM     77  C   UNL A   1      34.003  35.293  32.145  1.00  0.00     0.054 A 
BRANCH  77  78
ATOM     78  S   UNL A   1      32.438  36.191  31.996  1.00  0.00     0.124 S 
ATOM     79  O   UNL A   1      31.462  35.196  32.432  1.00  0.00    -0.237 OA
ATOM     80  O   UNL A   1      32.637  37.320  32.901  1.00  0.00    -0.237 OA
ATOM     81  O   UNL A   1      32.370  36.541  30.578  1.00  0.00    -0.744 OA
ENDBRANCH  77  78
ENDBRANCH  58  72
BRANCH  59  82
ATOM     82  C   UNL A   1      44.185  27.777  32.823  1.00  0.00    -0.014 A 
ATOM     83  C   UNL A   1      44.440  26.397  32.605  1.00  0.00     0.010 A 
ATOM     84  C   UNL A   1      44.614  28.685  31.839  1.00  0.00     0.010 A 
ATOM     85  C   UNL A   1      44.969  25.932  31.393  1.00  0.00     0.020 A 
ATOM     86  C   UNL A   1      45.150  28.219  30.620  1.00  0.00     0.020 A 
ATOM     87  C   UNL A   1      45.263  26.845  30.383  1.00  0.00     0.054 A 
BRANCH  87  88
ATOM     88  S   UNL A   1      45.660  26.216  28.720  1.00  0.00     0.124 S 
ATOM     89  O   UNL A   1      45.997  24.817  28.971  1.00  0.00    -0.237 OA
ATOM     90  O   UNL A   1      44.400  26.425  28.012  1.00  0.00    -0.237 OA
ATOM     91  O   UNL A   1      46.770  27.060  28.292  1.00  0.00    -0.744 OA
ENDBRANCH  87  88
ENDBRANCH  59  82
BRANCH  71  92
ATOM     92  C   UNL A   1      41.243  32.968  37.007  1.00  0.00    -0.014 A 
ATOM     93  C   UNL A   1      42.204  33.973  36.827  1.00  0.00     0.010 A 
ATOM     94  C   UNL A   1      40.295  33.155  38.041  1.00  0.00     0.010 A 
ATOM     95  C   UNL A   1      42.257  35.082  37.669  1.00  0.00     0.020 A 
ATOM     96  C   UNL A   1      40.293  34.295  38.840  1.00  0.00     0.020 A 
ATOM     97  C   UNL A   1      41.296  35.239  38.665  1.00  0.00     0.054 A 
BRANCH  97  98
ATOM     98  S   UNL A   1      41.351  36.721  39.687  1.00  0.00     0.124 S 
ATOM     99  O   UNL A   1      42.747  37.128  39.540  1.00  0.00    -0.237 OA
ATOM    100  O   UNL A   1      40.371  37.593  39.041  1.00  0.00    -0.237 OA
ATOM    101  O   UNL A   1      40.973  36.243  41.014  1.00  0.00    -0.744 OA
ENDBRANCH  97  98
ENDBRANCH  71  92
ENDBRANCH  45  46
ENDBRANCH  38  40
ENDBRANCH  37  38
ENDBRANCH  36  37
ENDBRANCH  35  36
ENDBRANCH   1  35
TORSDOF 21
ENDMDL
