MODEL 1
REMARK VINA RESULT:     -10.5      0.000      0.000
REMARK SMILES C[C@@H]1CCC[C@H](C)N1C(=O)Cn1cccc1C(=O)OCCOCCOC(=O)c1ccc(-c2c3nc(c(-c4ccc(S(=O)(=O)[O-])cc4)c4ccc([nH]4)c(-c4ccc(S(=O)(=O)[O-])cc4)c4nc(c(-c5ccc(S(=O)(=O)[O-])cc5)c5ccc2[nH]5)C=C4)C=C3)cc1
REMARK SMILES IDX 22 1 21 2 20 3 19 4 17 5 18 6 16 7 12 8 13 9 14 10 15 11
REMARK SMILES IDX 11 12 9 13 10 14 8 15 1 16 2 17 3 18 4 19 6 20 5 21 7 22
REMARK SMILES IDX 23 23 24 24 25 25 26 26 27 27 28 28 29 29 87 30 30 31 86 32
REMARK SMILES IDX 31 33 32 34 33 35 80 36 34 37 85 38 79 39 81 40 35 41 84 42
REMARK SMILES IDX 78 43 77 44 36 46 66 47 47 48 65 49 48 50 51 51 64 52 82 53
REMARK SMILES IDX 49 54 50 55 63 57 83 58 52 59 37 60 38 61 46 62 39 63 45 64
REMARK SMILES IDX 40 65 41 66 42 67 43 68 44 69 67 70 68 71 76 72 69 73 75 74
REMARK SMILES IDX 70 75 71 76 72 77 73 78 74 79 53 80 54 81 62 82 55 83 61 84
REMARK SMILES IDX 56 85 57 86 58 87 59 88 60 89
REMARK H PARENT 81 45 51 56
REMARK Flexibility Score: inf
ROOT
ATOM      1  O   UNL A   1      32.146  29.854  25.022  1.00  0.00    -0.374 OA
ENDROOT
BRANCH   1   2
ATOM      2  C   UNL A   1      31.990  28.488  24.533  1.00  0.00     0.202 C 
BRANCH   2   3
ATOM      3  C   UNL A   1      30.852  28.289  23.482  1.00  0.00     0.261 C 
BRANCH   3   4
ATOM      4  O   UNL A   1      30.155  27.001  23.584  1.00  0.00    -0.459 OA
BRANCH   4   5
ATOM      5  C   UNL A   1      30.829  25.866  23.211  1.00  0.00     0.355 C 
ATOM      6  O   UNL A   1      31.540  25.842  22.212  1.00  0.00    -0.244 OA
BRANCH   5   7
ATOM      7  C   UNL A   1      30.884  24.818  24.262  1.00  0.00     0.128 A 
ATOM      8  N   UNL A   1      31.383  23.507  24.361  1.00  0.00    -0.333 N 
ATOM      9  C   UNL A   1      31.221  23.048  25.663  1.00  0.00     0.087 A 
ATOM     10  C   UNL A   1      30.527  23.978  26.382  1.00  0.00     0.020 A 
ATOM     11  C   UNL A   1      30.330  25.073  25.524  1.00  0.00     0.035 A 
BRANCH   8  12
ATOM     12  C   UNL A   1      32.114  22.641  23.437  1.00  0.00     0.222 C 
BRANCH  12  13
ATOM     13  C   UNL A   1      33.539  23.008  23.144  1.00  0.00     0.242 C 
ATOM     14  O   UNL A   1      33.847  23.368  22.004  1.00  0.00    -0.273 OA
BRANCH  13  15
ATOM     15  N   UNL A   1      34.490  22.729  24.104  1.00  0.00    -0.336 N 
ATOM     16  C   UNL A   1      34.272  21.515  26.265  1.00  0.00     0.031 C 
ATOM     17  C   UNL A   1      34.745  21.447  24.809  1.00  0.00     0.082 C 
ATOM     18  C   UNL A   1      36.239  21.043  24.831  1.00  0.00     0.025 C 
ATOM     19  C   UNL A   1      37.155  22.196  25.212  1.00  0.00     0.004 C 
ATOM     20  C   UNL A   1      35.308  23.867  24.434  1.00  0.00     0.082 C 
ATOM     21  C   UNL A   1      36.768  23.384  24.379  1.00  0.00     0.025 C 
ATOM     22  C   UNL A   1      34.631  24.758  25.479  1.00  0.00     0.031 C 
ENDBRANCH  13  15
ENDBRANCH  12  13
ENDBRANCH   8  12
ENDBRANCH   5   7
ENDBRANCH   4   5
ENDBRANCH   3   4
ENDBRANCH   2   3
ENDBRANCH   1   2
BRANCH   1  23
ATOM     23  C   UNL A   1      33.265  29.915  25.912  1.00  0.00     0.202 C 
BRANCH  23  24
ATOM     24  C   UNL A   1      33.141  30.626  27.265  1.00  0.00     0.261 C 
BRANCH  24  25
ATOM     25  O   UNL A   1      34.247  31.545  27.364  1.00  0.00    -0.460 OA
BRANCH  25  26
ATOM     26  C   UNL A   1      34.810  31.600  28.607  1.00  0.00     0.338 C 
ATOM     27  O   UNL A   1      34.454  32.282  29.527  1.00  0.00    -0.246 OA
BRANCH  26  28
ATOM     28  C   UNL A   1      35.890  30.594  28.666  1.00  0.00     0.060 A 
ATOM     29  C   UNL A   1      35.927  29.786  29.796  1.00  0.00     0.016 A 
ATOM     30  C   UNL A   1      36.910  30.564  27.697  1.00  0.00     0.016 A 
ATOM     31  C   UNL A   1      37.129  29.200  30.109  1.00  0.00     0.010 A 
ATOM     32  C   UNL A   1      38.101  29.944  27.986  1.00  0.00     0.010 A 
ATOM     33  C   UNL A   1      38.227  29.406  29.256  1.00  0.00    -0.014 A 
BRANCH  33  34
ATOM     34  C   UNL A   1      39.543  29.142  29.833  1.00  0.00     0.031 A 
ATOM     35  C   UNL A   1      40.111  30.444  30.317  1.00  0.00     0.074 A 
ATOM     36  C   UNL A   1      40.049  27.908  29.530  1.00  0.00     0.049 A 
ATOM     37  N   UNL A   1      41.127  31.085  29.838  1.00  0.00    -0.248 NA
ATOM     38  C   UNL A   1      39.309  31.271  31.250  1.00  0.00     0.031 C 
ATOM     39  C   UNL A   1      39.258  26.769  28.998  1.00  0.00     0.029 A 
ATOM     40  N   UNL A   1      41.310  27.362  29.545  1.00  0.00    -0.354 N 
ATOM     41  C   UNL A   1      41.199  32.307  30.522  1.00  0.00     0.074 A 
ATOM     42  C   UNL A   1      39.967  32.435  31.249  1.00  0.00     0.031 C 
ATOM     43  C   UNL A   1      40.059  25.740  28.650  1.00  0.00     0.029 A 
ATOM     44  C   UNL A   1      41.436  26.115  28.888  1.00  0.00     0.049 A 
ATOM     45  H   UNL A   1      42.072  27.807  29.981  1.00  0.00     0.167 HD
ATOM     46  C   UNL A   1      42.338  33.054  30.560  1.00  0.00     0.031 A 
ATOM     47  C   UNL A   1      42.576  25.483  28.469  1.00  0.00     0.031 A 
ATOM     48  C   UNL A   1      43.401  32.372  29.886  1.00  0.00     0.049 A 
ATOM     49  C   UNL A   1      43.679  26.425  28.765  1.00  0.00     0.074 A 
ATOM     50  C   UNL A   1      43.685  32.144  28.564  1.00  0.00     0.029 A 
ATOM     51  N   UNL A   1      44.114  31.467  30.648  1.00  0.00    -0.354 N 
ATOM     52  N   UNL A   1      44.079  26.783  29.947  1.00  0.00    -0.248 NA
ATOM     53  C   UNL A   1      44.304  27.138  27.642  1.00  0.00     0.031 C 
ATOM     54  C   UNL A   1      44.170  30.812  28.549  1.00  0.00     0.029 A 
ATOM     55  C   UNL A   1      44.325  30.355  29.864  1.00  0.00     0.049 A 
ATOM     56  H   UNL A   1      44.416  31.595  31.577  1.00  0.00     0.167 HD
ATOM     57  C   UNL A   1      44.694  27.994  29.715  1.00  0.00     0.074 A 
ATOM     58  C   UNL A   1      45.054  28.008  28.314  1.00  0.00     0.031 C 
ATOM     59  C   UNL A   1      44.433  29.061  30.516  1.00  0.00     0.031 A 
BRANCH  46  60
ATOM     60  C   UNL A   1      42.691  34.236  31.408  1.00  0.00    -0.014 A 
ATOM     61  C   UNL A   1      43.401  35.287  30.779  1.00  0.00     0.010 A 
ATOM     62  C   UNL A   1      42.631  34.231  32.808  1.00  0.00     0.010 A 
ATOM     63  C   UNL A   1      44.141  36.209  31.518  1.00  0.00     0.020 A 
ATOM     64  C   UNL A   1      43.341  35.179  33.558  1.00  0.00     0.020 A 
ATOM     65  C   UNL A   1      44.136  36.123  32.906  1.00  0.00     0.054 A 
BRANCH  65  66
ATOM     66  S   UNL A   1      45.263  37.193  33.836  1.00  0.00     0.124 S 
ATOM     67  O   UNL A   1      44.371  38.257  34.285  1.00  0.00    -0.237 OA
ATOM     68  O   UNL A   1      45.751  36.300  34.886  1.00  0.00    -0.237 OA
ATOM     69  O   UNL A   1      46.262  37.585  32.847  1.00  0.00    -0.744 OA
ENDBRANCH  65  66
ENDBRANCH  46  60
BRANCH  47  70
ATOM     70  C   UNL A   1      42.916  24.301  27.591  1.00  0.00    -0.014 A 
ATOM     71  C   UNL A   1      42.217  23.893  26.447  1.00  0.00     0.010 A 
ATOM     72  C   UNL A   1      44.135  23.615  27.849  1.00  0.00     0.010 A 
ATOM     73  C   UNL A   1      42.789  22.985  25.528  1.00  0.00     0.020 A 
ATOM     74  C   UNL A   1      44.736  22.756  26.924  1.00  0.00     0.020 A 
ATOM     75  C   UNL A   1      44.070  22.469  25.745  1.00  0.00     0.054 A 
BRANCH  75  76
ATOM     76  S   UNL A   1      44.939  21.558  24.435  1.00  0.00     0.124 S 
ATOM     77  O   UNL A   1      44.633  22.350  23.249  1.00  0.00    -0.237 OA
ATOM     78  O   UNL A   1      46.330  21.596  24.880  1.00  0.00    -0.237 OA
ATOM     79  O   UNL A   1      44.321  20.233  24.480  1.00  0.00    -0.744 OA
ENDBRANCH  75  76
ENDBRANCH  47  70
BRANCH  59  80
ATOM     80  C   UNL A   1      43.850  28.708  31.891  1.00  0.00    -0.014 A 
ATOM     81  C   UNL A   1      44.590  27.966  32.829  1.00  0.00     0.010 A 
ATOM     82  C   UNL A   1      42.516  28.994  32.235  1.00  0.00     0.010 A 
ATOM     83  C   UNL A   1      44.013  27.507  34.028  1.00  0.00     0.020 A 
ATOM     84  C   UNL A   1      41.920  28.536  33.422  1.00  0.00     0.020 A 
ATOM     85  C   UNL A   1      42.677  27.791  34.318  1.00  0.00     0.054 A 
BRANCH  85  86
ATOM     86  S   UNL A   1      41.945  27.164  35.858  1.00  0.00     0.124 S 
ATOM     87  O   UNL A   1      41.210  25.982  35.414  1.00  0.00    -0.237 OA
ATOM     88  O   UNL A   1      43.123  26.895  36.678  1.00  0.00    -0.237 OA
ATOM     89  O   UNL A   1      41.104  28.267  36.324  1.00  0.00    -0.744 OA
ENDBRANCH  85  86
ENDBRANCH  59  80
ENDBRANCH  33  34
ENDBRANCH  26  28
ENDBRANCH  25  26
ENDBRANCH  24  25
ENDBRANCH  23  24
ENDBRANCH   1  23
TORSDOF 20
ENDMDL
MODEL 2
REMARK VINA RESULT:     -10.3      3.355      9.241
REMARK SMILES C[C@@H]1CCC[C@H](C)N1C(=O)Cn1cccc1C(=O)OCCOCCOC(=O)c1ccc(-c2c3nc(c(-c4ccc(S(=O)(=O)[O-])cc4)c4ccc([nH]4)c(-c4ccc(S(=O)(=O)[O-])cc4)c4nc(c(-c5ccc(S(=O)(=O)[O-])cc5)c5ccc2[nH]5)C=C4)C=C3)cc1
REMARK SMILES IDX 22 1 21 2 20 3 19 4 17 5 18 6 16 7 12 8 13 9 14 10 15 11
REMARK SMILES IDX 11 12 9 13 10 14 8 15 1 16 2 17 3 18 4 19 6 20 5 21 7 22
REMARK SMILES IDX 23 23 24 24 25 25 26 26 27 27 28 28 29 29 87 30 30 31 86 32
REMARK SMILES IDX 31 33 32 34 33 35 80 36 34 37 85 38 79 39 81 40 35 41 84 42
REMARK SMILES IDX 78 43 77 44 36 46 66 47 47 48 65 49 48 50 51 51 64 52 82 53
REMARK SMILES IDX 49 54 50 55 63 57 83 58 52 59 37 60 38 61 46 62 39 63 45 64
REMARK SMILES IDX 40 65 41 66 42 67 43 68 44 69 67 70 68 71 76 72 69 73 75 74
REMARK SMILES IDX 70 75 71 76 72 77 73 78 74 79 53 80 54 81 62 82 55 83 61 84
REMARK SMILES IDX 56 85 57 86 58 87 59 88 60 89
REMARK H PARENT 81 45 51 56
REMARK Flexibility Score: inf
ROOT
ATOM      1  O   UNL A   1      32.058  30.001  26.559  1.00  0.00    -0.374 OA
ENDROOT
BRANCH   1   2
ATOM      2  C   UNL A   1      32.012  29.575  25.164  1.00  0.00     0.202 C 
BRANCH   2   3
ATOM      3  C   UNL A   1      31.055  28.376  24.871  1.00  0.00     0.261 C 
BRANCH   3   4
ATOM      4  O   UNL A   1      31.671  27.055  25.053  1.00  0.00    -0.459 OA
BRANCH   4   5
ATOM      5  C   UNL A   1      31.291  26.306  26.138  1.00  0.00     0.355 C 
ATOM      6  O   UNL A   1      30.839  26.829  27.151  1.00  0.00    -0.244 OA
BRANCH   5   7
ATOM      7  C   UNL A   1      31.168  24.852  25.861  1.00  0.00     0.128 A 
ATOM      8  N   UNL A   1      31.736  23.942  24.953  1.00  0.00    -0.333 N 
ATOM      9  C   UNL A   1      31.288  22.659  25.244  1.00  0.00     0.087 A 
ATOM     10  C   UNL A   1      30.356  22.724  26.240  1.00  0.00     0.020 A 
ATOM     11  C   UNL A   1      30.291  24.073  26.629  1.00  0.00     0.035 A 
BRANCH   8  12
ATOM     12  C   UNL A   1      32.750  24.071  23.907  1.00  0.00     0.222 C 
BRANCH  12  13
ATOM     13  C   UNL A   1      34.130  24.466  24.343  1.00  0.00     0.242 C 
ATOM     14  O   UNL A   1      34.509  25.627  24.167  1.00  0.00    -0.273 OA
BRANCH  13  15
ATOM     15  N   UNL A   1      34.998  23.466  24.733  1.00  0.00    -0.336 N 
ATOM     16  C   UNL A   1      34.769  20.994  24.559  1.00  0.00     0.031 C 
ATOM     17  C   UNL A   1      35.414  22.256  23.977  1.00  0.00     0.082 C 
ATOM     18  C   UNL A   1      36.945  22.029  23.977  1.00  0.00     0.025 C 
ATOM     19  C   UNL A   1      37.566  22.188  25.356  1.00  0.00     0.004 C 
ATOM     20  C   UNL A   1      35.531  23.666  26.055  1.00  0.00     0.082 C 
ATOM     21  C   UNL A   1      37.054  23.472  25.943  1.00  0.00     0.025 C 
ATOM     22  C   UNL A   1      34.574  23.144  27.129  1.00  0.00     0.031 C 
ENDBRANCH  13  15
ENDBRANCH  12  13
ENDBRANCH   8  12
ENDBRANCH   5   7
ENDBRANCH   4   5
ENDBRANCH   3   4
ENDBRANCH   2   3
ENDBRANCH   1   2
BRANCH   1  23
ATOM     23  C   UNL A   1      33.369  29.768  27.084  1.00  0.00     0.202 C 
BRANCH  23  24
ATOM     24  C   UNL A   1      34.173  30.918  27.702  1.00  0.00     0.261 C 
BRANCH  24  25
ATOM     25  O   UNL A   1      33.759  32.129  27.040  1.00  0.00    -0.460 OA
BRANCH  25  26
ATOM     26  C   UNL A   1      33.352  33.114  27.893  1.00  0.00     0.338 C 
ATOM     27  O   UNL A   1      32.295  33.679  27.886  1.00  0.00    -0.246 OA
BRANCH  26  28
ATOM     28  C   UNL A   1      34.412  33.309  28.903  1.00  0.00     0.060 A 
ATOM     29  C   UNL A   1      35.491  34.103  28.531  1.00  0.00     0.016 A 
ATOM     30  C   UNL A   1      34.395  32.603  30.121  1.00  0.00     0.016 A 
ATOM     31  C   UNL A   1      36.667  33.927  29.217  1.00  0.00     0.010 A 
ATOM     32  C   UNL A   1      35.559  32.457  30.835  1.00  0.00     0.010 A 
ATOM     33  C   UNL A   1      36.703  33.004  30.276  1.00  0.00    -0.014 A 
BRANCH  33  34
ATOM     34  C   UNL A   1      38.029  32.541  30.676  1.00  0.00     0.031 A 
ATOM     35  C   UNL A   1      38.322  31.266  29.940  1.00  0.00     0.074 A 
ATOM     36  C   UNL A   1      38.526  33.164  31.788  1.00  0.00     0.049 A 
ATOM     37  N   UNL A   1      38.430  30.078  30.439  1.00  0.00    -0.248 NA
ATOM     38  C   UNL A   1      38.208  31.251  28.463  1.00  0.00     0.031 C 
ATOM     39  C   UNL A   1      38.007  34.433  32.359  1.00  0.00     0.029 A 
ATOM     40  N   UNL A   1      39.511  32.857  32.695  1.00  0.00    -0.354 N 
ATOM     41  C   UNL A   1      38.573  29.194  29.361  1.00  0.00     0.074 A 
ATOM     42  C   UNL A   1      38.260  29.946  28.178  1.00  0.00     0.031 C 
ATOM     43  C   UNL A   1      38.595  34.713  33.541  1.00  0.00     0.029 A 
ATOM     44  C   UNL A   1      39.521  33.650  33.867  1.00  0.00     0.049 A 
ATOM     45  H   UNL A   1      40.163  32.136  32.541  1.00  0.00     0.167 HD
ATOM     46  C   UNL A   1      39.090  27.942  29.510  1.00  0.00     0.031 A 
ATOM     47  C   UNL A   1      40.150  33.405  35.058  1.00  0.00     0.031 A 
ATOM     48  C   UNL A   1      39.506  27.735  30.864  1.00  0.00     0.049 A 
ATOM     49  C   UNL A   1      40.765  32.065  34.909  1.00  0.00     0.074 A 
ATOM     50  C   UNL A   1      38.827  27.512  32.035  1.00  0.00     0.029 A 
ATOM     51  N   UNL A   1      40.781  28.166  31.174  1.00  0.00    -0.354 N 
ATOM     52  N   UNL A   1      41.740  31.759  34.108  1.00  0.00    -0.248 NA
ATOM     53  C   UNL A   1      40.148  30.935  35.617  1.00  0.00     0.031 C 
ATOM     54  C   UNL A   1      39.545  28.276  32.990  1.00  0.00     0.029 A 
ATOM     55  C   UNL A   1      40.714  28.780  32.404  1.00  0.00     0.049 A 
ATOM     56  H   UNL A   1      41.587  28.053  30.619  1.00  0.00     0.167 HD
ATOM     57  C   UNL A   1      41.586  30.401  33.936  1.00  0.00     0.074 A 
ATOM     58  C   UNL A   1      40.825  29.928  35.072  1.00  0.00     0.031 C 
ATOM     59  C   UNL A   1      41.648  29.854  32.693  1.00  0.00     0.031 A 
BRANCH  46  60
ATOM     60  C   UNL A   1      39.539  26.952  28.481  1.00  0.00    -0.014 A 
ATOM     61  C   UNL A   1      39.185  25.598  28.693  1.00  0.00     0.010 A 
ATOM     62  C   UNL A   1      40.514  27.230  27.513  1.00  0.00     0.010 A 
ATOM     63  C   UNL A   1      39.876  24.559  28.074  1.00  0.00     0.020 A 
ATOM     64  C   UNL A   1      41.188  26.190  26.857  1.00  0.00     0.020 A 
ATOM     65  C   UNL A   1      40.903  24.864  27.187  1.00  0.00     0.054 A 
BRANCH  65  66
ATOM     66  S   UNL A   1      41.923  23.508  26.555  1.00  0.00     0.124 S 
ATOM     67  O   UNL A   1      42.594  24.134  25.419  1.00  0.00    -0.237 OA
ATOM     68  O   UNL A   1      42.782  23.200  27.698  1.00  0.00    -0.237 OA
ATOM     69  O   UNL A   1      40.950  22.473  26.219  1.00  0.00    -0.744 OA
ENDBRANCH  65  66
ENDBRANCH  46  60
BRANCH  47  70
ATOM     70  C   UNL A   1      40.121  33.981  36.455  1.00  0.00    -0.014 A 
ATOM     71  C   UNL A   1      41.156  34.692  37.077  1.00  0.00     0.010 A 
ATOM     72  C   UNL A   1      38.889  33.934  37.163  1.00  0.00     0.010 A 
ATOM     73  C   UNL A   1      40.919  35.454  38.243  1.00  0.00     0.020 A 
ATOM     74  C   UNL A   1      38.627  34.724  38.287  1.00  0.00     0.020 A 
ATOM     75  C   UNL A   1      39.641  35.511  38.805  1.00  0.00     0.054 A 
BRANCH  75  76
ATOM     76  S   UNL A   1      39.250  36.720  40.104  1.00  0.00     0.124 S 
ATOM     77  O   UNL A   1      40.561  36.989  40.685  1.00  0.00    -0.237 OA
ATOM     78  O   UNL A   1      38.652  37.821  39.355  1.00  0.00    -0.237 OA
ATOM     79  O   UNL A   1      38.319  35.995  40.969  1.00  0.00    -0.744 OA
ENDBRANCH  75  76
ENDBRANCH  47  70
BRANCH  59  80
ATOM     80  C   UNL A   1      42.356  30.720  31.642  1.00  0.00    -0.014 A 
ATOM     81  C   UNL A   1      43.724  31.028  31.752  1.00  0.00     0.010 A 
ATOM     82  C   UNL A   1      41.658  31.351  30.597  1.00  0.00     0.010 A 
ATOM     83  C   UNL A   1      44.348  31.943  30.883  1.00  0.00     0.020 A 
ATOM     84  C   UNL A   1      42.260  32.274  29.724  1.00  0.00     0.020 A 
ATOM     85  C   UNL A   1      43.610  32.566  29.874  1.00  0.00     0.054 A 
BRANCH  85  86
ATOM     86  S   UNL A   1      44.428  33.765  28.781  1.00  0.00     0.124 S 
ATOM     87  O   UNL A   1      43.739  35.016  29.093  1.00  0.00    -0.237 OA
ATOM     88  O   UNL A   1      45.819  33.692  29.220  1.00  0.00    -0.237 OA
ATOM     89  O   UNL A   1      44.176  33.247  27.436  1.00  0.00    -0.744 OA
ENDBRANCH  85  86
ENDBRANCH  59  80
ENDBRANCH  33  34
ENDBRANCH  26  28
ENDBRANCH  25  26
ENDBRANCH  24  25
ENDBRANCH  23  24
ENDBRANCH   1  23
TORSDOF 20
ENDMDL
MODEL 3
REMARK VINA RESULT:     -10.3      1.206      1.940
REMARK SMILES C[C@@H]1CCC[C@H](C)N1C(=O)Cn1cccc1C(=O)OCCOCCOC(=O)c1ccc(-c2c3nc(c(-c4ccc(S(=O)(=O)[O-])cc4)c4ccc([nH]4)c(-c4ccc(S(=O)(=O)[O-])cc4)c4nc(c(-c5ccc(S(=O)(=O)[O-])cc5)c5ccc2[nH]5)C=C4)C=C3)cc1
REMARK SMILES IDX 22 1 21 2 20 3 19 4 17 5 18 6 16 7 12 8 13 9 14 10 15 11
REMARK SMILES IDX 11 12 9 13 10 14 8 15 1 16 2 17 3 18 4 19 6 20 5 21 7 22
REMARK SMILES IDX 23 23 24 24 25 25 26 26 27 27 28 28 29 29 87 30 30 31 86 32
REMARK SMILES IDX 31 33 32 34 33 35 80 36 34 37 85 38 79 39 81 40 35 41 84 42
REMARK SMILES IDX 78 43 77 44 36 46 66 47 47 48 65 49 48 50 51 51 64 52 82 53
REMARK SMILES IDX 49 54 50 55 63 57 83 58 52 59 37 60 38 61 46 62 39 63 45 64
REMARK SMILES IDX 40 65 41 66 42 67 43 68 44 69 67 70 68 71 76 72 69 73 75 74
REMARK SMILES IDX 70 75 71 76 72 77 73 78 74 79 53 80 54 81 62 82 55 83 61 84
REMARK SMILES IDX 56 85 57 86 58 87 59 88 60 89
REMARK H PARENT 81 45 51 56
REMARK Flexibility Score: inf
ROOT
ATOM      1  O   UNL A   1      33.630  29.620  26.063  1.00  0.00    -0.374 OA
ENDROOT
BRANCH   1   2
ATOM      2  C   UNL A   1      32.929  29.278  24.830  1.00  0.00     0.202 C 
BRANCH   2   3
ATOM      3  C   UNL A   1      31.396  29.024  24.990  1.00  0.00     0.261 C 
BRANCH   3   4
ATOM      4  O   UNL A   1      31.047  27.644  25.352  1.00  0.00    -0.459 OA
BRANCH   4   5
ATOM      5  C   UNL A   1      30.608  26.805  24.360  1.00  0.00     0.355 C 
ATOM      6  O   UNL A   1      29.413  26.658  24.127  1.00  0.00    -0.244 OA
BRANCH   5   7
ATOM      7  C   UNL A   1      31.669  26.368  23.417  1.00  0.00     0.128 A 
ATOM      8  N   UNL A   1      32.985  25.886  23.525  1.00  0.00    -0.333 N 
ATOM      9  C   UNL A   1      33.458  25.549  22.262  1.00  0.00     0.087 A 
ATOM     10  C   UNL A   1      32.532  25.908  21.326  1.00  0.00     0.020 A 
ATOM     11  C   UNL A   1      31.425  26.401  22.037  1.00  0.00     0.035 A 
BRANCH   8  12
ATOM     12  C   UNL A   1      33.845  25.570  24.664  1.00  0.00     0.222 C 
BRANCH  12  13
ATOM     13  C   UNL A   1      33.628  24.245  25.333  1.00  0.00     0.242 C 
ATOM     14  O   UNL A   1      32.937  24.191  26.355  1.00  0.00    -0.273 OA
BRANCH  13  15
ATOM     15  N   UNL A   1      34.379  23.170  24.903  1.00  0.00    -0.336 N 
ATOM     16  C   UNL A   1      36.251  23.081  23.266  1.00  0.00     0.031 C 
ATOM     17  C   UNL A   1      35.853  23.075  24.746  1.00  0.00     0.082 C 
ATOM     18  C   UNL A   1      36.458  21.798  25.377  1.00  0.00     0.025 C 
ATOM     19  C   UNL A   1      35.678  20.541  25.026  1.00  0.00     0.004 C 
ATOM     20  C   UNL A   1      33.578  22.022  24.567  1.00  0.00     0.082 C 
ATOM     21  C   UNL A   1      34.224  20.819  25.278  1.00  0.00     0.025 C 
ATOM     22  C   UNL A   1      33.040  22.115  23.137  1.00  0.00     0.031 C 
ENDBRANCH  13  15
ENDBRANCH  12  13
ENDBRANCH   8  12
ENDBRANCH   5   7
ENDBRANCH   4   5
ENDBRANCH   3   4
ENDBRANCH   2   3
ENDBRANCH   1   2
BRANCH   1  23
ATOM     23  C   UNL A   1      32.748  30.346  26.925  1.00  0.00     0.202 C 
BRANCH  23  24
ATOM     24  C   UNL A   1      33.205  31.655  27.579  1.00  0.00     0.261 C 
BRANCH  24  25
ATOM     25  O   UNL A   1      34.646  31.657  27.560  1.00  0.00    -0.460 OA
BRANCH  25  26
ATOM     26  C   UNL A   1      35.215  31.629  28.802  1.00  0.00     0.338 C 
ATOM     27  O   UNL A   1      34.894  32.283  29.754  1.00  0.00    -0.246 OA
BRANCH  26  28
ATOM     28  C   UNL A   1      36.248  30.574  28.807  1.00  0.00     0.060 A 
ATOM     29  C   UNL A   1      36.271  29.730  29.912  1.00  0.00     0.016 A 
ATOM     30  C   UNL A   1      37.247  30.527  27.816  1.00  0.00     0.016 A 
ATOM     31  C   UNL A   1      37.450  29.081  30.183  1.00  0.00     0.010 A 
ATOM     32  C   UNL A   1      38.413  29.845  28.062  1.00  0.00     0.010 A 
ATOM     33  C   UNL A   1      38.539  29.263  29.313  1.00  0.00    -0.014 A 
BRANCH  33  34
ATOM     34  C   UNL A   1      39.853  28.922  29.854  1.00  0.00     0.031 A 
ATOM     35  C   UNL A   1      40.487  30.181  30.369  1.00  0.00     0.074 A 
ATOM     36  C   UNL A   1      40.298  27.678  29.499  1.00  0.00     0.049 A 
ATOM     37  N   UNL A   1      41.522  30.793  29.891  1.00  0.00    -0.248 NA
ATOM     38  C   UNL A   1      39.741  31.010  31.345  1.00  0.00     0.031 C 
ATOM     39  C   UNL A   1      39.447  26.594  28.946  1.00  0.00     0.029 A 
ATOM     40  N   UNL A   1      41.533  27.077  29.471  1.00  0.00    -0.354 N 
ATOM     41  C   UNL A   1      41.661  31.986  30.613  1.00  0.00     0.074 A 
ATOM     42  C   UNL A   1      40.450  32.144  31.369  1.00  0.00     0.031 C 
ATOM     43  C   UNL A   1      40.195  25.543  28.548  1.00  0.00     0.029 A 
ATOM     44  C   UNL A   1      41.591  25.849  28.770  1.00  0.00     0.049 A 
ATOM     45  H   UNL A   1      42.322  27.474  29.906  1.00  0.00     0.167 HD
ATOM     46  C   UNL A   1      42.832  32.681  30.653  1.00  0.00     0.031 A 
ATOM     47  C   UNL A   1      42.693  25.182  28.307  1.00  0.00     0.031 A 
ATOM     48  C   UNL A   1      43.851  31.976  29.936  1.00  0.00     0.049 A 
ATOM     49  C   UNL A   1      43.843  26.064  28.612  1.00  0.00     0.074 A 
ATOM     50  C   UNL A   1      44.100  31.781  28.601  1.00  0.00     0.029 A 
ATOM     51  N   UNL A   1      44.538  31.015  30.652  1.00  0.00    -0.354 N 
ATOM     52  N   UNL A   1      44.281  26.364  29.798  1.00  0.00    -0.248 NA
ATOM     53  C   UNL A   1      44.478  26.787  27.501  1.00  0.00     0.031 C 
ATOM     54  C   UNL A   1      44.525  30.430  28.532  1.00  0.00     0.029 A 
ATOM     55  C   UNL A   1      44.684  29.923  29.828  1.00  0.00     0.049 A 
ATOM     56  H   UNL A   1      44.863  31.098  31.578  1.00  0.00     0.167 HD
ATOM     57  C   UNL A   1      44.944  27.553  29.593  1.00  0.00     0.074 A 
ATOM     58  C   UNL A   1      45.279  27.599  28.186  1.00  0.00     0.031 C 
ATOM     59  C   UNL A   1      44.747  28.603  30.434  1.00  0.00     0.031 A 
BRANCH  46  60
ATOM     60  C   UNL A   1      43.255  33.817  31.532  1.00  0.00    -0.014 A 
ATOM     61  C   UNL A   1      43.842  33.483  32.776  1.00  0.00     0.010 A 
ATOM     62  C   UNL A   1      42.841  35.141  31.337  1.00  0.00     0.010 A 
ATOM     63  C   UNL A   1      43.881  34.394  33.830  1.00  0.00     0.020 A 
ATOM     64  C   UNL A   1      42.912  36.075  32.381  1.00  0.00     0.020 A 
ATOM     65  C   UNL A   1      43.377  35.676  33.635  1.00  0.00     0.054 A 
BRANCH  65  66
ATOM     66  S   UNL A   1      43.245  36.774  35.069  1.00  0.00     0.124 S 
ATOM     67  O   UNL A   1      42.708  35.878  36.090  1.00  0.00    -0.237 OA
ATOM     68  O   UNL A   1      44.630  37.195  35.272  1.00  0.00    -0.237 OA
ATOM     69  O   UNL A   1      42.341  37.826  34.616  1.00  0.00    -0.744 OA
ENDBRANCH  65  66
ENDBRANCH  46  60
BRANCH  47  70
ATOM     70  C   UNL A   1      42.964  24.017  27.384  1.00  0.00    -0.014 A 
ATOM     71  C   UNL A   1      42.355  23.787  26.143  1.00  0.00     0.010 A 
ATOM     72  C   UNL A   1      44.034  23.142  27.720  1.00  0.00     0.010 A 
ATOM     73  C   UNL A   1      42.898  22.860  25.225  1.00  0.00     0.020 A 
ATOM     74  C   UNL A   1      44.612  22.259  26.803  1.00  0.00     0.020 A 
ATOM     75  C   UNL A   1      44.057  22.146  25.540  1.00  0.00     0.054 A 
BRANCH  75  76
ATOM     76  S   UNL A   1      44.937  21.195  24.266  1.00  0.00     0.124 S 
ATOM     77  O   UNL A   1      46.324  21.287  24.710  1.00  0.00    -0.237 OA
ATOM     78  O   UNL A   1      44.327  19.871  24.369  1.00  0.00    -0.237 OA
ATOM     79  O   UNL A   1      44.625  21.915  23.033  1.00  0.00    -0.744 OA
ENDBRANCH  75  76
ENDBRANCH  47  70
BRANCH  59  80
ATOM     80  C   UNL A   1      44.175  28.230  31.808  1.00  0.00    -0.014 A 
ATOM     81  C   UNL A   1      44.960  27.572  32.771  1.00  0.00     0.010 A 
ATOM     82  C   UNL A   1      42.816  28.408  32.127  1.00  0.00     0.010 A 
ATOM     83  C   UNL A   1      44.406  27.090  33.973  1.00  0.00     0.020 A 
ATOM     84  C   UNL A   1      42.242  27.925  33.316  1.00  0.00     0.020 A 
ATOM     85  C   UNL A   1      43.047  27.265  34.237  1.00  0.00     0.054 A 
BRANCH  85  86
ATOM     86  S   UNL A   1      42.346  26.609  35.781  1.00  0.00     0.124 S 
ATOM     87  O   UNL A   1      42.429  27.751  36.689  1.00  0.00    -0.237 OA
ATOM     88  O   UNL A   1      40.996  26.230  35.376  1.00  0.00    -0.237 OA
ATOM     89  O   UNL A   1      43.227  25.492  36.122  1.00  0.00    -0.744 OA
ENDBRANCH  85  86
ENDBRANCH  59  80
ENDBRANCH  33  34
ENDBRANCH  26  28
ENDBRANCH  25  26
ENDBRANCH  24  25
ENDBRANCH  23  24
ENDBRANCH   1  23
TORSDOF 20
ENDMDL
