MODEL 1
REMARK VINA RESULT:     -10.2      0.000      0.000
REMARK SMILES C[C@@H]1C(=O)NC(=O)CN1C(=O)NC1(CC(=O)OCCOCCOC(=O)c2ccc(-c3c4nc(c(-c5ccc(S(=O)(=O)[O-])cc5)c5ccc([nH]5)c(-c5ccc(S(=O)(=O)[O-])cc5)c5nc(c(-c6ccc(S(=O)(=O)[O-])cc6)c6ccc3[nH]6)C=C5)C=C4)cc2)CCC1
REMARK SMILES IDX 20 1 19 2 18 3 17 4 15 5 16 6 14 7 13 8 86 9 88 10 87 11
REMARK SMILES IDX 12 12 10 13 11 14 9 16 1 17 2 18 3 19 4 20 5 21 8 22 6 23
REMARK SMILES IDX 7 25 21 26 22 27 23 28 24 29 25 30 26 31 27 32 85 33 28 34
REMARK SMILES IDX 84 35 29 36 30 37 31 38 78 39 32 40 83 41 77 42 79 43 33 44
REMARK SMILES IDX 82 45 76 46 75 47 34 49 64 50 45 51 63 52 46 53 49 54 62 55
REMARK SMILES IDX 80 56 47 57 48 58 61 60 81 61 50 62 35 63 36 64 44 65 37 66
REMARK SMILES IDX 43 67 38 68 39 69 40 70 41 71 42 72 65 73 66 74 74 75 67 76
REMARK SMILES IDX 73 77 68 78 69 79 70 80 71 81 72 82 51 83 52 84 60 85 53 86
REMARK SMILES IDX 59 87 54 88 55 89 56 90 57 91 58 92
REMARK H PARENT 12 15 5 24 79 48 49 59
REMARK Flexibility Score: inf
ROOT
ATOM      1  O   UNL A   1      34.691  31.275  27.867  1.00  0.00    -0.374 OA
ENDROOT
BRANCH   1   2
ATOM      2  C   UNL A   1      33.531  30.787  27.189  1.00  0.00     0.202 C 
BRANCH   2   3
ATOM      3  C   UNL A   1      33.208  29.305  27.418  1.00  0.00     0.261 C 
BRANCH   3   4
ATOM      4  O   UNL A   1      32.637  28.688  26.245  1.00  0.00    -0.463 OA
BRANCH   4   5
ATOM      5  C   UNL A   1      31.635  27.795  26.434  1.00  0.00     0.308 C 
ATOM      6  O   UNL A   1      31.251  27.392  27.525  1.00  0.00    -0.252 OA
BRANCH   5   7
ATOM      7  C   UNL A   1      31.060  27.289  25.130  1.00  0.00     0.151 C 
BRANCH   7   8
ATOM      8  C   UNL A   1      31.585  25.948  24.531  1.00  0.00     0.052 C 
ATOM      9  C   UNL A   1      32.581  26.257  23.375  1.00  0.00     0.029 C 
ATOM     10  C   UNL A   1      30.746  25.237  23.401  1.00  0.00     0.029 C 
ATOM     11  C   UNL A   1      31.370  26.249  22.417  1.00  0.00     0.005 C 
BRANCH   8  12
ATOM     12  N   UNL A   1      31.911  25.046  25.671  1.00  0.00    -0.332 N 
ATOM     13  C   UNL A   1      32.354  23.841  26.057  1.00  0.00     0.318 C 
ATOM     14  O   UNL A   1      32.087  23.607  27.244  1.00  0.00    -0.249 OA
ATOM     15  H   UNL A   1      31.717  25.552  26.493  1.00  0.00     0.165 HD
BRANCH  13  16
ATOM     16  N   UNL A   1      33.029  22.929  25.320  1.00  0.00    -0.304 N 
ATOM     17  C   UNL A   1      34.905  22.990  23.723  1.00  0.00     0.042 C 
ATOM     18  C   UNL A   1      34.475  22.791  25.177  1.00  0.00     0.174 C 
ATOM     19  C   UNL A   1      34.987  21.428  25.669  1.00  0.00     0.249 C 
ATOM     20  O   UNL A   1      36.184  21.205  25.855  1.00  0.00    -0.272 OA
ATOM     21  N   UNL A   1      34.076  20.410  25.762  1.00  0.00    -0.293 N 
ATOM     22  C   UNL A   1      32.262  21.779  24.805  1.00  0.00     0.222 C 
ATOM     23  C   UNL A   1      32.764  20.449  25.364  1.00  0.00     0.246 C 
ATOM     24  H   UNL A   1      34.395  19.566  26.154  1.00  0.00     0.173 HD
ATOM     25  O   UNL A   1      32.112  19.407  25.305  1.00  0.00    -0.273 OA
ENDBRANCH  13  16
ENDBRANCH   8  12
ENDBRANCH   7   8
ENDBRANCH   5   7
ENDBRANCH   4   5
ENDBRANCH   3   4
ENDBRANCH   2   3
ENDBRANCH   1   2
BRANCH   1  26
ATOM     26  C   UNL A   1      34.555  32.542  28.509  1.00  0.00     0.202 C 
BRANCH  26  27
ATOM     27  C   UNL A   1      34.871  32.570  30.007  1.00  0.00     0.261 C 
BRANCH  27  28
ATOM     28  O   UNL A   1      35.801  31.528  30.353  1.00  0.00    -0.460 OA
BRANCH  28  29
ATOM     29  C   UNL A   1      36.991  31.977  30.820  1.00  0.00     0.338 C 
ATOM     30  O   UNL A   1      37.174  32.839  31.661  1.00  0.00    -0.246 OA
BRANCH  29  31
ATOM     31  C   UNL A   1      38.086  31.134  30.299  1.00  0.00     0.060 A 
ATOM     32  C   UNL A   1      39.058  30.721  31.218  1.00  0.00     0.016 A 
ATOM     33  C   UNL A   1      38.202  30.805  28.946  1.00  0.00     0.016 A 
ATOM     34  C   UNL A   1      40.189  30.042  30.779  1.00  0.00     0.010 A 
ATOM     35  C   UNL A   1      39.342  30.123  28.505  1.00  0.00     0.010 A 
ATOM     36  C   UNL A   1      40.361  29.780  29.413  1.00  0.00    -0.014 A 
BRANCH  36  37
ATOM     37  C   UNL A   1      41.677  29.296  28.934  1.00  0.00     0.031 A 
ATOM     38  C   UNL A   1      42.837  30.257  28.903  1.00  0.00     0.074 A 
ATOM     39  C   UNL A   1      41.852  28.008  28.592  1.00  0.00     0.049 A 
ATOM     40  N   UNL A   1      44.075  30.048  28.537  1.00  0.00    -0.248 NA
ATOM     41  C   UNL A   1      42.564  31.635  29.343  1.00  0.00     0.031 C 
ATOM     42  C   UNL A   1      40.815  26.975  28.629  1.00  0.00     0.029 A 
ATOM     43  N   UNL A   1      42.969  27.346  28.150  1.00  0.00    -0.354 N 
ATOM     44  C   UNL A   1      44.726  31.266  28.695  1.00  0.00     0.074 A 
ATOM     45  C   UNL A   1      43.740  32.218  29.156  1.00  0.00     0.031 C 
ATOM     46  C   UNL A   1      41.348  25.809  28.228  1.00  0.00     0.029 A 
ATOM     47  C   UNL A   1      42.750  26.018  27.873  1.00  0.00     0.049 A 
ATOM     48  H   UNL A   1      43.845  27.782  28.040  1.00  0.00     0.167 HD
ATOM     49  C   UNL A   1      46.030  31.565  28.481  1.00  0.00     0.031 A 
ATOM     50  C   UNL A   1      43.582  25.081  27.377  1.00  0.00     0.031 A 
ATOM     51  C   UNL A   1      47.003  30.615  28.012  1.00  0.00     0.049 A 
ATOM     52  C   UNL A   1      45.010  25.454  27.079  1.00  0.00     0.074 A 
ATOM     53  C   UNL A   1      48.353  30.811  27.775  1.00  0.00     0.029 A 
ATOM     54  N   UNL A   1      46.731  29.290  27.700  1.00  0.00    -0.354 N 
ATOM     55  N   UNL A   1      45.616  26.605  27.253  1.00  0.00    -0.248 NA
ATOM     56  C   UNL A   1      45.870  24.398  26.527  1.00  0.00     0.031 C 
ATOM     57  C   UNL A   1      48.882  29.623  27.262  1.00  0.00     0.029 A 
ATOM     58  C   UNL A   1      47.879  28.665  27.244  1.00  0.00     0.049 A 
ATOM     59  H   UNL A   1      45.851  28.859  27.791  1.00  0.00     0.167 HD
ATOM     60  C   UNL A   1      46.934  26.404  26.858  1.00  0.00     0.074 A 
ATOM     61  C   UNL A   1      47.041  25.017  26.450  1.00  0.00     0.031 C 
ATOM     62  C   UNL A   1      47.965  27.285  26.837  1.00  0.00     0.031 A 
BRANCH  49  63
ATOM     63  C   UNL A   1      46.468  32.988  28.715  1.00  0.00    -0.014 A 
ATOM     64  C   UNL A   1      46.499  33.927  27.668  1.00  0.00     0.010 A 
ATOM     65  C   UNL A   1      46.826  33.398  30.012  1.00  0.00     0.010 A 
ATOM     66  C   UNL A   1      46.917  35.240  27.907  1.00  0.00     0.020 A 
ATOM     67  C   UNL A   1      47.218  34.717  30.261  1.00  0.00     0.020 A 
ATOM     68  C   UNL A   1      47.277  35.625  29.203  1.00  0.00     0.054 A 
BRANCH  68  69
ATOM     69  S   UNL A   1      47.799  37.339  29.488  1.00  0.00     0.124 S 
ATOM     70  O   UNL A   1      47.534  37.954  28.189  1.00  0.00    -0.237 OA
ATOM     71  O   UNL A   1      46.922  37.764  30.574  1.00  0.00    -0.237 OA
ATOM     72  O   UNL A   1      49.211  37.217  29.842  1.00  0.00    -0.744 OA
ENDBRANCH  68  69
ENDBRANCH  49  63
BRANCH  50  73
ATOM     73  C   UNL A   1      43.077  23.705  27.114  1.00  0.00    -0.014 A 
ATOM     74  C   UNL A   1      42.720  23.302  25.817  1.00  0.00     0.010 A 
ATOM     75  C   UNL A   1      42.963  22.782  28.171  1.00  0.00     0.010 A 
ATOM     76  C   UNL A   1      42.247  22.006  25.581  1.00  0.00     0.020 A 
ATOM     77  C   UNL A   1      42.519  21.478  27.936  1.00  0.00     0.020 A 
ATOM     78  C   UNL A   1      42.155  21.102  26.643  1.00  0.00     0.054 A 
BRANCH  78  79
ATOM     79  S   UNL A   1      41.596  19.408  26.305  1.00  0.00     0.124 S 
ATOM     80  O   UNL A   1      42.445  19.028  25.181  1.00  0.00    -0.237 OA
ATOM     81  O   UNL A   1      41.875  18.728  27.568  1.00  0.00    -0.237 OA
ATOM     82  O   UNL A   1      40.178  19.572  25.994  1.00  0.00    -0.744 OA
ENDBRANCH  78  79
ENDBRANCH  50  73
BRANCH  62  83
ATOM     83  C   UNL A   1      49.310  26.772  26.390  1.00  0.00    -0.014 A 
ATOM     84  C   UNL A   1      49.761  26.957  25.072  1.00  0.00     0.010 A 
ATOM     85  C   UNL A   1      50.156  26.145  27.324  1.00  0.00     0.010 A 
ATOM     86  C   UNL A   1      51.024  26.495  24.687  1.00  0.00     0.020 A 
ATOM     87  C   UNL A   1      51.430  25.710  26.950  1.00  0.00     0.020 A 
ATOM     88  C   UNL A   1      51.849  25.874  25.629  1.00  0.00     0.054 A 
BRANCH  88  89
ATOM     89  S   UNL A   1      53.499  25.321  25.114  1.00  0.00     0.124 S 
ATOM     90  O   UNL A   1      53.511  25.680  23.698  1.00  0.00    -0.237 OA
ATOM     91  O   UNL A   1      54.382  26.108  25.971  1.00  0.00    -0.237 OA
ATOM     92  O   UNL A   1      53.486  23.886  25.393  1.00  0.00    -0.744 OA
ENDBRANCH  88  89
ENDBRANCH  62  83
ENDBRANCH  36  37
ENDBRANCH  29  31
ENDBRANCH  28  29
ENDBRANCH  27  28
ENDBRANCH  26  27
ENDBRANCH   1  26
TORSDOF 20
ENDMDL
MODEL 2
REMARK VINA RESULT:     -10.1      5.643      7.878
REMARK SMILES C[C@@H]1C(=O)NC(=O)CN1C(=O)NC1(CC(=O)OCCOCCOC(=O)c2ccc(-c3c4nc(c(-c5ccc(S(=O)(=O)[O-])cc5)c5ccc([nH]5)c(-c5ccc(S(=O)(=O)[O-])cc5)c5nc(c(-c6ccc(S(=O)(=O)[O-])cc6)c6ccc3[nH]6)C=C5)C=C4)cc2)CCC1
REMARK SMILES IDX 20 1 19 2 18 3 17 4 15 5 16 6 14 7 13 8 86 9 88 10 87 11
REMARK SMILES IDX 12 12 10 13 11 14 9 16 1 17 2 18 3 19 4 20 5 21 8 22 6 23
REMARK SMILES IDX 7 25 21 26 22 27 23 28 24 29 25 30 26 31 27 32 85 33 28 34
REMARK SMILES IDX 84 35 29 36 30 37 31 38 78 39 32 40 83 41 77 42 79 43 33 44
REMARK SMILES IDX 82 45 76 46 75 47 34 49 64 50 45 51 63 52 46 53 49 54 62 55
REMARK SMILES IDX 80 56 47 57 48 58 61 60 81 61 50 62 35 63 36 64 44 65 37 66
REMARK SMILES IDX 43 67 38 68 39 69 40 70 41 71 42 72 65 73 66 74 74 75 67 76
REMARK SMILES IDX 73 77 68 78 69 79 70 80 71 81 72 82 51 83 52 84 60 85 53 86
REMARK SMILES IDX 59 87 54 88 55 89 56 90 57 91 58 92
REMARK H PARENT 12 15 5 24 79 48 49 59
REMARK Flexibility Score: inf
ROOT
ATOM      1  O   UNL A   1      34.348  30.904  27.338  1.00  0.00    -0.374 OA
ENDROOT
BRANCH   1   2
ATOM      2  C   UNL A   1      34.757  29.540  27.472  1.00  0.00     0.202 C 
BRANCH   2   3
ATOM      3  C   UNL A   1      33.726  28.496  27.027  1.00  0.00     0.261 C 
BRANCH   3   4
ATOM      4  O   UNL A   1      34.101  27.861  25.786  1.00  0.00    -0.463 OA
BRANCH   4   5
ATOM      5  C   UNL A   1      33.388  28.184  24.679  1.00  0.00     0.308 C 
ATOM      6  O   UNL A   1      32.568  29.090  24.613  1.00  0.00    -0.252 OA
BRANCH   5   7
ATOM      7  C   UNL A   1      33.674  27.257  23.519  1.00  0.00     0.151 C 
BRANCH   7   8
ATOM      8  C   UNL A   1      33.010  25.845  23.486  1.00  0.00     0.052 C 
ATOM      9  C   UNL A   1      33.186  25.228  22.068  1.00  0.00     0.029 C 
ATOM     10  C   UNL A   1      31.469  25.735  23.167  1.00  0.00     0.029 C 
ATOM     11  C   UNL A   1      31.852  25.900  21.680  1.00  0.00     0.005 C 
BRANCH   8  12
ATOM     12  N   UNL A   1      33.398  25.140  24.739  1.00  0.00    -0.332 N 
ATOM     13  C   UNL A   1      33.916  24.031  25.289  1.00  0.00     0.318 C 
ATOM     14  O   UNL A   1      33.671  23.957  26.501  1.00  0.00    -0.249 OA
ATOM     15  H   UNL A   1      33.180  25.747  25.482  1.00  0.00     0.165 HD
BRANCH  13  16
ATOM     16  N   UNL A   1      34.639  23.063  24.680  1.00  0.00    -0.304 N 
ATOM     17  C   UNL A   1      36.576  23.000  23.158  1.00  0.00     0.042 C 
ATOM     18  C   UNL A   1      36.092  22.947  24.608  1.00  0.00     0.174 C 
ATOM     19  C   UNL A   1      36.614  21.660  25.263  1.00  0.00     0.249 C 
ATOM     20  O   UNL A   1      37.807  21.488  25.517  1.00  0.00    -0.272 OA
ATOM     21  N   UNL A   1      35.722  20.634  25.432  1.00  0.00    -0.293 N 
ATOM     22  C   UNL A   1      33.918  21.845  24.265  1.00  0.00     0.222 C 
ATOM     23  C   UNL A   1      34.426  20.596  24.984  1.00  0.00     0.246 C 
ATOM     24  H   UNL A   1      36.044  19.846  25.925  1.00  0.00     0.173 HD
ATOM     25  O   UNL A   1      33.800  19.537  25.014  1.00  0.00    -0.273 OA
ENDBRANCH  13  16
ENDBRANCH   8  12
ENDBRANCH   7   8
ENDBRANCH   5   7
ENDBRANCH   4   5
ENDBRANCH   3   4
ENDBRANCH   2   3
ENDBRANCH   1   2
BRANCH   1  26
ATOM     26  C   UNL A   1      32.943  31.144  27.380  1.00  0.00     0.202 C 
BRANCH  26  27
ATOM     27  C   UNL A   1      32.508  32.603  27.218  1.00  0.00     0.261 C 
BRANCH  27  28
ATOM     28  O   UNL A   1      33.632  33.491  27.365  1.00  0.00    -0.460 OA
BRANCH  28  29
ATOM     29  C   UNL A   1      33.560  34.304  28.447  1.00  0.00     0.338 C 
ATOM     30  O   UNL A   1      32.674  35.095  28.716  1.00  0.00    -0.246 OA
BRANCH  29  31
ATOM     31  C   UNL A   1      34.643  33.975  29.396  1.00  0.00     0.060 A 
ATOM     32  C   UNL A   1      35.953  34.233  28.974  1.00  0.00     0.016 A 
ATOM     33  C   UNL A   1      34.401  33.374  30.634  1.00  0.00     0.016 A 
ATOM     34  C   UNL A   1      37.030  33.825  29.753  1.00  0.00     0.010 A 
ATOM     35  C   UNL A   1      35.486  32.963  31.416  1.00  0.00     0.010 A 
ATOM     36  C   UNL A   1      36.803  33.145  30.957  1.00  0.00    -0.014 A 
BRANCH  36  37
ATOM     37  C   UNL A   1      37.945  32.490  31.639  1.00  0.00     0.031 A 
ATOM     38  C   UNL A   1      38.383  33.010  32.983  1.00  0.00     0.074 A 
ATOM     39  C   UNL A   1      38.539  31.411  31.099  1.00  0.00     0.049 A 
ATOM     40  N   UNL A   1      39.343  32.584  33.762  1.00  0.00    -0.248 NA
ATOM     41  C   UNL A   1      37.642  34.163  33.518  1.00  0.00     0.031 C 
ATOM     42  C   UNL A   1      38.168  30.789  29.828  1.00  0.00     0.029 A 
ATOM     43  N   UNL A   1      39.580  30.645  31.558  1.00  0.00    -0.354 N 
ATOM     44  C   UNL A   1      39.326  33.418  34.874  1.00  0.00     0.074 A 
ATOM     45  C   UNL A   1      38.285  34.397  34.653  1.00  0.00     0.031 C 
ATOM     46  C   UNL A   1      38.969  29.733  29.610  1.00  0.00     0.029 A 
ATOM     47  C   UNL A   1      39.931  29.625  30.706  1.00  0.00     0.049 A 
ATOM     48  H   UNL A   1      40.034  30.810  32.416  1.00  0.00     0.167 HD
ATOM     49  C   UNL A   1      40.104  33.371  35.982  1.00  0.00     0.031 A 
ATOM     50  C   UNL A   1      40.923  28.718  30.793  1.00  0.00     0.031 A 
ATOM     51  C   UNL A   1      41.145  32.400  36.189  1.00  0.00     0.049 A 
ATOM     52  C   UNL A   1      41.822  28.728  32.001  1.00  0.00     0.074 A 
ATOM     53  C   UNL A   1      41.982  32.255  37.282  1.00  0.00     0.029 A 
ATOM     54  N   UNL A   1      41.499  31.411  35.282  1.00  0.00    -0.354 N 
ATOM     55  N   UNL A   1      41.780  29.511  33.054  1.00  0.00    -0.248 NA
ATOM     56  C   UNL A   1      42.896  27.725  32.038  1.00  0.00     0.031 C 
ATOM     57  C   UNL A   1      42.881  31.220  37.009  1.00  0.00     0.029 A 
ATOM     58  C   UNL A   1      42.561  30.673  35.775  1.00  0.00     0.049 A 
ATOM     59  H   UNL A   1      41.058  31.258  34.414  1.00  0.00     0.167 HD
ATOM     60  C   UNL A   1      42.803  29.077  33.890  1.00  0.00     0.074 A 
ATOM     61  C   UNL A   1      43.436  27.955  33.228  1.00  0.00     0.031 C 
ATOM     62  C   UNL A   1      43.182  29.562  35.099  1.00  0.00     0.031 A 
BRANCH  49  63
ATOM     63  C   UNL A   1      39.882  34.424  37.037  1.00  0.00    -0.014 A 
ATOM     64  C   UNL A   1      39.050  34.187  38.146  1.00  0.00     0.010 A 
ATOM     65  C   UNL A   1      40.542  35.662  36.930  1.00  0.00     0.010 A 
ATOM     66  C   UNL A   1      38.852  35.183  39.108  1.00  0.00     0.020 A 
ATOM     67  C   UNL A   1      40.370  36.649  37.904  1.00  0.00     0.020 A 
ATOM     68  C   UNL A   1      39.512  36.409  38.979  1.00  0.00     0.054 A 
BRANCH  68  69
ATOM     69  S   UNL A   1      39.250  37.677  40.250  1.00  0.00     0.124 S 
ATOM     70  O   UNL A   1      40.574  38.289  40.341  1.00  0.00    -0.237 OA
ATOM     71  O   UNL A   1      38.211  38.514  39.657  1.00  0.00    -0.237 OA
ATOM     72  O   UNL A   1      38.836  36.912  41.423  1.00  0.00    -0.744 OA
ENDBRANCH  68  69
ENDBRANCH  49  63
BRANCH  50  73
ATOM     73  C   UNL A   1      41.129  27.735  29.692  1.00  0.00    -0.014 A 
ATOM     74  C   UNL A   1      40.164  26.754  29.411  1.00  0.00     0.010 A 
ATOM     75  C   UNL A   1      42.297  27.789  28.908  1.00  0.00     0.010 A 
ATOM     76  C   UNL A   1      40.367  25.836  28.374  1.00  0.00     0.020 A 
ATOM     77  C   UNL A   1      42.490  26.893  27.854  1.00  0.00     0.020 A 
ATOM     78  C   UNL A   1      41.528  25.916  27.599  1.00  0.00     0.054 A 
BRANCH  78  79
ATOM     79  S   UNL A   1      41.743  24.754  26.222  1.00  0.00     0.124 S 
ATOM     80  O   UNL A   1      40.698  23.771  26.488  1.00  0.00    -0.237 OA
ATOM     81  O   UNL A   1      41.529  25.608  25.055  1.00  0.00    -0.237 OA
ATOM     82  O   UNL A   1      43.114  24.276  26.390  1.00  0.00    -0.744 OA
ENDBRANCH  78  79
ENDBRANCH  50  73
BRANCH  62  83
ATOM     83  C   UNL A   1      44.315  28.861  35.805  1.00  0.00    -0.014 A 
ATOM     84  C   UNL A   1      44.077  27.796  36.690  1.00  0.00     0.010 A 
ATOM     85  C   UNL A   1      45.642  29.242  35.530  1.00  0.00     0.010 A 
ATOM     86  C   UNL A   1      45.145  27.144  37.314  1.00  0.00     0.020 A 
ATOM     87  C   UNL A   1      46.712  28.573  36.128  1.00  0.00     0.020 A 
ATOM     88  C   UNL A   1      46.456  27.537  37.028  1.00  0.00     0.054 A 
BRANCH  88  89
ATOM     89  S   UNL A   1      47.825  26.649  37.819  1.00  0.00     0.124 S 
ATOM     90  O   UNL A   1      47.442  26.690  39.228  1.00  0.00    -0.237 OA
ATOM     91  O   UNL A   1      47.759  25.333  37.188  1.00  0.00    -0.237 OA
ATOM     92  O   UNL A   1      49.001  27.442  37.471  1.00  0.00    -0.744 OA
ENDBRANCH  88  89
ENDBRANCH  62  83
ENDBRANCH  36  37
ENDBRANCH  29  31
ENDBRANCH  28  29
ENDBRANCH  27  28
ENDBRANCH  26  27
ENDBRANCH   1  26
TORSDOF 20
ENDMDL
MODEL 3
REMARK VINA RESULT:     -10.1      1.399      2.317
REMARK SMILES C[C@@H]1C(=O)NC(=O)CN1C(=O)NC1(CC(=O)OCCOCCOC(=O)c2ccc(-c3c4nc(c(-c5ccc(S(=O)(=O)[O-])cc5)c5ccc([nH]5)c(-c5ccc(S(=O)(=O)[O-])cc5)c5nc(c(-c6ccc(S(=O)(=O)[O-])cc6)c6ccc3[nH]6)C=C5)C=C4)cc2)CCC1
REMARK SMILES IDX 20 1 19 2 18 3 17 4 15 5 16 6 14 7 13 8 86 9 88 10 87 11
REMARK SMILES IDX 12 12 10 13 11 14 9 16 1 17 2 18 3 19 4 20 5 21 8 22 6 23
REMARK SMILES IDX 7 25 21 26 22 27 23 28 24 29 25 30 26 31 27 32 85 33 28 34
REMARK SMILES IDX 84 35 29 36 30 37 31 38 78 39 32 40 83 41 77 42 79 43 33 44
REMARK SMILES IDX 82 45 76 46 75 47 34 49 64 50 45 51 63 52 46 53 49 54 62 55
REMARK SMILES IDX 80 56 47 57 48 58 61 60 81 61 50 62 35 63 36 64 44 65 37 66
REMARK SMILES IDX 43 67 38 68 39 69 40 70 41 71 42 72 65 73 66 74 74 75 67 76
REMARK SMILES IDX 73 77 68 78 69 79 70 80 71 81 72 82 51 83 52 84 60 85 53 86
REMARK SMILES IDX 59 87 54 88 55 89 56 90 57 91 58 92
REMARK H PARENT 12 15 5 24 79 48 49 59
REMARK Flexibility Score: inf
ROOT
ATOM      1  O   UNL A   1      33.999  32.907  29.545  1.00  0.00    -0.374 OA
ENDROOT
BRANCH   1   2
ATOM      2  C   UNL A   1      34.300  32.623  28.176  1.00  0.00     0.202 C 
BRANCH   2   3
ATOM      3  C   UNL A   1      34.240  31.142  27.782  1.00  0.00     0.261 C 
BRANCH   3   4
ATOM      4  O   UNL A   1      33.393  30.921  26.634  1.00  0.00    -0.463 OA
BRANCH   4   5
ATOM      5  C   UNL A   1      32.578  29.838  26.658  1.00  0.00     0.308 C 
ATOM      6  O   UNL A   1      32.566  28.989  27.540  1.00  0.00    -0.252 OA
BRANCH   5   7
ATOM      7  C   UNL A   1      31.703  29.749  25.428  1.00  0.00     0.151 C 
BRANCH   7   8
ATOM      8  C   UNL A   1      31.835  28.515  24.482  1.00  0.00     0.052 C 
ATOM      9  C   UNL A   1      31.806  28.998  23.002  1.00  0.00     0.029 C 
ATOM     10  C   UNL A   1      30.534  27.720  24.080  1.00  0.00     0.029 C 
ATOM     11  C   UNL A   1      30.271  28.838  23.049  1.00  0.00     0.005 C 
BRANCH   8  12
ATOM     12  N   UNL A   1      32.906  27.640  25.035  1.00  0.00    -0.332 N 
ATOM     13  C   UNL A   1      33.441  26.412  25.077  1.00  0.00     0.318 C 
ATOM     14  O   UNL A   1      34.210  26.273  26.039  1.00  0.00    -0.249 OA
ATOM     15  H   UNL A   1      33.456  28.207  25.623  1.00  0.00     0.165 HD
BRANCH  13  16
ATOM     16  N   UNL A   1      33.238  25.388  24.216  1.00  0.00    -0.304 N 
ATOM     17  C   UNL A   1      32.937  22.950  24.414  1.00  0.00     0.042 C 
ATOM     18  C   UNL A   1      32.254  24.315  24.322  1.00  0.00     0.174 C 
ATOM     19  C   UNL A   1      31.268  24.303  23.145  1.00  0.00     0.249 C 
ATOM     20  O   UNL A   1      30.231  23.639  23.163  1.00  0.00    -0.272 OA
ATOM     21  N   UNL A   1      31.648  24.950  22.000  1.00  0.00    -0.293 N 
ATOM     22  C   UNL A   1      33.883  25.482  22.893  1.00  0.00     0.222 C 
ATOM     23  C   UNL A   1      32.867  25.528  21.754  1.00  0.00     0.246 C 
ATOM     24  H   UNL A   1      30.978  25.007  21.281  1.00  0.00     0.173 HD
ATOM     25  O   UNL A   1      33.154  25.889  20.613  1.00  0.00    -0.273 OA
ENDBRANCH  13  16
ENDBRANCH   8  12
ENDBRANCH   7   8
ENDBRANCH   5   7
ENDBRANCH   4   5
ENDBRANCH   3   4
ENDBRANCH   2   3
ENDBRANCH   1   2
BRANCH   1  26
ATOM     26  C   UNL A   1      34.638  34.054  30.101  1.00  0.00     0.202 C 
BRANCH  26  27
ATOM     27  C   UNL A   1      35.801  33.775  31.057  1.00  0.00     0.261 C 
BRANCH  27  28
ATOM     28  O   UNL A   1      36.734  32.849  30.471  1.00  0.00    -0.460 OA
BRANCH  28  29
ATOM     29  C   UNL A   1      37.040  31.791  31.261  1.00  0.00     0.338 C 
ATOM     30  O   UNL A   1      36.439  31.413  32.251  1.00  0.00    -0.246 OA
BRANCH  29  31
ATOM     31  C   UNL A   1      38.133  31.008  30.651  1.00  0.00     0.060 A 
ATOM     32  C   UNL A   1      39.125  30.528  31.515  1.00  0.00     0.016 A 
ATOM     33  C   UNL A   1      38.229  30.798  29.273  1.00  0.00     0.016 A 
ATOM     34  C   UNL A   1      40.255  29.901  31.000  1.00  0.00     0.010 A 
ATOM     35  C   UNL A   1      39.367  30.168  28.757  1.00  0.00     0.010 A 
ATOM     36  C   UNL A   1      40.404  29.760  29.615  1.00  0.00    -0.014 A 
BRANCH  36  37
ATOM     37  C   UNL A   1      41.717  29.334  29.073  1.00  0.00     0.031 A 
ATOM     38  C   UNL A   1      42.836  30.339  29.006  1.00  0.00     0.074 A 
ATOM     39  C   UNL A   1      41.926  28.056  28.708  1.00  0.00     0.049 A 
ATOM     40  N   UNL A   1      44.064  30.183  28.585  1.00  0.00    -0.248 NA
ATOM     41  C   UNL A   1      42.530  31.700  29.475  1.00  0.00     0.031 C 
ATOM     42  C   UNL A   1      40.932  26.984  28.776  1.00  0.00     0.029 A 
ATOM     43  N   UNL A   1      43.048  27.444  28.211  1.00  0.00    -0.354 N 
ATOM     44  C   UNL A   1      44.675  31.424  28.730  1.00  0.00     0.074 A 
ATOM     45  C   UNL A   1      43.673  32.330  29.245  1.00  0.00     0.031 C 
ATOM     46  C   UNL A   1      41.492  25.844  28.338  1.00  0.00     0.029 A 
ATOM     47  C   UNL A   1      42.869  26.111  27.927  1.00  0.00     0.049 A 
ATOM     48  H   UNL A   1      43.901  27.915  28.069  1.00  0.00     0.167 HD
ATOM     49  C   UNL A   1      45.956  31.775  28.464  1.00  0.00     0.031 A 
ATOM     50  C   UNL A   1      43.714  25.214  27.383  1.00  0.00     0.031 A 
ATOM     51  C   UNL A   1      46.944  30.869  27.942  1.00  0.00     0.049 A 
ATOM     52  C   UNL A   1      45.113  25.645  27.030  1.00  0.00     0.074 A 
ATOM     53  C   UNL A   1      48.273  31.120  27.651  1.00  0.00     0.029 A 
ATOM     54  N   UNL A   1      46.710  29.539  27.626  1.00  0.00    -0.354 N 
ATOM     55  N   UNL A   1      45.681  26.817  27.192  1.00  0.00    -0.248 NA
ATOM     56  C   UNL A   1      45.988  24.629  26.428  1.00  0.00     0.031 C 
ATOM     57  C   UNL A   1      48.826  29.960  27.101  1.00  0.00     0.029 A 
ATOM     58  C   UNL A   1      47.860  28.964  27.113  1.00  0.00     0.049 A 
ATOM     59  H   UNL A   1      45.851  29.072  27.748  1.00  0.00     0.167 HD
ATOM     60  C   UNL A   1      46.988  26.672  26.739  1.00  0.00     0.074 A 
ATOM     61  C   UNL A   1      47.130  25.295  26.310  1.00  0.00     0.031 C 
ATOM     62  C   UNL A   1      47.982  27.593  26.686  1.00  0.00     0.031 A 
BRANCH  49  63
ATOM     63  C   UNL A   1      46.348  33.211  28.698  1.00  0.00    -0.014 A 
ATOM     64  C   UNL A   1      46.884  33.634  29.928  1.00  0.00     0.010 A 
ATOM     65  C   UNL A   1      46.205  34.147  27.657  1.00  0.00     0.010 A 
ATOM     66  C   UNL A   1      47.233  34.974  30.124  1.00  0.00     0.020 A 
ATOM     67  C   UNL A   1      46.580  35.481  27.840  1.00  0.00     0.020 A 
ATOM     68  C   UNL A   1      47.076  35.890  29.079  1.00  0.00     0.054 A 
BRANCH  68  69
ATOM     69  S   UNL A   1      47.553  37.618  29.356  1.00  0.00     0.124 S 
ATOM     70  O   UNL A   1      48.668  37.775  28.425  1.00  0.00    -0.237 OA
ATOM     71  O   UNL A   1      46.336  38.345  29.006  1.00  0.00    -0.237 OA
ATOM     72  O   UNL A   1      47.913  37.656  30.770  1.00  0.00    -0.744 OA
ENDBRANCH  68  69
ENDBRANCH  49  63
BRANCH  50  73
ATOM     73  C   UNL A   1      43.252  23.821  27.125  1.00  0.00    -0.014 A 
ATOM     74  C   UNL A   1      43.380  22.824  28.106  1.00  0.00     0.010 A 
ATOM     75  C   UNL A   1      42.666  23.491  25.888  1.00  0.00     0.010 A 
ATOM     76  C   UNL A   1      42.942  21.520  27.852  1.00  0.00     0.020 A 
ATOM     77  C   UNL A   1      42.201  22.197  25.641  1.00  0.00     0.020 A 
ATOM     78  C   UNL A   1      42.350  21.217  26.622  1.00  0.00     0.054 A 
BRANCH  78  79
ATOM     79  S   UNL A   1      41.734  19.533  26.338  1.00  0.00     0.124 S 
ATOM     80  O   UNL A   1      42.450  19.149  25.126  1.00  0.00    -0.237 OA
ATOM     81  O   UNL A   1      42.138  18.841  27.560  1.00  0.00    -0.237 OA
ATOM     82  O   UNL A   1      40.293  19.719  26.183  1.00  0.00    -0.744 OA
ENDBRANCH  78  79
ENDBRANCH  50  73
BRANCH  62  83
ATOM     83  C   UNL A   1      49.325  27.138  26.176  1.00  0.00    -0.014 A 
ATOM     84  C   UNL A   1      50.202  26.398  26.987  1.00  0.00     0.010 A 
ATOM     85  C   UNL A   1      49.687  27.409  24.843  1.00  0.00     0.010 A 
ATOM     86  C   UNL A   1      51.433  25.964  26.484  1.00  0.00     0.020 A 
ATOM     87  C   UNL A   1      50.902  26.951  24.329  1.00  0.00     0.020 A 
ATOM     88  C   UNL A   1      51.774  26.244  25.158  1.00  0.00     0.054 A 
BRANCH  88  89
ATOM     89  S   UNL A   1      53.359  25.635  24.517  1.00  0.00     0.124 S 
ATOM     90  O   UNL A   1      54.308  26.572  25.113  1.00  0.00    -0.237 OA
ATOM     91  O   UNL A   1      53.411  24.271  25.038  1.00  0.00    -0.237 OA
ATOM     92  O   UNL A   1      53.209  25.737  23.067  1.00  0.00    -0.744 OA
ENDBRANCH  88  89
ENDBRANCH  62  83
ENDBRANCH  36  37
ENDBRANCH  29  31
ENDBRANCH  28  29
ENDBRANCH  27  28
ENDBRANCH  26  27
ENDBRANCH   1  26
TORSDOF 20
ENDMDL
