MODEL 1
REMARK VINA RESULT:     -12.2      0.000      0.000
REMARK SMILES Cc1ccc(NC(=O)c2ccccc2NC(=O)[C@H]2CCCC[C@H]2C(=O)OCCOCCOC(=O)c2ccc(-c3c4nc(c(-c5ccc(S(=O)(=O)[O-])cc5)c5ccc([nH]5)c(-c5ccc(S(=O)(=O)[O-])cc5)c5nc(c(-c6ccc(S(=O)(=O)[O-])cc6)c6ccc3[nH]6)C=C5)C=C4)cc2)cc1
REMARK SMILES IDX 28 1 27 2 26 3 24 4 25 5 23 6 18 7 19 8 20 9 22 10 21 11
REMARK SMILES IDX 16 12 15 13 17 15 14 16 9 17 10 18 11 19 13 20 12 21 7 22
REMARK SMILES IDX 6 23 8 25 5 26 1 27 2 28 3 29 96 30 4 31 95 32 29 33 30 34
REMARK SMILES IDX 31 35 32 36 33 37 34 38 35 39 36 40 94 41 37 42 93 43 38 44
REMARK SMILES IDX 39 45 40 46 87 47 41 48 92 49 86 50 88 51 42 52 91 53 85 54
REMARK SMILES IDX 84 55 43 57 73 58 54 59 72 60 55 61 58 62 71 63 89 64 56 65
REMARK SMILES IDX 57 66 70 68 90 69 59 70 44 71 45 72 53 73 46 74 52 75 47 76
REMARK SMILES IDX 48 77 49 78 50 79 51 80 74 81 75 82 83 83 76 84 82 85 77 86
REMARK SMILES IDX 78 87 79 88 80 89 81 90 60 91 61 92 69 93 62 94 68 95 63 96
REMARK SMILES IDX 64 97 65 98 66 99 67 100
REMARK H PARENT 15 14 6 24 88 56 58 67
REMARK Flexibility Score: inf
ROOT
ATOM      1  C   UNL A   1      37.367  22.024  25.624  1.00  0.00     0.202 C 
ENDROOT
BRANCH   1   2
ATOM      2  C   UNL A   1      36.379  21.097  25.005  1.00  0.00     0.261 C 
BRANCH   2   3
ATOM      3  O   UNL A   1      35.223  20.835  25.791  1.00  0.00    -0.463 OA
BRANCH   3   4
ATOM      4  C   UNL A   1      34.338  21.830  26.018  1.00  0.00     0.309 C 
ATOM      5  O   UNL A   1      34.433  22.731  26.823  1.00  0.00    -0.252 OA
BRANCH   4   6
ATOM      6  C   UNL A   1      33.180  21.650  25.063  1.00  0.00     0.111 C 
ATOM      7  C   UNL A   1      32.869  22.956  24.262  1.00  0.00     0.093 C 
ATOM      8  C   UNL A   1      31.758  22.690  23.240  1.00  0.00     0.014 C 
ATOM      9  C   UNL A   1      32.025  21.438  22.396  1.00  0.00     0.001 C 
ATOM     10  C   UNL A   1      33.374  20.386  24.231  1.00  0.00     0.016 C 
ATOM     11  C   UNL A   1      32.223  20.196  23.254  1.00  0.00     0.001 C 
BRANCH   7  12
ATOM     12  C   UNL A   1      34.041  23.619  23.509  1.00  0.00     0.228 C 
ATOM     13  N   UNL A   1      34.486  24.898  23.737  1.00  0.00    -0.325 N 
ATOM     14  H   UNL A   1      35.343  25.058  23.282  1.00  0.00     0.169 HD
ATOM     15  O   UNL A   1      34.644  22.962  22.650  1.00  0.00    -0.274 OA
BRANCH  13  16
ATOM     16  C   UNL A   1      34.064  26.061  24.445  1.00  0.00     0.054 A 
ATOM     17  C   UNL A   1      33.545  27.201  23.758  1.00  0.00     0.063 A 
ATOM     18  C   UNL A   1      33.449  28.426  24.467  1.00  0.00     0.016 A 
ATOM     19  C   UNL A   1      33.757  28.528  25.819  1.00  0.00     0.001 A 
ATOM     20  C   UNL A   1      34.231  26.164  25.835  1.00  0.00     0.027 A 
ATOM     21  C   UNL A   1      34.107  27.384  26.511  1.00  0.00     0.002 A 
BRANCH  17  22
ATOM     22  C   UNL A   1      33.122  27.348  22.311  1.00  0.00     0.257 C 
ATOM     23  N   UNL A   1      31.819  27.409  21.871  1.00  0.00    -0.322 N 
ATOM     24  H   UNL A   1      31.696  27.117  20.939  1.00  0.00     0.170 HD
ATOM     25  O   UNL A   1      34.011  27.442  21.457  1.00  0.00    -0.269 OA
BRANCH  23  26
ATOM     26  C   UNL A   1      30.637  27.809  22.504  1.00  0.00     0.041 A 
ATOM     27  C   UNL A   1      26.514  28.706  23.210  1.00  0.00     0.044 C 
ATOM     28  C   UNL A   1      27.989  28.468  23.097  1.00  0.00    -0.051 A 
ATOM     29  C   UNL A   1      28.541  27.273  23.571  1.00  0.00     0.005 A 
ATOM     30  C   UNL A   1      28.818  29.394  22.457  1.00  0.00     0.005 A 
ATOM     31  C   UNL A   1      29.872  26.957  23.299  1.00  0.00     0.026 A 
ATOM     32  C   UNL A   1      30.151  29.078  22.194  1.00  0.00     0.026 A 
ENDBRANCH  23  26
ENDBRANCH  17  22
ENDBRANCH  13  16
ENDBRANCH   7  12
ENDBRANCH   4   6
ENDBRANCH   3   4
ENDBRANCH   2   3
ENDBRANCH   1   2
BRANCH   1  33
ATOM     33  O   UNL A   1      38.651  21.418  25.628  1.00  0.00    -0.374 OA
BRANCH  33  34
ATOM     34  C   UNL A   1      39.647  22.178  26.289  1.00  0.00     0.202 C 
BRANCH  34  35
ATOM     35  C   UNL A   1      39.177  23.545  26.820  1.00  0.00     0.261 C 
BRANCH  35  36
ATOM     36  O   UNL A   1      40.294  24.357  27.250  1.00  0.00    -0.460 OA
BRANCH  36  37
ATOM     37  C   UNL A   1      40.550  25.487  26.519  1.00  0.00     0.338 C 
ATOM     38  O   UNL A   1      41.003  25.472  25.388  1.00  0.00    -0.246 OA
BRANCH  37  39
ATOM     39  C   UNL A   1      40.158  26.710  27.285  1.00  0.00     0.060 A 
ATOM     40  C   UNL A   1      40.599  27.999  26.924  1.00  0.00     0.016 A 
ATOM     41  C   UNL A   1      39.547  26.517  28.517  1.00  0.00     0.016 A 
ATOM     42  C   UNL A   1      40.538  29.062  27.851  1.00  0.00     0.010 A 
ATOM     43  C   UNL A   1      39.634  27.512  29.461  1.00  0.00     0.010 A 
ATOM     44  C   UNL A   1      40.116  28.799  29.151  1.00  0.00    -0.014 A 
BRANCH  44  45
ATOM     45  C   UNL A   1      40.160  29.675  30.334  1.00  0.00     0.031 A 
ATOM     46  C   UNL A   1      39.363  30.924  30.218  1.00  0.00     0.074 A 
ATOM     47  C   UNL A   1      40.570  29.246  31.563  1.00  0.00     0.049 A 
ATOM     48  N   UNL A   1      39.309  31.828  31.125  1.00  0.00    -0.248 NA
ATOM     49  C   UNL A   1      38.553  31.277  29.044  1.00  0.00     0.031 C 
ATOM     50  C   UNL A   1      40.152  29.728  32.885  1.00  0.00     0.029 A 
ATOM     51  N   UNL A   1      41.519  28.274  31.897  1.00  0.00    -0.354 N 
ATOM     52  C   UNL A   1      38.243  32.644  30.842  1.00  0.00     0.074 A 
ATOM     53  C   UNL A   1      37.865  32.330  29.492  1.00  0.00     0.031 C 
ATOM     54  C   UNL A   1      41.022  29.301  33.820  1.00  0.00     0.029 A 
ATOM     55  C   UNL A   1      42.102  28.626  33.122  1.00  0.00     0.049 A 
ATOM     56  H   UNL A   1      41.740  27.477  31.363  1.00  0.00     0.167 HD
ATOM     57  C   UNL A   1      37.741  33.402  31.852  1.00  0.00     0.031 A 
ATOM     58  C   UNL A   1      43.438  28.866  33.185  1.00  0.00     0.031 A 
ATOM     59  C   UNL A   1      38.626  33.341  33.021  1.00  0.00     0.049 A 
ATOM     60  C   UNL A   1      43.626  30.315  33.506  1.00  0.00     0.074 A 
ATOM     61  C   UNL A   1      38.545  32.712  34.250  1.00  0.00     0.029 A 
ATOM     62  N   UNL A   1      39.964  33.694  32.849  1.00  0.00    -0.354 N 
ATOM     63  N   UNL A   1      42.687  31.197  33.297  1.00  0.00    -0.248 NA
ATOM     64  C   UNL A   1      44.790  30.880  34.173  1.00  0.00     0.031 C 
ATOM     65  C   UNL A   1      39.875  32.595  34.761  1.00  0.00     0.029 A 
ATOM     66  C   UNL A   1      40.753  33.192  33.866  1.00  0.00     0.049 A 
ATOM     67  H   UNL A   1      40.304  34.233  32.099  1.00  0.00     0.167 HD
ATOM     68  C   UNL A   1      43.035  32.378  33.859  1.00  0.00     0.074 A 
ATOM     69  C   UNL A   1      44.383  32.149  34.360  1.00  0.00     0.031 C 
ATOM     70  C   UNL A   1      42.194  33.448  33.870  1.00  0.00     0.031 A 
BRANCH  57  71
ATOM     71  C   UNL A   1      36.384  34.065  31.848  1.00  0.00    -0.014 A 
ATOM     72  C   UNL A   1      36.080  34.988  32.868  1.00  0.00     0.010 A 
ATOM     73  C   UNL A   1      35.345  33.787  30.935  1.00  0.00     0.010 A 
ATOM     74  C   UNL A   1      34.822  35.601  32.966  1.00  0.00     0.020 A 
ATOM     75  C   UNL A   1      34.090  34.410  31.007  1.00  0.00     0.020 A 
ATOM     76  C   UNL A   1      33.834  35.313  32.028  1.00  0.00     0.054 A 
BRANCH  76  77
ATOM     77  S   UNL A   1      32.223  36.130  32.161  1.00  0.00     0.124 S 
ATOM     78  O   UNL A   1      32.033  36.669  30.818  1.00  0.00    -0.237 OA
ATOM     79  O   UNL A   1      31.340  35.026  32.529  1.00  0.00    -0.237 OA
ATOM     80  O   UNL A   1      32.424  37.133  33.205  1.00  0.00    -0.744 OA
ENDBRANCH  76  77
ENDBRANCH  57  71
BRANCH  58  81
ATOM     81  C   UNL A   1      44.203  27.971  32.255  1.00  0.00    -0.014 A 
ATOM     82  C   UNL A   1      44.864  28.639  31.196  1.00  0.00     0.010 A 
ATOM     83  C   UNL A   1      44.727  26.734  32.685  1.00  0.00     0.010 A 
ATOM     84  C   UNL A   1      46.115  28.205  30.748  1.00  0.00     0.020 A 
ATOM     85  C   UNL A   1      45.972  26.279  32.202  1.00  0.00     0.020 A 
ATOM     86  C   UNL A   1      46.689  27.059  31.290  1.00  0.00     0.054 A 
BRANCH  86  87
ATOM     87  S   UNL A   1      48.448  26.743  30.924  1.00  0.00     0.124 S 
ATOM     88  O   UNL A   1      48.863  27.994  30.289  1.00  0.00    -0.237 OA
ATOM     89  O   UNL A   1      49.011  26.542  32.258  1.00  0.00    -0.237 OA
ATOM     90  O   UNL A   1      48.411  25.560  30.073  1.00  0.00    -0.744 OA
ENDBRANCH  86  87
ENDBRANCH  58  81
BRANCH  70  91
ATOM     91  C   UNL A   1      42.697  34.858  33.913  1.00  0.00    -0.014 A 
ATOM     92  C   UNL A   1      43.319  35.476  32.817  1.00  0.00     0.010 A 
ATOM     93  C   UNL A   1      42.392  35.668  35.028  1.00  0.00     0.010 A 
ATOM     94  C   UNL A   1      43.722  36.807  32.871  1.00  0.00     0.020 A 
ATOM     95  C   UNL A   1      42.721  37.021  35.063  1.00  0.00     0.020 A 
ATOM     96  C   UNL A   1      43.427  37.568  33.999  1.00  0.00     0.054 A 
BRANCH  96  97
ATOM     97  S   UNL A   1      43.964  39.287  34.047  1.00  0.00     0.124 S 
ATOM     98  O   UNL A   1      45.096  39.264  33.124  1.00  0.00    -0.237 OA
ATOM     99  O   UNL A   1      42.783  40.006  33.572  1.00  0.00    -0.237 OA
ATOM    100  O   UNL A   1      44.299  39.506  35.450  1.00  0.00    -0.744 OA
ENDBRANCH  96  97
ENDBRANCH  70  91
ENDBRANCH  44  45
ENDBRANCH  37  39
ENDBRANCH  36  37
ENDBRANCH  35  36
ENDBRANCH  34  35
ENDBRANCH  33  34
ENDBRANCH   1  33
TORSDOF 21
ENDMDL
MODEL 2
REMARK VINA RESULT:     -11.6      4.026     10.605
REMARK SMILES Cc1ccc(NC(=O)c2ccccc2NC(=O)[C@H]2CCCC[C@H]2C(=O)OCCOCCOC(=O)c2ccc(-c3c4nc(c(-c5ccc(S(=O)(=O)[O-])cc5)c5ccc([nH]5)c(-c5ccc(S(=O)(=O)[O-])cc5)c5nc(c(-c6ccc(S(=O)(=O)[O-])cc6)c6ccc3[nH]6)C=C5)C=C4)cc2)cc1
REMARK SMILES IDX 28 1 27 2 26 3 24 4 25 5 23 6 18 7 19 8 20 9 22 10 21 11
REMARK SMILES IDX 16 12 15 13 17 15 14 16 9 17 10 18 11 19 13 20 12 21 7 22
REMARK SMILES IDX 6 23 8 25 5 26 1 27 2 28 3 29 96 30 4 31 95 32 29 33 30 34
REMARK SMILES IDX 31 35 32 36 33 37 34 38 35 39 36 40 94 41 37 42 93 43 38 44
REMARK SMILES IDX 39 45 40 46 87 47 41 48 92 49 86 50 88 51 42 52 91 53 85 54
REMARK SMILES IDX 84 55 43 57 73 58 54 59 72 60 55 61 58 62 71 63 89 64 56 65
REMARK SMILES IDX 57 66 70 68 90 69 59 70 44 71 45 72 53 73 46 74 52 75 47 76
REMARK SMILES IDX 48 77 49 78 50 79 51 80 74 81 75 82 83 83 76 84 82 85 77 86
REMARK SMILES IDX 78 87 79 88 80 89 81 90 60 91 61 92 69 93 62 94 68 95 63 96
REMARK SMILES IDX 64 97 65 98 66 99 67 100
REMARK H PARENT 15 14 6 24 88 56 58 67
REMARK Flexibility Score: inf
ROOT
ATOM      1  C   UNL A   1      32.796  31.773  27.272  1.00  0.00     0.202 C 
ENDROOT
BRANCH   1   2
ATOM      2  C   UNL A   1      32.978  30.296  27.308  1.00  0.00     0.261 C 
BRANCH   2   3
ATOM      3  O   UNL A   1      32.092  29.558  26.476  1.00  0.00    -0.463 OA
BRANCH   3   4
ATOM      4  C   UNL A   1      32.137  28.208  26.495  1.00  0.00     0.309 C 
ATOM      5  O   UNL A   1      31.597  27.463  27.283  1.00  0.00    -0.252 OA
BRANCH   4   6
ATOM      6  C   UNL A   1      32.980  27.754  25.324  1.00  0.00     0.111 C 
ATOM      7  C   UNL A   1      32.548  26.348  24.797  1.00  0.00     0.093 C 
ATOM      8  C   UNL A   1      33.364  25.983  23.552  1.00  0.00     0.014 C 
ATOM      9  C   UNL A   1      33.383  27.110  22.512  1.00  0.00     0.001 C 
ATOM     10  C   UNL A   1      33.072  28.862  24.279  1.00  0.00     0.016 C 
ATOM     11  C   UNL A   1      33.907  28.418  23.087  1.00  0.00     0.001 C 
BRANCH   7  12
ATOM     12  C   UNL A   1      31.058  26.154  24.446  1.00  0.00     0.228 C 
ATOM     13  N   UNL A   1      30.462  24.934  24.237  1.00  0.00    -0.325 N 
ATOM     14  H   UNL A   1      29.483  25.023  24.202  1.00  0.00     0.169 HD
ATOM     15  O   UNL A   1      30.331  27.153  24.359  1.00  0.00    -0.274 OA
BRANCH  13  16
ATOM     16  C   UNL A   1      30.854  23.575  24.058  1.00  0.00     0.054 A 
ATOM     17  C   UNL A   1      31.466  22.834  25.115  1.00  0.00     0.063 A 
ATOM     18  C   UNL A   1      32.120  21.618  24.790  1.00  0.00     0.016 A 
ATOM     19  C   UNL A   1      32.108  21.088  23.505  1.00  0.00     0.001 A 
ATOM     20  C   UNL A   1      30.740  22.946  22.808  1.00  0.00     0.027 A 
ATOM     21  C   UNL A   1      31.380  21.734  22.524  1.00  0.00     0.002 A 
BRANCH  17  22
ATOM     22  C   UNL A   1      31.599  23.175  26.585  1.00  0.00     0.257 C 
ATOM     23  N   UNL A   1      32.743  23.018  27.332  1.00  0.00    -0.322 N 
ATOM     24  H   UNL A   1      32.581  22.906  28.297  1.00  0.00     0.170 HD
ATOM     25  O   UNL A   1      30.612  23.653  27.157  1.00  0.00    -0.269 OA
BRANCH  23  26
ATOM     26  C   UNL A   1      34.096  22.986  26.975  1.00  0.00     0.041 A 
ATOM     27  C   UNL A   1      37.684  22.466  24.704  1.00  0.00     0.044 C 
ATOM     28  C   UNL A   1      36.520  22.658  25.626  1.00  0.00    -0.051 A 
ATOM     29  C   UNL A   1      35.986  23.938  25.819  1.00  0.00     0.005 A 
ATOM     30  C   UNL A   1      35.907  21.566  26.248  1.00  0.00     0.005 A 
ATOM     31  C   UNL A   1      34.790  24.104  26.517  1.00  0.00     0.026 A 
ATOM     32  C   UNL A   1      34.715  21.737  26.953  1.00  0.00     0.026 A 
ENDBRANCH  23  26
ENDBRANCH  17  22
ENDBRANCH  13  16
ENDBRANCH   7  12
ENDBRANCH   4   6
ENDBRANCH   3   4
ENDBRANCH   2   3
ENDBRANCH   1   2
BRANCH   1  33
ATOM     33  O   UNL A   1      34.026  32.413  27.582  1.00  0.00    -0.374 OA
BRANCH  33  34
ATOM     34  C   UNL A   1      34.656  31.920  28.751  1.00  0.00     0.202 C 
BRANCH  34  35
ATOM     35  C   UNL A   1      36.125  31.497  28.570  1.00  0.00     0.261 C 
BRANCH  35  36
ATOM     36  O   UNL A   1      36.275  30.060  28.645  1.00  0.00    -0.460 OA
BRANCH  36  37
ATOM     37  C   UNL A   1      36.653  29.544  29.856  1.00  0.00     0.338 C 
ATOM     38  O   UNL A   1      36.025  29.710  30.887  1.00  0.00    -0.246 OA
BRANCH  37  39
ATOM     39  C   UNL A   1      37.900  28.731  29.716  1.00  0.00     0.060 A 
ATOM     40  C   UNL A   1      38.676  28.343  30.827  1.00  0.00     0.016 A 
ATOM     41  C   UNL A   1      38.414  28.575  28.435  1.00  0.00     0.016 A 
ATOM     42  C   UNL A   1      40.011  27.919  30.654  1.00  0.00     0.010 A 
ATOM     43  C   UNL A   1      39.755  28.313  28.290  1.00  0.00     0.010 A 
ATOM     44  C   UNL A   1      40.575  27.971  29.383  1.00  0.00    -0.014 A 
BRANCH  44  45
ATOM     45  C   UNL A   1      41.981  27.784  28.986  1.00  0.00     0.031 A 
ATOM     46  C   UNL A   1      42.411  26.367  28.852  1.00  0.00     0.074 A 
ATOM     47  C   UNL A   1      42.734  28.774  28.426  1.00  0.00     0.049 A 
ATOM     48  N   UNL A   1      43.603  26.004  28.554  1.00  0.00    -0.248 NA
ATOM     49  C   UNL A   1      41.523  25.215  29.058  1.00  0.00     0.031 C 
ATOM     50  C   UNL A   1      43.851  28.650  27.480  1.00  0.00     0.029 A 
ATOM     51  N   UNL A   1      42.680  30.158  28.628  1.00  0.00    -0.354 N 
ATOM     52  C   UNL A   1      43.560  24.683  28.186  1.00  0.00     0.074 A 
ATOM     53  C   UNL A   1      42.273  24.206  28.610  1.00  0.00     0.031 C 
ATOM     54  C   UNL A   1      44.540  29.807  27.437  1.00  0.00     0.029 A 
ATOM     55  C   UNL A   1      43.967  30.683  28.443  1.00  0.00     0.049 A 
ATOM     56  H   UNL A   1      41.876  30.675  28.862  1.00  0.00     0.167 HD
ATOM     57  C   UNL A   1      44.594  24.197  27.449  1.00  0.00     0.031 A 
ATOM     58  C   UNL A   1      44.587  31.320  29.471  1.00  0.00     0.031 A 
ATOM     59  C   UNL A   1      45.682  25.181  27.392  1.00  0.00     0.049 A 
ATOM     60  C   UNL A   1      45.769  30.495  29.871  1.00  0.00     0.074 A 
ATOM     61  C   UNL A   1      46.156  26.027  26.405  1.00  0.00     0.029 A 
ATOM     62  N   UNL A   1      46.203  25.653  28.597  1.00  0.00    -0.354 N 
ATOM     63  N   UNL A   1      45.861  29.228  29.572  1.00  0.00    -0.248 NA
ATOM     64  C   UNL A   1      46.970  31.010  30.513  1.00  0.00     0.031 C 
ATOM     65  C   UNL A   1      46.878  27.078  27.052  1.00  0.00     0.029 A 
ATOM     66  C   UNL A   1      46.879  26.845  28.421  1.00  0.00     0.049 A 
ATOM     67  H   UNL A   1      46.102  25.195  29.462  1.00  0.00     0.167 HD
ATOM     68  C   UNL A   1      47.103  28.778  29.865  1.00  0.00     0.074 A 
ATOM     69  C   UNL A   1      47.754  29.917  30.495  1.00  0.00     0.031 C 
ATOM     70  C   UNL A   1      47.500  27.510  29.567  1.00  0.00     0.031 A 
BRANCH  57  71
ATOM     71  C   UNL A   1      44.566  22.916  26.651  1.00  0.00    -0.014 A 
ATOM     72  C   UNL A   1      45.737  22.509  25.984  1.00  0.00     0.010 A 
ATOM     73  C   UNL A   1      43.428  22.106  26.452  1.00  0.00     0.010 A 
ATOM     74  C   UNL A   1      45.775  21.362  25.177  1.00  0.00     0.020 A 
ATOM     75  C   UNL A   1      43.455  20.944  25.666  1.00  0.00     0.020 A 
ATOM     76  C   UNL A   1      44.632  20.580  25.028  1.00  0.00     0.054 A 
BRANCH  76  77
ATOM     77  S   UNL A   1      44.705  19.093  23.997  1.00  0.00     0.124 S 
ATOM     78  O   UNL A   1      43.683  18.243  24.601  1.00  0.00    -0.237 OA
ATOM     79  O   UNL A   1      44.389  19.614  22.670  1.00  0.00    -0.237 OA
ATOM     80  O   UNL A   1      46.078  18.620  24.163  1.00  0.00    -0.744 OA
ENDBRANCH  76  77
ENDBRANCH  57  71
BRANCH  58  81
ATOM     81  C   UNL A   1      43.610  32.088  30.313  1.00  0.00    -0.014 A 
ATOM     82  C   UNL A   1      43.120  33.276  29.721  1.00  0.00     0.010 A 
ATOM     83  C   UNL A   1      42.803  31.447  31.276  1.00  0.00     0.010 A 
ATOM     84  C   UNL A   1      41.794  33.676  29.912  1.00  0.00     0.020 A 
ATOM     85  C   UNL A   1      41.476  31.877  31.495  1.00  0.00     0.020 A 
ATOM     86  C   UNL A   1      40.962  32.944  30.755  1.00  0.00     0.054 A 
BRANCH  86  87
ATOM     87  S   UNL A   1      39.175  33.303  30.693  1.00  0.00     0.124 S 
ATOM     88  O   UNL A   1      38.978  33.666  29.289  1.00  0.00    -0.237 OA
ATOM     89  O   UNL A   1      38.587  32.015  31.058  1.00  0.00    -0.237 OA
ATOM     90  O   UNL A   1      39.008  34.370  31.672  1.00  0.00    -0.744 OA
ENDBRANCH  86  87
ENDBRANCH  58  81
BRANCH  70  91
ATOM     91  C   UNL A   1      48.559  26.800  30.354  1.00  0.00    -0.014 A 
ATOM     92  C   UNL A   1      48.584  26.791  31.757  1.00  0.00     0.010 A 
ATOM     93  C   UNL A   1      49.476  25.964  29.682  1.00  0.00     0.010 A 
ATOM     94  C   UNL A   1      49.548  26.071  32.457  1.00  0.00     0.020 A 
ATOM     95  C   UNL A   1      50.395  25.179  30.375  1.00  0.00     0.020 A 
ATOM     96  C   UNL A   1      50.454  25.277  31.759  1.00  0.00     0.054 A 
BRANCH  96  97
ATOM     97  S   UNL A   1      51.695  24.361  32.688  1.00  0.00     0.124 S 
ATOM     98  O   UNL A   1      52.930  24.978  32.213  1.00  0.00    -0.237 OA
ATOM     99  O   UNL A   1      51.341  24.655  34.076  1.00  0.00    -0.237 OA
ATOM    100  O   UNL A   1      51.484  22.977  32.277  1.00  0.00    -0.744 OA
ENDBRANCH  96  97
ENDBRANCH  70  91
ENDBRANCH  44  45
ENDBRANCH  37  39
ENDBRANCH  36  37
ENDBRANCH  35  36
ENDBRANCH  34  35
ENDBRANCH  33  34
ENDBRANCH   1  33
TORSDOF 21
ENDMDL
MODEL 3
REMARK VINA RESULT:     -11.5      1.770      2.825
REMARK SMILES Cc1ccc(NC(=O)c2ccccc2NC(=O)[C@H]2CCCC[C@H]2C(=O)OCCOCCOC(=O)c2ccc(-c3c4nc(c(-c5ccc(S(=O)(=O)[O-])cc5)c5ccc([nH]5)c(-c5ccc(S(=O)(=O)[O-])cc5)c5nc(c(-c6ccc(S(=O)(=O)[O-])cc6)c6ccc3[nH]6)C=C5)C=C4)cc2)cc1
REMARK SMILES IDX 28 1 27 2 26 3 24 4 25 5 23 6 18 7 19 8 20 9 22 10 21 11
REMARK SMILES IDX 16 12 15 13 17 15 14 16 9 17 10 18 11 19 13 20 12 21 7 22
REMARK SMILES IDX 6 23 8 25 5 26 1 27 2 28 3 29 96 30 4 31 95 32 29 33 30 34
REMARK SMILES IDX 31 35 32 36 33 37 34 38 35 39 36 40 94 41 37 42 93 43 38 44
REMARK SMILES IDX 39 45 40 46 87 47 41 48 92 49 86 50 88 51 42 52 91 53 85 54
REMARK SMILES IDX 84 55 43 57 73 58 54 59 72 60 55 61 58 62 71 63 89 64 56 65
REMARK SMILES IDX 57 66 70 68 90 69 59 70 44 71 45 72 53 73 46 74 52 75 47 76
REMARK SMILES IDX 48 77 49 78 50 79 51 80 74 81 75 82 83 83 76 84 82 85 77 86
REMARK SMILES IDX 78 87 79 88 80 89 81 90 60 91 61 92 69 93 62 94 68 95 63 96
REMARK SMILES IDX 64 97 65 98 66 99 67 100
REMARK H PARENT 15 14 6 24 88 56 58 67
REMARK Flexibility Score: inf
ROOT
ATOM      1  C   UNL A   1      37.767  22.129  25.395  1.00  0.00     0.202 C 
ENDROOT
BRANCH   1   2
ATOM      2  C   UNL A   1      36.988  21.381  24.369  1.00  0.00     0.261 C 
BRANCH   2   3
ATOM      3  O   UNL A   1      35.581  21.578  24.416  1.00  0.00    -0.463 OA
BRANCH   3   4
ATOM      4  C   UNL A   1      35.092  22.833  24.521  1.00  0.00     0.309 C 
ATOM      5  O   UNL A   1      35.098  23.699  23.673  1.00  0.00    -0.252 OA
BRANCH   4   6
ATOM      6  C   UNL A   1      34.497  22.987  25.902  1.00  0.00     0.111 C 
ATOM      7  C   UNL A   1      33.087  23.662  25.864  1.00  0.00     0.093 C 
ATOM      8  C   UNL A   1      32.488  23.701  27.273  1.00  0.00     0.014 C 
ATOM      9  C   UNL A   1      32.558  22.340  27.978  1.00  0.00     0.001 C 
ATOM     10  C   UNL A   1      34.586  21.669  26.665  1.00  0.00     0.016 C 
ATOM     11  C   UNL A   1      33.980  21.802  28.054  1.00  0.00     0.001 C 
BRANCH   7  12
ATOM     12  C   UNL A   1      32.030  23.037  24.929  1.00  0.00     0.228 C 
ATOM     13  N   UNL A   1      31.622  23.590  23.740  1.00  0.00    -0.325 N 
ATOM     14  H   UNL A   1      31.080  22.951  23.224  1.00  0.00     0.169 HD
ATOM     15  O   UNL A   1      31.517  21.957  25.248  1.00  0.00    -0.274 OA
BRANCH  13  16
ATOM     16  C   UNL A   1      31.758  24.823  23.037  1.00  0.00     0.054 A 
ATOM     17  C   UNL A   1      31.094  26.007  23.481  1.00  0.00     0.063 A 
ATOM     18  C   UNL A   1      31.002  27.101  22.582  1.00  0.00     0.016 A 
ATOM     19  C   UNL A   1      31.606  27.088  21.331  1.00  0.00     0.001 A 
ATOM     20  C   UNL A   1      32.474  24.895  21.831  1.00  0.00     0.027 A 
ATOM     21  C   UNL A   1      32.378  25.999  20.975  1.00  0.00     0.002 A 
BRANCH  17  22
ATOM     22  C   UNL A   1      30.380  26.283  24.787  1.00  0.00     0.257 C 
ATOM     23  N   UNL A   1      30.943  26.901  25.881  1.00  0.00    -0.322 N 
ATOM     24  H   UNL A   1      30.518  26.667  26.737  1.00  0.00     0.170 HD
ATOM     25  O   UNL A   1      29.192  25.950  24.877  1.00  0.00    -0.269 OA
BRANCH  23  26
ATOM     26  C   UNL A   1      32.008  27.801  26.000  1.00  0.00     0.041 A 
ATOM     27  C   UNL A   1      34.665  30.760  27.577  1.00  0.00     0.044 C 
ATOM     28  C   UNL A   1      33.803  29.748  26.886  1.00  0.00    -0.051 A 
ATOM     29  C   UNL A   1      34.163  28.396  26.904  1.00  0.00     0.005 A 
ATOM     30  C   UNL A   1      32.601  30.124  26.279  1.00  0.00     0.005 A 
ATOM     31  C   UNL A   1      33.277  27.425  26.436  1.00  0.00     0.026 A 
ATOM     32  C   UNL A   1      31.721  29.151  25.803  1.00  0.00     0.026 A 
ENDBRANCH  23  26
ENDBRANCH  17  22
ENDBRANCH  13  16
ENDBRANCH   7  12
ENDBRANCH   4   6
ENDBRANCH   3   4
ENDBRANCH   2   3
ENDBRANCH   1   2
BRANCH   1  33
ATOM     33  O   UNL A   1      38.993  21.458  25.646  1.00  0.00    -0.374 OA
BRANCH  33  34
ATOM     34  C   UNL A   1      39.872  22.162  26.505  1.00  0.00     0.202 C 
BRANCH  34  35
ATOM     35  C   UNL A   1      39.326  23.498  27.042  1.00  0.00     0.261 C 
BRANCH  35  36
ATOM     36  O   UNL A   1      40.389  24.336  27.552  1.00  0.00    -0.460 OA
BRANCH  36  37
ATOM     37  C   UNL A   1      40.729  25.425  26.795  1.00  0.00     0.338 C 
ATOM     38  O   UNL A   1      41.248  25.349  25.695  1.00  0.00    -0.246 OA
BRANCH  37  39
ATOM     39  C   UNL A   1      40.338  26.691  27.489  1.00  0.00     0.060 A 
ATOM     40  C   UNL A   1      40.777  27.957  27.050  1.00  0.00     0.016 A 
ATOM     41  C   UNL A   1      39.730  26.571  28.731  1.00  0.00     0.016 A 
ATOM     42  C   UNL A   1      40.717  29.073  27.913  1.00  0.00     0.010 A 
ATOM     43  C   UNL A   1      39.819  27.620  29.615  1.00  0.00     0.010 A 
ATOM     44  C   UNL A   1      40.299  28.887  29.228  1.00  0.00    -0.014 A 
BRANCH  44  45
ATOM     45  C   UNL A   1      40.345  29.832  30.357  1.00  0.00     0.031 A 
ATOM     46  C   UNL A   1      39.503  31.046  30.192  1.00  0.00     0.074 A 
ATOM     47  C   UNL A   1      40.801  29.489  31.596  1.00  0.00     0.049 A 
ATOM     48  N   UNL A   1      39.444  31.998  31.047  1.00  0.00    -0.248 NA
ATOM     49  C   UNL A   1      38.651  31.304  29.023  1.00  0.00     0.031 C 
ATOM     50  C   UNL A   1      40.403  30.033  32.900  1.00  0.00     0.029 A 
ATOM     51  N   UNL A   1      41.791  28.568  31.958  1.00  0.00    -0.354 N 
ATOM     52  C   UNL A   1      38.344  32.762  30.747  1.00  0.00     0.074 A 
ATOM     53  C   UNL A   1      37.941  32.359  29.429  1.00  0.00     0.031 C 
ATOM     54  C   UNL A   1      41.311  29.689  33.832  1.00  0.00     0.029 A 
ATOM     55  C   UNL A   1      42.394  29.010  33.144  1.00  0.00     0.049 A 
ATOM     56  H   UNL A   1      42.024  27.749  31.465  1.00  0.00     0.167 HD
ATOM     57  C   UNL A   1      37.843  33.562  31.726  1.00  0.00     0.031 A 
ATOM     58  C   UNL A   1      43.723  29.296  33.155  1.00  0.00     0.031 A 
ATOM     59  C   UNL A   1      38.760  33.597  32.871  1.00  0.00     0.049 A 
ATOM     60  C   UNL A   1      43.871  30.766  33.386  1.00  0.00     0.074 A 
ATOM     61  C   UNL A   1      38.733  33.039  34.137  1.00  0.00     0.029 A 
ATOM     62  N   UNL A   1      40.081  33.982  32.641  1.00  0.00    -0.354 N 
ATOM     63  N   UNL A   1      42.897  31.604  33.155  1.00  0.00    -0.248 NA
ATOM     64  C   UNL A   1      45.032  31.406  33.987  1.00  0.00     0.031 C 
ATOM     65  C   UNL A   1      40.080  32.995  34.615  1.00  0.00     0.029 A 
ATOM     66  C   UNL A   1      40.913  33.565  33.663  1.00  0.00     0.049 A 
ATOM     67  H   UNL A   1      40.383  34.487  31.852  1.00  0.00     0.167 HD
ATOM     68  C   UNL A   1      43.220  32.826  33.637  1.00  0.00     0.074 A 
ATOM     69  C   UNL A   1      44.587  32.670  34.112  1.00  0.00     0.031 C 
ATOM     70  C   UNL A   1      42.344  33.867  33.611  1.00  0.00     0.031 A 
BRANCH  57  71
ATOM     71  C   UNL A   1      36.465  34.180  31.723  1.00  0.00    -0.014 A 
ATOM     72  C   UNL A   1      36.032  34.873  32.871  1.00  0.00     0.010 A 
ATOM     73  C   UNL A   1      35.524  34.065  30.678  1.00  0.00     0.010 A 
ATOM     74  C   UNL A   1      34.746  35.424  32.967  1.00  0.00     0.020 A 
ATOM     75  C   UNL A   1      34.242  34.631  30.750  1.00  0.00     0.020 A 
ATOM     76  C   UNL A   1      33.859  35.306  31.900  1.00  0.00     0.054 A 
BRANCH  76  77
ATOM     77  S   UNL A   1      32.209  36.042  32.037  1.00  0.00     0.124 S 
ATOM     78  O   UNL A   1      31.892  36.358  30.647  1.00  0.00    -0.237 OA
ATOM     79  O   UNL A   1      31.430  34.959  32.631  1.00  0.00    -0.237 OA
ATOM     80  O   UNL A   1      32.414  37.202  32.902  1.00  0.00    -0.744 OA
ENDBRANCH  76  77
ENDBRANCH  57  71
BRANCH  58  81
ATOM     81  C   UNL A   1      44.493  28.373  32.256  1.00  0.00    -0.014 A 
ATOM     82  C   UNL A   1      44.885  27.151  32.854  1.00  0.00     0.010 A 
ATOM     83  C   UNL A   1      44.330  28.402  30.856  1.00  0.00     0.010 A 
ATOM     84  C   UNL A   1      44.890  25.964  32.115  1.00  0.00     0.020 A 
ATOM     85  C   UNL A   1      44.374  27.206  30.107  1.00  0.00     0.020 A 
ATOM     86  C   UNL A   1      44.581  25.987  30.758  1.00  0.00     0.054 A 
BRANCH  86  87
ATOM     87  S   UNL A   1      44.265  24.389  29.939  1.00  0.00     0.124 S 
ATOM     88  O   UNL A   1      44.231  23.461  31.069  1.00  0.00    -0.237 OA
ATOM     89  O   UNL A   1      42.961  24.611  29.317  1.00  0.00    -0.237 OA
ATOM     90  O   UNL A   1      45.386  24.252  29.016  1.00  0.00    -0.744 OA
ENDBRANCH  86  87
ENDBRANCH  58  81
BRANCH  70  91
ATOM     91  C   UNL A   1      42.801  35.293  33.558  1.00  0.00    -0.014 A 
ATOM     92  C   UNL A   1      43.443  35.844  32.438  1.00  0.00     0.010 A 
ATOM     93  C   UNL A   1      42.430  36.177  34.595  1.00  0.00     0.010 A 
ATOM     94  C   UNL A   1      43.801  37.188  32.400  1.00  0.00     0.020 A 
ATOM     95  C   UNL A   1      42.714  37.539  34.532  1.00  0.00     0.020 A 
ATOM     96  C   UNL A   1      43.441  38.025  33.453  1.00  0.00     0.054 A 
BRANCH  96  97
ATOM     97  S   UNL A   1      43.921  39.759  33.382  1.00  0.00     0.124 S 
ATOM     98  O   UNL A   1      44.343  39.888  31.989  1.00  0.00    -0.237 OA
ATOM     99  O   UNL A   1      42.681  40.451  33.728  1.00  0.00    -0.237 OA
ATOM    100  O   UNL A   1      44.986  39.865  34.374  1.00  0.00    -0.744 OA
ENDBRANCH  96  97
ENDBRANCH  70  91
ENDBRANCH  44  45
ENDBRANCH  37  39
ENDBRANCH  36  37
ENDBRANCH  35  36
ENDBRANCH  34  35
ENDBRANCH  33  34
ENDBRANCH   1  33
TORSDOF 21
ENDMDL
