MODEL 1
REMARK VINA RESULT:     -10.9      0.000      0.000
REMARK SMILES CCC(CC)([NH2+]CC(=O)Nc1ccc(C)cc1)C(=O)OCCOCCOC(=O)c1ccc(-c2c3nc(c(-c4ccc(S(=O)(=O)[O-])cc4)c4ccc([nH]4)c(-c4ccc(S(=O)(=O)[O-])cc4)c4nc(c(-c5ccc(S(=O)(=O)[O-])cc5)c5ccc2[nH]5)C=C4)C=C3)cc1
REMARK SMILES IDX 22 1 21 2 20 3 18 4 19 5 3 6 2 7 1 8 4 9 5 10 6 11 7 14 8 15
REMARK SMILES IDX 9 16 10 17 11 19 12 20 17 21 13 22 16 23 14 24 15 25 23 26
REMARK SMILES IDX 24 27 25 28 26 29 27 30 28 31 29 32 30 33 88 34 31 35 87 36
REMARK SMILES IDX 32 37 33 38 34 39 81 40 35 41 86 42 80 43 82 44 36 45 85 46
REMARK SMILES IDX 79 47 78 48 37 50 67 51 48 52 66 53 49 54 52 55 65 56 83 57
REMARK SMILES IDX 50 58 51 59 64 61 84 62 53 63 38 64 39 65 47 66 40 67 46 68
REMARK SMILES IDX 41 69 42 70 43 71 44 72 45 73 68 74 69 75 77 76 70 77 76 78
REMARK SMILES IDX 71 79 72 80 73 81 74 82 75 83 54 84 55 85 63 86 56 87 62 88
REMARK SMILES IDX 57 89 58 90 59 91 60 92 61 93
REMARK H PARENT 6 12 6 13 10 18 82 49 52 60
REMARK Flexibility Score: inf
ROOT
ATOM      1  C   UNL A   1      34.615  25.109  25.347  1.00  0.00     0.202 C 
ENDROOT
BRANCH   1   2
ATOM      2  C   UNL A   1      34.618  24.213  24.142  1.00  0.00     0.261 C 
BRANCH   2   3
ATOM      3  O   UNL A   1      35.032  22.875  24.444  1.00  0.00    -0.459 OA
BRANCH   3   4
ATOM      4  C   UNL A   1      34.607  22.053  25.429  1.00  0.00     0.368 C 
ATOM      5  O   UNL A   1      35.131  21.955  26.533  1.00  0.00    -0.245 OA
BRANCH   4   6
ATOM      6  C   UNL A   1      33.186  21.285  24.977  1.00  0.00     0.194 C 
BRANCH   6   7
ATOM      7  C   UNL A   1      33.704  19.816  24.747  1.00  0.00     0.077 C 
ATOM      8  C   UNL A   1      32.783  18.704  25.312  1.00  0.00     0.011 C 
ENDBRANCH   6   7
BRANCH   6   9
ATOM      9  C   UNL A   1      32.059  21.599  23.859  1.00  0.00     0.077 C 
ATOM     10  C   UNL A   1      32.481  22.081  22.479  1.00  0.00     0.011 C 
ENDBRANCH   6   9
BRANCH   6  11
ATOM     11  N   UNL A   1      32.366  21.531  26.177  1.00  0.00    -0.324 N 
ATOM     12  H   UNL A   1      32.855  21.160  26.991  1.00  0.00     0.347 HD
ATOM     13  H   UNL A   1      31.467  21.067  26.046  1.00  0.00     0.347 HD
BRANCH  11  14
ATOM     14  C   UNL A   1      32.106  23.019  26.390  1.00  0.00     0.363 C 
BRANCH  14  15
ATOM     15  C   UNL A   1      30.650  23.771  26.311  1.00  0.00     0.279 C 
ATOM     16  O   UNL A   1      29.935  23.506  27.312  1.00  0.00    -0.268 OA
ATOM     17  N   UNL A   1      30.007  24.697  25.501  1.00  0.00    -0.321 N 
ATOM     18  H   UNL A   1      29.144  24.887  25.935  1.00  0.00     0.170 HD
BRANCH  17  19
ATOM     19  C   UNL A   1      30.042  25.511  24.298  1.00  0.00     0.041 A 
ATOM     20  C   UNL A   1      30.961  25.637  23.275  1.00  0.00     0.026 A 
ATOM     21  C   UNL A   1      28.980  26.335  24.032  1.00  0.00     0.026 A 
ATOM     22  C   UNL A   1      31.174  26.804  22.522  1.00  0.00     0.005 A 
ATOM     23  C   UNL A   1      29.187  27.558  23.357  1.00  0.00     0.005 A 
ATOM     24  C   UNL A   1      30.363  27.872  22.723  1.00  0.00    -0.051 A 
ATOM     25  C   UNL A   1      30.710  29.240  22.257  1.00  0.00     0.044 C 
ENDBRANCH  17  19
ENDBRANCH  14  15
ENDBRANCH  11  14
ENDBRANCH   6  11
ENDBRANCH   4   6
ENDBRANCH   3   4
ENDBRANCH   2   3
ENDBRANCH   1   2
BRANCH   1  26
ATOM     26  O   UNL A   1      33.972  26.299  24.923  1.00  0.00    -0.374 OA
BRANCH  26  27
ATOM     27  C   UNL A   1      33.351  27.036  25.951  1.00  0.00     0.202 C 
BRANCH  27  28
ATOM     28  C   UNL A   1      33.939  28.441  26.042  1.00  0.00     0.261 C 
BRANCH  28  29
ATOM     29  O   UNL A   1      34.227  28.731  27.429  1.00  0.00    -0.460 OA
BRANCH  29  30
ATOM     30  C   UNL A   1      34.671  29.997  27.663  1.00  0.00     0.338 C 
ATOM     31  O   UNL A   1      34.031  31.000  27.361  1.00  0.00    -0.246 OA
BRANCH  30  32
ATOM     32  C   UNL A   1      36.031  29.994  28.276  1.00  0.00     0.060 A 
ATOM     33  C   UNL A   1      37.181  30.088  27.472  1.00  0.00     0.016 A 
ATOM     34  C   UNL A   1      36.178  29.679  29.624  1.00  0.00     0.016 A 
ATOM     35  C   UNL A   1      38.449  29.741  27.976  1.00  0.00     0.010 A 
ATOM     36  C   UNL A   1      37.413  29.264  30.093  1.00  0.00     0.010 A 
ATOM     37  C   UNL A   1      38.563  29.275  29.280  1.00  0.00    -0.014 A 
BRANCH  37  38
ATOM     38  C   UNL A   1      39.782  28.757  29.930  1.00  0.00     0.031 A 
ATOM     39  C   UNL A   1      40.261  27.401  29.469  1.00  0.00     0.074 A 
ATOM     40  C   UNL A   1      40.593  29.561  30.668  1.00  0.00     0.049 A 
ATOM     41  N   UNL A   1      41.407  26.877  29.729  1.00  0.00    -0.248 NA
ATOM     42  C   UNL A   1      39.468  26.515  28.611  1.00  0.00     0.031 C 
ATOM     43  C   UNL A   1      42.001  29.331  30.917  1.00  0.00     0.029 A 
ATOM     44  N   UNL A   1      40.387  30.760  31.353  1.00  0.00    -0.354 N 
ATOM     45  C   UNL A   1      41.646  25.827  28.868  1.00  0.00     0.074 A 
ATOM     46  C   UNL A   1      40.370  25.598  28.235  1.00  0.00     0.031 C 
ATOM     47  C   UNL A   1      42.551  30.288  31.678  1.00  0.00     0.029 A 
ATOM     48  C   UNL A   1      41.442  30.945  32.281  1.00  0.00     0.049 A 
ATOM     49  H   UNL A   1      39.633  31.375  31.215  1.00  0.00     0.167 HD
ATOM     50  C   UNL A   1      42.933  25.376  28.729  1.00  0.00     0.031 A 
ATOM     51  C   UNL A   1      41.244  30.807  33.629  1.00  0.00     0.031 A 
ATOM     52  C   UNL A   1      43.832  25.975  29.748  1.00  0.00     0.049 A 
ATOM     53  C   UNL A   1      41.935  29.527  34.156  1.00  0.00     0.074 A 
ATOM     54  C   UNL A   1      45.020  26.693  29.742  1.00  0.00     0.029 A 
ATOM     55  N   UNL A   1      43.372  26.051  31.063  1.00  0.00    -0.354 N 
ATOM     56  N   UNL A   1      42.248  28.503  33.387  1.00  0.00    -0.248 NA
ATOM     57  C   UNL A   1      42.500  29.353  35.488  1.00  0.00     0.031 C 
ATOM     58  C   UNL A   1      45.209  27.258  31.045  1.00  0.00     0.029 A 
ATOM     59  C   UNL A   1      44.178  26.825  31.867  1.00  0.00     0.049 A 
ATOM     60  H   UNL A   1      42.558  25.598  31.381  1.00  0.00     0.167 HD
ATOM     61  C   UNL A   1      43.193  27.714  33.978  1.00  0.00     0.074 A 
ATOM     62  C   UNL A   1      43.188  28.198  35.353  1.00  0.00     0.031 C 
ATOM     63  C   UNL A   1      43.979  26.799  33.316  1.00  0.00     0.031 A 
BRANCH  50  64
ATOM     64  C   UNL A   1      43.453  24.490  27.591  1.00  0.00    -0.014 A 
ATOM     65  C   UNL A   1      44.530  23.608  27.839  1.00  0.00     0.010 A 
ATOM     66  C   UNL A   1      42.973  24.483  26.265  1.00  0.00     0.010 A 
ATOM     67  C   UNL A   1      45.088  22.778  26.850  1.00  0.00     0.020 A 
ATOM     68  C   UNL A   1      43.511  23.643  25.262  1.00  0.00     0.020 A 
ATOM     69  C   UNL A   1      44.566  22.789  25.564  1.00  0.00     0.054 A 
BRANCH  69  70
ATOM     70  S   UNL A   1      45.254  21.648  24.332  1.00  0.00     0.124 S 
ATOM     71  O   UNL A   1      44.874  20.342  24.864  1.00  0.00    -0.237 OA
ATOM     72  O   UNL A   1      44.566  22.052  23.108  1.00  0.00    -0.237 OA
ATOM     73  O   UNL A   1      46.688  21.932  24.357  1.00  0.00    -0.744 OA
ENDBRANCH  69  70
ENDBRANCH  50  64
BRANCH  51  74
ATOM     74  C   UNL A   1      39.995  31.548  34.001  1.00  0.00    -0.014 A 
ATOM     75  C   UNL A   1      38.880  30.711  34.300  1.00  0.00     0.010 A 
ATOM     76  C   UNL A   1      40.119  32.758  34.708  1.00  0.00     0.010 A 
ATOM     77  C   UNL A   1      38.093  30.941  35.438  1.00  0.00     0.020 A 
ATOM     78  C   UNL A   1      39.315  32.994  35.842  1.00  0.00     0.020 A 
ATOM     79  C   UNL A   1      38.364  32.048  36.239  1.00  0.00     0.054 A 
BRANCH  79  80
ATOM     80  S   UNL A   1      37.653  32.087  37.919  1.00  0.00     0.124 S 
ATOM     81  O   UNL A   1      36.595  33.082  37.790  1.00  0.00    -0.237 OA
ATOM     82  O   UNL A   1      37.205  30.706  38.103  1.00  0.00    -0.237 OA
ATOM     83  O   UNL A   1      38.781  32.478  38.758  1.00  0.00    -0.744 OA
ENDBRANCH  79  80
ENDBRANCH  51  74
BRANCH  63  84
ATOM     84  C   UNL A   1      44.589  25.609  33.997  1.00  0.00    -0.014 A 
ATOM     85  C   UNL A   1      43.875  24.602  34.635  1.00  0.00     0.010 A 
ATOM     86  C   UNL A   1      46.004  25.480  33.946  1.00  0.00     0.010 A 
ATOM     87  C   UNL A   1      44.523  23.426  35.018  1.00  0.00     0.020 A 
ATOM     88  C   UNL A   1      46.666  24.339  34.362  1.00  0.00     0.020 A 
ATOM     89  C   UNL A   1      45.905  23.287  34.835  1.00  0.00     0.054 A 
BRANCH  89  90
ATOM     90  S   UNL A   1      46.697  21.711  35.190  1.00  0.00     0.124 S 
ATOM     91  O   UNL A   1      48.004  22.123  35.694  1.00  0.00    -0.237 OA
ATOM     92  O   UNL A   1      45.790  21.143  36.184  1.00  0.00    -0.237 OA
ATOM     93  O   UNL A   1      46.715  21.029  33.899  1.00  0.00    -0.744 OA
ENDBRANCH  89  90
ENDBRANCH  63  84
ENDBRANCH  37  38
ENDBRANCH  30  32
ENDBRANCH  29  30
ENDBRANCH  28  29
ENDBRANCH  27  28
ENDBRANCH  26  27
ENDBRANCH   1  26
TORSDOF 23
ENDMDL
MODEL 2
REMARK VINA RESULT:     -10.2      4.243     10.210
REMARK SMILES CCC(CC)([NH2+]CC(=O)Nc1ccc(C)cc1)C(=O)OCCOCCOC(=O)c1ccc(-c2c3nc(c(-c4ccc(S(=O)(=O)[O-])cc4)c4ccc([nH]4)c(-c4ccc(S(=O)(=O)[O-])cc4)c4nc(c(-c5ccc(S(=O)(=O)[O-])cc5)c5ccc2[nH]5)C=C4)C=C3)cc1
REMARK SMILES IDX 22 1 21 2 20 3 18 4 19 5 3 6 2 7 1 8 4 9 5 10 6 11 7 14 8 15
REMARK SMILES IDX 9 16 10 17 11 19 12 20 17 21 13 22 16 23 14 24 15 25 23 26
REMARK SMILES IDX 24 27 25 28 26 29 27 30 28 31 29 32 30 33 88 34 31 35 87 36
REMARK SMILES IDX 32 37 33 38 34 39 81 40 35 41 86 42 80 43 82 44 36 45 85 46
REMARK SMILES IDX 79 47 78 48 37 50 67 51 48 52 66 53 49 54 52 55 65 56 83 57
REMARK SMILES IDX 50 58 51 59 64 61 84 62 53 63 38 64 39 65 47 66 40 67 46 68
REMARK SMILES IDX 41 69 42 70 43 71 44 72 45 73 68 74 69 75 77 76 70 77 76 78
REMARK SMILES IDX 71 79 72 80 73 81 74 82 75 83 54 84 55 85 63 86 56 87 62 88
REMARK SMILES IDX 57 89 58 90 59 91 60 92 61 93
REMARK H PARENT 6 12 6 13 10 18 82 49 52 60
REMARK Flexibility Score: inf
ROOT
ATOM      1  C   UNL A   1      36.329  23.906  25.780  1.00  0.00     0.202 C 
ENDROOT
BRANCH   1   2
ATOM      2  C   UNL A   1      35.701  23.664  24.438  1.00  0.00     0.261 C 
BRANCH   2   3
ATOM      3  O   UNL A   1      34.345  24.123  24.366  1.00  0.00    -0.459 OA
BRANCH   3   4
ATOM      4  C   UNL A   1      33.544  24.249  23.284  1.00  0.00     0.368 C 
ATOM      5  O   UNL A   1      33.086  23.313  22.640  1.00  0.00    -0.245 OA
BRANCH   4   6
ATOM      6  C   UNL A   1      33.158  25.862  23.028  1.00  0.00     0.194 C 
BRANCH   6   7
ATOM      7  C   UNL A   1      33.403  25.982  21.477  1.00  0.00     0.077 C 
ATOM      8  C   UNL A   1      32.116  25.972  20.611  1.00  0.00     0.011 C 
ENDBRANCH   6   7
BRANCH   6   9
ATOM      9  C   UNL A   1      33.638  27.244  23.719  1.00  0.00     0.077 C 
ATOM     10  C   UNL A   1      33.596  28.538  22.921  1.00  0.00     0.011 C 
ENDBRANCH   6   9
BRANCH   6  11
ATOM     11  N   UNL A   1      31.759  25.869  23.492  1.00  0.00    -0.324 N 
ATOM     12  H   UNL A   1      31.445  24.906  23.610  1.00  0.00     0.347 HD
ATOM     13  H   UNL A   1      31.197  26.355  22.794  1.00  0.00     0.347 HD
BRANCH  11  14
ATOM     14  C   UNL A   1      31.606  26.605  24.820  1.00  0.00     0.363 C 
BRANCH  14  15
ATOM     15  C   UNL A   1      31.283  25.924  26.277  1.00  0.00     0.279 C 
ATOM     16  O   UNL A   1      30.647  26.710  27.027  1.00  0.00    -0.268 OA
ATOM     17  N   UNL A   1      31.426  24.690  26.895  1.00  0.00    -0.321 N 
ATOM     18  H   UNL A   1      30.992  24.772  27.774  1.00  0.00     0.170 HD
BRANCH  17  19
ATOM     19  C   UNL A   1      31.929  23.328  26.821  1.00  0.00     0.041 A 
ATOM     20  C   UNL A   1      32.911  22.651  27.516  1.00  0.00     0.026 A 
ATOM     21  C   UNL A   1      31.359  22.466  25.921  1.00  0.00     0.026 A 
ATOM     22  C   UNL A   1      33.681  21.595  27.001  1.00  0.00     0.005 A 
ATOM     23  C   UNL A   1      32.140  21.453  25.322  1.00  0.00     0.005 A 
ATOM     24  C   UNL A   1      33.393  21.115  25.765  1.00  0.00    -0.051 A 
ATOM     25  C   UNL A   1      34.341  20.268  24.993  1.00  0.00     0.044 C 
ENDBRANCH  17  19
ENDBRANCH  14  15
ENDBRANCH  11  14
ENDBRANCH   6  11
ENDBRANCH   4   6
ENDBRANCH   3   4
ENDBRANCH   2   3
ENDBRANCH   1   2
BRANCH   1  26
ATOM     26  O   UNL A   1      37.017  22.707  26.089  1.00  0.00    -0.374 OA
BRANCH  26  27
ATOM     27  C   UNL A   1      37.721  22.132  25.013  1.00  0.00     0.202 C 
BRANCH  27  28
ATOM     28  C   UNL A   1      38.629  21.007  25.497  1.00  0.00     0.261 C 
BRANCH  28  29
ATOM     29  O   UNL A   1      39.292  21.436  26.708  1.00  0.00    -0.460 OA
BRANCH  29  30
ATOM     30  C   UNL A   1      40.529  21.972  26.519  1.00  0.00     0.338 C 
ATOM     31  O   UNL A   1      41.488  21.323  26.111  1.00  0.00    -0.246 OA
BRANCH  30  32
ATOM     32  C   UNL A   1      40.566  23.411  26.913  1.00  0.00     0.060 A 
ATOM     33  C   UNL A   1      40.377  24.422  25.954  1.00  0.00     0.016 A 
ATOM     34  C   UNL A   1      41.003  23.765  28.186  1.00  0.00     0.016 A 
ATOM     35  C   UNL A   1      40.749  25.754  26.222  1.00  0.00     0.010 A 
ATOM     36  C   UNL A   1      41.439  25.059  28.418  1.00  0.00     0.010 A 
ATOM     37  C   UNL A   1      41.332  26.069  27.442  1.00  0.00    -0.014 A 
BRANCH  37  38
ATOM     38  C   UNL A   1      41.888  27.376  27.846  1.00  0.00     0.031 A 
ATOM     39  C   UNL A   1      40.886  28.474  28.110  1.00  0.00     0.074 A 
ATOM     40  C   UNL A   1      43.180  27.507  28.249  1.00  0.00     0.049 A 
ATOM     41  N   UNL A   1      41.134  29.598  28.686  1.00  0.00    -0.248 NA
ATOM     42  C   UNL A   1      39.464  28.368  27.769  1.00  0.00     0.031 C 
ATOM     43  C   UNL A   1      43.686  28.555  29.111  1.00  0.00     0.029 A 
ATOM     44  N   UNL A   1      44.336  26.761  28.017  1.00  0.00    -0.354 N 
ATOM     45  C   UNL A   1      39.953  30.187  29.087  1.00  0.00     0.074 A 
ATOM     46  C   UNL A   1      38.934  29.410  28.425  1.00  0.00     0.031 C 
ATOM     47  C   UNL A   1      45.002  28.438  29.344  1.00  0.00     0.029 A 
ATOM     48  C   UNL A   1      45.466  27.559  28.325  1.00  0.00     0.049 A 
ATOM     49  H   UNL A   1      44.362  25.833  27.693  1.00  0.00     0.167 HD
ATOM     50  C   UNL A   1      40.006  31.185  30.025  1.00  0.00     0.031 A 
ATOM     51  C   UNL A   1      46.281  28.056  27.343  1.00  0.00     0.031 A 
ATOM     52  C   UNL A   1      41.403  31.623  30.273  1.00  0.00     0.049 A 
ATOM     53  C   UNL A   1      46.105  29.587  27.209  1.00  0.00     0.074 A 
ATOM     54  C   UNL A   1      42.235  31.751  31.377  1.00  0.00     0.029 A 
ATOM     55  N   UNL A   1      42.238  31.805  29.170  1.00  0.00    -0.354 N 
ATOM     56  N   UNL A   1      45.032  30.232  27.620  1.00  0.00    -0.248 NA
ATOM     57  C   UNL A   1      47.142  30.530  26.807  1.00  0.00     0.031 C 
ATOM     58  C   UNL A   1      43.577  31.925  30.909  1.00  0.00     0.029 A 
ATOM     59  C   UNL A   1      43.558  31.981  29.523  1.00  0.00     0.049 A 
ATOM     60  H   UNL A   1      41.918  31.806  28.240  1.00  0.00     0.167 HD
ATOM     61  C   UNL A   1      45.287  31.565  27.774  1.00  0.00     0.074 A 
ATOM     62  C   UNL A   1      46.567  31.719  27.095  1.00  0.00     0.031 C 
ATOM     63  C   UNL A   1      44.514  32.432  28.512  1.00  0.00     0.031 A 
BRANCH  50  64
ATOM     64  C   UNL A   1      38.822  31.705  30.846  1.00  0.00    -0.014 A 
ATOM     65  C   UNL A   1      38.065  32.795  30.356  1.00  0.00     0.010 A 
ATOM     66  C   UNL A   1      38.409  31.214  32.102  1.00  0.00     0.010 A 
ATOM     67  C   UNL A   1      36.979  33.353  31.054  1.00  0.00     0.020 A 
ATOM     68  C   UNL A   1      37.309  31.752  32.810  1.00  0.00     0.020 A 
ATOM     69  C   UNL A   1      36.596  32.820  32.277  1.00  0.00     0.054 A 
BRANCH  69  70
ATOM     70  S   UNL A   1      35.141  33.510  33.114  1.00  0.00     0.124 S 
ATOM     71  O   UNL A   1      35.430  33.243  34.521  1.00  0.00    -0.237 OA
ATOM     72  O   UNL A   1      35.186  34.915  32.719  1.00  0.00    -0.237 OA
ATOM     73  O   UNL A   1      34.025  32.747  32.557  1.00  0.00    -0.744 OA
ENDBRANCH  69  70
ENDBRANCH  50  64
BRANCH  51  74
ATOM     74  C   UNL A   1      46.585  26.952  26.377  1.00  0.00    -0.014 A 
ATOM     75  C   UNL A   1      47.252  25.830  26.954  1.00  0.00     0.010 A 
ATOM     76  C   UNL A   1      45.681  26.712  25.326  1.00  0.00     0.010 A 
ATOM     77  C   UNL A   1      46.824  24.522  26.683  1.00  0.00     0.020 A 
ATOM     78  C   UNL A   1      45.265  25.394  25.045  1.00  0.00     0.020 A 
ATOM     79  C   UNL A   1      45.784  24.321  25.778  1.00  0.00     0.054 A 
BRANCH  79  80
ATOM     80  S   UNL A   1      44.950  22.698  25.775  1.00  0.00     0.124 S 
ATOM     81  O   UNL A   1      44.098  22.784  24.595  1.00  0.00    -0.237 OA
ATOM     82  O   UNL A   1      46.075  21.766  25.678  1.00  0.00    -0.237 OA
ATOM     83  O   UNL A   1      44.249  22.672  27.054  1.00  0.00    -0.744 OA
ENDBRANCH  79  80
ENDBRANCH  51  74
BRANCH  63  84
ATOM     84  C   UNL A   1      44.476  33.910  28.250  1.00  0.00    -0.014 A 
ATOM     85  C   UNL A   1      43.597  34.543  27.380  1.00  0.00     0.010 A 
ATOM     86  C   UNL A   1      45.380  34.727  28.982  1.00  0.00     0.010 A 
ATOM     87  C   UNL A   1      43.485  35.936  27.397  1.00  0.00     0.020 A 
ATOM     88  C   UNL A   1      45.312  36.109  28.975  1.00  0.00     0.020 A 
ATOM     89  C   UNL A   1      44.311  36.702  28.229  1.00  0.00     0.054 A 
BRANCH  89  90
ATOM     90  S   UNL A   1      44.049  38.478  28.353  1.00  0.00     0.124 S 
ATOM     91  O   UNL A   1      43.283  38.596  29.591  1.00  0.00    -0.237 OA
ATOM     92  O   UNL A   1      45.421  38.975  28.412  1.00  0.00    -0.237 OA
ATOM     93  O   UNL A   1      43.316  38.810  27.135  1.00  0.00    -0.744 OA
ENDBRANCH  89  90
ENDBRANCH  63  84
ENDBRANCH  37  38
ENDBRANCH  30  32
ENDBRANCH  29  30
ENDBRANCH  28  29
ENDBRANCH  27  28
ENDBRANCH  26  27
ENDBRANCH   1  26
TORSDOF 23
ENDMDL
MODEL 3
REMARK VINA RESULT:      -9.8      4.302     10.019
REMARK SMILES CCC(CC)([NH2+]CC(=O)Nc1ccc(C)cc1)C(=O)OCCOCCOC(=O)c1ccc(-c2c3nc(c(-c4ccc(S(=O)(=O)[O-])cc4)c4ccc([nH]4)c(-c4ccc(S(=O)(=O)[O-])cc4)c4nc(c(-c5ccc(S(=O)(=O)[O-])cc5)c5ccc2[nH]5)C=C4)C=C3)cc1
REMARK SMILES IDX 22 1 21 2 20 3 18 4 19 5 3 6 2 7 1 8 4 9 5 10 6 11 7 14 8 15
REMARK SMILES IDX 9 16 10 17 11 19 12 20 17 21 13 22 16 23 14 24 15 25 23 26
REMARK SMILES IDX 24 27 25 28 26 29 27 30 28 31 29 32 30 33 88 34 31 35 87 36
REMARK SMILES IDX 32 37 33 38 34 39 81 40 35 41 86 42 80 43 82 44 36 45 85 46
REMARK SMILES IDX 79 47 78 48 37 50 67 51 48 52 66 53 49 54 52 55 65 56 83 57
REMARK SMILES IDX 50 58 51 59 64 61 84 62 53 63 38 64 39 65 47 66 40 67 46 68
REMARK SMILES IDX 41 69 42 70 43 71 44 72 45 73 68 74 69 75 77 76 70 77 76 78
REMARK SMILES IDX 71 79 72 80 73 81 74 82 75 83 54 84 55 85 63 86 56 87 62 88
REMARK SMILES IDX 57 89 58 90 59 91 60 92 61 93
REMARK H PARENT 6 12 6 13 10 18 82 49 52 60
REMARK Flexibility Score: inf
ROOT
ATOM      1  C   UNL A   1      36.948  23.978  25.824  1.00  0.00     0.202 C 
ENDROOT
BRANCH   1   2
ATOM      2  C   UNL A   1      36.153  23.727  24.575  1.00  0.00     0.261 C 
BRANCH   2   3
ATOM      3  O   UNL A   1      34.821  24.251  24.648  1.00  0.00    -0.459 OA
BRANCH   3   4
ATOM      4  C   UNL A   1      33.672  23.615  24.968  1.00  0.00     0.368 C 
ATOM      5  O   UNL A   1      33.420  23.136  26.067  1.00  0.00    -0.245 OA
BRANCH   4   6
ATOM      6  C   UNL A   1      32.588  23.689  23.690  1.00  0.00     0.194 C 
BRANCH   6   7
ATOM      7  C   UNL A   1      33.171  22.576  22.741  1.00  0.00     0.077 C 
ATOM      8  C   UNL A   1      32.158  21.480  22.322  1.00  0.00     0.011 C 
ENDBRANCH   6   7
BRANCH   6   9
ATOM      9  C   UNL A   1      32.041  24.899  22.763  1.00  0.00     0.077 C 
ATOM     10  C   UNL A   1      32.997  25.621  21.827  1.00  0.00     0.011 C 
ENDBRANCH   6   9
BRANCH   6  11
ATOM     11  N   UNL A   1      31.332  23.382  24.397  1.00  0.00    -0.324 N 
ATOM     12  H   UNL A   1      31.556  22.971  25.303  1.00  0.00     0.347 HD
ATOM     13  H   UNL A   1      30.796  22.732  23.822  1.00  0.00     0.347 HD
BRANCH  11  14
ATOM     14  C   UNL A   1      30.484  24.632  24.616  1.00  0.00     0.363 C 
BRANCH  14  15
ATOM     15  C   UNL A   1      30.326  25.464  26.021  1.00  0.00     0.279 C 
ATOM     16  O   UNL A   1      29.658  24.819  26.871  1.00  0.00    -0.268 OA
ATOM     17  N   UNL A   1      30.796  26.642  26.583  1.00  0.00    -0.321 N 
ATOM     18  H   UNL A   1      30.462  26.657  27.508  1.00  0.00     0.170 HD
BRANCH  17  19
ATOM     19  C   UNL A   1      31.565  27.864  26.413  1.00  0.00     0.041 A 
ATOM     20  C   UNL A   1      32.637  28.402  27.097  1.00  0.00     0.026 A 
ATOM     21  C   UNL A   1      31.245  28.702  25.376  1.00  0.00     0.026 A 
ATOM     22  C   UNL A   1      32.906  29.776  27.221  1.00  0.00     0.005 A 
ATOM     23  C   UNL A   1      31.422  30.096  25.515  1.00  0.00     0.005 A 
ATOM     24  C   UNL A   1      32.131  30.661  26.546  1.00  0.00    -0.051 A 
ATOM     25  C   UNL A   1      32.095  32.110  26.875  1.00  0.00     0.044 C 
ENDBRANCH  17  19
ENDBRANCH  14  15
ENDBRANCH  11  14
ENDBRANCH   6  11
ENDBRANCH   4   6
ENDBRANCH   3   4
ENDBRANCH   2   3
ENDBRANCH   1   2
BRANCH   1  26
ATOM     26  O   UNL A   1      37.294  22.691  26.307  1.00  0.00    -0.374 OA
BRANCH  26  27
ATOM     27  C   UNL A   1      37.639  21.756  25.312  1.00  0.00     0.202 C 
BRANCH  27  28
ATOM     28  C   UNL A   1      38.859  20.942  25.731  1.00  0.00     0.261 C 
BRANCH  28  29
ATOM     29  O   UNL A   1      39.512  21.621  26.827  1.00  0.00    -0.460 OA
BRANCH  29  30
ATOM     30  C   UNL A   1      40.712  22.181  26.512  1.00  0.00     0.338 C 
ATOM     31  O   UNL A   1      41.664  21.536  26.082  1.00  0.00    -0.246 OA
BRANCH  30  32
ATOM     32  C   UNL A   1      40.724  23.645  26.804  1.00  0.00     0.060 A 
ATOM     33  C   UNL A   1      40.852  24.582  25.764  1.00  0.00     0.016 A 
ATOM     34  C   UNL A   1      40.828  24.083  28.121  1.00  0.00     0.016 A 
ATOM     35  C   UNL A   1      41.213  25.917  26.032  1.00  0.00     0.010 A 
ATOM     36  C   UNL A   1      41.258  25.375  28.374  1.00  0.00     0.010 A 
ATOM     37  C   UNL A   1      41.470  26.308  27.340  1.00  0.00    -0.014 A 
BRANCH  37  38
ATOM     38  C   UNL A   1      41.971  27.621  27.788  1.00  0.00     0.031 A 
ATOM     39  C   UNL A   1      40.927  28.682  28.043  1.00  0.00     0.074 A 
ATOM     40  C   UNL A   1      43.244  27.784  28.235  1.00  0.00     0.049 A 
ATOM     41  N   UNL A   1      41.121  29.801  28.650  1.00  0.00    -0.248 NA
ATOM     42  C   UNL A   1      39.520  28.539  27.654  1.00  0.00     0.031 C 
ATOM     43  C   UNL A   1      43.690  28.827  29.135  1.00  0.00     0.029 A 
ATOM     44  N   UNL A   1      44.430  27.080  28.026  1.00  0.00    -0.354 N 
ATOM     45  C   UNL A   1      39.909  30.343  29.025  1.00  0.00     0.074 A 
ATOM     46  C   UNL A   1      38.937  29.550  28.315  1.00  0.00     0.031 C 
ATOM     47  C   UNL A   1      45.000  28.746  29.408  1.00  0.00     0.029 A 
ATOM     48  C   UNL A   1      45.525  27.905  28.386  1.00  0.00     0.049 A 
ATOM     49  H   UNL A   1      44.496  26.160  27.683  1.00  0.00     0.167 HD
ATOM     50  C   UNL A   1      39.901  31.322  29.985  1.00  0.00     0.031 A 
ATOM     51  C   UNL A   1      46.354  28.448  27.442  1.00  0.00     0.031 A 
ATOM     52  C   UNL A   1      41.275  31.797  30.287  1.00  0.00     0.049 A 
ATOM     53  C   UNL A   1      46.133  29.976  27.335  1.00  0.00     0.074 A 
ATOM     54  C   UNL A   1      42.067  31.926  31.420  1.00  0.00     0.029 A 
ATOM     55  N   UNL A   1      42.138  32.029  29.216  1.00  0.00    -0.354 N 
ATOM     56  N   UNL A   1      45.028  30.578  27.724  1.00  0.00    -0.248 NA
ATOM     57  C   UNL A   1      47.152  30.959  26.987  1.00  0.00     0.031 C 
ATOM     58  C   UNL A   1      43.418  32.152  31.000  1.00  0.00     0.029 A 
ATOM     59  C   UNL A   1      43.440  32.238  29.615  1.00  0.00     0.049 A 
ATOM     60  H   UNL A   1      41.847  32.041  28.277  1.00  0.00     0.167 HD
ATOM     61  C   UNL A   1      45.235  31.915  27.915  1.00  0.00     0.074 A 
ATOM     62  C   UNL A   1      46.531  32.123  27.280  1.00  0.00     0.031 C 
ATOM     63  C   UNL A   1      44.413  32.741  28.645  1.00  0.00     0.031 A 
BRANCH  50  64
ATOM     64  C   UNL A   1      38.676  31.786  30.779  1.00  0.00    -0.014 A 
ATOM     65  C   UNL A   1      38.094  33.041  30.482  1.00  0.00     0.010 A 
ATOM     66  C   UNL A   1      38.061  31.083  31.836  1.00  0.00     0.010 A 
ATOM     67  C   UNL A   1      36.985  33.558  31.175  1.00  0.00     0.020 A 
ATOM     68  C   UNL A   1      36.935  31.580  32.532  1.00  0.00     0.020 A 
ATOM     69  C   UNL A   1      36.400  32.818  32.193  1.00  0.00     0.054 A 
BRANCH  69  70
ATOM     70  S   UNL A   1      34.921  33.477  33.014  1.00  0.00     0.124 S 
ATOM     71  O   UNL A   1      33.846  32.704  32.396  1.00  0.00    -0.237 OA
ATOM     72  O   UNL A   1      35.181  33.179  34.420  1.00  0.00    -0.237 OA
ATOM     73  O   UNL A   1      34.937  34.898  32.670  1.00  0.00    -0.744 OA
ENDBRANCH  69  70
ENDBRANCH  50  64
BRANCH  51  74
ATOM     74  C   UNL A   1      46.723  27.376  26.463  1.00  0.00    -0.014 A 
ATOM     75  C   UNL A   1      47.357  26.238  27.046  1.00  0.00     0.010 A 
ATOM     76  C   UNL A   1      45.887  27.166  25.351  1.00  0.00     0.010 A 
ATOM     77  C   UNL A   1      46.953  24.939  26.708  1.00  0.00     0.020 A 
ATOM     78  C   UNL A   1      45.496  25.857  25.003  1.00  0.00     0.020 A 
ATOM     79  C   UNL A   1      45.973  24.762  25.733  1.00  0.00     0.054 A 
BRANCH  79  80
ATOM     80  S   UNL A   1      45.149  23.138  25.628  1.00  0.00     0.124 S 
ATOM     81  O   UNL A   1      44.383  23.094  26.868  1.00  0.00    -0.237 OA
ATOM     82  O   UNL A   1      44.362  23.264  24.400  1.00  0.00    -0.237 OA
ATOM     83  O   UNL A   1      46.260  22.196  25.545  1.00  0.00    -0.744 OA
ENDBRANCH  79  80
ENDBRANCH  51  74
BRANCH  63  84
ATOM     84  C   UNL A   1      44.337  34.222  28.413  1.00  0.00    -0.014 A 
ATOM     85  C   UNL A   1      43.304  34.873  27.750  1.00  0.00     0.010 A 
ATOM     86  C   UNL A   1      45.379  35.023  28.954  1.00  0.00     0.010 A 
ATOM     87  C   UNL A   1      43.212  36.266  27.805  1.00  0.00     0.020 A 
ATOM     88  C   UNL A   1      45.324  36.406  28.977  1.00  0.00     0.020 A 
ATOM     89  C   UNL A   1      44.198  37.016  28.459  1.00  0.00     0.054 A 
BRANCH  89  90
ATOM     90  S   UNL A   1      43.984  38.792  28.654  1.00  0.00     0.124 S 
ATOM     91  O   UNL A   1      42.532  38.924  28.740  1.00  0.00    -0.237 OA
ATOM     92  O   UNL A   1      44.714  39.042  29.894  1.00  0.00    -0.237 OA
ATOM     93  O   UNL A   1      44.588  39.353  27.450  1.00  0.00    -0.744 OA
ENDBRANCH  89  90
ENDBRANCH  63  84
ENDBRANCH  37  38
ENDBRANCH  30  32
ENDBRANCH  29  30
ENDBRANCH  28  29
ENDBRANCH  27  28
ENDBRANCH  26  27
ENDBRANCH   1  26
TORSDOF 23
ENDMDL
