MODEL 1
REMARK VINA RESULT:     -11.7      0.000      0.000
REMARK SMILES O=C(OCCOCCOC(=O)c1cccn1CC(=O)N1CCc2ccccc2C1)c1ccc(-c2c3nc(c(-c4ccc(S(=O)(=O)[O-])cc4)c4ccc([nH]4)c(-c4ccc(S(=O)(=O)[O-])cc4)c4nc(c(-c5ccc(S(=O)(=O)[O-])cc5)c5ccc2[nH]5)C=C4)C=C3)cc1
REMARK SMILES IDX 6 1 5 2 4 3 3 4 2 5 1 6 30 7 31 8 89 9 32 10 88 11 33 12
REMARK SMILES IDX 34 13 35 14 82 15 36 16 87 17 81 18 83 19 37 20 86 21 80 22
REMARK SMILES IDX 79 23 38 25 68 26 49 27 67 28 50 29 53 30 66 31 84 32 51 33
REMARK SMILES IDX 52 34 65 36 85 37 54 38 39 39 40 40 48 41 41 42 47 43 42 44
REMARK SMILES IDX 43 45 44 46 45 47 46 48 69 49 70 50 78 51 71 52 77 53 72 54
REMARK SMILES IDX 73 55 74 56 75 57 76 58 55 59 56 60 64 61 57 62 63 63 58 64
REMARK SMILES IDX 59 65 60 66 61 67 62 68 7 69 8 70 9 71 10 72 11 73 12 74
REMARK SMILES IDX 13 75 16 76 14 77 15 78 17 79 18 80 19 81 20 82 21 83 29 84
REMARK SMILES IDX 22 85 28 86 23 87 27 88 24 89 26 90 25 91
REMARK H PARENT 83 24 53 35
REMARK Flexibility Score: inf
ROOT
ATOM      1  O   UNL A   1      38.275  21.726  25.324  1.00  0.00    -0.374 OA
ENDROOT
BRANCH   1   2
ATOM      2  C   UNL A   1      39.468  21.140  25.818  1.00  0.00     0.202 C 
BRANCH   2   3
ATOM      3  C   UNL A   1      39.473  19.627  26.022  1.00  0.00     0.261 C 
BRANCH   3   4
ATOM      4  O   UNL A   1      40.640  18.985  25.493  1.00  0.00    -0.460 OA
BRANCH   4   5
ATOM      5  C   UNL A   1      41.890  18.947  26.026  1.00  0.00     0.338 C 
ATOM      6  O   UNL A   1      42.511  17.888  26.059  1.00  0.00    -0.246 OA
BRANCH   5   7
ATOM      7  C   UNL A   1      42.580  20.201  26.355  1.00  0.00     0.060 A 
ATOM      8  C   UNL A   1      42.617  20.728  27.639  1.00  0.00     0.016 A 
ATOM      9  C   UNL A   1      43.036  20.954  25.267  1.00  0.00     0.016 A 
ATOM     10  C   UNL A   1      42.660  22.089  27.785  1.00  0.00     0.010 A 
ATOM     11  C   UNL A   1      43.275  22.303  25.432  1.00  0.00     0.010 A 
ATOM     12  C   UNL A   1      42.994  22.870  26.674  1.00  0.00    -0.014 A 
BRANCH  12  13
ATOM     13  C   UNL A   1      43.395  24.239  26.985  1.00  0.00     0.031 A 
ATOM     14  C   UNL A   1      42.103  25.054  27.228  1.00  0.00     0.074 A 
ATOM     15  C   UNL A   1      44.730  24.519  26.888  1.00  0.00     0.049 A 
ATOM     16  N   UNL A   1      41.816  26.264  26.872  1.00  0.00    -0.248 NA
ATOM     17  C   UNL A   1      40.885  24.364  27.770  1.00  0.00     0.031 C 
ATOM     18  C   UNL A   1      45.805  23.542  26.581  1.00  0.00     0.029 A 
ATOM     19  N   UNL A   1      45.461  25.675  27.015  1.00  0.00    -0.354 N 
ATOM     20  C   UNL A   1      40.516  26.543  27.347  1.00  0.00     0.074 A 
ATOM     21  C   UNL A   1      39.928  25.291  27.698  1.00  0.00     0.031 C 
ATOM     22  C   UNL A   1      47.009  24.156  26.473  1.00  0.00     0.029 A 
ATOM     23  C   UNL A   1      46.848  25.575  26.723  1.00  0.00     0.049 A 
ATOM     24  H   UNL A   1      45.048  26.525  27.293  1.00  0.00     0.167 HD
ATOM     25  C   UNL A   1      40.087  27.808  27.625  1.00  0.00     0.031 A 
ATOM     26  C   UNL A   1      47.770  26.588  26.651  1.00  0.00     0.031 A 
ATOM     27  C   UNL A   1      41.135  28.731  27.342  1.00  0.00     0.049 A 
ATOM     28  C   UNL A   1      47.043  27.788  27.103  1.00  0.00     0.074 A 
ATOM     29  C   UNL A   1      41.696  29.151  26.164  1.00  0.00     0.029 A 
ATOM     30  N   UNL A   1      42.018  28.956  28.379  1.00  0.00    -0.354 N 
ATOM     31  N   UNL A   1      46.648  28.009  28.320  1.00  0.00    -0.248 NA
ATOM     32  C   UNL A   1      46.621  28.773  26.098  1.00  0.00     0.031 C 
ATOM     33  C   UNL A   1      43.077  29.109  26.452  1.00  0.00     0.029 A 
ATOM     34  C   UNL A   1      43.275  28.962  27.832  1.00  0.00     0.049 A 
ATOM     35  H   UNL A   1      41.789  29.086  29.328  1.00  0.00     0.167 HD
ATOM     36  C   UNL A   1      45.627  28.907  28.136  1.00  0.00     0.074 A 
ATOM     37  C   UNL A   1      45.881  29.565  26.869  1.00  0.00     0.031 C 
ATOM     38  C   UNL A   1      44.405  28.661  28.682  1.00  0.00     0.031 A 
BRANCH  25  39
ATOM     39  C   UNL A   1      38.936  28.311  28.450  1.00  0.00    -0.014 A 
ATOM     40  C   UNL A   1      38.225  29.418  27.922  1.00  0.00     0.010 A 
ATOM     41  C   UNL A   1      38.748  28.004  29.805  1.00  0.00     0.010 A 
ATOM     42  C   UNL A   1      37.499  30.279  28.740  1.00  0.00     0.020 A 
ATOM     43  C   UNL A   1      37.980  28.844  30.628  1.00  0.00     0.020 A 
ATOM     44  C   UNL A   1      37.413  30.006  30.100  1.00  0.00     0.054 A 
BRANCH  44  45
ATOM     45  S   UNL A   1      36.620  31.237  31.167  1.00  0.00     0.124 S 
ATOM     46  O   UNL A   1      35.651  31.847  30.261  1.00  0.00    -0.237 OA
ATOM     47  O   UNL A   1      36.050  30.410  32.228  1.00  0.00    -0.237 OA
ATOM     48  O   UNL A   1      37.726  32.096  31.581  1.00  0.00    -0.744 OA
ENDBRANCH  44  45
ENDBRANCH  25  39
BRANCH  26  49
ATOM     49  C   UNL A   1      49.177  26.835  26.141  1.00  0.00    -0.014 A 
ATOM     50  C   UNL A   1      50.363  26.788  26.882  1.00  0.00     0.010 A 
ATOM     51  C   UNL A   1      49.346  26.990  24.732  1.00  0.00     0.010 A 
ATOM     52  C   UNL A   1      51.626  26.725  26.234  1.00  0.00     0.020 A 
ATOM     53  C   UNL A   1      50.573  26.865  24.078  1.00  0.00     0.020 A 
ATOM     54  C   UNL A   1      51.715  26.699  24.836  1.00  0.00     0.054 A 
BRANCH  54  55
ATOM     55  S   UNL A   1      53.276  26.295  23.993  1.00  0.00     0.124 S 
ATOM     56  O   UNL A   1      52.926  26.456  22.587  1.00  0.00    -0.237 OA
ATOM     57  O   UNL A   1      54.199  27.290  24.535  1.00  0.00    -0.237 OA
ATOM     58  O   UNL A   1      53.548  24.922  24.417  1.00  0.00    -0.744 OA
ENDBRANCH  54  55
ENDBRANCH  26  49
BRANCH  38  59
ATOM     59  C   UNL A   1      44.389  27.764  29.921  1.00  0.00    -0.014 A 
ATOM     60  C   UNL A   1      44.766  28.292  31.169  1.00  0.00     0.010 A 
ATOM     61  C   UNL A   1      44.080  26.389  29.887  1.00  0.00     0.010 A 
ATOM     62  C   UNL A   1      44.834  27.494  32.324  1.00  0.00     0.020 A 
ATOM     63  C   UNL A   1      44.155  25.571  31.035  1.00  0.00     0.020 A 
ATOM     64  C   UNL A   1      44.526  26.135  32.254  1.00  0.00     0.054 A 
BRANCH  64  65
ATOM     65  S   UNL A   1      44.608  25.137  33.773  1.00  0.00     0.124 S 
ATOM     66  O   UNL A   1      45.934  25.452  34.298  1.00  0.00    -0.237 OA
ATOM     67  O   UNL A   1      43.489  25.660  34.553  1.00  0.00    -0.237 OA
ATOM     68  O   UNL A   1      44.445  23.763  33.302  1.00  0.00    -0.744 OA
ENDBRANCH  64  65
ENDBRANCH  38  59
ENDBRANCH  12  13
ENDBRANCH   5   7
ENDBRANCH   4   5
ENDBRANCH   3   4
ENDBRANCH   2   3
ENDBRANCH   1   2
BRANCH   1  69
ATOM     69  C   UNL A   1      37.791  22.920  25.943  1.00  0.00     0.202 C 
BRANCH  69  70
ATOM     70  C   UNL A   1      36.641  23.700  25.295  1.00  0.00     0.261 C 
BRANCH  70  71
ATOM     71  O   UNL A   1      35.363  23.535  25.953  1.00  0.00    -0.459 OA
BRANCH  71  72
ATOM     72  C   UNL A   1      34.671  22.395  25.657  1.00  0.00     0.355 C 
ATOM     73  O   UNL A   1      34.826  21.315  26.201  1.00  0.00    -0.244 OA
BRANCH  72  74
ATOM     74  C   UNL A   1      33.717  22.640  24.596  1.00  0.00     0.128 A 
ATOM     75  C   UNL A   1      34.005  22.814  23.251  1.00  0.00     0.035 A 
ATOM     76  N   UNL A   1      32.334  22.656  24.703  1.00  0.00    -0.333 N 
ATOM     77  C   UNL A   1      32.789  22.792  22.532  1.00  0.00     0.020 A 
ATOM     78  C   UNL A   1      31.775  22.654  23.448  1.00  0.00     0.087 A 
BRANCH  76  79
ATOM     79  C   UNL A   1      31.545  22.575  25.921  1.00  0.00     0.222 C 
BRANCH  79  80
ATOM     80  C   UNL A   1      30.701  23.783  26.356  1.00  0.00     0.242 C 
ATOM     81  O   UNL A   1      29.920  23.590  27.300  1.00  0.00    -0.273 OA
BRANCH  80  82
ATOM     82  N   UNL A   1      30.912  25.082  25.888  1.00  0.00    -0.336 N 
ATOM     83  C   UNL A   1      29.994  25.820  25.017  1.00  0.00     0.124 C 
ATOM     84  C   UNL A   1      32.147  25.757  26.329  1.00  0.00     0.155 C 
ATOM     85  C   UNL A   1      30.505  27.106  24.371  1.00  0.00     0.057 C 
ATOM     86  C   UNL A   1      32.167  27.260  26.220  1.00  0.00    -0.025 A 
ATOM     87  C   UNL A   1      31.368  27.919  25.280  1.00  0.00    -0.041 A 
ATOM     88  C   UNL A   1      33.080  28.010  26.977  1.00  0.00     0.006 A 
ATOM     89  C   UNL A   1      31.471  29.307  25.112  1.00  0.00     0.004 A 
ATOM     90  C   UNL A   1      33.172  29.394  26.815  1.00  0.00     0.000 A 
ATOM     91  C   UNL A   1      32.365  30.042  25.884  1.00  0.00     0.000 A 
ENDBRANCH  80  82
ENDBRANCH  79  80
ENDBRANCH  76  79
ENDBRANCH  72  74
ENDBRANCH  71  72
ENDBRANCH  70  71
ENDBRANCH  69  70
ENDBRANCH   1  69
TORSDOF 20
ENDMDL
MODEL 2
REMARK VINA RESULT:     -11.3      1.871      3.691
REMARK SMILES O=C(OCCOCCOC(=O)c1cccn1CC(=O)N1CCc2ccccc2C1)c1ccc(-c2c3nc(c(-c4ccc(S(=O)(=O)[O-])cc4)c4ccc([nH]4)c(-c4ccc(S(=O)(=O)[O-])cc4)c4nc(c(-c5ccc(S(=O)(=O)[O-])cc5)c5ccc2[nH]5)C=C4)C=C3)cc1
REMARK SMILES IDX 6 1 5 2 4 3 3 4 2 5 1 6 30 7 31 8 89 9 32 10 88 11 33 12
REMARK SMILES IDX 34 13 35 14 82 15 36 16 87 17 81 18 83 19 37 20 86 21 80 22
REMARK SMILES IDX 79 23 38 25 68 26 49 27 67 28 50 29 53 30 66 31 84 32 51 33
REMARK SMILES IDX 52 34 65 36 85 37 54 38 39 39 40 40 48 41 41 42 47 43 42 44
REMARK SMILES IDX 43 45 44 46 45 47 46 48 69 49 70 50 78 51 71 52 77 53 72 54
REMARK SMILES IDX 73 55 74 56 75 57 76 58 55 59 56 60 64 61 57 62 63 63 58 64
REMARK SMILES IDX 59 65 60 66 61 67 62 68 7 69 8 70 9 71 10 72 11 73 12 74
REMARK SMILES IDX 13 75 16 76 14 77 15 78 17 79 18 80 19 81 20 82 21 83 29 84
REMARK SMILES IDX 22 85 28 86 23 87 27 88 24 89 26 90 25 91
REMARK H PARENT 83 24 53 35
REMARK Flexibility Score: inf
ROOT
ATOM      1  O   UNL A   1      36.889  22.214  24.889  1.00  0.00    -0.374 OA
ENDROOT
BRANCH   1   2
ATOM      2  C   UNL A   1      37.942  21.267  24.959  1.00  0.00     0.202 C 
BRANCH   2   3
ATOM      3  C   UNL A   1      38.991  21.466  26.050  1.00  0.00     0.261 C 
BRANCH   3   4
ATOM      4  O   UNL A   1      39.738  20.278  26.344  1.00  0.00    -0.460 OA
BRANCH   4   5
ATOM      5  C   UNL A   1      41.081  20.087  26.248  1.00  0.00     0.338 C 
ATOM      6  O   UNL A   1      41.518  19.078  25.701  1.00  0.00    -0.246 OA
BRANCH   5   7
ATOM      7  C   UNL A   1      41.999  21.180  26.592  1.00  0.00     0.060 A 
ATOM      8  C   UNL A   1      42.343  21.492  27.900  1.00  0.00     0.016 A 
ATOM      9  C   UNL A   1      42.363  22.030  25.541  1.00  0.00     0.016 A 
ATOM     10  C   UNL A   1      42.616  22.799  28.209  1.00  0.00     0.010 A 
ATOM     11  C   UNL A   1      42.828  23.297  25.828  1.00  0.00     0.010 A 
ATOM     12  C   UNL A   1      42.861  23.695  27.164  1.00  0.00    -0.014 A 
BRANCH  12  13
ATOM     13  C   UNL A   1      43.513  24.939  27.563  1.00  0.00     0.031 A 
ATOM     14  C   UNL A   1      42.401  25.990  27.788  1.00  0.00     0.074 A 
ATOM     15  C   UNL A   1      44.880  24.944  27.541  1.00  0.00     0.049 A 
ATOM     16  N   UNL A   1      42.385  27.247  27.481  1.00  0.00    -0.248 NA
ATOM     17  C   UNL A   1      41.040  25.543  28.237  1.00  0.00     0.031 C 
ATOM     18  C   UNL A   1      45.751  23.781  27.234  1.00  0.00     0.029 A 
ATOM     19  N   UNL A   1      45.822  25.919  27.761  1.00  0.00    -0.354 N 
ATOM     20  C   UNL A   1      41.143  27.767  27.910  1.00  0.00     0.074 A 
ATOM     21  C   UNL A   1      40.296  26.648  28.170  1.00  0.00     0.031 C 
ATOM     22  C   UNL A   1      47.058  24.140  27.213  1.00  0.00     0.029 A 
ATOM     23  C   UNL A   1      47.174  25.550  27.528  1.00  0.00     0.049 A 
ATOM     24  H   UNL A   1      45.574  26.824  28.063  1.00  0.00     0.167 HD
ATOM     25  C   UNL A   1      40.964  29.080  28.233  1.00  0.00     0.031 A 
ATOM     26  C   UNL A   1      48.284  26.355  27.550  1.00  0.00     0.031 A 
ATOM     27  C   UNL A   1      42.192  29.780  28.046  1.00  0.00     0.049 A 
ATOM     28  C   UNL A   1      47.791  27.659  28.029  1.00  0.00     0.074 A 
ATOM     29  C   UNL A   1      42.890  30.125  26.918  1.00  0.00     0.029 A 
ATOM     30  N   UNL A   1      43.043  29.777  29.132  1.00  0.00    -0.354 N 
ATOM     31  N   UNL A   1      47.382  27.906  29.237  1.00  0.00    -0.248 NA
ATOM     32  C   UNL A   1      47.633  28.750  27.058  1.00  0.00     0.031 C 
ATOM     33  C   UNL A   1      44.216  29.789  27.267  1.00  0.00     0.029 A 
ATOM     34  C   UNL A   1      44.303  29.548  28.645  1.00  0.00     0.049 A 
ATOM     35  H   UNL A   1      42.793  29.912  30.075  1.00  0.00     0.167 HD
ATOM     36  C   UNL A   1      46.576  29.001  29.053  1.00  0.00     0.074 A 
ATOM     37  C   UNL A   1      47.027  29.644  27.835  1.00  0.00     0.031 C 
ATOM     38  C   UNL A   1      45.301  28.988  29.529  1.00  0.00     0.031 A 
BRANCH  25  39
ATOM     39  C   UNL A   1      39.895  29.773  29.029  1.00  0.00    -0.014 A 
ATOM     40  C   UNL A   1      38.560  29.561  28.601  1.00  0.00     0.010 A 
ATOM     41  C   UNL A   1      40.135  30.845  29.901  1.00  0.00     0.010 A 
ATOM     42  C   UNL A   1      37.546  30.471  28.887  1.00  0.00     0.020 A 
ATOM     43  C   UNL A   1      39.107  31.743  30.231  1.00  0.00     0.020 A 
ATOM     44  C   UNL A   1      37.836  31.581  29.672  1.00  0.00     0.054 A 
BRANCH  44  45
ATOM     45  S   UNL A   1      36.550  32.839  29.877  1.00  0.00     0.124 S 
ATOM     46  O   UNL A   1      37.213  33.817  30.734  1.00  0.00    -0.237 OA
ATOM     47  O   UNL A   1      36.315  33.272  28.501  1.00  0.00    -0.237 OA
ATOM     48  O   UNL A   1      35.446  32.106  30.490  1.00  0.00    -0.744 OA
ENDBRANCH  44  45
ENDBRANCH  25  39
BRANCH  26  49
ATOM     49  C   UNL A   1      49.738  26.330  27.119  1.00  0.00    -0.014 A 
ATOM     50  C   UNL A   1      50.848  26.020  27.912  1.00  0.00     0.010 A 
ATOM     51  C   UNL A   1      50.012  26.494  25.727  1.00  0.00     0.010 A 
ATOM     52  C   UNL A   1      52.106  25.724  27.322  1.00  0.00     0.020 A 
ATOM     53  C   UNL A   1      51.223  26.146  25.127  1.00  0.00     0.020 A 
ATOM     54  C   UNL A   1      52.266  25.727  25.930  1.00  0.00     0.054 A 
BRANCH  54  55
ATOM     55  S   UNL A   1      53.758  25.045  25.145  1.00  0.00     0.124 S 
ATOM     56  O   UNL A   1      53.651  25.542  23.778  1.00  0.00    -0.237 OA
ATOM     57  O   UNL A   1      54.834  25.623  25.947  1.00  0.00    -0.237 OA
ATOM     58  O   UNL A   1      53.595  23.600  25.300  1.00  0.00    -0.744 OA
ENDBRANCH  54  55
ENDBRANCH  26  49
BRANCH  38  59
ATOM     59  C   UNL A   1      45.035  28.063  30.718  1.00  0.00    -0.014 A 
ATOM     60  C   UNL A   1      44.177  26.959  30.565  1.00  0.00     0.010 A 
ATOM     61  C   UNL A   1      45.551  28.283  32.011  1.00  0.00     0.010 A 
ATOM     62  C   UNL A   1      43.846  26.120  31.642  1.00  0.00     0.020 A 
ATOM     63  C   UNL A   1      45.219  27.458  33.107  1.00  0.00     0.020 A 
ATOM     64  C   UNL A   1      44.371  26.370  32.911  1.00  0.00     0.054 A 
BRANCH  64  65
ATOM     65  S   UNL A   1      43.934  25.251  34.277  1.00  0.00     0.124 S 
ATOM     66  O   UNL A   1      44.889  25.622  35.320  1.00  0.00    -0.237 OA
ATOM     67  O   UNL A   1      42.545  25.612  34.547  1.00  0.00    -0.237 OA
ATOM     68  O   UNL A   1      44.129  23.915  33.715  1.00  0.00    -0.744 OA
ENDBRANCH  64  65
ENDBRANCH  38  59
ENDBRANCH  12  13
ENDBRANCH   5   7
ENDBRANCH   4   5
ENDBRANCH   3   4
ENDBRANCH   2   3
ENDBRANCH   1   2
BRANCH   1  69
ATOM     69  C   UNL A   1      36.491  22.704  23.605  1.00  0.00     0.202 C 
BRANCH  69  70
ATOM     70  C   UNL A   1      35.025  23.071  23.353  1.00  0.00     0.261 C 
BRANCH  70  71
ATOM     71  O   UNL A   1      34.829  24.378  22.764  1.00  0.00    -0.459 OA
BRANCH  71  72
ATOM     72  C   UNL A   1      33.568  24.896  22.844  1.00  0.00     0.355 C 
ATOM     73  O   UNL A   1      32.779  24.978  21.919  1.00  0.00    -0.244 OA
BRANCH  72  74
ATOM     74  C   UNL A   1      33.287  25.342  24.193  1.00  0.00     0.128 A 
ATOM     75  C   UNL A   1      33.983  26.308  24.904  1.00  0.00     0.035 A 
ATOM     76  N   UNL A   1      32.221  24.963  24.994  1.00  0.00    -0.333 N 
ATOM     77  C   UNL A   1      33.250  26.609  26.074  1.00  0.00     0.020 A 
ATOM     78  C   UNL A   1      32.146  25.792  26.086  1.00  0.00     0.087 A 
BRANCH  76  79
ATOM     79  C   UNL A   1      31.235  23.930  24.715  1.00  0.00     0.222 C 
BRANCH  79  80
ATOM     80  C   UNL A   1      31.298  22.601  25.484  1.00  0.00     0.242 C 
ATOM     81  O   UNL A   1      30.356  22.378  26.260  1.00  0.00    -0.273 OA
BRANCH  80  82
ATOM     82  N   UNL A   1      32.222  21.591  25.208  1.00  0.00    -0.336 N 
ATOM     83  C   UNL A   1      33.304  21.176  26.104  1.00  0.00     0.124 C 
ATOM     84  C   UNL A   1      32.071  20.883  23.923  1.00  0.00     0.155 C 
ATOM     85  C   UNL A   1      34.389  20.264  25.536  1.00  0.00     0.057 C 
ATOM     86  C   UNL A   1      32.739  19.536  23.817  1.00  0.00    -0.025 A 
ATOM     87  C   UNL A   1      33.857  19.228  24.600  1.00  0.00    -0.041 A 
ATOM     88  C   UNL A   1      32.324  18.618  22.840  1.00  0.00     0.006 A 
ATOM     89  C   UNL A   1      34.536  18.015  24.419  1.00  0.00     0.004 A 
ATOM     90  C   UNL A   1      32.996  17.407  22.668  1.00  0.00     0.000 A 
ATOM     91  C   UNL A   1      34.100  17.105  23.461  1.00  0.00     0.000 A 
ENDBRANCH  80  82
ENDBRANCH  79  80
ENDBRANCH  76  79
ENDBRANCH  72  74
ENDBRANCH  71  72
ENDBRANCH  70  71
ENDBRANCH  69  70
ENDBRANCH   1  69
TORSDOF 20
ENDMDL
MODEL 3
REMARK VINA RESULT:     -11.2      5.173     11.477
REMARK SMILES O=C(OCCOCCOC(=O)c1cccn1CC(=O)N1CCc2ccccc2C1)c1ccc(-c2c3nc(c(-c4ccc(S(=O)(=O)[O-])cc4)c4ccc([nH]4)c(-c4ccc(S(=O)(=O)[O-])cc4)c4nc(c(-c5ccc(S(=O)(=O)[O-])cc5)c5ccc2[nH]5)C=C4)C=C3)cc1
REMARK SMILES IDX 6 1 5 2 4 3 3 4 2 5 1 6 30 7 31 8 89 9 32 10 88 11 33 12
REMARK SMILES IDX 34 13 35 14 82 15 36 16 87 17 81 18 83 19 37 20 86 21 80 22
REMARK SMILES IDX 79 23 38 25 68 26 49 27 67 28 50 29 53 30 66 31 84 32 51 33
REMARK SMILES IDX 52 34 65 36 85 37 54 38 39 39 40 40 48 41 41 42 47 43 42 44
REMARK SMILES IDX 43 45 44 46 45 47 46 48 69 49 70 50 78 51 71 52 77 53 72 54
REMARK SMILES IDX 73 55 74 56 75 57 76 58 55 59 56 60 64 61 57 62 63 63 58 64
REMARK SMILES IDX 59 65 60 66 61 67 62 68 7 69 8 70 9 71 10 72 11 73 12 74
REMARK SMILES IDX 13 75 16 76 14 77 15 78 17 79 18 80 19 81 20 82 21 83 29 84
REMARK SMILES IDX 22 85 28 86 23 87 27 88 24 89 26 90 25 91
REMARK H PARENT 83 24 53 35
REMARK Flexibility Score: inf
ROOT
ATOM      1  O   UNL A   1      33.316  30.855  27.992  1.00  0.00    -0.374 OA
ENDROOT
BRANCH   1   2
ATOM      2  C   UNL A   1      33.672  32.137  27.502  1.00  0.00     0.202 C 
BRANCH   2   3
ATOM      3  C   UNL A   1      32.535  33.095  27.153  1.00  0.00     0.261 C 
BRANCH   3   4
ATOM      4  O   UNL A   1      32.233  34.027  28.199  1.00  0.00    -0.460 OA
BRANCH   4   5
ATOM      5  C   UNL A   1      33.034  34.997  28.714  1.00  0.00     0.338 C 
ATOM      6  O   UNL A   1      32.670  36.169  28.690  1.00  0.00    -0.246 OA
BRANCH   5   7
ATOM      7  C   UNL A   1      34.223  34.624  29.492  1.00  0.00     0.060 A 
ATOM      8  C   UNL A   1      35.517  34.777  29.014  1.00  0.00     0.016 A 
ATOM      9  C   UNL A   1      33.984  33.914  30.675  1.00  0.00     0.016 A 
ATOM     10  C   UNL A   1      36.473  33.885  29.420  1.00  0.00     0.010 A 
ATOM     11  C   UNL A   1      34.995  33.149  31.219  1.00  0.00     0.010 A 
ATOM     12  C   UNL A   1      36.203  33.075  30.527  1.00  0.00    -0.014 A 
BRANCH  12  13
ATOM     13  C   UNL A   1      37.377  32.447  31.128  1.00  0.00     0.031 A 
ATOM     14  C   UNL A   1      37.653  31.143  30.344  1.00  0.00     0.074 A 
ATOM     15  C   UNL A   1      37.878  33.043  32.252  1.00  0.00     0.049 A 
ATOM     16  N   UNL A   1      38.028  29.985  30.783  1.00  0.00    -0.248 NA
ATOM     17  C   UNL A   1      37.270  31.055  28.896  1.00  0.00     0.031 C 
ATOM     18  C   UNL A   1      37.391  34.308  32.858  1.00  0.00     0.029 A 
ATOM     19  N   UNL A   1      38.888  32.712  33.123  1.00  0.00    -0.354 N 
ATOM     20  C   UNL A   1      38.153  29.133  29.663  1.00  0.00     0.074 A 
ATOM     21  C   UNL A   1      37.483  29.777  28.580  1.00  0.00     0.031 C 
ATOM     22  C   UNL A   1      38.045  34.581  34.014  1.00  0.00     0.029 A 
ATOM     23  C   UNL A   1      39.033  33.549  34.262  1.00  0.00     0.049 A 
ATOM     24  H   UNL A   1      39.478  31.939  32.967  1.00  0.00     0.167 HD
ATOM     25  C   UNL A   1      38.987  28.054  29.645  1.00  0.00     0.031 A 
ATOM     26  C   UNL A   1      39.867  33.373  35.336  1.00  0.00     0.031 A 
ATOM     27  C   UNL A   1      39.650  27.953  30.902  1.00  0.00     0.049 A 
ATOM     28  C   UNL A   1      40.701  32.212  34.977  1.00  0.00     0.074 A 
ATOM     29  C   UNL A   1      39.201  27.618  32.153  1.00  0.00     0.029 A 
ATOM     30  N   UNL A   1      40.820  28.676  31.011  1.00  0.00    -0.354 N 
ATOM     31  N   UNL A   1      41.615  32.204  34.054  1.00  0.00    -0.248 NA
ATOM     32  C   UNL A   1      40.420  30.921  35.618  1.00  0.00     0.031 C 
ATOM     33  C   UNL A   1      39.808  28.598  32.967  1.00  0.00     0.029 A 
ATOM     34  C   UNL A   1      40.801  29.274  32.244  1.00  0.00     0.049 A 
ATOM     35  H   UNL A   1      41.531  28.749  30.334  1.00  0.00     0.167 HD
ATOM     36  C   UNL A   1      41.707  30.870  33.748  1.00  0.00     0.074 A 
ATOM     37  C   UNL A   1      41.242  30.147  34.915  1.00  0.00     0.031 C 
ATOM     38  C   UNL A   1      41.593  30.465  32.454  1.00  0.00     0.031 A 
BRANCH  25  39
ATOM     39  C   UNL A   1      39.550  27.249  28.508  1.00  0.00    -0.014 A 
ATOM     40  C   UNL A   1      39.561  25.842  28.683  1.00  0.00     0.010 A 
ATOM     41  C   UNL A   1      40.351  27.783  27.488  1.00  0.00     0.010 A 
ATOM     42  C   UNL A   1      40.453  25.025  27.994  1.00  0.00     0.020 A 
ATOM     43  C   UNL A   1      41.222  26.958  26.757  1.00  0.00     0.020 A 
ATOM     44  C   UNL A   1      41.307  25.596  27.059  1.00  0.00     0.054 A 
BRANCH  44  45
ATOM     45  S   UNL A   1      42.579  24.544  26.312  1.00  0.00     0.124 S 
ATOM     46  O   UNL A   1      43.641  24.593  27.313  1.00  0.00    -0.237 OA
ATOM     47  O   UNL A   1      41.892  23.261  26.192  1.00  0.00    -0.237 OA
ATOM     48  O   UNL A   1      42.874  25.208  25.046  1.00  0.00    -0.744 OA
ENDBRANCH  44  45
ENDBRANCH  25  39
BRANCH  26  49
ATOM     49  C   UNL A   1      40.066  33.904  36.744  1.00  0.00    -0.014 A 
ATOM     50  C   UNL A   1      41.268  34.320  37.326  1.00  0.00     0.010 A 
ATOM     51  C   UNL A   1      38.894  34.151  37.522  1.00  0.00     0.010 A 
ATOM     52  C   UNL A   1      41.271  35.085  38.524  1.00  0.00     0.020 A 
ATOM     53  C   UNL A   1      38.876  34.954  38.664  1.00  0.00     0.020 A 
ATOM     54  C   UNL A   1      40.071  35.449  39.147  1.00  0.00     0.054 A 
BRANCH  54  55
ATOM     55  S   UNL A   1      40.033  36.685  40.482  1.00  0.00     0.124 S 
ATOM     56  O   UNL A   1      38.740  36.433  41.108  1.00  0.00    -0.237 OA
ATOM     57  O   UNL A   1      41.204  36.330  41.280  1.00  0.00    -0.237 OA
ATOM     58  O   UNL A   1      40.146  37.958  39.772  1.00  0.00    -0.744 OA
ENDBRANCH  54  55
ENDBRANCH  26  49
BRANCH  38  59
ATOM     59  C   UNL A   1      41.966  31.498  31.389  1.00  0.00    -0.014 A 
ATOM     60  C   UNL A   1      43.316  31.678  31.035  1.00  0.00     0.010 A 
ATOM     61  C   UNL A   1      41.035  32.355  30.768  1.00  0.00     0.010 A 
ATOM     62  C   UNL A   1      43.718  32.660  30.114  1.00  0.00     0.020 A 
ATOM     63  C   UNL A   1      41.423  33.354  29.851  1.00  0.00     0.020 A 
ATOM     64  C   UNL A   1      42.770  33.495  29.522  1.00  0.00     0.054 A 
BRANCH  64  65
ATOM     65  S   UNL A   1      43.326  34.742  28.320  1.00  0.00     0.124 S 
ATOM     66  O   UNL A   1      42.100  35.481  28.026  1.00  0.00    -0.237 OA
ATOM     67  O   UNL A   1      44.332  35.482  29.079  1.00  0.00    -0.237 OA
ATOM     68  O   UNL A   1      43.848  33.951  27.206  1.00  0.00    -0.744 OA
ENDBRANCH  64  65
ENDBRANCH  38  59
ENDBRANCH  12  13
ENDBRANCH   5   7
ENDBRANCH   4   5
ENDBRANCH   3   4
ENDBRANCH   2   3
ENDBRANCH   1   2
BRANCH   1  69
ATOM     69  C   UNL A   1      33.029  29.817  27.051  1.00  0.00     0.202 C 
BRANCH  69  70
ATOM     70  C   UNL A   1      34.181  29.051  26.391  1.00  0.00     0.261 C 
BRANCH  70  71
ATOM     71  O   UNL A   1      33.762  27.941  25.563  1.00  0.00    -0.459 OA
BRANCH  71  72
ATOM     72  C   UNL A   1      32.755  28.193  24.676  1.00  0.00     0.355 C 
ATOM     73  O   UNL A   1      32.691  29.161  23.938  1.00  0.00    -0.244 OA
BRANCH  72  74
ATOM     74  C   UNL A   1      31.758  27.144  24.727  1.00  0.00     0.128 A 
ATOM     75  C   UNL A   1      31.085  26.701  25.856  1.00  0.00     0.035 A 
ATOM     76  N   UNL A   1      31.219  26.449  23.655  1.00  0.00    -0.333 N 
ATOM     77  C   UNL A   1      30.043  25.842  25.440  1.00  0.00     0.020 A 
ATOM     78  C   UNL A   1      30.124  25.734  24.073  1.00  0.00     0.087 A 
BRANCH  76  79
ATOM     79  C   UNL A   1      31.636  26.517  22.264  1.00  0.00     0.222 C 
BRANCH  79  80
ATOM     80  C   UNL A   1      32.744  25.577  21.762  1.00  0.00     0.242 C 
ATOM     81  O   UNL A   1      33.263  25.879  20.677  1.00  0.00    -0.273 OA
BRANCH  80  82
ATOM     82  N   UNL A   1      33.303  24.559  22.537  1.00  0.00    -0.336 N 
ATOM     83  C   UNL A   1      34.283  24.761  23.607  1.00  0.00     0.124 C 
ATOM     84  C   UNL A   1      32.848  23.184  22.260  1.00  0.00     0.155 C 
ATOM     85  C   UNL A   1      35.002  23.530  24.157  1.00  0.00     0.057 C 
ATOM     86  C   UNL A   1      33.078  22.168  23.349  1.00  0.00    -0.025 A 
ATOM     87  C   UNL A   1      34.114  22.334  24.275  1.00  0.00    -0.041 A 
ATOM     88  C   UNL A   1      32.334  20.979  23.373  1.00  0.00     0.006 A 
ATOM     89  C   UNL A   1      34.388  21.334  25.218  1.00  0.00     0.004 A 
ATOM     90  C   UNL A   1      32.602  19.988  24.320  1.00  0.00     0.000 A 
ATOM     91  C   UNL A   1      33.628  20.168  25.244  1.00  0.00     0.000 A 
ENDBRANCH  80  82
ENDBRANCH  79  80
ENDBRANCH  76  79
ENDBRANCH  72  74
ENDBRANCH  71  72
ENDBRANCH  70  71
ENDBRANCH  69  70
ENDBRANCH   1  69
TORSDOF 20
ENDMDL
