MODEL 1
REMARK VINA RESULT:     -10.1      0.000      0.000
REMARK SMILES O=C(OCCOCCOC(=O)c1ccc(-c2c3nc(c(-c4ccc(S(=O)(=O)[O-])cc4)c4ccc([nH]4)c(-c4ccc(S(=O)(=O)[O-])cc4)c4nc(c(-c5ccc(S(=O)(=O)[O-])cc5)c5ccc2[nH]5)C=C4)C=C3)cc1)c1ccc(N[C@H]2OC[C@@H](O)[C@@H](O)[C@H]2O)cc1
REMARK SMILES IDX 6 1 5 2 4 3 3 4 2 5 1 6 72 7 73 8 87 9 74 10 86 11 75 12
REMARK SMILES IDX 76 13 77 15 78 16 84 17 79 18 82 19 80 20 85 21 83 23 81 25
REMARK SMILES IDX 7 27 8 28 9 29 10 30 11 31 12 32 13 33 71 34 14 35 70 36
REMARK SMILES IDX 15 37 16 38 17 39 64 40 18 41 69 42 63 43 65 44 19 45 68 46
REMARK SMILES IDX 62 47 61 48 20 50 50 51 31 52 49 53 32 54 35 55 48 56 66 57
REMARK SMILES IDX 33 58 34 59 47 61 67 62 36 63 21 64 22 65 30 66 23 67 29 68
REMARK SMILES IDX 24 69 25 70 26 71 27 72 28 73 51 74 52 75 60 76 53 77 59 78
REMARK SMILES IDX 54 79 55 80 56 81 57 82 58 83 37 84 38 85 46 86 39 87 45 88
REMARK SMILES IDX 40 89 41 90 42 91 43 92 44 93
REMARK H PARENT 76 14 85 22 83 24 81 26 65 49 35 60
REMARK Flexibility Score: inf
ROOT
ATOM      1  O   UNL A   1      33.054  28.767  26.548  1.00  0.00    -0.374 OA
ENDROOT
BRANCH   1   2
ATOM      2  C   UNL A   1      32.713  29.722  25.544  1.00  0.00     0.202 C 
BRANCH   2   3
ATOM      3  C   UNL A   1      31.338  29.500  24.914  1.00  0.00     0.261 C 
BRANCH   3   4
ATOM      4  O   UNL A   1      31.467  29.111  23.529  1.00  0.00    -0.460 OA
BRANCH   4   5
ATOM      5  C   UNL A   1      31.200  27.885  23.010  1.00  0.00     0.338 C 
ATOM      6  O   UNL A   1      30.446  27.762  22.050  1.00  0.00    -0.246 OA
BRANCH   5   7
ATOM      7  C   UNL A   1      31.801  26.663  23.600  1.00  0.00     0.060 A 
ATOM      8  C   UNL A   1      31.017  25.629  24.086  1.00  0.00     0.018 A 
ATOM      9  C   UNL A   1      33.186  26.480  23.563  1.00  0.00     0.018 A 
ATOM     10  C   UNL A   1      31.588  24.486  24.623  1.00  0.00     0.026 A 
ATOM     11  C   UNL A   1      33.759  25.297  24.066  1.00  0.00     0.026 A 
ATOM     12  C   UNL A   1      32.968  24.288  24.632  1.00  0.00     0.036 A 
BRANCH  12  13
ATOM     13  N   UNL A   1      33.536  23.101  25.076  1.00  0.00    -0.358 N 
ATOM     14  H   UNL A   1      34.425  23.114  25.497  1.00  0.00     0.163 HD
BRANCH  13  15
ATOM     15  C   UNL A   1      32.825  21.837  24.924  1.00  0.00     0.244 C 
ATOM     16  O   UNL A   1      33.145  21.298  23.635  1.00  0.00    -0.353 OA
ATOM     17  C   UNL A   1      33.297  20.816  25.975  1.00  0.00     0.195 C 
ATOM     18  C   UNL A   1      32.356  20.147  23.312  1.00  0.00     0.197 C 
ATOM     19  C   UNL A   1      32.539  19.499  25.732  1.00  0.00     0.178 C 
ATOM     20  C   UNL A   1      32.682  19.010  24.278  1.00  0.00     0.171 C 
BRANCH  17  21
ATOM     21  O   UNL A   1      34.722  20.596  25.835  1.00  0.00    -0.386 OA
ATOM     22  H   UNL A   1      34.883  19.674  25.579  1.00  0.00     0.211 HD
ENDBRANCH  17  21
BRANCH  19  23
ATOM     23  O   UNL A   1      33.008  18.493  26.633  1.00  0.00    -0.387 OA
ATOM     24  H   UNL A   1      32.324  17.815  26.745  1.00  0.00     0.211 HD
ENDBRANCH  19  23
BRANCH  20  25
ATOM     25  O   UNL A   1      34.027  18.561  24.047  1.00  0.00    -0.388 OA
ATOM     26  H   UNL A   1      34.615  19.329  23.973  1.00  0.00     0.211 HD
ENDBRANCH  20  25
ENDBRANCH  13  15
ENDBRANCH  12  13
ENDBRANCH   5   7
ENDBRANCH   4   5
ENDBRANCH   3   4
ENDBRANCH   2   3
ENDBRANCH   1   2
BRANCH   1  27
ATOM     27  C   UNL A   1      34.446  28.702  26.889  1.00  0.00     0.202 C 
BRANCH  27  28
ATOM     28  C   UNL A   1      34.846  30.001  27.598  1.00  0.00     0.261 C 
BRANCH  28  29
ATOM     29  O   UNL A   1      36.277  30.044  27.666  1.00  0.00    -0.460 OA
BRANCH  29  30
ATOM     30  C   UNL A   1      36.787  29.717  28.885  1.00  0.00     0.338 C 
ATOM     31  O   UNL A   1      36.186  29.635  29.936  1.00  0.00    -0.246 OA
BRANCH  30  32
ATOM     32  C   UNL A   1      38.177  29.248  28.670  1.00  0.00     0.060 A 
ATOM     33  C   UNL A   1      38.834  28.598  29.724  1.00  0.00     0.016 A 
ATOM     34  C   UNL A   1      38.803  29.391  27.429  1.00  0.00     0.016 A 
ATOM     35  C   UNL A   1      40.136  28.125  29.553  1.00  0.00     0.010 A 
ATOM     36  C   UNL A   1      40.097  28.920  27.254  1.00  0.00     0.010 A 
ATOM     37  C   UNL A   1      40.780  28.322  28.327  1.00  0.00    -0.014 A 
BRANCH  37  38
ATOM     38  C   UNL A   1      42.238  28.135  28.184  1.00  0.00     0.031 A 
ATOM     39  C   UNL A   1      43.110  29.338  28.411  1.00  0.00     0.074 A 
ATOM     40  C   UNL A   1      42.752  26.974  27.746  1.00  0.00     0.049 A 
ATOM     41  N   UNL A   1      44.374  29.509  28.140  1.00  0.00    -0.248 NA
ATOM     42  C   UNL A   1      42.446  30.518  28.993  1.00  0.00     0.031 C 
ATOM     43  C   UNL A   1      41.990  25.750  27.505  1.00  0.00     0.029 A 
ATOM     44  N   UNL A   1      44.034  26.657  27.379  1.00  0.00    -0.354 N 
ATOM     45  C   UNL A   1      44.649  30.828  28.481  1.00  0.00     0.074 A 
ATOM     46  C   UNL A   1      43.418  31.414  28.961  1.00  0.00     0.031 C 
ATOM     47  C   UNL A   1      42.817  24.821  26.990  1.00  0.00     0.029 A 
ATOM     48  C   UNL A   1      44.149  25.404  26.828  1.00  0.00     0.049 A 
ATOM     49  H   UNL A   1      44.798  27.267  27.500  1.00  0.00     0.167 HD
ATOM     50  C   UNL A   1      45.825  31.492  28.392  1.00  0.00     0.031 A 
ATOM     51  C   UNL A   1      45.198  24.815  26.220  1.00  0.00     0.031 A 
ATOM     52  C   UNL A   1      47.031  30.896  27.891  1.00  0.00     0.049 A 
ATOM     53  C   UNL A   1      46.493  25.574  26.106  1.00  0.00     0.074 A 
ATOM     54  C   UNL A   1      48.292  31.454  27.792  1.00  0.00     0.029 A 
ATOM     55  N   UNL A   1      47.119  29.606  27.386  1.00  0.00    -0.354 N 
ATOM     56  N   UNL A   1      46.762  26.803  26.482  1.00  0.00    -0.248 NA
ATOM     57  C   UNL A   1      47.628  24.869  25.494  1.00  0.00     0.031 C 
ATOM     58  C   UNL A   1      49.129  30.520  27.175  1.00  0.00     0.029 A 
ATOM     59  C   UNL A   1      48.407  29.356  26.950  1.00  0.00     0.049 A 
ATOM     60  H   UNL A   1      46.375  28.963  27.345  1.00  0.00     0.167 HD
ATOM     61  C   UNL A   1      48.104  27.010  26.178  1.00  0.00     0.074 A 
ATOM     62  C   UNL A   1      48.592  25.778  25.590  1.00  0.00     0.031 C 
ATOM     63  C   UNL A   1      48.866  28.116  26.374  1.00  0.00     0.031 A 
BRANCH  50  64
ATOM     64  C   UNL A   1      45.830  32.941  28.797  1.00  0.00    -0.014 A 
ATOM     65  C   UNL A   1      45.554  33.964  27.870  1.00  0.00     0.010 A 
ATOM     66  C   UNL A   1      46.137  33.289  30.125  1.00  0.00     0.010 A 
ATOM     67  C   UNL A   1      45.647  35.307  28.248  1.00  0.00     0.020 A 
ATOM     68  C   UNL A   1      46.200  34.630  30.514  1.00  0.00     0.020 A 
ATOM     69  C   UNL A   1      45.979  35.630  29.567  1.00  0.00     0.054 A 
BRANCH  69  70
ATOM     70  S   UNL A   1      46.109  37.380  30.027  1.00  0.00     0.124 S 
ATOM     71  O   UNL A   1      45.930  37.321  31.476  1.00  0.00    -0.237 OA
ATOM     72  O   UNL A   1      47.453  37.732  29.574  1.00  0.00    -0.237 OA
ATOM     73  O   UNL A   1      45.019  38.014  29.290  1.00  0.00    -0.744 OA
ENDBRANCH  69  70
ENDBRANCH  50  64
BRANCH  51  74
ATOM     74  C   UNL A   1      45.044  23.444  25.663  1.00  0.00    -0.014 A 
ATOM     75  C   UNL A   1      44.605  23.253  24.342  1.00  0.00     0.010 A 
ATOM     76  C   UNL A   1      45.404  22.322  26.433  1.00  0.00     0.010 A 
ATOM     77  C   UNL A   1      44.535  21.965  23.799  1.00  0.00     0.020 A 
ATOM     78  C   UNL A   1      45.359  21.037  25.886  1.00  0.00     0.020 A 
ATOM     79  C   UNL A   1      44.923  20.866  24.571  1.00  0.00     0.054 A 
BRANCH  79  80
ATOM     80  S   UNL A   1      44.921  19.220  23.807  1.00  0.00     0.124 S 
ATOM     81  O   UNL A   1      43.982  18.493  24.653  1.00  0.00    -0.237 OA
ATOM     82  O   UNL A   1      44.463  19.504  22.450  1.00  0.00    -0.237 OA
ATOM     83  O   UNL A   1      46.316  18.794  23.908  1.00  0.00    -0.744 OA
ENDBRANCH  79  80
ENDBRANCH  51  74
BRANCH  63  84
ATOM     84  C   UNL A   1      50.320  28.041  25.996  1.00  0.00    -0.014 A 
ATOM     85  C   UNL A   1      51.286  27.563  26.896  1.00  0.00     0.010 A 
ATOM     86  C   UNL A   1      50.701  28.348  24.676  1.00  0.00     0.010 A 
ATOM     87  C   UNL A   1      52.612  27.398  26.484  1.00  0.00     0.020 A 
ATOM     88  C   UNL A   1      52.019  28.160  24.253  1.00  0.00     0.020 A 
ATOM     89  C   UNL A   1      52.967  27.691  25.163  1.00  0.00     0.054 A 
BRANCH  89  90
ATOM     90  S   UNL A   1      54.674  27.387  24.629  1.00  0.00     0.124 S 
ATOM     91  O   UNL A   1      54.855  28.405  23.597  1.00  0.00    -0.237 OA
ATOM     92  O   UNL A   1      55.436  27.594  25.858  1.00  0.00    -0.237 OA
ATOM     93  O   UNL A   1      54.646  26.009  24.146  1.00  0.00    -0.744 OA
ENDBRANCH  89  90
ENDBRANCH  63  84
ENDBRANCH  37  38
ENDBRANCH  30  32
ENDBRANCH  29  30
ENDBRANCH  28  29
ENDBRANCH  27  28
ENDBRANCH   1  27
TORSDOF 22
ENDMDL
MODEL 2
REMARK VINA RESULT:     -10.0      2.361      9.364
REMARK SMILES O=C(OCCOCCOC(=O)c1ccc(-c2c3nc(c(-c4ccc(S(=O)(=O)[O-])cc4)c4ccc([nH]4)c(-c4ccc(S(=O)(=O)[O-])cc4)c4nc(c(-c5ccc(S(=O)(=O)[O-])cc5)c5ccc2[nH]5)C=C4)C=C3)cc1)c1ccc(N[C@H]2OC[C@@H](O)[C@@H](O)[C@H]2O)cc1
REMARK SMILES IDX 6 1 5 2 4 3 3 4 2 5 1 6 72 7 73 8 87 9 74 10 86 11 75 12
REMARK SMILES IDX 76 13 77 15 78 16 84 17 79 18 82 19 80 20 85 21 83 23 81 25
REMARK SMILES IDX 7 27 8 28 9 29 10 30 11 31 12 32 13 33 71 34 14 35 70 36
REMARK SMILES IDX 15 37 16 38 17 39 64 40 18 41 69 42 63 43 65 44 19 45 68 46
REMARK SMILES IDX 62 47 61 48 20 50 50 51 31 52 49 53 32 54 35 55 48 56 66 57
REMARK SMILES IDX 33 58 34 59 47 61 67 62 36 63 21 64 22 65 30 66 23 67 29 68
REMARK SMILES IDX 24 69 25 70 26 71 27 72 28 73 51 74 52 75 60 76 53 77 59 78
REMARK SMILES IDX 54 79 55 80 56 81 57 82 58 83 37 84 38 85 46 86 39 87 45 88
REMARK SMILES IDX 40 89 41 90 42 91 43 92 44 93
REMARK H PARENT 76 14 85 22 83 24 81 26 65 49 35 60
REMARK Flexibility Score: inf
ROOT
ATOM      1  O   UNL A   1      41.844  20.247  25.670  1.00  0.00    -0.374 OA
ENDROOT
BRANCH   1   2
ATOM      2  C   UNL A   1      41.620  21.521  26.273  1.00  0.00     0.202 C 
BRANCH   2   3
ATOM      3  C   UNL A   1      40.285  21.634  27.010  1.00  0.00     0.261 C 
BRANCH   3   4
ATOM      4  O   UNL A   1      39.280  22.229  26.160  1.00  0.00    -0.460 OA
BRANCH   4   5
ATOM      5  C   UNL A   1      38.302  21.570  25.489  1.00  0.00     0.338 C 
ATOM      6  O   UNL A   1      38.427  20.383  25.205  1.00  0.00    -0.246 OA
BRANCH   5   7
ATOM      7  C   UNL A   1      37.063  22.271  25.071  1.00  0.00     0.060 A 
ATOM      8  C   UNL A   1      36.768  22.494  23.735  1.00  0.00     0.018 A 
ATOM      9  C   UNL A   1      36.101  22.616  26.025  1.00  0.00     0.018 A 
ATOM     10  C   UNL A   1      35.601  23.138  23.354  1.00  0.00     0.026 A 
ATOM     11  C   UNL A   1      34.896  23.228  25.630  1.00  0.00     0.026 A 
ATOM     12  C   UNL A   1      34.638  23.525  24.285  1.00  0.00     0.036 A 
BRANCH  12  13
ATOM     13  N   UNL A   1      33.424  24.078  23.897  1.00  0.00    -0.358 N 
ATOM     14  H   UNL A   1      33.118  23.978  22.967  1.00  0.00     0.163 HD
BRANCH  13  15
ATOM     15  C   UNL A   1      32.600  24.804  24.856  1.00  0.00     0.244 C 
ATOM     16  O   UNL A   1      32.031  25.937  24.186  1.00  0.00    -0.353 OA
ATOM     17  C   UNL A   1      31.432  23.930  25.345  1.00  0.00     0.195 C 
ATOM     18  C   UNL A   1      31.351  26.819  25.086  1.00  0.00     0.197 C 
ATOM     19  C   UNL A   1      30.585  24.769  26.318  1.00  0.00     0.178 C 
ATOM     20  C   UNL A   1      30.145  26.107  25.695  1.00  0.00     0.171 C 
BRANCH  17  21
ATOM     21  O   UNL A   1      30.623  23.522  24.215  1.00  0.00    -0.386 OA
ATOM     22  H   UNL A   1      29.730  23.298  24.521  1.00  0.00     0.211 HD
ENDBRANCH  17  21
BRANCH  19  23
ATOM     23  O   UNL A   1      29.438  24.023  26.733  1.00  0.00    -0.387 OA
ATOM     24  H   UNL A   1      28.869  23.853  25.966  1.00  0.00     0.211 HD
ENDBRANCH  19  23
BRANCH  20  25
ATOM     25  O   UNL A   1      29.168  25.867  24.668  1.00  0.00    -0.388 OA
ATOM     26  H   UNL A   1      28.632  26.664  24.540  1.00  0.00     0.211 HD
ENDBRANCH  20  25
ENDBRANCH  13  15
ENDBRANCH  12  13
ENDBRANCH   5   7
ENDBRANCH   4   5
ENDBRANCH   3   4
ENDBRANCH   2   3
ENDBRANCH   1   2
BRANCH   1  27
ATOM     27  C   UNL A   1      42.487  19.275  26.507  1.00  0.00     0.202 C 
BRANCH  27  28
ATOM     28  C   UNL A   1      43.539  18.525  25.683  1.00  0.00     0.261 C 
BRANCH  28  29
ATOM     29  O   UNL A   1      43.855  19.325  24.536  1.00  0.00    -0.460 OA
BRANCH  29  30
ATOM     30  C   UNL A   1      45.121  19.824  24.536  1.00  0.00     0.338 C 
ATOM     31  O   UNL A   1      46.127  19.278  24.131  1.00  0.00    -0.246 OA
BRANCH  30  32
ATOM     32  C   UNL A   1      45.031  21.257  24.905  1.00  0.00     0.060 A 
ATOM     33  C   UNL A   1      44.522  22.160  23.961  1.00  0.00     0.016 A 
ATOM     34  C   UNL A   1      45.387  21.697  26.183  1.00  0.00     0.016 A 
ATOM     35  C   UNL A   1      44.405  23.514  24.279  1.00  0.00     0.010 A 
ATOM     36  C   UNL A   1      45.270  23.042  26.504  1.00  0.00     0.010 A 
ATOM     37  C   UNL A   1      44.816  23.959  25.540  1.00  0.00    -0.014 A 
BRANCH  37  38
ATOM     38  C   UNL A   1      45.013  25.395  25.824  1.00  0.00     0.031 A 
ATOM     39  C   UNL A   1      46.417  25.924  25.741  1.00  0.00     0.074 A 
ATOM     40  C   UNL A   1      44.003  26.164  26.260  1.00  0.00     0.049 A 
ATOM     41  N   UNL A   1      46.899  27.066  26.148  1.00  0.00    -0.248 NA
ATOM     42  C   UNL A   1      47.417  25.019  25.148  1.00  0.00     0.031 C 
ATOM     43  C   UNL A   1      42.606  25.745  26.367  1.00  0.00     0.029 A 
ATOM     44  N   UNL A   1      44.013  27.447  26.742  1.00  0.00    -0.354 N 
ATOM     45  C   UNL A   1      48.264  27.002  25.896  1.00  0.00     0.074 A 
ATOM     46  C   UNL A   1      48.535  25.704  25.319  1.00  0.00     0.031 C 
ATOM     47  C   UNL A   1      41.897  26.745  26.922  1.00  0.00     0.029 A 
ATOM     48  C   UNL A   1      42.799  27.849  27.246  1.00  0.00     0.049 A 
ATOM     49  H   UNL A   1      44.811  28.025  26.728  1.00  0.00     0.167 HD
ATOM     50  C   UNL A   1      49.209  27.941  26.135  1.00  0.00     0.031 A 
ATOM     51  C   UNL A   1      42.469  28.961  27.932  1.00  0.00     0.031 A 
ATOM     52  C   UNL A   1      48.921  29.216  26.731  1.00  0.00     0.049 A 
ATOM     53  C   UNL A   1      43.535  29.988  28.212  1.00  0.00     0.074 A 
ATOM     54  C   UNL A   1      49.785  30.264  26.983  1.00  0.00     0.029 A 
ATOM     55  N   UNL A   1      47.668  29.605  27.184  1.00  0.00    -0.354 N 
ATOM     56  N   UNL A   1      44.814  29.945  27.920  1.00  0.00    -0.248 NA
ATOM     57  C   UNL A   1      43.115  31.213  28.905  1.00  0.00     0.031 C 
ATOM     58  C   UNL A   1      49.066  31.266  27.640  1.00  0.00     0.029 A 
ATOM     59  C   UNL A   1      47.739  30.870  27.738  1.00  0.00     0.049 A 
ATOM     60  H   UNL A   1      46.849  29.063  27.119  1.00  0.00     0.167 HD
ATOM     61  C   UNL A   1      45.348  31.148  28.370  1.00  0.00     0.074 A 
ATOM     62  C   UNL A   1      44.252  31.899  28.949  1.00  0.00     0.031 C 
ATOM     63  C   UNL A   1      46.628  31.596  28.302  1.00  0.00     0.031 A 
BRANCH  50  64
ATOM     64  C   UNL A   1      50.632  27.588  25.798  1.00  0.00    -0.014 A 
ATOM     65  C   UNL A   1      51.133  27.725  24.490  1.00  0.00     0.010 A 
ATOM     66  C   UNL A   1      51.479  27.088  26.804  1.00  0.00     0.010 A 
ATOM     67  C   UNL A   1      52.432  27.312  24.182  1.00  0.00     0.020 A 
ATOM     68  C   UNL A   1      52.789  26.703  26.506  1.00  0.00     0.020 A 
ATOM     69  C   UNL A   1      53.249  26.794  25.192  1.00  0.00     0.054 A 
BRANCH  69  70
ATOM     70  S   UNL A   1      54.925  26.250  24.763  1.00  0.00     0.124 S 
ATOM     71  O   UNL A   1      55.725  26.903  25.796  1.00  0.00    -0.237 OA
ATOM     72  O   UNL A   1      54.828  24.796  24.871  1.00  0.00    -0.237 OA
ATOM     73  O   UNL A   1      55.120  26.760  23.409  1.00  0.00    -0.744 OA
ENDBRANCH  69  70
ENDBRANCH  50  64
BRANCH  51  74
ATOM     74  C   UNL A   1      41.071  29.138  28.408  1.00  0.00    -0.014 A 
ATOM     75  C   UNL A   1      40.799  29.345  29.771  1.00  0.00     0.010 A 
ATOM     76  C   UNL A   1      40.006  29.166  27.487  1.00  0.00     0.010 A 
ATOM     77  C   UNL A   1      39.491  29.586  30.204  1.00  0.00     0.020 A 
ATOM     78  C   UNL A   1      38.701  29.431  27.913  1.00  0.00     0.020 A 
ATOM     79  C   UNL A   1      38.452  29.639  29.271  1.00  0.00     0.054 A 
BRANCH  79  80
ATOM     80  S   UNL A   1      36.782  30.056  29.847  1.00  0.00     0.124 S 
ATOM     81  O   UNL A   1      36.954  31.427  30.312  1.00  0.00    -0.237 OA
ATOM     82  O   UNL A   1      35.982  29.893  28.635  1.00  0.00    -0.237 OA
ATOM     83  O   UNL A   1      36.523  29.066  30.891  1.00  0.00    -0.744 OA
ENDBRANCH  79  80
ENDBRANCH  51  74
BRANCH  63  84
ATOM     84  C   UNL A   1      46.916  32.978  28.824  1.00  0.00    -0.014 A 
ATOM     85  C   UNL A   1      47.366  33.183  30.139  1.00  0.00     0.010 A 
ATOM     86  C   UNL A   1      46.842  34.072  27.942  1.00  0.00     0.010 A 
ATOM     87  C   UNL A   1      47.733  34.463  30.564  1.00  0.00     0.020 A 
ATOM     88  C   UNL A   1      47.232  35.347  28.356  1.00  0.00     0.020 A 
ATOM     89  C   UNL A   1      47.670  35.535  29.668  1.00  0.00     0.054 A 
BRANCH  89  90
ATOM     90  S   UNL A   1      48.233  37.169  30.218  1.00  0.00     0.124 S 
ATOM     91  O   UNL A   1      49.461  37.343  29.446  1.00  0.00    -0.237 OA
ATOM     92  O   UNL A   1      47.123  38.037  29.836  1.00  0.00    -0.237 OA
ATOM     93  O   UNL A   1      48.421  37.006  31.658  1.00  0.00    -0.744 OA
ENDBRANCH  89  90
ENDBRANCH  63  84
ENDBRANCH  37  38
ENDBRANCH  30  32
ENDBRANCH  29  30
ENDBRANCH  28  29
ENDBRANCH  27  28
ENDBRANCH   1  27
TORSDOF 22
ENDMDL
MODEL 3
REMARK VINA RESULT:      -9.9      5.761     10.261
REMARK SMILES O=C(OCCOCCOC(=O)c1ccc(-c2c3nc(c(-c4ccc(S(=O)(=O)[O-])cc4)c4ccc([nH]4)c(-c4ccc(S(=O)(=O)[O-])cc4)c4nc(c(-c5ccc(S(=O)(=O)[O-])cc5)c5ccc2[nH]5)C=C4)C=C3)cc1)c1ccc(N[C@H]2OC[C@@H](O)[C@@H](O)[C@H]2O)cc1
REMARK SMILES IDX 6 1 5 2 4 3 3 4 2 5 1 6 72 7 73 8 87 9 74 10 86 11 75 12
REMARK SMILES IDX 76 13 77 15 78 16 84 17 79 18 82 19 80 20 85 21 83 23 81 25
REMARK SMILES IDX 7 27 8 28 9 29 10 30 11 31 12 32 13 33 71 34 14 35 70 36
REMARK SMILES IDX 15 37 16 38 17 39 64 40 18 41 69 42 63 43 65 44 19 45 68 46
REMARK SMILES IDX 62 47 61 48 20 50 50 51 31 52 49 53 32 54 35 55 48 56 66 57
REMARK SMILES IDX 33 58 34 59 47 61 67 62 36 63 21 64 22 65 30 66 23 67 29 68
REMARK SMILES IDX 24 69 25 70 26 71 27 72 28 73 51 74 52 75 60 76 53 77 59 78
REMARK SMILES IDX 54 79 55 80 56 81 57 82 58 83 37 84 38 85 46 86 39 87 45 88
REMARK SMILES IDX 40 89 41 90 42 91 43 92 44 93
REMARK H PARENT 76 14 85 22 83 24 81 26 65 49 35 60
REMARK Flexibility Score: inf
ROOT
ATOM      1  O   UNL A   1      32.735  27.958  26.649  1.00  0.00    -0.374 OA
ENDROOT
BRANCH   1   2
ATOM      2  C   UNL A   1      33.150  27.190  25.520  1.00  0.00     0.202 C 
BRANCH   2   3
ATOM      3  C   UNL A   1      33.031  27.929  24.187  1.00  0.00     0.261 C 
BRANCH   3   4
ATOM      4  O   UNL A   1      32.426  27.082  23.186  1.00  0.00    -0.460 OA
BRANCH   4   5
ATOM      5  C   UNL A   1      33.054  26.124  22.457  1.00  0.00     0.338 C 
ATOM      6  O   UNL A   1      33.887  26.427  21.609  1.00  0.00    -0.246 OA
BRANCH   5   7
ATOM      7  C   UNL A   1      32.739  24.688  22.659  1.00  0.00     0.060 A 
ATOM      8  C   UNL A   1      31.464  24.263  22.998  1.00  0.00     0.018 A 
ATOM      9  C   UNL A   1      33.707  23.717  22.388  1.00  0.00     0.018 A 
ATOM     10  C   UNL A   1      31.177  22.918  23.172  1.00  0.00     0.026 A 
ATOM     11  C   UNL A   1      33.399  22.350  22.519  1.00  0.00     0.026 A 
ATOM     12  C   UNL A   1      32.131  21.928  22.942  1.00  0.00     0.036 A 
BRANCH  12  13
ATOM     13  N   UNL A   1      31.817  20.577  23.016  1.00  0.00    -0.358 N 
ATOM     14  H   UNL A   1      30.996  20.243  22.588  1.00  0.00     0.163 HD
BRANCH  13  15
ATOM     15  C   UNL A   1      32.694  19.650  23.721  1.00  0.00     0.244 C 
ATOM     16  O   UNL A   1      32.020  19.214  24.909  1.00  0.00    -0.353 OA
ATOM     17  C   UNL A   1      32.967  18.398  22.867  1.00  0.00     0.195 C 
ATOM     18  C   UNL A   1      32.867  18.442  25.766  1.00  0.00     0.197 C 
ATOM     19  C   UNL A   1      33.862  17.450  23.684  1.00  0.00     0.178 C 
ATOM     20  C   UNL A   1      33.262  17.141  25.069  1.00  0.00     0.171 C 
BRANCH  17  21
ATOM     21  O   UNL A   1      31.715  17.742  22.550  1.00  0.00    -0.386 OA
ATOM     22  H   UNL A   1      31.075  18.401  22.238  1.00  0.00     0.211 HD
ENDBRANCH  17  21
BRANCH  19  23
ATOM     23  O   UNL A   1      34.071  16.235  22.961  1.00  0.00    -0.387 OA
ATOM     24  H   UNL A   1      33.783  15.483  23.503  1.00  0.00     0.211 HD
ENDBRANCH  19  23
BRANCH  20  25
ATOM     25  O   UNL A   1      32.099  16.311  24.921  1.00  0.00    -0.388 OA
ATOM     26  H   UNL A   1      31.911  15.866  25.762  1.00  0.00     0.211 HD
ENDBRANCH  20  25
ENDBRANCH  13  15
ENDBRANCH  12  13
ENDBRANCH   5   7
ENDBRANCH   4   5
ENDBRANCH   3   4
ENDBRANCH   2   3
ENDBRANCH   1   2
BRANCH   1  27
ATOM     27  C   UNL A   1      31.717  28.936  26.387  1.00  0.00     0.202 C 
BRANCH  27  28
ATOM     28  C   UNL A   1      32.276  30.330  26.688  1.00  0.00     0.261 C 
BRANCH  28  29
ATOM     29  O   UNL A   1      33.581  30.170  27.256  1.00  0.00    -0.460 OA
BRANCH  29  30
ATOM     30  C   UNL A   1      34.182  31.339  27.612  1.00  0.00     0.338 C 
ATOM     31  O   UNL A   1      33.682  32.445  27.636  1.00  0.00    -0.246 OA
BRANCH  30  32
ATOM     32  C   UNL A   1      35.501  30.997  28.194  1.00  0.00     0.060 A 
ATOM     33  C   UNL A   1      35.773  29.655  28.494  1.00  0.00     0.016 A 
ATOM     34  C   UNL A   1      36.480  31.976  28.388  1.00  0.00     0.016 A 
ATOM     35  C   UNL A   1      37.012  29.293  29.027  1.00  0.00     0.010 A 
ATOM     36  C   UNL A   1      37.714  31.619  28.914  1.00  0.00     0.010 A 
ATOM     37  C   UNL A   1      37.968  30.284  29.272  1.00  0.00    -0.014 A 
BRANCH  37  38
ATOM     38  C   UNL A   1      39.154  30.020  30.111  1.00  0.00     0.031 A 
ATOM     39  C   UNL A   1      40.151  29.022  29.594  1.00  0.00     0.074 A 
ATOM     40  C   UNL A   1      39.272  30.553  31.338  1.00  0.00     0.049 A 
ATOM     41  N   UNL A   1      41.145  28.447  30.212  1.00  0.00    -0.248 NA
ATOM     42  C   UNL A   1      39.971  28.592  28.196  1.00  0.00     0.031 C 
ATOM     43  C   UNL A   1      38.363  31.536  31.924  1.00  0.00     0.029 A 
ATOM     44  N   UNL A   1      40.186  30.299  32.327  1.00  0.00    -0.354 N 
ATOM     45  C   UNL A   1      41.688  27.558  29.291  1.00  0.00     0.074 A 
ATOM     46  C   UNL A   1      40.901  27.657  28.083  1.00  0.00     0.031 C 
ATOM     47  C   UNL A   1      38.743  31.773  33.193  1.00  0.00     0.029 A 
ATOM     48  C   UNL A   1      39.892  30.927  33.514  1.00  0.00     0.049 A 
ATOM     49  H   UNL A   1      40.975  29.724  32.201  1.00  0.00     0.167 HD
ATOM     50  C   UNL A   1      42.743  26.726  29.446  1.00  0.00     0.031 A 
ATOM     51  C   UNL A   1      40.459  30.795  34.730  1.00  0.00     0.031 A 
ATOM     52  C   UNL A   1      43.497  26.627  30.664  1.00  0.00     0.049 A 
ATOM     53  C   UNL A   1      41.618  29.847  34.894  1.00  0.00     0.074 A 
ATOM     54  C   UNL A   1      44.611  25.853  30.928  1.00  0.00     0.029 A 
ATOM     55  N   UNL A   1      43.198  27.317  31.831  1.00  0.00    -0.354 N 
ATOM     56  N   UNL A   1      42.161  29.051  34.004  1.00  0.00    -0.248 NA
ATOM     57  C   UNL A   1      42.245  29.785  36.221  1.00  0.00     0.031 C 
ATOM     58  C   UNL A   1      44.952  26.032  32.272  1.00  0.00     0.029 A 
ATOM     59  C   UNL A   1      44.091  26.968  32.828  1.00  0.00     0.049 A 
ATOM     60  H   UNL A   1      42.460  27.960  31.934  1.00  0.00     0.167 HD
ATOM     61  C   UNL A   1      43.212  28.412  34.654  1.00  0.00     0.074 A 
ATOM     62  C   UNL A   1      43.230  28.918  36.012  1.00  0.00     0.031 C 
ATOM     63  C   UNL A   1      44.088  27.495  34.170  1.00  0.00     0.031 A 
BRANCH  50  64
ATOM     64  C   UNL A   1      43.093  25.833  28.286  1.00  0.00    -0.014 A 
ATOM     65  C   UNL A   1      42.592  24.521  28.192  1.00  0.00     0.010 A 
ATOM     66  C   UNL A   1      43.956  26.307  27.282  1.00  0.00     0.010 A 
ATOM     67  C   UNL A   1      42.996  23.681  27.151  1.00  0.00     0.020 A 
ATOM     68  C   UNL A   1      44.339  25.480  26.222  1.00  0.00     0.020 A 
ATOM     69  C   UNL A   1      43.876  24.164  26.177  1.00  0.00     0.054 A 
BRANCH  69  70
ATOM     70  S   UNL A   1      44.398  23.049  24.846  1.00  0.00     0.124 S 
ATOM     71  O   UNL A   1      44.980  21.940  25.597  1.00  0.00    -0.237 OA
ATOM     72  O   UNL A   1      43.140  22.754  24.163  1.00  0.00    -0.237 OA
ATOM     73  O   UNL A   1      45.349  23.848  24.077  1.00  0.00    -0.744 OA
ENDBRANCH  69  70
ENDBRANCH  50  64
BRANCH  51  74
ATOM     74  C   UNL A   1      39.916  31.571  35.877  1.00  0.00    -0.014 A 
ATOM     75  C   UNL A   1      38.706  31.197  36.486  1.00  0.00     0.010 A 
ATOM     76  C   UNL A   1      40.644  32.651  36.410  1.00  0.00     0.010 A 
ATOM     77  C   UNL A   1      38.238  31.884  37.611  1.00  0.00     0.020 A 
ATOM     78  C   UNL A   1      40.192  33.324  37.549  1.00  0.00     0.020 A 
ATOM     79  C   UNL A   1      38.990  32.935  38.143  1.00  0.00     0.054 A 
BRANCH  79  80
ATOM     80  S   UNL A   1      38.412  33.740  39.664  1.00  0.00     0.124 S 
ATOM     81  O   UNL A   1      39.319  33.189  40.664  1.00  0.00    -0.237 OA
ATOM     82  O   UNL A   1      38.592  35.157  39.357  1.00  0.00    -0.237 OA
ATOM     83  O   UNL A   1      37.020  33.307  39.773  1.00  0.00    -0.744 OA
ENDBRANCH  79  80
ENDBRANCH  51  74
BRANCH  63  84
ATOM     84  C   UNL A   1      45.172  27.006  35.092  1.00  0.00    -0.014 A 
ATOM     85  C   UNL A   1      46.389  27.696  35.219  1.00  0.00     0.010 A 
ATOM     86  C   UNL A   1      44.915  25.904  35.928  1.00  0.00     0.010 A 
ATOM     87  C   UNL A   1      47.334  27.286  36.164  1.00  0.00     0.020 A 
ATOM     88  C   UNL A   1      45.846  25.507  36.891  1.00  0.00     0.020 A 
ATOM     89  C   UNL A   1      47.053  26.199  36.998  1.00  0.00     0.054 A 
BRANCH  89  90
ATOM     90  S   UNL A   1      48.259  25.740  38.274  1.00  0.00     0.124 S 
ATOM     91  O   UNL A   1      47.538  24.708  39.015  1.00  0.00    -0.237 OA
ATOM     92  O   UNL A   1      49.395  25.270  37.486  1.00  0.00    -0.237 OA
ATOM     93  O   UNL A   1      48.486  26.987  39.001  1.00  0.00    -0.744 OA
ENDBRANCH  89  90
ENDBRANCH  63  84
ENDBRANCH  37  38
ENDBRANCH  30  32
ENDBRANCH  29  30
ENDBRANCH  28  29
ENDBRANCH  27  28
ENDBRANCH   1  27
TORSDOF 22
ENDMDL
