MODEL 1
REMARK VINA RESULT:     -10.4      0.000      0.000
REMARK SMILES O=C(OCCOCCOC(=O)[C@H]1C[C@H]2CCCC[C@@H]2[N@@H+]1CC[C@@H]1CCCO1)c1ccc(-c2c3nc(c(-c4ccc(S(=O)(=O)[O-])cc4)c4ccc([nH]4)c(-c4ccc(S(=O)(=O)[O-])cc4)c4nc(c(-c5ccc(S(=O)(=O)[O-])cc5)c5ccc2[nH]5)C=C4)C=C3)cc1
REMARK SMILES IDX 6 1 5 2 4 3 3 4 2 5 1 6 28 7 29 8 87 9 30 10 86 11 31 12
REMARK SMILES IDX 32 13 33 14 80 15 34 16 85 17 79 18 81 19 35 20 84 21 78 22
REMARK SMILES IDX 77 23 36 25 66 26 47 27 65 28 48 29 51 30 64 31 82 32 49 33
REMARK SMILES IDX 50 34 63 36 83 37 52 38 37 39 38 40 46 41 39 42 45 43 40 44
REMARK SMILES IDX 41 45 42 46 43 47 44 48 67 49 68 50 76 51 69 52 75 53 70 54
REMARK SMILES IDX 71 55 72 56 73 57 74 58 53 59 54 60 62 61 55 62 61 63 56 64
REMARK SMILES IDX 57 65 58 66 59 67 60 68 7 69 8 70 9 71 10 72 11 73 12 74
REMARK SMILES IDX 13 75 20 76 14 77 19 78 15 80 18 81 16 82 17 83 21 84 22 85
REMARK SMILES IDX 23 86 24 87 27 88 25 89 26 90
REMARK H PARENT 81 24 51 35 20 79
REMARK Flexibility Score: inf
ROOT
ATOM      1  O   UNL A   1      31.523  28.582  24.683  1.00  0.00    -0.374 OA
ENDROOT
BRANCH   1   2
ATOM      2  C   UNL A   1      32.207  29.567  25.457  1.00  0.00     0.202 C 
BRANCH   2   3
ATOM      3  C   UNL A   1      32.423  29.233  26.934  1.00  0.00     0.261 C 
BRANCH   3   4
ATOM      4  O   UNL A   1      33.826  29.105  27.213  1.00  0.00    -0.460 OA
BRANCH   4   5
ATOM      5  C   UNL A   1      34.633  30.068  27.723  1.00  0.00     0.338 C 
ATOM      6  O   UNL A   1      34.172  31.179  27.957  1.00  0.00    -0.246 OA
BRANCH   5   7
ATOM      7  C   UNL A   1      36.050  29.793  28.081  1.00  0.00     0.060 A 
ATOM      8  C   UNL A   1      37.127  30.002  27.221  1.00  0.00     0.016 A 
ATOM      9  C   UNL A   1      36.317  29.351  29.383  1.00  0.00     0.016 A 
ATOM     10  C   UNL A   1      38.419  29.715  27.582  1.00  0.00     0.010 A 
ATOM     11  C   UNL A   1      37.631  29.105  29.783  1.00  0.00     0.010 A 
ATOM     12  C   UNL A   1      38.676  29.280  28.868  1.00  0.00    -0.014 A 
BRANCH  12  13
ATOM     13  C   UNL A   1      40.060  28.901  29.143  1.00  0.00     0.031 A 
ATOM     14  C   UNL A   1      40.893  29.860  29.923  1.00  0.00     0.074 A 
ATOM     15  C   UNL A   1      40.456  27.648  28.857  1.00  0.00     0.049 A 
ATOM     16  N   UNL A   1      42.160  29.800  30.208  1.00  0.00    -0.248 NA
ATOM     17  C   UNL A   1      40.201  31.045  30.466  1.00  0.00     0.031 C 
ATOM     18  C   UNL A   1      39.602  26.600  28.279  1.00  0.00     0.029 A 
ATOM     19  N   UNL A   1      41.655  27.029  29.050  1.00  0.00    -0.354 N 
ATOM     20  C   UNL A   1      42.435  30.968  30.906  1.00  0.00     0.074 A 
ATOM     21  C   UNL A   1      41.202  31.709  31.021  1.00  0.00     0.031 C 
ATOM     22  C   UNL A   1      40.306  25.463  28.185  1.00  0.00     0.029 A 
ATOM     23  C   UNL A   1      41.676  25.733  28.593  1.00  0.00     0.049 A 
ATOM     24  H   UNL A   1      42.429  27.466  29.475  1.00  0.00     0.167 HD
ATOM     25  C   UNL A   1      43.634  31.378  31.374  1.00  0.00     0.031 A 
ATOM     26  C   UNL A   1      42.717  24.892  28.462  1.00  0.00     0.031 A 
ATOM     27  C   UNL A   1      44.825  30.589  31.213  1.00  0.00     0.049 A 
ATOM     28  C   UNL A   1      44.062  25.414  28.881  1.00  0.00     0.074 A 
ATOM     29  C   UNL A   1      46.125  30.900  31.551  1.00  0.00     0.029 A 
ATOM     30  N   UNL A   1      44.842  29.312  30.659  1.00  0.00    -0.354 N 
ATOM     31  N   UNL A   1      44.358  26.574  29.427  1.00  0.00    -0.248 NA
ATOM     32  C   UNL A   1      45.214  24.539  28.652  1.00  0.00     0.031 C 
ATOM     33  C   UNL A   1      46.936  29.833  31.150  1.00  0.00     0.029 A 
ATOM     34  C   UNL A   1      46.132  28.826  30.628  1.00  0.00     0.049 A 
ATOM     35  H   UNL A   1      44.048  28.827  30.336  1.00  0.00     0.167 HD
ATOM     36  C   UNL A   1      45.729  26.562  29.627  1.00  0.00     0.074 A 
ATOM     37  C   UNL A   1      46.200  25.271  29.155  1.00  0.00     0.031 C 
ATOM     38  C   UNL A   1      46.533  27.523  30.148  1.00  0.00     0.031 A 
BRANCH  25  39
ATOM     39  C   UNL A   1      43.700  32.757  31.966  1.00  0.00    -0.014 A 
ATOM     40  C   UNL A   1      43.535  32.988  33.345  1.00  0.00     0.010 A 
ATOM     41  C   UNL A   1      43.866  33.859  31.107  1.00  0.00     0.010 A 
ATOM     42  C   UNL A   1      43.483  34.295  33.842  1.00  0.00     0.020 A 
ATOM     43  C   UNL A   1      43.844  35.165  31.603  1.00  0.00     0.020 A 
ATOM     44  C   UNL A   1      43.629  35.375  32.966  1.00  0.00     0.054 A 
BRANCH  44  45
ATOM     45  S   UNL A   1      43.543  37.060  33.633  1.00  0.00     0.124 S 
ATOM     46  O   UNL A   1      44.754  37.123  34.449  1.00  0.00    -0.237 OA
ATOM     47  O   UNL A   1      43.556  37.882  32.427  1.00  0.00    -0.237 OA
ATOM     48  O   UNL A   1      42.288  37.074  34.381  1.00  0.00    -0.744 OA
ENDBRANCH  44  45
ENDBRANCH  25  39
BRANCH  26  49
ATOM     49  C   UNL A   1      42.528  23.553  27.841  1.00  0.00    -0.014 A 
ATOM     50  C   UNL A   1      42.691  23.362  26.459  1.00  0.00     0.010 A 
ATOM     51  C   UNL A   1      42.214  22.439  28.645  1.00  0.00     0.010 A 
ATOM     52  C   UNL A   1      42.534  22.091  25.894  1.00  0.00     0.020 A 
ATOM     53  C   UNL A   1      42.087  21.162  28.091  1.00  0.00     0.020 A 
ATOM     54  C   UNL A   1      42.236  20.998  26.714  1.00  0.00     0.054 A 
BRANCH  54  55
ATOM     55  S   UNL A   1      42.078  19.353  25.965  1.00  0.00     0.124 S 
ATOM     56  O   UNL A   1      40.645  19.276  25.700  1.00  0.00    -0.237 OA
ATOM     57  O   UNL A   1      42.935  19.461  24.786  1.00  0.00    -0.237 OA
ATOM     58  O   UNL A   1      42.571  18.453  27.004  1.00  0.00    -0.744 OA
ENDBRANCH  54  55
ENDBRANCH  26  49
BRANCH  38  59
ATOM     59  C   UNL A   1      47.987  27.181  30.279  1.00  0.00    -0.014 A 
ATOM     60  C   UNL A   1      48.892  27.428  29.234  1.00  0.00     0.010 A 
ATOM     61  C   UNL A   1      48.459  26.680  31.506  1.00  0.00     0.010 A 
ATOM     62  C   UNL A   1      50.248  27.156  29.408  1.00  0.00     0.020 A 
ATOM     63  C   UNL A   1      49.817  26.439  31.694  1.00  0.00     0.020 A 
ATOM     64  C   UNL A   1      50.702  26.669  30.638  1.00  0.00     0.054 A 
BRANCH  64  65
ATOM     65  S   UNL A   1      52.478  26.390  30.862  1.00  0.00     0.124 S 
ATOM     66  O   UNL A   1      52.953  26.345  29.483  1.00  0.00    -0.237 OA
ATOM     67  O   UNL A   1      52.889  27.562  31.632  1.00  0.00    -0.237 OA
ATOM     68  O   UNL A   1      52.542  25.123  31.587  1.00  0.00    -0.744 OA
ENDBRANCH  64  65
ENDBRANCH  38  59
ENDBRANCH  12  13
ENDBRANCH   5   7
ENDBRANCH   4   5
ENDBRANCH   3   4
ENDBRANCH   2   3
ENDBRANCH   1   2
BRANCH   1  69
ATOM     69  C   UNL A   1      32.338  27.704  23.911  1.00  0.00     0.202 C 
BRANCH  69  70
ATOM     70  C   UNL A   1      32.229  26.284  24.459  1.00  0.00     0.261 C 
BRANCH  70  71
ATOM     71  O   UNL A   1      32.322  25.367  23.353  1.00  0.00    -0.459 OA
BRANCH  71  72
ATOM     72  C   UNL A   1      31.417  24.344  23.396  1.00  0.00     0.365 C 
ATOM     73  O   UNL A   1      30.205  24.489  23.517  1.00  0.00    -0.245 OA
BRANCH  72  74
ATOM     74  C   UNL A   1      32.131  22.982  23.239  1.00  0.00     0.295 C 
ATOM     75  C   UNL A   1      33.470  23.251  22.531  1.00  0.00     0.087 C 
ATOM     76  N   UNL A   1      32.475  22.433  24.583  1.00  0.00    -0.320 N 
ATOM     77  C   UNL A   1      34.517  22.867  23.565  1.00  0.00     0.054 C 
ATOM     78  C   UNL A   1      33.790  22.981  24.894  1.00  0.00     0.188 C 
ATOM     79  H   UNL A   1      31.796  22.740  25.277  1.00  0.00     0.349 HD
ATOM     80  C   UNL A   1      35.813  23.653  23.608  1.00  0.00     0.010 C 
ATOM     81  C   UNL A   1      34.587  22.467  26.085  1.00  0.00     0.065 C 
ATOM     82  C   UNL A   1      36.688  23.103  24.741  1.00  0.00     0.001 C 
ATOM     83  C   UNL A   1      35.987  23.092  26.107  1.00  0.00     0.006 C 
BRANCH  76  84
ATOM     84  C   UNL A   1      32.202  21.022  24.863  1.00  0.00     0.265 C 
BRANCH  84  85
ATOM     85  C   UNL A   1      32.856  19.876  24.071  1.00  0.00     0.093 C 
BRANCH  85  86
ATOM     86  C   UNL A   1      33.260  18.583  24.796  1.00  0.00     0.123 C 
ATOM     87  C   UNL A   1      34.032  17.547  23.986  1.00  0.00     0.034 C 
ATOM     88  O   UNL A   1      32.167  17.897  25.392  1.00  0.00    -0.378 OA
ATOM     89  C   UNL A   1      33.428  16.213  24.381  1.00  0.00     0.031 C 
ATOM     90  C   UNL A   1      32.544  16.533  25.561  1.00  0.00     0.160 C 
ENDBRANCH  85  86
ENDBRANCH  84  85
ENDBRANCH  76  84
ENDBRANCH  72  74
ENDBRANCH  71  72
ENDBRANCH  70  71
ENDBRANCH  69  70
ENDBRANCH   1  69
TORSDOF 20
ENDMDL
MODEL 2
REMARK VINA RESULT:     -10.3      2.871      8.059
REMARK SMILES O=C(OCCOCCOC(=O)[C@H]1C[C@H]2CCCC[C@@H]2[N@@H+]1CC[C@@H]1CCCO1)c1ccc(-c2c3nc(c(-c4ccc(S(=O)(=O)[O-])cc4)c4ccc([nH]4)c(-c4ccc(S(=O)(=O)[O-])cc4)c4nc(c(-c5ccc(S(=O)(=O)[O-])cc5)c5ccc2[nH]5)C=C4)C=C3)cc1
REMARK SMILES IDX 6 1 5 2 4 3 3 4 2 5 1 6 28 7 29 8 87 9 30 10 86 11 31 12
REMARK SMILES IDX 32 13 33 14 80 15 34 16 85 17 79 18 81 19 35 20 84 21 78 22
REMARK SMILES IDX 77 23 36 25 66 26 47 27 65 28 48 29 51 30 64 31 82 32 49 33
REMARK SMILES IDX 50 34 63 36 83 37 52 38 37 39 38 40 46 41 39 42 45 43 40 44
REMARK SMILES IDX 41 45 42 46 43 47 44 48 67 49 68 50 76 51 69 52 75 53 70 54
REMARK SMILES IDX 71 55 72 56 73 57 74 58 53 59 54 60 62 61 55 62 61 63 56 64
REMARK SMILES IDX 57 65 58 66 59 67 60 68 7 69 8 70 9 71 10 72 11 73 12 74
REMARK SMILES IDX 13 75 20 76 14 77 19 78 15 80 18 81 16 82 17 83 21 84 22 85
REMARK SMILES IDX 23 86 24 87 27 88 25 89 26 90
REMARK H PARENT 81 24 51 35 20 79
REMARK Flexibility Score: inf
ROOT
ATOM      1  O   UNL A   1      34.681  23.540  26.196  1.00  0.00    -0.374 OA
ENDROOT
BRANCH   1   2
ATOM      2  C   UNL A   1      35.327  23.223  24.963  1.00  0.00     0.202 C 
BRANCH   2   3
ATOM      3  C   UNL A   1      36.817  23.562  24.878  1.00  0.00     0.261 C 
BRANCH   3   4
ATOM      4  O   UNL A   1      37.555  22.806  25.850  1.00  0.00    -0.460 OA
BRANCH   4   5
ATOM      5  C   UNL A   1      38.857  22.982  26.183  1.00  0.00     0.338 C 
ATOM      6  O   UNL A   1      39.677  22.122  25.884  1.00  0.00    -0.246 OA
BRANCH   5   7
ATOM      7  C   UNL A   1      39.336  24.230  26.835  1.00  0.00     0.060 A 
ATOM      8  C   UNL A   1      40.108  25.199  26.195  1.00  0.00     0.016 A 
ATOM      9  C   UNL A   1      38.938  24.466  28.157  1.00  0.00     0.016 A 
ATOM     10  C   UNL A   1      40.548  26.326  26.839  1.00  0.00     0.010 A 
ATOM     11  C   UNL A   1      39.334  25.635  28.809  1.00  0.00     0.010 A 
ATOM     12  C   UNL A   1      40.150  26.555  28.142  1.00  0.00    -0.014 A 
BRANCH  12  13
ATOM     13  C   UNL A   1      40.741  27.724  28.789  1.00  0.00     0.031 A 
ATOM     14  C   UNL A   1      39.849  28.888  29.053  1.00  0.00     0.074 A 
ATOM     15  C   UNL A   1      41.989  27.628  29.283  1.00  0.00     0.049 A 
ATOM     16  N   UNL A   1      40.152  30.063  29.519  1.00  0.00    -0.248 NA
ATOM     17  C   UNL A   1      38.414  28.699  28.763  1.00  0.00     0.031 C 
ATOM     18  C   UNL A   1      42.830  26.424  29.231  1.00  0.00     0.029 A 
ATOM     19  N   UNL A   1      42.748  28.534  29.961  1.00  0.00    -0.354 N 
ATOM     20  C   UNL A   1      38.962  30.778  29.517  1.00  0.00     0.074 A 
ATOM     21  C   UNL A   1      37.927  29.901  29.024  1.00  0.00     0.031 C 
ATOM     22  C   UNL A   1      43.984  26.667  29.871  1.00  0.00     0.029 A 
ATOM     23  C   UNL A   1      44.000  28.063  30.278  1.00  0.00     0.049 A 
ATOM     24  H   UNL A   1      42.432  29.436  30.200  1.00  0.00     0.167 HD
ATOM     25  C   UNL A   1      38.781  32.068  29.873  1.00  0.00     0.031 A 
ATOM     26  C   UNL A   1      45.057  28.724  30.782  1.00  0.00     0.031 A 
ATOM     27  C   UNL A   1      39.865  32.886  30.346  1.00  0.00     0.049 A 
ATOM     28  C   UNL A   1      44.867  30.189  31.060  1.00  0.00     0.074 A 
ATOM     29  C   UNL A   1      39.866  34.228  30.663  1.00  0.00     0.029 A 
ATOM     30  N   UNL A   1      41.155  32.413  30.572  1.00  0.00    -0.354 N 
ATOM     31  N   UNL A   1      43.773  30.911  30.939  1.00  0.00    -0.248 NA
ATOM     32  C   UNL A   1      46.041  30.935  31.516  1.00  0.00     0.031 C 
ATOM     33  C   UNL A   1      41.171  34.578  31.027  1.00  0.00     0.029 A 
ATOM     34  C   UNL A   1      41.966  33.439  31.007  1.00  0.00     0.049 A 
ATOM     35  H   UNL A   1      41.445  31.481  30.440  1.00  0.00     0.167 HD
ATOM     36  C   UNL A   1      44.121  32.196  31.324  1.00  0.00     0.074 A 
ATOM     37  C   UNL A   1      45.525  32.145  31.696  1.00  0.00     0.031 C 
ATOM     38  C   UNL A   1      43.361  33.319  31.367  1.00  0.00     0.031 A 
BRANCH  25  39
ATOM     39  C   UNL A   1      37.420  32.658  29.637  1.00  0.00    -0.014 A 
ATOM     40  C   UNL A   1      36.962  32.989  28.348  1.00  0.00     0.010 A 
ATOM     41  C   UNL A   1      36.605  32.951  30.746  1.00  0.00     0.010 A 
ATOM     42  C   UNL A   1      35.738  33.647  28.180  1.00  0.00     0.020 A 
ATOM     43  C   UNL A   1      35.369  33.583  30.580  1.00  0.00     0.020 A 
ATOM     44  C   UNL A   1      34.954  33.947  29.298  1.00  0.00     0.054 A 
BRANCH  44  45
ATOM     45  S   UNL A   1      33.379  34.815  29.055  1.00  0.00     0.124 S 
ATOM     46  O   UNL A   1      32.825  34.817  30.407  1.00  0.00    -0.237 OA
ATOM     47  O   UNL A   1      33.807  36.117  28.551  1.00  0.00    -0.237 OA
ATOM     48  O   UNL A   1      32.667  33.980  28.092  1.00  0.00    -0.744 OA
ENDBRANCH  44  45
ENDBRANCH  25  39
BRANCH  26  49
ATOM     49  C   UNL A   1      46.364  28.033  30.952  1.00  0.00    -0.014 A 
ATOM     50  C   UNL A   1      46.716  27.434  32.174  1.00  0.00     0.010 A 
ATOM     51  C   UNL A   1      47.259  27.937  29.869  1.00  0.00     0.010 A 
ATOM     52  C   UNL A   1      47.938  26.766  32.310  1.00  0.00     0.020 A 
ATOM     53  C   UNL A   1      48.468  27.244  29.990  1.00  0.00     0.020 A 
ATOM     54  C   UNL A   1      48.805  26.673  31.217  1.00  0.00     0.054 A 
BRANCH  54  55
ATOM     55  S   UNL A   1      50.365  25.765  31.406  1.00  0.00     0.124 S 
ATOM     56  O   UNL A   1      51.195  26.732  32.118  1.00  0.00    -0.237 OA
ATOM     57  O   UNL A   1      49.956  24.593  32.176  1.00  0.00    -0.237 OA
ATOM     58  O   UNL A   1      50.771  25.487  30.030  1.00  0.00    -0.744 OA
ENDBRANCH  54  55
ENDBRANCH  26  49
BRANCH  38  59
ATOM     59  C   UNL A   1      44.026  34.559  31.886  1.00  0.00    -0.014 A 
ATOM     60  C   UNL A   1      44.066  34.845  33.261  1.00  0.00     0.010 A 
ATOM     61  C   UNL A   1      44.691  35.403  30.979  1.00  0.00     0.010 A 
ATOM     62  C   UNL A   1      44.744  35.973  33.718  1.00  0.00     0.020 A 
ATOM     63  C   UNL A   1      45.398  36.513  31.436  1.00  0.00     0.020 A 
ATOM     64  C   UNL A   1      45.410  36.796  32.803  1.00  0.00     0.054 A 
BRANCH  64  65
ATOM     65  S   UNL A   1      46.343  38.216  33.430  1.00  0.00     0.124 S 
ATOM     66  O   UNL A   1      47.723  37.767  33.269  1.00  0.00    -0.237 OA
ATOM     67  O   UNL A   1      45.924  39.293  32.535  1.00  0.00    -0.237 OA
ATOM     68  O   UNL A   1      45.887  38.350  34.811  1.00  0.00    -0.744 OA
ENDBRANCH  64  65
ENDBRANCH  38  59
ENDBRANCH  12  13
ENDBRANCH   5   7
ENDBRANCH   4   5
ENDBRANCH   3   4
ENDBRANCH   2   3
ENDBRANCH   1   2
BRANCH   1  69
ATOM     69  C   UNL A   1      34.306  22.436  27.017  1.00  0.00     0.202 C 
BRANCH  69  70
ATOM     70  C   UNL A   1      32.843  22.573  27.426  1.00  0.00     0.261 C 
BRANCH  70  71
ATOM     71  O   UNL A   1      32.069  22.853  26.245  1.00  0.00    -0.459 OA
BRANCH  71  72
ATOM     72  C   UNL A   1      30.959  23.618  26.470  1.00  0.00     0.365 C 
ATOM     73  O   UNL A   1      30.161  23.440  27.385  1.00  0.00    -0.245 OA
BRANCH  72  74
ATOM     74  C   UNL A   1      30.867  24.759  25.431  1.00  0.00     0.295 C 
ATOM     75  C   UNL A   1      30.188  25.952  26.126  1.00  0.00     0.087 C 
ATOM     76  N   UNL A   1      32.238  25.219  25.062  1.00  0.00    -0.320 N 
ATOM     77  C   UNL A   1      31.263  27.028  26.145  1.00  0.00     0.054 C 
ATOM     78  C   UNL A   1      32.567  26.256  26.032  1.00  0.00     0.188 C 
ATOM     79  H   UNL A   1      32.902  24.450  25.134  1.00  0.00     0.349 HD
ATOM     80  C   UNL A   1      31.316  27.975  27.327  1.00  0.00     0.010 C 
ATOM     81  C   UNL A   1      33.796  27.135  25.848  1.00  0.00     0.065 C 
ATOM     82  C   UNL A   1      32.491  28.943  27.134  1.00  0.00     0.001 C 
ATOM     83  C   UNL A   1      33.836  28.237  26.913  1.00  0.00     0.006 C 
BRANCH  76  84
ATOM     84  C   UNL A   1      32.557  25.433  23.649  1.00  0.00     0.265 C 
BRANCH  84  85
ATOM     85  C   UNL A   1      32.771  26.833  23.049  1.00  0.00     0.093 C 
BRANCH  85  86
ATOM     86  C   UNL A   1      31.559  27.660  22.595  1.00  0.00     0.123 C 
ATOM     87  C   UNL A   1      31.483  29.103  23.083  1.00  0.00     0.034 C 
ATOM     88  O   UNL A   1      30.308  27.062  22.909  1.00  0.00    -0.378 OA
ATOM     89  C   UNL A   1      30.028  29.314  23.457  1.00  0.00     0.031 C 
ATOM     90  C   UNL A   1      29.321  28.090  22.929  1.00  0.00     0.160 C 
ENDBRANCH  85  86
ENDBRANCH  84  85
ENDBRANCH  76  84
ENDBRANCH  72  74
ENDBRANCH  71  72
ENDBRANCH  70  71
ENDBRANCH  69  70
ENDBRANCH   1  69
TORSDOF 20
ENDMDL
MODEL 3
REMARK VINA RESULT:      -9.9      3.251      9.611
REMARK SMILES O=C(OCCOCCOC(=O)[C@H]1C[C@H]2CCCC[C@@H]2[N@@H+]1CC[C@@H]1CCCO1)c1ccc(-c2c3nc(c(-c4ccc(S(=O)(=O)[O-])cc4)c4ccc([nH]4)c(-c4ccc(S(=O)(=O)[O-])cc4)c4nc(c(-c5ccc(S(=O)(=O)[O-])cc5)c5ccc2[nH]5)C=C4)C=C3)cc1
REMARK SMILES IDX 6 1 5 2 4 3 3 4 2 5 1 6 28 7 29 8 87 9 30 10 86 11 31 12
REMARK SMILES IDX 32 13 33 14 80 15 34 16 85 17 79 18 81 19 35 20 84 21 78 22
REMARK SMILES IDX 77 23 36 25 66 26 47 27 65 28 48 29 51 30 64 31 82 32 49 33
REMARK SMILES IDX 50 34 63 36 83 37 52 38 37 39 38 40 46 41 39 42 45 43 40 44
REMARK SMILES IDX 41 45 42 46 43 47 44 48 67 49 68 50 76 51 69 52 75 53 70 54
REMARK SMILES IDX 71 55 72 56 73 57 74 58 53 59 54 60 62 61 55 62 61 63 56 64
REMARK SMILES IDX 57 65 58 66 59 67 60 68 7 69 8 70 9 71 10 72 11 73 12 74
REMARK SMILES IDX 13 75 20 76 14 77 19 78 15 80 18 81 16 82 17 83 21 84 22 85
REMARK SMILES IDX 23 86 24 87 27 88 25 89 26 90
REMARK H PARENT 81 24 51 35 20 79
REMARK Flexibility Score: inf
ROOT
ATOM      1  O   UNL A   1      34.884  23.688  25.154  1.00  0.00    -0.374 OA
ENDROOT
BRANCH   1   2
ATOM      2  C   UNL A   1      36.223  23.342  24.802  1.00  0.00     0.202 C 
BRANCH   2   3
ATOM      3  C   UNL A   1      36.886  22.259  25.656  1.00  0.00     0.261 C 
BRANCH   3   4
ATOM      4  O   UNL A   1      38.306  22.257  25.441  1.00  0.00    -0.460 OA
BRANCH   4   5
ATOM      5  C   UNL A   1      39.262  22.302  26.402  1.00  0.00     0.338 C 
ATOM      6  O   UNL A   1      39.724  21.255  26.840  1.00  0.00    -0.246 OA
BRANCH   5   7
ATOM      7  C   UNL A   1      39.826  23.590  26.886  1.00  0.00     0.060 A 
ATOM      8  C   UNL A   1      39.497  24.835  26.352  1.00  0.00     0.016 A 
ATOM      9  C   UNL A   1      40.697  23.547  27.981  1.00  0.00     0.016 A 
ATOM     10  C   UNL A   1      40.055  26.000  26.813  1.00  0.00     0.010 A 
ATOM     11  C   UNL A   1      41.234  24.728  28.496  1.00  0.00     0.010 A 
ATOM     12  C   UNL A   1      40.913  25.951  27.895  1.00  0.00    -0.014 A 
BRANCH  12  13
ATOM     13  C   UNL A   1      41.543  27.218  28.261  1.00  0.00     0.031 A 
ATOM     14  C   UNL A   1      42.996  27.373  27.969  1.00  0.00     0.074 A 
ATOM     15  C   UNL A   1      40.761  28.238  28.658  1.00  0.00     0.049 A 
ATOM     16  N   UNL A   1      43.795  28.349  28.283  1.00  0.00    -0.248 NA
ATOM     17  C   UNL A   1      43.636  26.283  27.208  1.00  0.00     0.031 C 
ATOM     18  C   UNL A   1      39.295  28.192  28.758  1.00  0.00     0.029 A 
ATOM     19  N   UNL A   1      41.076  29.516  29.007  1.00  0.00    -0.354 N 
ATOM     20  C   UNL A   1      45.045  27.965  27.818  1.00  0.00     0.074 A 
ATOM     21  C   UNL A   1      44.898  26.678  27.182  1.00  0.00     0.031 C 
ATOM     22  C   UNL A   1      38.842  29.400  29.126  1.00  0.00     0.029 A 
ATOM     23  C   UNL A   1      39.986  30.261  29.387  1.00  0.00     0.049 A 
ATOM     24  H   UNL A   1      41.995  29.872  28.990  1.00  0.00     0.167 HD
ATOM     25  C   UNL A   1      46.210  28.636  27.952  1.00  0.00     0.031 A 
ATOM     26  C   UNL A   1      39.940  31.482  29.947  1.00  0.00     0.031 A 
ATOM     27  C   UNL A   1      46.281  29.913  28.609  1.00  0.00     0.049 A 
ATOM     28  C   UNL A   1      41.257  32.161  30.194  1.00  0.00     0.074 A 
ATOM     29  C   UNL A   1      47.390  30.678  28.902  1.00  0.00     0.029 A 
ATOM     30  N   UNL A   1      45.170  30.611  29.074  1.00  0.00    -0.354 N 
ATOM     31  N   UNL A   1      42.465  31.748  29.874  1.00  0.00    -0.248 NA
ATOM     32  C   UNL A   1      41.220  33.447  30.891  1.00  0.00     0.031 C 
ATOM     33  C   UNL A   1      46.953  31.814  29.593  1.00  0.00     0.029 A 
ATOM     34  C   UNL A   1      45.566  31.792  29.667  1.00  0.00     0.049 A 
ATOM     35  H   UNL A   1      44.237  30.307  28.990  1.00  0.00     0.167 HD
ATOM     36  C   UNL A   1      43.333  32.734  30.313  1.00  0.00     0.074 A 
ATOM     37  C   UNL A   1      42.507  33.771  30.908  1.00  0.00     0.031 C 
ATOM     38  C   UNL A   1      44.687  32.787  30.238  1.00  0.00     0.031 A 
BRANCH  25  39
ATOM     39  C   UNL A   1      47.458  27.937  27.494  1.00  0.00    -0.014 A 
ATOM     40  C   UNL A   1      48.175  27.063  28.333  1.00  0.00     0.010 A 
ATOM     41  C   UNL A   1      47.963  28.218  26.211  1.00  0.00     0.010 A 
ATOM     42  C   UNL A   1      49.397  26.525  27.914  1.00  0.00     0.020 A 
ATOM     43  C   UNL A   1      49.169  27.660  25.778  1.00  0.00     0.020 A 
ATOM     44  C   UNL A   1      49.890  26.835  26.642  1.00  0.00     0.054 A 
BRANCH  44  45
ATOM     45  S   UNL A   1      51.484  26.137  26.128  1.00  0.00     0.124 S 
ATOM     46  O   UNL A   1      51.358  26.137  24.673  1.00  0.00    -0.237 OA
ATOM     47  O   UNL A   1      52.442  27.094  26.674  1.00  0.00    -0.237 OA
ATOM     48  O   UNL A   1      51.503  24.816  26.751  1.00  0.00    -0.744 OA
ENDBRANCH  44  45
ENDBRANCH  25  39
BRANCH  26  49
ATOM     49  C   UNL A   1      38.639  32.063  30.377  1.00  0.00    -0.014 A 
ATOM     50  C   UNL A   1      37.901  32.904  29.527  1.00  0.00     0.010 A 
ATOM     51  C   UNL A   1      38.106  31.744  31.642  1.00  0.00     0.010 A 
ATOM     52  C   UNL A   1      36.667  33.422  29.937  1.00  0.00     0.020 A 
ATOM     53  C   UNL A   1      36.860  32.234  32.044  1.00  0.00     0.020 A 
ATOM     54  C   UNL A   1      36.153  33.081  31.192  1.00  0.00     0.054 A 
BRANCH  54  55
ATOM     55  S   UNL A   1      34.532  33.731  31.685  1.00  0.00     0.124 S 
ATOM     56  O   UNL A   1      33.882  33.936  30.394  1.00  0.00    -0.237 OA
ATOM     57  O   UNL A   1      33.992  32.646  32.500  1.00  0.00    -0.237 OA
ATOM     58  O   UNL A   1      34.858  34.950  32.420  1.00  0.00    -0.744 OA
ENDBRANCH  54  55
ENDBRANCH  26  49
BRANCH  38  59
ATOM     59  C   UNL A   1      45.339  34.030  30.765  1.00  0.00    -0.014 A 
ATOM     60  C   UNL A   1      45.528  35.157  29.948  1.00  0.00     0.010 A 
ATOM     61  C   UNL A   1      45.690  34.089  32.126  1.00  0.00     0.010 A 
ATOM     62  C   UNL A   1      46.082  36.319  30.482  1.00  0.00     0.020 A 
ATOM     63  C   UNL A   1      46.213  35.260  32.670  1.00  0.00     0.020 A 
ATOM     64  C   UNL A   1      46.415  36.365  31.840  1.00  0.00     0.054 A 
BRANCH  64  65
ATOM     65  S   UNL A   1      47.066  37.910  32.525  1.00  0.00     0.124 S 
ATOM     66  O   UNL A   1      47.382  37.523  33.897  1.00  0.00    -0.237 OA
ATOM     67  O   UNL A   1      48.217  38.179  31.667  1.00  0.00    -0.237 OA
ATOM     68  O   UNL A   1      45.956  38.849  32.381  1.00  0.00    -0.744 OA
ENDBRANCH  64  65
ENDBRANCH  38  59
ENDBRANCH  12  13
ENDBRANCH   5   7
ENDBRANCH   4   5
ENDBRANCH   3   4
ENDBRANCH   2   3
ENDBRANCH   1   2
BRANCH   1  69
ATOM     69  C   UNL A   1      34.300  24.771  24.435  1.00  0.00     0.202 C 
BRANCH  69  70
ATOM     70  C   UNL A   1      33.958  24.324  23.017  1.00  0.00     0.261 C 
BRANCH  70  71
ATOM     71  O   UNL A   1      32.630  24.784  22.707  1.00  0.00    -0.459 OA
BRANCH  71  72
ATOM     72  C   UNL A   1      32.577  26.062  22.226  1.00  0.00     0.365 C 
ATOM     73  O   UNL A   1      33.418  26.566  21.488  1.00  0.00    -0.245 OA
BRANCH  72  74
ATOM     74  C   UNL A   1      31.295  26.773  22.715  1.00  0.00     0.295 C 
ATOM     75  C   UNL A   1      30.874  26.094  24.030  1.00  0.00     0.087 C 
ATOM     76  N   UNL A   1      31.602  28.192  23.061  1.00  0.00    -0.320 N 
ATOM     77  C   UNL A   1      31.016  27.191  25.073  1.00  0.00     0.054 C 
ATOM     78  C   UNL A   1      32.010  28.164  24.461  1.00  0.00     0.188 C 
ATOM     79  H   UNL A   1      32.366  28.541  22.483  1.00  0.00     0.349 HD
ATOM     80  C   UNL A   1      31.455  26.806  26.472  1.00  0.00     0.010 C 
ATOM     81  C   UNL A   1      32.183  29.455  25.248  1.00  0.00     0.065 C 
ATOM     82  C   UNL A   1      31.552  28.075  27.328  1.00  0.00     0.001 C 
ATOM     83  C   UNL A   1      32.465  29.152  26.725  1.00  0.00     0.006 C 
BRANCH  76  84
ATOM     84  C   UNL A   1      30.698  29.246  22.598  1.00  0.00     0.265 C 
BRANCH  84  85
ATOM     85  C   UNL A   1      29.332  29.514  23.252  1.00  0.00     0.093 C 
BRANCH  85  86
ATOM     86  C   UNL A   1      28.404  30.587  22.664  1.00  0.00     0.123 C 
ATOM     87  C   UNL A   1      28.074  30.481  21.178  1.00  0.00     0.034 C 
ATOM     88  O   UNL A   1      28.858  31.917  22.882  1.00  0.00    -0.378 OA
ATOM     89  C   UNL A   1      28.145  31.904  20.658  1.00  0.00     0.031 C 
ATOM     90  C   UNL A   1      28.253  32.755  21.900  1.00  0.00     0.160 C 
ENDBRANCH  85  86
ENDBRANCH  84  85
ENDBRANCH  76  84
ENDBRANCH  72  74
ENDBRANCH  71  72
ENDBRANCH  70  71
ENDBRANCH  69  70
ENDBRANCH   1  69
TORSDOF 20
ENDMDL
