MODEL 1
REMARK VINA RESULT:     -11.9      0.000      0.000
REMARK SMILES O=C(Cn1cc(/C=C2\SC(N3CCOCC3)=[NH+]C2=O)c2ccccc21)OCCOCCOC(=O)c1ccc(-c2c3nc(c(-c4ccc(S(=O)(=O)[O-])cc4)c4ccc([nH]4)c(-c4ccc(S(=O)(=O)[O-])cc4)c4nc(c(-c5ccc(S(=O)(=O)[O-])cc5)c5ccc2[nH]5)C=C4)C=C3)cc1
REMARK SMILES IDX 30 1 29 2 28 3 27 4 26 5 2 6 1 7 3 8 4 9 5 10 25 11 6 12
REMARK SMILES IDX 20 13 24 14 21 15 23 16 22 17 7 18 8 19 9 20 18 21 10 22
REMARK SMILES IDX 17 23 19 24 11 25 12 27 16 28 13 29 15 30 14 31 31 32 32 33
REMARK SMILES IDX 33 34 34 35 35 36 36 37 94 38 37 39 93 40 38 41 39 42 40 43
REMARK SMILES IDX 87 44 41 45 92 46 86 47 88 48 42 49 91 50 85 51 84 52 43 54
REMARK SMILES IDX 73 55 54 56 72 57 55 58 58 59 71 60 89 61 56 62 57 63 70 65
REMARK SMILES IDX 90 66 59 67 44 68 45 69 53 70 46 71 52 72 47 73 48 74 49 75
REMARK SMILES IDX 50 76 51 77 74 78 75 79 83 80 76 81 82 82 77 83 78 84 79 85
REMARK SMILES IDX 80 86 81 87 60 88 61 89 69 90 62 91 68 92 63 93 64 94 65 95
REMARK SMILES IDX 66 96 67 97
REMARK H PARENT 17 26 88 53 58 64
REMARK Flexibility Score: inf
ROOT
ATOM      1  C   UNL A   1      37.067  33.157  33.763  1.00  0.00     0.202 C 
ENDROOT
BRANCH   1   2
ATOM      2  O   UNL A   1      35.752  33.426  33.292  1.00  0.00    -0.374 OA
BRANCH   2   3
ATOM      3  C   UNL A   1      35.381  34.774  33.074  1.00  0.00     0.202 C 
BRANCH   3   4
ATOM      4  C   UNL A   1      34.482  35.100  31.884  1.00  0.00     0.261 C 
BRANCH   4   5
ATOM      5  O   UNL A   1      34.585  34.408  30.638  1.00  0.00    -0.462 OA
BRANCH   5   6
ATOM      6  C   UNL A   1      33.758  34.506  29.578  1.00  0.00     0.326 C 
ATOM      7  O   UNL A   1      32.600  34.876  29.763  1.00  0.00    -0.250 OA
BRANCH   6   8
ATOM      8  C   UNL A   1      34.206  34.005  28.235  1.00  0.00     0.244 C 
BRANCH   8   9
ATOM      9  N   UNL A   1      34.293  32.570  28.099  1.00  0.00    -0.336 N 
ATOM     10  C   UNL A   1      33.236  31.729  27.920  1.00  0.00     0.095 A 
ATOM     11  C   UNL A   1      35.452  31.830  28.051  1.00  0.00     0.049 A 
ATOM     12  C   UNL A   1      33.752  30.734  27.111  1.00  0.00     0.001 A 
ATOM     13  C   UNL A   1      35.077  30.563  27.579  1.00  0.00     0.007 A 
ATOM     14  C   UNL A   1      36.772  32.158  28.374  1.00  0.00     0.027 A 
ATOM     15  C   UNL A   1      36.022  29.522  27.648  1.00  0.00     0.011 A 
ATOM     16  C   UNL A   1      37.696  31.114  28.410  1.00  0.00     0.002 A 
ATOM     17  C   UNL A   1      37.315  29.807  28.110  1.00  0.00     0.001 A 
BRANCH  12  18
ATOM     18  C   UNL A   1      32.857  30.001  26.296  1.00  0.00     0.034 C 
ATOM     19  C   UNL A   1      33.033  28.924  25.449  1.00  0.00     0.110 C 
ATOM     20  S   UNL A   1      33.582  26.723  26.025  1.00  0.00     0.006 SA
ATOM     21  C   UNL A   1      31.349  28.819  24.345  1.00  0.00     0.346 C 
ATOM     22  C   UNL A   1      31.685  25.904  24.852  1.00  0.00     0.319 C 
ATOM     23  N   UNL A   1      30.760  27.059  24.108  1.00  0.00    -0.200 N 
ATOM     24  O   UNL A   1      30.710  29.856  24.370  1.00  0.00    -0.240 OA
ATOM     25  N   UNL A   1      31.395  24.567  24.792  1.00  0.00    -0.251 N 
ATOM     26  H   UNL A   1      29.959  26.835  23.580  1.00  0.00     0.316 HD
ATOM     27  C   UNL A   1      32.133  23.518  25.474  1.00  0.00     0.265 C 
ATOM     28  C   UNL A   1      30.690  24.076  23.601  1.00  0.00     0.265 C 
ATOM     29  C   UNL A   1      33.155  22.918  24.499  1.00  0.00     0.206 C 
ATOM     30  C   UNL A   1      31.795  23.520  22.699  1.00  0.00     0.206 C 
ATOM     31  O   UNL A   1      32.509  22.439  23.307  1.00  0.00    -0.373 OA
ENDBRANCH  12  18
ENDBRANCH   8   9
ENDBRANCH   6   8
ENDBRANCH   5   6
ENDBRANCH   4   5
ENDBRANCH   3   4
ENDBRANCH   2   3
ENDBRANCH   1   2
BRANCH   1  32
ATOM     32  C   UNL A   1      37.515  31.698  33.923  1.00  0.00     0.261 C 
BRANCH  32  33
ATOM     33  O   UNL A   1      37.424  30.955  32.694  1.00  0.00    -0.460 OA
BRANCH  33  34
ATOM     34  C   UNL A   1      37.718  29.627  32.767  1.00  0.00     0.338 C 
ATOM     35  O   UNL A   1      37.191  28.808  33.501  1.00  0.00    -0.246 OA
BRANCH  34  36
ATOM     36  C   UNL A   1      38.489  29.272  31.542  1.00  0.00     0.060 A 
ATOM     37  C   UNL A   1      38.429  28.017  30.920  1.00  0.00     0.016 A 
ATOM     38  C   UNL A   1      39.540  30.121  31.239  1.00  0.00     0.016 A 
ATOM     39  C   UNL A   1      39.584  27.491  30.282  1.00  0.00     0.010 A 
ATOM     40  C   UNL A   1      40.620  29.629  30.517  1.00  0.00     0.010 A 
ATOM     41  C   UNL A   1      40.774  28.255  30.201  1.00  0.00    -0.014 A 
BRANCH  41  42
ATOM     42  C   UNL A   1      42.198  27.652  29.385  1.00  0.00     0.031 A 
ATOM     43  C   UNL A   1      43.089  27.718  31.053  1.00  0.00     0.074 A 
ATOM     44  C   UNL A   1      42.791  27.062  27.678  1.00  0.00     0.049 A 
ATOM     45  N   UNL A   1      44.356  27.895  31.354  1.00  0.00    -0.248 NA
ATOM     46  C   UNL A   1      42.358  27.448  32.342  1.00  0.00     0.031 C 
ATOM     47  C   UNL A   1      42.216  26.728  26.098  1.00  0.00     0.029 A 
ATOM     48  N   UNL A   1      44.150  26.687  27.153  1.00  0.00    -0.354 N 
ATOM     49  C   UNL A   1      44.605  27.332  32.633  1.00  0.00     0.074 A 
ATOM     50  C   UNL A   1      43.320  27.159  33.228  1.00  0.00     0.031 C 
ATOM     51  C   UNL A   1      43.068  25.995  25.359  1.00  0.00     0.029 A 
ATOM     52  C   UNL A   1      44.308  25.885  26.052  1.00  0.00     0.049 A 
ATOM     53  H   UNL A   1      44.950  27.028  27.614  1.00  0.00     0.167 HD
ATOM     54  C   UNL A   1      45.856  26.930  33.037  1.00  0.00     0.031 A 
ATOM     55  C   UNL A   1      45.365  25.062  25.836  1.00  0.00     0.031 A 
ATOM     56  C   UNL A   1      46.832  27.737  32.362  1.00  0.00     0.049 A 
ATOM     57  C   UNL A   1      46.457  25.483  26.808  1.00  0.00     0.074 A 
ATOM     58  C   UNL A   1      47.066  29.092  32.396  1.00  0.00     0.029 A 
ATOM     59  N   UNL A   1      47.507  27.236  31.279  1.00  0.00    -0.354 N 
ATOM     60  N   UNL A   1      47.005  26.679  26.923  1.00  0.00    -0.248 NA
ATOM     61  C   UNL A   1      46.644  24.625  27.964  1.00  0.00     0.031 C 
ATOM     62  C   UNL A   1      47.496  29.414  31.088  1.00  0.00     0.029 A 
ATOM     63  C   UNL A   1      47.625  28.235  30.344  1.00  0.00     0.049 A 
ATOM     64  H   UNL A   1      47.848  26.318  31.188  1.00  0.00     0.167 HD
ATOM     65  C   UNL A   1      47.379  26.839  28.271  1.00  0.00     0.074 A 
ATOM     66  C   UNL A   1      47.125  25.510  28.841  1.00  0.00     0.031 C 
ATOM     67  C   UNL A   1      47.694  28.038  28.893  1.00  0.00     0.031 A 
BRANCH  54  68
ATOM     68  C   UNL A   1      46.314  25.778  33.948  1.00  0.00    -0.014 A 
ATOM     69  C   UNL A   1      46.862  25.926  35.234  1.00  0.00     0.010 A 
ATOM     70  C   UNL A   1      45.935  24.453  33.618  1.00  0.00     0.010 A 
ATOM     71  C   UNL A   1      46.876  24.877  36.189  1.00  0.00     0.020 A 
ATOM     72  C   UNL A   1      45.994  23.382  34.535  1.00  0.00     0.020 A 
ATOM     73  C   UNL A   1      46.427  23.608  35.835  1.00  0.00     0.054 A 
BRANCH  73  74
ATOM     74  S   UNL A   1      46.473  22.261  37.061  1.00  0.00     0.124 S 
ATOM     75  O   UNL A   1      45.773  22.853  38.200  1.00  0.00    -0.237 OA
ATOM     76  O   UNL A   1      45.762  21.186  36.375  1.00  0.00    -0.237 OA
ATOM     77  O   UNL A   1      47.901  22.031  37.269  1.00  0.00    -0.744 OA
ENDBRANCH  73  74
ENDBRANCH  54  68
BRANCH  55  78
ATOM     78  C   UNL A   1      45.135  23.654  25.330  1.00  0.00    -0.014 A 
ATOM     79  C   UNL A   1      44.120  22.849  25.916  1.00  0.00     0.010 A 
ATOM     80  C   UNL A   1      45.969  23.020  24.394  1.00  0.00     0.010 A 
ATOM     81  C   UNL A   1      43.957  21.490  25.611  1.00  0.00     0.020 A 
ATOM     82  C   UNL A   1      45.818  21.645  24.084  1.00  0.00     0.020 A 
ATOM     83  C   UNL A   1      44.829  20.883  24.716  1.00  0.00     0.054 A 
BRANCH  83  84
ATOM     84  S   UNL A   1      44.695  19.081  24.483  1.00  0.00     0.124 S 
ATOM     85  O   UNL A   1      45.576  18.572  25.530  1.00  0.00    -0.237 OA
ATOM     86  O   UNL A   1      43.271  18.837  24.694  1.00  0.00    -0.237 OA
ATOM     87  O   UNL A   1      45.163  18.870  23.115  1.00  0.00    -0.744 OA
ENDBRANCH  83  84
ENDBRANCH  55  78
BRANCH  67  88
ATOM     88  C   UNL A   1      47.816  29.364  28.112  1.00  0.00    -0.014 A 
ATOM     89  C   UNL A   1      48.999  30.016  27.772  1.00  0.00     0.010 A 
ATOM     90  C   UNL A   1      46.730  30.234  28.132  1.00  0.00     0.010 A 
ATOM     91  C   UNL A   1      48.994  31.361  27.283  1.00  0.00     0.020 A 
ATOM     92  C   UNL A   1      46.619  31.464  27.479  1.00  0.00     0.020 A 
ATOM     93  C   UNL A   1      47.789  32.049  27.071  1.00  0.00     0.054 A 
BRANCH  93  94
ATOM     94  S   UNL A   1      47.714  33.757  26.466  1.00  0.00     0.124 S 
ATOM     95  O   UNL A   1      47.472  34.512  27.696  1.00  0.00    -0.237 OA
ATOM     96  O   UNL A   1      49.026  33.960  25.859  1.00  0.00    -0.237 OA
ATOM     97  O   UNL A   1      46.595  33.746  25.524  1.00  0.00    -0.744 OA
ENDBRANCH  93  94
ENDBRANCH  67  88
ENDBRANCH  41  42
ENDBRANCH  34  36
ENDBRANCH  33  34
ENDBRANCH  32  33
ENDBRANCH   1  32
TORSDOF 19
ENDMDL
MODEL 2
REMARK VINA RESULT:     -11.1      3.768      6.000
REMARK SMILES O=C(Cn1cc(/C=C2\SC(N3CCOCC3)=[NH+]C2=O)c2ccccc21)OCCOCCOC(=O)c1ccc(-c2c3nc(c(-c4ccc(S(=O)(=O)[O-])cc4)c4ccc([nH]4)c(-c4ccc(S(=O)(=O)[O-])cc4)c4nc(c(-c5ccc(S(=O)(=O)[O-])cc5)c5ccc2[nH]5)C=C4)C=C3)cc1
REMARK SMILES IDX 30 1 29 2 28 3 27 4 26 5 2 6 1 7 3 8 4 9 5 10 25 11 6 12
REMARK SMILES IDX 20 13 24 14 21 15 23 16 22 17 7 18 8 19 9 20 18 21 10 22
REMARK SMILES IDX 17 23 19 24 11 25 12 27 16 28 13 29 15 30 14 31 31 32 32 33
REMARK SMILES IDX 33 34 34 35 35 36 36 37 94 38 37 39 93 40 38 41 39 42 40 43
REMARK SMILES IDX 87 44 41 45 92 46 86 47 88 48 42 49 91 50 85 51 84 52 43 54
REMARK SMILES IDX 73 55 54 56 72 57 55 58 58 59 71 60 89 61 56 62 57 63 70 65
REMARK SMILES IDX 90 66 59 67 44 68 45 69 53 70 46 71 52 72 47 73 48 74 49 75
REMARK SMILES IDX 50 76 51 77 74 78 75 79 83 80 76 81 82 82 77 83 78 84 79 85
REMARK SMILES IDX 80 86 81 87 60 88 61 89 69 90 62 91 68 92 63 93 64 94 65 95
REMARK SMILES IDX 66 96 67 97
REMARK H PARENT 17 26 88 53 58 64
REMARK Flexibility Score: inf
ROOT
ATOM      1  C   UNL A   1      38.531  30.653  35.876  1.00  0.00     0.202 C 
ENDROOT
BRANCH   1   2
ATOM      2  O   UNL A   1      39.941  30.611  36.053  1.00  0.00    -0.374 OA
BRANCH   2   3
ATOM      3  C   UNL A   1      40.594  31.779  36.514  1.00  0.00     0.202 C 
BRANCH   3   4
ATOM      4  C   UNL A   1      42.119  31.784  36.578  1.00  0.00     0.261 C 
BRANCH   4   5
ATOM      5  O   UNL A   1      42.915  32.632  35.747  1.00  0.00    -0.462 OA
BRANCH   5   6
ATOM      6  C   UNL A   1      43.918  32.262  34.926  1.00  0.00     0.326 C 
ATOM      7  O   UNL A   1      45.013  32.811  35.044  1.00  0.00    -0.250 OA
BRANCH   6   8
ATOM      8  C   UNL A   1      43.639  31.327  33.785  1.00  0.00     0.244 C 
BRANCH   8   9
ATOM      9  N   UNL A   1      42.682  31.795  32.810  1.00  0.00    -0.336 N 
ATOM     10  C   UNL A   1      41.328  31.691  32.921  1.00  0.00     0.095 A 
ATOM     11  C   UNL A   1      42.974  32.485  31.655  1.00  0.00     0.049 A 
ATOM     12  C   UNL A   1      40.868  32.837  32.299  1.00  0.00     0.001 A 
ATOM     13  C   UNL A   1      41.755  33.019  31.211  1.00  0.00     0.007 A 
ATOM     14  C   UNL A   1      44.181  32.684  30.978  1.00  0.00     0.027 A 
ATOM     15  C   UNL A   1      41.707  33.582  29.922  1.00  0.00     0.011 A 
ATOM     16  C   UNL A   1      44.110  33.268  29.713  1.00  0.00     0.002 A 
ATOM     17  C   UNL A   1      42.887  33.656  29.168  1.00  0.00     0.001 A 
BRANCH  12  18
ATOM     18  C   UNL A   1      39.598  33.338  32.673  1.00  0.00     0.034 C 
ATOM     19  C   UNL A   1      38.716  34.202  32.054  1.00  0.00     0.110 C 
ATOM     20  S   UNL A   1      37.480  33.834  30.101  1.00  0.00     0.006 SA
ATOM     21  C   UNL A   1      37.387  34.732  33.475  1.00  0.00     0.346 C 
ATOM     22  C   UNL A   1      35.461  34.366  31.233  1.00  0.00     0.319 C 
ATOM     23  N   UNL A   1      35.632  34.782  32.826  1.00  0.00    -0.200 N 
ATOM     24  O   UNL A   1      37.793  34.507  34.600  1.00  0.00    -0.240 OA
ATOM     25  N   UNL A   1      34.248  34.338  30.597  1.00  0.00    -0.251 N 
ATOM     26  H   UNL A   1      34.866  35.038  33.391  1.00  0.00     0.316 HD
ATOM     27  C   UNL A   1      34.032  33.923  29.223  1.00  0.00     0.265 C 
ATOM     28  C   UNL A   1      33.207  35.255  31.079  1.00  0.00     0.265 C 
ATOM     29  C   UNL A   1      34.008  35.168  28.327  1.00  0.00     0.206 C 
ATOM     30  C   UNL A   1      33.282  36.456  30.133  1.00  0.00     0.206 C 
ATOM     31  O   UNL A   1      33.012  36.103  28.773  1.00  0.00    -0.373 OA
ENDBRANCH  12  18
ENDBRANCH   8   9
ENDBRANCH   6   8
ENDBRANCH   5   6
ENDBRANCH   4   5
ENDBRANCH   3   4
ENDBRANCH   2   3
ENDBRANCH   1   2
BRANCH   1  32
ATOM     32  C   UNL A   1      37.964  31.066  34.511  1.00  0.00     0.261 C 
BRANCH  32  33
ATOM     33  O   UNL A   1      38.006  29.996  33.549  1.00  0.00    -0.460 OA
BRANCH  33  34
ATOM     34  C   UNL A   1      37.190  30.124  32.467  1.00  0.00     0.338 C 
ATOM     35  O   UNL A   1      36.210  30.844  32.379  1.00  0.00    -0.246 OA
BRANCH  34  36
ATOM     36  C   UNL A   1      37.913  29.556  31.293  1.00  0.00     0.060 A 
ATOM     37  C   UNL A   1      38.069  28.183  31.063  1.00  0.00     0.016 A 
ATOM     38  C   UNL A   1      38.732  30.447  30.617  1.00  0.00     0.016 A 
ATOM     39  C   UNL A   1      39.252  27.702  30.440  1.00  0.00     0.010 A 
ATOM     40  C   UNL A   1      39.827  29.959  29.916  1.00  0.00     0.010 A 
ATOM     41  C   UNL A   1      40.242  28.603  29.980  1.00  0.00    -0.014 A 
BRANCH  41  42
ATOM     42  C   UNL A   1      41.687  28.045  29.171  1.00  0.00     0.031 A 
ATOM     43  C   UNL A   1      42.594  28.239  30.820  1.00  0.00     0.074 A 
ATOM     44  C   UNL A   1      42.292  27.410  27.483  1.00  0.00     0.049 A 
ATOM     45  N   UNL A   1      43.852  28.501  31.093  1.00  0.00    -0.248 NA
ATOM     46  C   UNL A   1      41.896  27.989  32.131  1.00  0.00     0.031 C 
ATOM     47  C   UNL A   1      41.718  26.970  25.930  1.00  0.00     0.029 A 
ATOM     48  N   UNL A   1      43.663  27.088  26.955  1.00  0.00    -0.354 N 
ATOM     49  C   UNL A   1      44.149  28.013  32.393  1.00  0.00     0.074 A 
ATOM     50  C   UNL A   1      42.884  27.797  33.015  1.00  0.00     0.031 C 
ATOM     51  C   UNL A   1      42.600  26.253  25.212  1.00  0.00     0.029 A 
ATOM     52  C   UNL A   1      43.854  26.246  25.890  1.00  0.00     0.049 A 
ATOM     53  H   UNL A   1      44.448  27.495  27.388  1.00  0.00     0.167 HD
ATOM     54  C   UNL A   1      45.426  27.702  32.795  1.00  0.00     0.031 A 
ATOM     55  C   UNL A   1      44.953  25.475  25.697  1.00  0.00     0.031 A 
ATOM     56  C   UNL A   1      46.346  28.531  32.070  1.00  0.00     0.049 A 
ATOM     57  C   UNL A   1      46.031  26.002  26.631  1.00  0.00     0.074 A 
ATOM     58  C   UNL A   1      46.503  29.897  32.038  1.00  0.00     0.029 A 
ATOM     59  N   UNL A   1      47.035  28.018  31.000  1.00  0.00    -0.354 N 
ATOM     60  N   UNL A   1      46.511  27.231  26.683  1.00  0.00    -0.248 NA
ATOM     61  C   UNL A   1      46.281  25.211  27.823  1.00  0.00     0.031 C 
ATOM     62  C   UNL A   1      46.897  30.181  30.709  1.00  0.00     0.029 A 
ATOM     63  C   UNL A   1      47.083  28.978  30.019  1.00  0.00     0.049 A 
ATOM     64  H   UNL A   1      47.427  27.118  30.947  1.00  0.00     0.167 HD
ATOM     65  C   UNL A   1      46.892  27.474  28.016  1.00  0.00     0.074 A 
ATOM     66  C   UNL A   1      46.721  26.161  28.651  1.00  0.00     0.031 C 
ATOM     67  C   UNL A   1      47.146  28.717  28.577  1.00  0.00     0.031 A 
BRANCH  54  68
ATOM     68  C   UNL A   1      45.961  26.622  33.752  1.00  0.00    -0.014 A 
ATOM     69  C   UNL A   1      46.083  26.756  35.146  1.00  0.00     0.010 A 
ATOM     70  C   UNL A   1      46.104  25.296  33.273  1.00  0.00     0.010 A 
ATOM     71  C   UNL A   1      46.168  25.644  36.021  1.00  0.00     0.020 A 
ATOM     72  C   UNL A   1      46.248  24.179  34.124  1.00  0.00     0.020 A 
ATOM     73  C   UNL A   1      46.237  24.354  35.502  1.00  0.00     0.054 A 
BRANCH  73  74
ATOM     74  S   UNL A   1      46.372  22.932  36.633  1.00  0.00     0.124 S 
ATOM     75  O   UNL A   1      45.278  22.073  36.185  1.00  0.00    -0.237 OA
ATOM     76  O   UNL A   1      47.716  22.435  36.356  1.00  0.00    -0.237 OA
ATOM     77  O   UNL A   1      46.186  23.524  37.957  1.00  0.00    -0.744 OA
ENDBRANCH  73  74
ENDBRANCH  54  68
BRANCH  55  78
ATOM     78  C   UNL A   1      44.797  24.034  25.259  1.00  0.00    -0.014 A 
ATOM     79  C   UNL A   1      43.880  23.185  25.936  1.00  0.00     0.010 A 
ATOM     80  C   UNL A   1      45.619  23.422  24.299  1.00  0.00     0.010 A 
ATOM     81  C   UNL A   1      43.799  21.806  25.693  1.00  0.00     0.020 A 
ATOM     82  C   UNL A   1      45.552  22.027  24.051  1.00  0.00     0.020 A 
ATOM     83  C   UNL A   1      44.660  21.225  24.770  1.00  0.00     0.054 A 
BRANCH  83  84
ATOM     84  S   UNL A   1      44.645  19.410  24.614  1.00  0.00     0.124 S 
ATOM     85  O   UNL A   1      43.469  19.046  25.401  1.00  0.00    -0.237 OA
ATOM     86  O   UNL A   1      44.513  19.215  23.173  1.00  0.00    -0.237 OA
ATOM     87  O   UNL A   1      45.927  19.000  25.181  1.00  0.00    -0.744 OA
ENDBRANCH  83  84
ENDBRANCH  55  78
BRANCH  67  88
ATOM     88  C   UNL A   1      47.182  30.010  27.735  1.00  0.00    -0.014 A 
ATOM     89  C   UNL A   1      48.278  30.852  27.560  1.00  0.00     0.010 A 
ATOM     90  C   UNL A   1      45.979  30.669  27.500  1.00  0.00     0.010 A 
ATOM     91  C   UNL A   1      48.134  32.152  26.980  1.00  0.00     0.020 A 
ATOM     92  C   UNL A   1      45.783  31.830  26.749  1.00  0.00     0.020 A 
ATOM     93  C   UNL A   1      46.890  32.601  26.510  1.00  0.00     0.054 A 
BRANCH  93  94
ATOM     94  S   UNL A   1      46.638  34.240  25.778  1.00  0.00     0.124 S 
ATOM     95  O   UNL A   1      46.435  35.080  26.958  1.00  0.00    -0.237 OA
ATOM     96  O   UNL A   1      47.879  34.481  25.048  1.00  0.00    -0.237 OA
ATOM     97  O   UNL A   1      45.454  34.069  24.936  1.00  0.00    -0.744 OA
ENDBRANCH  93  94
ENDBRANCH  67  88
ENDBRANCH  41  42
ENDBRANCH  34  36
ENDBRANCH  33  34
ENDBRANCH  32  33
ENDBRANCH   1  32
TORSDOF 19
ENDMDL
MODEL 3
REMARK VINA RESULT:     -11.1      4.162     11.959
REMARK SMILES O=C(Cn1cc(/C=C2\SC(N3CCOCC3)=[NH+]C2=O)c2ccccc21)OCCOCCOC(=O)c1ccc(-c2c3nc(c(-c4ccc(S(=O)(=O)[O-])cc4)c4ccc([nH]4)c(-c4ccc(S(=O)(=O)[O-])cc4)c4nc(c(-c5ccc(S(=O)(=O)[O-])cc5)c5ccc2[nH]5)C=C4)C=C3)cc1
REMARK SMILES IDX 30 1 29 2 28 3 27 4 26 5 2 6 1 7 3 8 4 9 5 10 25 11 6 12
REMARK SMILES IDX 20 13 24 14 21 15 23 16 22 17 7 18 8 19 9 20 18 21 10 22
REMARK SMILES IDX 17 23 19 24 11 25 12 27 16 28 13 29 15 30 14 31 31 32 32 33
REMARK SMILES IDX 33 34 34 35 35 36 36 37 94 38 37 39 93 40 38 41 39 42 40 43
REMARK SMILES IDX 87 44 41 45 92 46 86 47 88 48 42 49 91 50 85 51 84 52 43 54
REMARK SMILES IDX 73 55 54 56 72 57 55 58 58 59 71 60 89 61 56 62 57 63 70 65
REMARK SMILES IDX 90 66 59 67 44 68 45 69 53 70 46 71 52 72 47 73 48 74 49 75
REMARK SMILES IDX 50 76 51 77 74 78 75 79 83 80 76 81 82 82 77 83 78 84 79 85
REMARK SMILES IDX 80 86 81 87 60 88 61 89 69 90 62 91 68 92 63 93 64 94 65 95
REMARK SMILES IDX 66 96 67 97
REMARK H PARENT 17 26 88 53 58 64
REMARK Flexibility Score: inf
ROOT
ATOM      1  C   UNL A   1      42.960  23.170  25.970  1.00  0.00     0.202 C 
ENDROOT
BRANCH   1   2
ATOM      2  O   UNL A   1      41.971  22.238  25.553  1.00  0.00    -0.374 OA
BRANCH   2   3
ATOM      3  C   UNL A   1      40.889  21.972  26.426  1.00  0.00     0.202 C 
BRANCH   3   4
ATOM      4  C   UNL A   1      39.653  21.275  25.863  1.00  0.00     0.261 C 
BRANCH   4   5
ATOM      5  O   UNL A   1      38.479  21.994  25.479  1.00  0.00    -0.462 OA
BRANCH   5   6
ATOM      6  C   UNL A   1      37.465  21.552  24.708  1.00  0.00     0.326 C 
ATOM      7  O   UNL A   1      36.975  22.317  23.879  1.00  0.00    -0.250 OA
BRANCH   6   8
ATOM      8  C   UNL A   1      36.846  20.213  24.987  1.00  0.00     0.244 C 
BRANCH   8   9
ATOM      9  N   UNL A   1      35.402  20.175  24.972  1.00  0.00    -0.336 N 
ATOM     10  C   UNL A   1      34.583  21.219  25.280  1.00  0.00     0.095 A 
ATOM     11  C   UNL A   1      34.625  19.112  24.575  1.00  0.00     0.049 A 
ATOM     12  C   UNL A   1      33.500  21.033  24.441  1.00  0.00     0.001 A 
ATOM     13  C   UNL A   1      33.331  19.628  24.403  1.00  0.00     0.007 A 
ATOM     14  C   UNL A   1      34.940  17.768  24.354  1.00  0.00     0.027 A 
ATOM     15  C   UNL A   1      32.272  18.719  24.221  1.00  0.00     0.011 A 
ATOM     16  C   UNL A   1      33.875  16.891  24.150  1.00  0.00     0.002 A 
ATOM     17  C   UNL A   1      32.558  17.349  24.144  1.00  0.00     0.001 A 
BRANCH  12  18
ATOM     18  C   UNL A   1      32.722  22.162  24.090  1.00  0.00     0.034 C 
ATOM     19  C   UNL A   1      32.447  23.348  24.744  1.00  0.00     0.110 C 
ATOM     20  S   UNL A   1      33.928  25.096  25.224  1.00  0.00     0.006 SA
ATOM     21  C   UNL A   1      30.898  24.171  23.751  1.00  0.00     0.346 C 
ATOM     22  C   UNL A   1      32.491  26.655  24.152  1.00  0.00     0.319 C 
ATOM     23  N   UNL A   1      31.094  26.019  23.531  1.00  0.00    -0.200 N 
ATOM     24  O   UNL A   1      30.309  23.364  23.055  1.00  0.00    -0.240 OA
ATOM     25  N   UNL A   1      32.803  27.986  24.071  1.00  0.00    -0.251 N 
ATOM     26  H   UNL A   1      30.417  26.574  23.079  1.00  0.00     0.316 HD
ATOM     27  C   UNL A   1      34.038  28.588  24.542  1.00  0.00     0.265 C 
ATOM     28  C   UNL A   1      31.690  28.944  24.030  1.00  0.00     0.265 C 
ATOM     29  C   UNL A   1      33.809  29.151  25.951  1.00  0.00     0.206 C 
ATOM     30  C   UNL A   1      31.540  29.425  25.475  1.00  0.00     0.206 C 
ATOM     31  O   UNL A   1      32.715  30.083  25.961  1.00  0.00    -0.373 OA
ENDBRANCH  12  18
ENDBRANCH   8   9
ENDBRANCH   6   8
ENDBRANCH   5   6
ENDBRANCH   4   5
ENDBRANCH   3   4
ENDBRANCH   2   3
ENDBRANCH   1   2
BRANCH   1  32
ATOM     32  C   UNL A   1      43.425  24.252  24.986  1.00  0.00     0.261 C 
BRANCH  32  33
ATOM     33  O   UNL A   1      44.694  24.823  25.354  1.00  0.00    -0.460 OA
BRANCH  33  34
ATOM     34  C   UNL A   1      44.772  26.183  25.340  1.00  0.00     0.338 C 
ATOM     35  O   UNL A   1      45.410  26.864  24.555  1.00  0.00    -0.246 OA
BRANCH  34  36
ATOM     36  C   UNL A   1      43.648  26.703  26.169  1.00  0.00     0.060 A 
ATOM     37  C   UNL A   1      42.658  27.569  25.685  1.00  0.00     0.016 A 
ATOM     38  C   UNL A   1      43.816  26.575  27.538  1.00  0.00     0.016 A 
ATOM     39  C   UNL A   1      42.092  28.546  26.547  1.00  0.00     0.010 A 
ATOM     40  C   UNL A   1      43.170  27.467  28.385  1.00  0.00     0.010 A 
ATOM     41  C   UNL A   1      42.464  28.603  27.913  1.00  0.00    -0.014 A 
BRANCH  41  42
ATOM     42  C   UNL A   1      41.754  29.765  29.010  1.00  0.00     0.031 A 
ATOM     43  C   UNL A   1      43.219  30.902  28.633  1.00  0.00     0.074 A 
ATOM     44  C   UNL A   1      40.221  30.029  30.103  1.00  0.00     0.049 A 
ATOM     45  N   UNL A   1      43.807  31.828  29.356  1.00  0.00    -0.248 NA
ATOM     46  C   UNL A   1      43.867  30.919  27.274  1.00  0.00     0.031 C 
ATOM     47  C   UNL A   1      38.714  29.315  30.498  1.00  0.00     0.029 A 
ATOM     48  N   UNL A   1      39.859  31.098  31.098  1.00  0.00    -0.354 N 
ATOM     49  C   UNL A   1      44.456  32.744  28.487  1.00  0.00     0.074 A 
ATOM     50  C   UNL A   1      44.537  32.078  27.228  1.00  0.00     0.031 C 
ATOM     51  C   UNL A   1      37.866  30.155  31.117  1.00  0.00     0.029 A 
ATOM     52  C   UNL A   1      38.560  31.353  31.452  1.00  0.00     0.049 A 
ATOM     53  H   UNL A   1      40.579  31.629  31.509  1.00  0.00     0.167 HD
ATOM     54  C   UNL A   1      44.751  34.035  28.854  1.00  0.00     0.031 A 
ATOM     55  C   UNL A   1      38.087  32.560  31.852  1.00  0.00     0.031 A 
ATOM     56  C   UNL A   1      44.952  34.068  30.275  1.00  0.00     0.049 A 
ATOM     57  C   UNL A   1      39.296  33.418  32.188  1.00  0.00     0.074 A 
ATOM     58  C   UNL A   1      45.883  33.445  31.073  1.00  0.00     0.029 A 
ATOM     59  N   UNL A   1      43.958  34.532  31.098  1.00  0.00    -0.354 N 
ATOM     60  N   UNL A   1      40.249  33.147  33.062  1.00  0.00    -0.248 NA
ATOM     61  C   UNL A   1      39.654  34.426  31.206  1.00  0.00     0.031 C 
ATOM     62  C   UNL A   1      45.193  33.167  32.276  1.00  0.00     0.029 A 
ATOM     63  C   UNL A   1      43.915  33.735  32.215  1.00  0.00     0.049 A 
ATOM     64  H   UNL A   1      43.376  35.305  30.918  1.00  0.00     0.167 HD
ATOM     65  C   UNL A   1      41.432  33.745  32.588  1.00  0.00     0.074 A 
ATOM     66  C   UNL A   1      40.966  34.526  31.434  1.00  0.00     0.031 C 
ATOM     67  C   UNL A   1      42.719  33.455  33.015  1.00  0.00     0.031 A 
BRANCH  54  68
ATOM     68  C   UNL A   1      44.793  35.343  28.045  1.00  0.00    -0.014 A 
ATOM     69  C   UNL A   1      43.777  35.806  27.191  1.00  0.00     0.010 A 
ATOM     70  C   UNL A   1      45.787  36.304  28.353  1.00  0.00     0.010 A 
ATOM     71  C   UNL A   1      43.655  37.165  26.807  1.00  0.00     0.020 A 
ATOM     72  C   UNL A   1      45.716  37.650  27.933  1.00  0.00     0.020 A 
ATOM     73  C   UNL A   1      44.624  38.087  27.194  1.00  0.00     0.054 A 
BRANCH  73  74
ATOM     74  S   UNL A   1      44.473  39.827  26.674  1.00  0.00     0.124 S 
ATOM     75  O   UNL A   1      43.037  39.956  26.436  1.00  0.00    -0.237 OA
ATOM     76  O   UNL A   1      44.986  40.548  27.835  1.00  0.00    -0.237 OA
ATOM     77  O   UNL A   1      45.305  39.903  25.474  1.00  0.00    -0.744 OA
ENDBRANCH  73  74
ENDBRANCH  54  68
BRANCH  55  78
ATOM     78  C   UNL A   1      36.770  33.073  31.307  1.00  0.00    -0.014 A 
ATOM     79  C   UNL A   1      36.545  33.092  29.904  1.00  0.00     0.010 A 
ATOM     80  C   UNL A   1      35.785  33.678  32.104  1.00  0.00     0.010 A 
ATOM     81  C   UNL A   1      35.421  33.697  29.323  1.00  0.00     0.020 A 
ATOM     82  C   UNL A   1      34.649  34.301  31.526  1.00  0.00     0.020 A 
ATOM     83  C   UNL A   1      34.489  34.329  30.137  1.00  0.00     0.054 A 
BRANCH  83  84
ATOM     84  S   UNL A   1      33.141  35.255  29.334  1.00  0.00     0.124 S 
ATOM     85  O   UNL A   1      32.236  35.508  30.452  1.00  0.00    -0.237 OA
ATOM     86  O   UNL A   1      33.830  36.432  28.811  1.00  0.00    -0.237 OA
ATOM     87  O   UNL A   1      32.639  34.331  28.320  1.00  0.00    -0.744 OA
ENDBRANCH  83  84
ENDBRANCH  55  78
BRANCH  67  88
ATOM     88  C   UNL A   1      43.000  32.515  34.206  1.00  0.00    -0.014 A 
ATOM     89  C   UNL A   1      43.766  32.812  35.331  1.00  0.00     0.010 A 
ATOM     90  C   UNL A   1      42.907  31.144  33.989  1.00  0.00     0.010 A 
ATOM     91  C   UNL A   1      44.178  31.789  36.243  1.00  0.00     0.020 A 
ATOM     92  C   UNL A   1      43.093  30.124  34.925  1.00  0.00     0.020 A 
ATOM     93  C   UNL A   1      43.772  30.457  36.068  1.00  0.00     0.054 A 
BRANCH  93  94
ATOM     94  S   UNL A   1      44.269  29.112  37.178  1.00  0.00     0.124 S 
ATOM     95  O   UNL A   1      44.315  29.783  38.477  1.00  0.00    -0.237 OA
ATOM     96  O   UNL A   1      43.200  28.130  37.023  1.00  0.00    -0.237 OA
ATOM     97  O   UNL A   1      45.570  28.692  36.658  1.00  0.00    -0.744 OA
ENDBRANCH  93  94
ENDBRANCH  67  88
ENDBRANCH  41  42
ENDBRANCH  34  36
ENDBRANCH  33  34
ENDBRANCH  32  33
ENDBRANCH   1  32
TORSDOF 19
ENDMDL
