MODEL 1
REMARK VINA RESULT:      -8.5      0.000      0.000
REMARK SMILES O=C(COc1csc(C(=O)OCCOCCOC(=O)c2ccc(-c3c4nc(c(-c5ccc(S(=O)(=O)[O-])cc5)c5ccc([nH]5)c(-c5ccc(S(=O)(=O)[O-])cc5)c5nc(c(-c6ccc(S(=O)(=O)[O-])cc6)c6ccc3[nH]6)C=C5)C=C4)cc2)c1)Nc1nccs1
REMARK SMILES IDX 13 1 12 2 11 3 9 4 10 5 8 6 5 7 6 8 80 9 7 10 4 11 3 12 2 13
REMARK SMILES IDX 1 14 81 15 82 17 83 18 86 19 84 20 85 21 14 22 15 23 16 24
REMARK SMILES IDX 17 25 18 26 19 27 20 28 21 29 79 30 22 31 78 32 23 33 24 34
REMARK SMILES IDX 25 35 72 36 26 37 77 38 71 39 73 40 27 41 76 42 70 43 69 44
REMARK SMILES IDX 28 46 58 47 39 48 57 49 40 50 43 51 56 52 74 53 41 54 42 55
REMARK SMILES IDX 55 57 75 58 44 59 29 60 30 61 38 62 31 63 37 64 32 65 33 66
REMARK SMILES IDX 34 67 35 68 36 69 59 70 60 71 68 72 61 73 67 74 62 75 63 76
REMARK SMILES IDX 64 77 65 78 66 79 45 80 46 81 54 82 47 83 53 84 48 85 49 86
REMARK SMILES IDX 50 87 51 88 52 89
REMARK H PARENT 81 16 73 45 43 56
REMARK Flexibility Score: inf
ROOT
ATOM      1  C   UNL A   1      46.025  25.680  25.183  1.00  0.00     0.202 C 
ENDROOT
BRANCH   1   2
ATOM      2  C   UNL A   1      46.128  24.205  25.587  1.00  0.00     0.261 C 
BRANCH   2   3
ATOM      3  O   UNL A   1      46.033  24.060  27.016  1.00  0.00    -0.459 OA
BRANCH   3   4
ATOM      4  C   UNL A   1      44.885  23.482  27.471  1.00  0.00     0.348 C 
ATOM      5  O   UNL A   1      44.155  22.756  26.806  1.00  0.00    -0.245 OA
BRANCH   4   6
ATOM      6  C   UNL A   1      44.729  23.761  28.885  1.00  0.00     0.116 A 
ATOM      7  C   UNL A   1      44.207  23.670  31.162  1.00  0.00     0.131 A 
ATOM      8  C   UNL A   1      44.724  24.941  31.050  1.00  0.00     0.112 A 
ATOM      9  C   UNL A   1      44.168  23.005  29.899  1.00  0.00     0.074 A 
ATOM     10  S   UNL A   1      45.272  25.278  29.468  1.00  0.00    -0.133 S 
BRANCH   7  11
ATOM     11  O   UNL A   1      43.842  23.044  32.313  1.00  0.00    -0.483 OA
BRANCH  11  12
ATOM     12  C   UNL A   1      44.001  23.789  33.514  1.00  0.00     0.329 C 
BRANCH  12  13
ATOM     13  C   UNL A   1      44.149  23.005  34.828  1.00  0.00     0.264 C 
ATOM     14  O   UNL A   1      43.593  23.399  35.848  1.00  0.00    -0.271 OA
ATOM     15  N   UNL A   1      44.957  21.897  34.702  1.00  0.00    -0.299 N 
ATOM     16  H   UNL A   1      45.190  21.579  33.799  1.00  0.00     0.172 HD
BRANCH  15  17
ATOM     17  C   UNL A   1      45.445  21.223  35.784  1.00  0.00     0.189 A 
ATOM     18  N   UNL A   1      45.854  21.685  36.937  1.00  0.00    -0.229 NA
ATOM     19  S   UNL A   1      45.621  19.541  35.535  1.00  0.00    -0.105 S 
ATOM     20  C   UNL A   1      46.359  20.647  37.693  1.00  0.00     0.125 A 
ATOM     21  C   UNL A   1      46.333  19.406  37.092  1.00  0.00     0.088 A 
ENDBRANCH  15  17
ENDBRANCH  12  13
ENDBRANCH  11  12
ENDBRANCH   7  11
ENDBRANCH   4   6
ENDBRANCH   3   4
ENDBRANCH   2   3
ENDBRANCH   1   2
BRANCH   1  22
ATOM     22  O   UNL A   1      45.166  26.459  26.019  1.00  0.00    -0.374 OA
BRANCH  22  23
ATOM     23  C   UNL A   1      44.011  27.013  25.385  1.00  0.00     0.202 C 
BRANCH  23  24
ATOM     24  C   UNL A   1      42.783  26.098  25.367  1.00  0.00     0.261 C 
BRANCH  24  25
ATOM     25  O   UNL A   1      41.571  26.864  25.496  1.00  0.00    -0.460 OA
BRANCH  25  26
ATOM     26  C   UNL A   1      40.598  26.272  26.230  1.00  0.00     0.338 C 
ATOM     27  O   UNL A   1      40.104  25.173  26.046  1.00  0.00    -0.246 OA
BRANCH  26  28
ATOM     28  C   UNL A   1      40.320  27.081  27.436  1.00  0.00     0.060 A 
ATOM     29  C   UNL A   1      40.895  28.356  27.496  1.00  0.00     0.016 A 
ATOM     30  C   UNL A   1      39.556  26.599  28.503  1.00  0.00     0.016 A 
ATOM     31  C   UNL A   1      40.755  29.133  28.644  1.00  0.00     0.010 A 
ATOM     32  C   UNL A   1      39.419  27.380  29.657  1.00  0.00     0.010 A 
ATOM     33  C   UNL A   1      40.048  28.634  29.745  1.00  0.00    -0.014 A 
BRANCH  33  34
ATOM     34  C   UNL A   1      40.088  29.376  31.029  1.00  0.00     0.031 A 
ATOM     35  C   UNL A   1      41.193  29.087  32.009  1.00  0.00     0.074 A 
ATOM     36  C   UNL A   1      39.172  30.321  31.307  1.00  0.00     0.049 A 
ATOM     37  N   UNL A   1      41.432  29.636  33.172  1.00  0.00    -0.248 NA
ATOM     38  C   UNL A   1      42.156  28.042  31.624  1.00  0.00     0.031 C 
ATOM     39  C   UNL A   1      38.067  30.709  30.431  1.00  0.00     0.029 A 
ATOM     40  N   UNL A   1      39.028  31.124  32.410  1.00  0.00    -0.354 N 
ATOM     41  C   UNL A   1      42.565  28.999  33.664  1.00  0.00     0.074 A 
ATOM     42  C   UNL A   1      42.950  28.005  32.685  1.00  0.00     0.031 C 
ATOM     43  C   UNL A   1      37.354  31.676  31.036  1.00  0.00     0.029 A 
ATOM     44  C   UNL A   1      37.937  31.956  32.347  1.00  0.00     0.049 A 
ATOM     45  H   UNL A   1      39.650  31.106  33.174  1.00  0.00     0.167 HD
ATOM     46  C   UNL A   1      43.230  29.225  34.822  1.00  0.00     0.031 A 
ATOM     47  C   UNL A   1      37.455  32.835  33.247  1.00  0.00     0.031 A 
ATOM     48  C   UNL A   1      42.841  30.203  35.802  1.00  0.00     0.049 A 
ATOM     49  C   UNL A   1      38.182  33.038  34.549  1.00  0.00     0.074 A 
ATOM     50  C   UNL A   1      43.469  30.526  36.993  1.00  0.00     0.029 A 
ATOM     51  N   UNL A   1      41.715  31.007  35.712  1.00  0.00    -0.354 N 
ATOM     52  N   UNL A   1      39.279  32.460  34.978  1.00  0.00    -0.248 NA
ATOM     53  C   UNL A   1      37.613  34.019  35.482  1.00  0.00     0.031 C 
ATOM     54  C   UNL A   1      42.692  31.489  37.648  1.00  0.00     0.029 A 
ATOM     55  C   UNL A   1      41.611  31.804  36.841  1.00  0.00     0.049 A 
ATOM     56  H   UNL A   1      41.083  31.010  34.959  1.00  0.00     0.167 HD
ATOM     57  C   UNL A   1      39.541  33.022  36.223  1.00  0.00     0.074 A 
ATOM     58  C   UNL A   1      38.497  33.996  36.470  1.00  0.00     0.031 C 
ATOM     59  C   UNL A   1      40.559  32.759  37.081  1.00  0.00     0.031 A 
BRANCH  46  60
ATOM     60  C   UNL A   1      44.431  28.361  35.106  1.00  0.00    -0.014 A 
ATOM     61  C   UNL A   1      44.304  27.131  35.776  1.00  0.00     0.010 A 
ATOM     62  C   UNL A   1      45.705  28.784  34.686  1.00  0.00     0.010 A 
ATOM     63  C   UNL A   1      45.435  26.363  36.062  1.00  0.00     0.020 A 
ATOM     64  C   UNL A   1      46.836  28.007  34.949  1.00  0.00     0.020 A 
ATOM     65  C   UNL A   1      46.696  26.811  35.654  1.00  0.00     0.054 A 
BRANCH  65  66
ATOM     66  S   UNL A   1      48.150  25.797  36.041  1.00  0.00     0.124 S 
ATOM     67  O   UNL A   1      47.654  24.448  35.777  1.00  0.00    -0.237 OA
ATOM     68  O   UNL A   1      49.150  26.294  35.100  1.00  0.00    -0.237 OA
ATOM     69  O   UNL A   1      48.418  26.099  37.446  1.00  0.00    -0.744 OA
ENDBRANCH  65  66
ENDBRANCH  46  60
BRANCH  47  70
ATOM     70  C   UNL A   1      36.205  33.582  32.944  1.00  0.00    -0.014 A 
ATOM     71  C   UNL A   1      34.946  33.019  33.215  1.00  0.00     0.010 A 
ATOM     72  C   UNL A   1      36.274  34.881  32.409  1.00  0.00     0.010 A 
ATOM     73  C   UNL A   1      33.778  33.742  32.956  1.00  0.00     0.020 A 
ATOM     74  C   UNL A   1      35.109  35.616  32.171  1.00  0.00     0.020 A 
ATOM     75  C   UNL A   1      33.867  35.039  32.442  1.00  0.00     0.054 A 
BRANCH  75  76
ATOM     76  S   UNL A   1      32.344  35.993  32.193  1.00  0.00     0.124 S 
ATOM     77  O   UNL A   1      31.324  35.073  32.684  1.00  0.00    -0.237 OA
ATOM     78  O   UNL A   1      32.577  37.179  33.014  1.00  0.00    -0.237 OA
ATOM     79  O   UNL A   1      32.328  36.239  30.753  1.00  0.00    -0.744 OA
ENDBRANCH  75  76
ENDBRANCH  47  70
BRANCH  59  80
ATOM     80  C   UNL A   1      40.604  33.548  38.363  1.00  0.00    -0.014 A 
ATOM     81  C   UNL A   1      41.300  34.767  38.443  1.00  0.00     0.010 A 
ATOM     82  C   UNL A   1      39.901  33.085  39.490  1.00  0.00     0.010 A 
ATOM     83  C   UNL A   1      41.319  35.493  39.638  1.00  0.00     0.020 A 
ATOM     84  C   UNL A   1      39.896  33.819  40.678  1.00  0.00     0.020 A 
ATOM     85  C   UNL A   1      40.619  35.012  40.749  1.00  0.00     0.054 A 
BRANCH  85  86
ATOM     86  S   UNL A   1      40.629  35.987  42.279  1.00  0.00     0.124 S 
ATOM     87  O   UNL A   1      41.655  36.986  41.996  1.00  0.00    -0.237 OA
ATOM     88  O   UNL A   1      39.261  36.494  42.349  1.00  0.00    -0.237 OA
ATOM     89  O   UNL A   1      40.978  35.011  43.309  1.00  0.00    -0.744 OA
ENDBRANCH  85  86
ENDBRANCH  59  80
ENDBRANCH  33  34
ENDBRANCH  26  28
ENDBRANCH  25  26
ENDBRANCH  24  25
ENDBRANCH  23  24
ENDBRANCH  22  23
ENDBRANCH   1  22
TORSDOF 21
ENDMDL
MODEL 2
REMARK VINA RESULT:      -8.5      3.155      5.230
REMARK SMILES O=C(COc1csc(C(=O)OCCOCCOC(=O)c2ccc(-c3c4nc(c(-c5ccc(S(=O)(=O)[O-])cc5)c5ccc([nH]5)c(-c5ccc(S(=O)(=O)[O-])cc5)c5nc(c(-c6ccc(S(=O)(=O)[O-])cc6)c6ccc3[nH]6)C=C5)C=C4)cc2)c1)Nc1nccs1
REMARK SMILES IDX 13 1 12 2 11 3 9 4 10 5 8 6 5 7 6 8 80 9 7 10 4 11 3 12 2 13
REMARK SMILES IDX 1 14 81 15 82 17 83 18 86 19 84 20 85 21 14 22 15 23 16 24
REMARK SMILES IDX 17 25 18 26 19 27 20 28 21 29 79 30 22 31 78 32 23 33 24 34
REMARK SMILES IDX 25 35 72 36 26 37 77 38 71 39 73 40 27 41 76 42 70 43 69 44
REMARK SMILES IDX 28 46 58 47 39 48 57 49 40 50 43 51 56 52 74 53 41 54 42 55
REMARK SMILES IDX 55 57 75 58 44 59 29 60 30 61 38 62 31 63 37 64 32 65 33 66
REMARK SMILES IDX 34 67 35 68 36 69 59 70 60 71 68 72 61 73 67 74 62 75 63 76
REMARK SMILES IDX 64 77 65 78 66 79 45 80 46 81 54 82 47 83 53 84 48 85 49 86
REMARK SMILES IDX 50 87 51 88 52 89
REMARK H PARENT 81 16 73 45 43 56
REMARK Flexibility Score: inf
ROOT
ATOM      1  C   UNL A   1      45.448  23.514  24.430  1.00  0.00     0.202 C 
ENDROOT
BRANCH   1   2
ATOM      2  C   UNL A   1      44.200  22.716  24.032  1.00  0.00     0.261 C 
BRANCH   2   3
ATOM      3  O   UNL A   1      44.039  21.566  24.883  1.00  0.00    -0.459 OA
BRANCH   3   4
ATOM      4  C   UNL A   1      43.578  21.826  26.140  1.00  0.00     0.348 C 
ATOM      5  O   UNL A   1      44.239  22.337  27.035  1.00  0.00    -0.245 OA
BRANCH   4   6
ATOM      6  C   UNL A   1      42.163  21.518  26.210  1.00  0.00     0.116 A 
ATOM      7  C   UNL A   1      39.838  21.614  26.440  1.00  0.00     0.131 A 
ATOM      8  C   UNL A   1      40.044  20.260  26.299  1.00  0.00     0.112 A 
ATOM      9  C   UNL A   1      41.070  22.337  26.435  1.00  0.00     0.074 A 
ATOM     10  S   UNL A   1      41.689  19.880  26.036  1.00  0.00    -0.133 S 
BRANCH   7  11
ATOM     11  O   UNL A   1      38.637  22.247  26.497  1.00  0.00    -0.483 OA
BRANCH  11  12
ATOM     12  C   UNL A   1      37.877  22.271  25.295  1.00  0.00     0.329 C 
BRANCH  12  13
ATOM     13  C   UNL A   1      36.351  22.117  25.408  1.00  0.00     0.264 C 
ATOM     14  O   UNL A   1      35.741  21.413  24.609  1.00  0.00    -0.271 OA
ATOM     15  N   UNL A   1      35.815  22.851  26.443  1.00  0.00    -0.299 N 
ATOM     16  H   UNL A   1      36.420  23.222  27.126  1.00  0.00     0.172 HD
BRANCH  15  17
ATOM     17  C   UNL A   1      34.474  23.081  26.556  1.00  0.00     0.189 A 
ATOM     18  N   UNL A   1      33.779  24.132  26.209  1.00  0.00    -0.229 NA
ATOM     19  S   UNL A   1      33.618  21.833  27.351  1.00  0.00    -0.105 S 
ATOM     20  C   UNL A   1      32.467  23.964  26.603  1.00  0.00     0.125 A 
ATOM     21  C   UNL A   1      32.190  22.782  27.256  1.00  0.00     0.088 A 
ENDBRANCH  15  17
ENDBRANCH  12  13
ENDBRANCH  11  12
ENDBRANCH   7  11
ENDBRANCH   4   6
ENDBRANCH   3   4
ENDBRANCH   2   3
ENDBRANCH   1   2
BRANCH   1  22
ATOM     22  O   UNL A   1      45.202  24.899  24.685  1.00  0.00    -0.374 OA
BRANCH  22  23
ATOM     23  C   UNL A   1      43.846  25.251  24.970  1.00  0.00     0.202 C 
BRANCH  23  24
ATOM     24  C   UNL A   1      43.645  26.053  26.261  1.00  0.00     0.261 C 
BRANCH  24  25
ATOM     25  O   UNL A   1      42.441  25.644  26.935  1.00  0.00    -0.460 OA
BRANCH  25  26
ATOM     26  C   UNL A   1      41.348  26.396  26.656  1.00  0.00     0.338 C 
ATOM     27  O   UNL A   1      40.647  26.332  25.661  1.00  0.00    -0.246 OA
BRANCH  26  28
ATOM     28  C   UNL A   1      40.993  27.217  27.833  1.00  0.00     0.060 A 
ATOM     29  C   UNL A   1      41.587  28.481  27.932  1.00  0.00     0.016 A 
ATOM     30  C   UNL A   1      40.138  26.756  28.838  1.00  0.00     0.016 A 
ATOM     31  C   UNL A   1      41.373  29.266  29.063  1.00  0.00     0.010 A 
ATOM     32  C   UNL A   1      39.927  27.545  29.975  1.00  0.00     0.010 A 
ATOM     33  C   UNL A   1      40.572  28.788  30.107  1.00  0.00    -0.014 A 
BRANCH  33  34
ATOM     34  C   UNL A   1      40.526  29.535  31.388  1.00  0.00     0.031 A 
ATOM     35  C   UNL A   1      41.598  29.296  32.415  1.00  0.00     0.074 A 
ATOM     36  C   UNL A   1      39.561  30.443  31.620  1.00  0.00     0.049 A 
ATOM     37  N   UNL A   1      41.764  29.859  33.585  1.00  0.00    -0.248 NA
ATOM     38  C   UNL A   1      42.619  28.290  32.079  1.00  0.00     0.031 C 
ATOM     39  C   UNL A   1      38.480  30.783  30.695  1.00  0.00     0.029 A 
ATOM     40  N   UNL A   1      39.337  31.245  32.711  1.00  0.00    -0.354 N 
ATOM     41  C   UNL A   1      42.900  29.271  34.129  1.00  0.00     0.074 A 
ATOM     42  C   UNL A   1      43.367  28.289  33.173  1.00  0.00     0.031 C 
ATOM     43  C   UNL A   1      37.703  31.722  31.262  1.00  0.00     0.029 A 
ATOM     44  C   UNL A   1      38.217  32.031  32.596  1.00  0.00     0.049 A 
ATOM     45  H   UNL A   1      39.925  31.255  33.501  1.00  0.00     0.167 HD
ATOM     46  C   UNL A   1      43.504  29.528  35.313  1.00  0.00     0.031 A 
ATOM     47  C   UNL A   1      37.660  32.893  33.470  1.00  0.00     0.031 A 
ATOM     48  C   UNL A   1      43.033  30.493  36.270  1.00  0.00     0.049 A 
ATOM     49  C   UNL A   1      38.321  33.131  34.800  1.00  0.00     0.074 A 
ATOM     50  C   UNL A   1      43.595  30.847  37.485  1.00  0.00     0.029 A 
ATOM     51  N   UNL A   1      41.880  31.251  36.127  1.00  0.00    -0.354 N 
ATOM     52  N   UNL A   1      39.421  32.600  35.279  1.00  0.00    -0.248 NA
ATOM     53  C   UNL A   1      37.672  34.092  35.702  1.00  0.00     0.031 C 
ATOM     54  C   UNL A   1      42.751  31.780  38.101  1.00  0.00     0.029 A 
ATOM     55  C   UNL A   1      41.695  32.048  37.245  1.00  0.00     0.049 A 
ATOM     56  H   UNL A   1      41.281  31.225  35.347  1.00  0.00     0.167 HD
ATOM     57  C   UNL A   1      39.606  33.177  36.532  1.00  0.00     0.074 A 
ATOM     58  C   UNL A   1      38.513  34.108  36.728  1.00  0.00     0.031 C 
ATOM     59  C   UNL A   1      40.595  32.960  37.435  1.00  0.00     0.031 A 
BRANCH  46  60
ATOM     60  C   UNL A   1      44.725  28.715  35.654  1.00  0.00    -0.014 A 
ATOM     61  C   UNL A   1      46.015  29.157  35.310  1.00  0.00     0.010 A 
ATOM     62  C   UNL A   1      44.577  27.495  36.338  1.00  0.00     0.010 A 
ATOM     63  C   UNL A   1      47.132  28.369  35.602  1.00  0.00     0.020 A 
ATOM     64  C   UNL A   1      45.694  26.717  36.655  1.00  0.00     0.020 A 
ATOM     65  C   UNL A   1      46.963  27.149  36.265  1.00  0.00     0.054 A 
BRANCH  65  66
ATOM     66  S   UNL A   1      48.428  26.144  36.631  1.00  0.00     0.124 S 
ATOM     67  O   UNL A   1      49.110  26.961  37.632  1.00  0.00    -0.237 OA
ATOM     68  O   UNL A   1      47.850  24.897  37.126  1.00  0.00    -0.237 OA
ATOM     69  O   UNL A   1      49.108  26.042  35.341  1.00  0.00    -0.744 OA
ENDBRANCH  65  66
ENDBRANCH  46  60
BRANCH  47  70
ATOM     70  C   UNL A   1      36.395  33.587  33.108  1.00  0.00    -0.014 A 
ATOM     71  C   UNL A   1      35.148  33.007  33.397  1.00  0.00     0.010 A 
ATOM     72  C   UNL A   1      36.438  34.854  32.499  1.00  0.00     0.010 A 
ATOM     73  C   UNL A   1      33.965  33.682  33.082  1.00  0.00     0.020 A 
ATOM     74  C   UNL A   1      35.257  35.542  32.205  1.00  0.00     0.020 A 
ATOM     75  C   UNL A   1      34.027  34.949  32.494  1.00  0.00     0.054 A 
BRANCH  75  76
ATOM     76  S   UNL A   1      32.482  35.845  32.172  1.00  0.00     0.124 S 
ATOM     77  O   UNL A   1      31.477  34.898  32.640  1.00  0.00    -0.237 OA
ATOM     78  O   UNL A   1      32.644  37.052  32.980  1.00  0.00    -0.237 OA
ATOM     79  O   UNL A   1      32.513  36.067  30.728  1.00  0.00    -0.744 OA
ENDBRANCH  75  76
ENDBRANCH  47  70
BRANCH  59  80
ATOM     80  C   UNL A   1      40.553  33.754  38.712  1.00  0.00    -0.014 A 
ATOM     81  C   UNL A   1      39.941  33.241  39.870  1.00  0.00     0.010 A 
ATOM     82  C   UNL A   1      41.178  35.014  38.769  1.00  0.00     0.010 A 
ATOM     83  C   UNL A   1      39.925  33.988  41.052  1.00  0.00     0.020 A 
ATOM     84  C   UNL A   1      41.186  35.753  39.955  1.00  0.00     0.020 A 
ATOM     85  C   UNL A   1      40.545  35.241  41.086  1.00  0.00     0.054 A 
BRANCH  85  86
ATOM     86  S   UNL A   1      40.542  36.178  42.639  1.00  0.00     0.124 S 
ATOM     87  O   UNL A   1      41.104  35.212  43.577  1.00  0.00    -0.237 OA
ATOM     88  O   UNL A   1      41.394  37.322  42.328  1.00  0.00    -0.237 OA
ATOM     89  O   UNL A   1      39.131  36.500  42.846  1.00  0.00    -0.744 OA
ENDBRANCH  85  86
ENDBRANCH  59  80
ENDBRANCH  33  34
ENDBRANCH  26  28
ENDBRANCH  25  26
ENDBRANCH  24  25
ENDBRANCH  23  24
ENDBRANCH  22  23
ENDBRANCH   1  22
TORSDOF 21
ENDMDL
MODEL 3
REMARK VINA RESULT:      -8.4      5.167     11.721
REMARK SMILES O=C(COc1csc(C(=O)OCCOCCOC(=O)c2ccc(-c3c4nc(c(-c5ccc(S(=O)(=O)[O-])cc5)c5ccc([nH]5)c(-c5ccc(S(=O)(=O)[O-])cc5)c5nc(c(-c6ccc(S(=O)(=O)[O-])cc6)c6ccc3[nH]6)C=C5)C=C4)cc2)c1)Nc1nccs1
REMARK SMILES IDX 13 1 12 2 11 3 9 4 10 5 8 6 5 7 6 8 80 9 7 10 4 11 3 12 2 13
REMARK SMILES IDX 1 14 81 15 82 17 83 18 86 19 84 20 85 21 14 22 15 23 16 24
REMARK SMILES IDX 17 25 18 26 19 27 20 28 21 29 79 30 22 31 78 32 23 33 24 34
REMARK SMILES IDX 25 35 72 36 26 37 77 38 71 39 73 40 27 41 76 42 70 43 69 44
REMARK SMILES IDX 28 46 58 47 39 48 57 49 40 50 43 51 56 52 74 53 41 54 42 55
REMARK SMILES IDX 55 57 75 58 44 59 29 60 30 61 38 62 31 63 37 64 32 65 33 66
REMARK SMILES IDX 34 67 35 68 36 69 59 70 60 71 68 72 61 73 67 74 62 75 63 76
REMARK SMILES IDX 64 77 65 78 66 79 45 80 46 81 54 82 47 83 53 84 48 85 49 86
REMARK SMILES IDX 50 87 51 88 52 89
REMARK H PARENT 81 16 73 45 43 56
REMARK Flexibility Score: inf
ROOT
ATOM      1  C   UNL A   1      31.348  29.535  24.698  1.00  0.00     0.202 C 
ENDROOT
BRANCH   1   2
ATOM      2  C   UNL A   1      31.686  28.910  23.339  1.00  0.00     0.261 C 
BRANCH   2   3
ATOM      3  O   UNL A   1      33.002  28.328  23.358  1.00  0.00    -0.459 OA
BRANCH   3   4
ATOM      4  C   UNL A   1      33.119  27.122  22.733  1.00  0.00     0.348 C 
ATOM      5  O   UNL A   1      33.752  26.925  21.703  1.00  0.00    -0.245 OA
BRANCH   4   6
ATOM      6  C   UNL A   1      32.484  26.096  23.537  1.00  0.00     0.116 A 
ATOM      7  C   UNL A   1      31.890  24.597  25.230  1.00  0.00     0.131 A 
ATOM      8  C   UNL A   1      31.033  24.223  24.220  1.00  0.00     0.112 A 
ATOM      9  C   UNL A   1      32.761  25.650  24.817  1.00  0.00     0.074 A 
ATOM     10  S   UNL A   1      31.191  25.215  22.838  1.00  0.00    -0.133 S 
BRANCH   7  11
ATOM     11  O   UNL A   1      31.897  24.118  26.503  1.00  0.00    -0.483 OA
BRANCH  11  12
ATOM     12  C   UNL A   1      32.124  22.722  26.651  1.00  0.00     0.329 C 
BRANCH  12  13
ATOM     13  C   UNL A   1      33.577  22.247  26.819  1.00  0.00     0.264 C 
ATOM     14  O   UNL A   1      34.013  21.975  27.933  1.00  0.00    -0.271 OA
ATOM     15  N   UNL A   1      34.266  22.202  25.627  1.00  0.00    -0.299 N 
ATOM     16  H   UNL A   1      33.761  22.259  24.784  1.00  0.00     0.172 HD
BRANCH  15  17
ATOM     17  C   UNL A   1      35.624  22.078  25.574  1.00  0.00     0.189 A 
ATOM     18  N   UNL A   1      36.551  22.964  25.832  1.00  0.00    -0.229 NA
ATOM     19  S   UNL A   1      36.163  20.562  24.997  1.00  0.00    -0.105 S 
ATOM     20  C   UNL A   1      37.790  22.427  25.548  1.00  0.00     0.125 A 
ATOM     21  C   UNL A   1      37.781  21.135  25.067  1.00  0.00     0.088 A 
ENDBRANCH  15  17
ENDBRANCH  12  13
ENDBRANCH  11  12
ENDBRANCH   7  11
ENDBRANCH   4   6
ENDBRANCH   3   4
ENDBRANCH   2   3
ENDBRANCH   1   2
BRANCH   1  22
ATOM     22  O   UNL A   1      31.238  28.592  25.767  1.00  0.00    -0.374 OA
BRANCH  22  23
ATOM     23  C   UNL A   1      31.877  28.958  26.992  1.00  0.00     0.202 C 
BRANCH  23  24
ATOM     24  C   UNL A   1      33.409  28.939  26.952  1.00  0.00     0.261 C 
BRANCH  24  25
ATOM     25  O   UNL A   1      33.927  30.235  26.599  1.00  0.00    -0.460 OA
BRANCH  25  26
ATOM     26  C   UNL A   1      34.448  30.940  27.632  1.00  0.00     0.338 C 
ATOM     27  O   UNL A   1      33.920  31.859  28.235  1.00  0.00    -0.246 OA
BRANCH  26  28
ATOM     28  C   UNL A   1      35.717  30.321  28.072  1.00  0.00     0.060 A 
ATOM     29  C   UNL A   1      35.769  29.835  29.384  1.00  0.00     0.016 A 
ATOM     30  C   UNL A   1      36.843  30.251  27.247  1.00  0.00     0.016 A 
ATOM     31  C   UNL A   1      36.961  29.328  29.895  1.00  0.00     0.010 A 
ATOM     32  C   UNL A   1      38.041  29.745  27.763  1.00  0.00     0.010 A 
ATOM     33  C   UNL A   1      38.115  29.315  29.099  1.00  0.00    -0.014 A 
BRANCH  33  34
ATOM     34  C   UNL A   1      39.419  28.975  29.718  1.00  0.00     0.031 A 
ATOM     35  C   UNL A   1      39.892  29.761  30.911  1.00  0.00     0.074 A 
ATOM     36  C   UNL A   1      40.159  27.955  29.248  1.00  0.00     0.049 A 
ATOM     37  N   UNL A   1      40.982  29.615  31.619  1.00  0.00    -0.248 NA
ATOM     38  C   UNL A   1      39.019  30.857  31.364  1.00  0.00     0.031 C 
ATOM     39  C   UNL A   1      39.800  27.103  28.115  1.00  0.00     0.029 A 
ATOM     40  N   UNL A   1      41.370  27.466  29.668  1.00  0.00    -0.354 N 
ATOM     41  C   UNL A   1      40.933  30.603  32.596  1.00  0.00     0.074 A 
ATOM     42  C   UNL A   1      39.719  31.359  32.372  1.00  0.00     0.031 C 
ATOM     43  C   UNL A   1      40.776  26.197  27.927  1.00  0.00     0.029 A 
ATOM     44  C   UNL A   1      41.836  26.420  28.909  1.00  0.00     0.049 A 
ATOM     45  H   UNL A   1      41.859  27.831  30.441  1.00  0.00     0.167 HD
ATOM     46  C   UNL A   1      41.814  30.855  33.592  1.00  0.00     0.031 A 
ATOM     47  C   UNL A   1      42.990  25.729  28.986  1.00  0.00     0.031 A 
ATOM     48  C   UNL A   1      43.028  30.114  33.808  1.00  0.00     0.049 A 
ATOM     49  C   UNL A   1      43.979  26.056  30.073  1.00  0.00     0.074 A 
ATOM     50  C   UNL A   1      43.970  30.275  34.809  1.00  0.00     0.029 A 
ATOM     51  N   UNL A   1      43.476  29.079  33.000  1.00  0.00    -0.354 N 
ATOM     52  N   UNL A   1      43.894  26.963  31.017  1.00  0.00    -0.248 NA
ATOM     53  C   UNL A   1      45.211  25.257  30.112  1.00  0.00     0.031 C 
ATOM     54  C   UNL A   1      45.014  29.372  34.576  1.00  0.00     0.029 A 
ATOM     55  C   UNL A   1      44.696  28.612  33.462  1.00  0.00     0.049 A 
ATOM     56  H   UNL A   1      42.998  28.728  32.215  1.00  0.00     0.167 HD
ATOM     57  C   UNL A   1      45.054  26.832  31.773  1.00  0.00     0.074 A 
ATOM     58  C   UNL A   1      45.815  25.748  31.186  1.00  0.00     0.031 C 
ATOM     59  C   UNL A   1      45.450  27.542  32.860  1.00  0.00     0.031 A 
BRANCH  46  60
ATOM     60  C   UNL A   1      41.509  32.015  34.503  1.00  0.00    -0.014 A 
ATOM     61  C   UNL A   1      42.269  33.198  34.459  1.00  0.00     0.010 A 
ATOM     62  C   UNL A   1      40.439  31.921  35.411  1.00  0.00     0.010 A 
ATOM     63  C   UNL A   1      41.993  34.248  35.339  1.00  0.00     0.020 A 
ATOM     64  C   UNL A   1      40.144  32.979  36.276  1.00  0.00     0.020 A 
ATOM     65  C   UNL A   1      40.936  34.127  36.249  1.00  0.00     0.054 A 
BRANCH  65  66
ATOM     66  S   UNL A   1      40.600  35.502  37.382  1.00  0.00     0.124 S 
ATOM     67  O   UNL A   1      39.926  36.457  36.505  1.00  0.00    -0.237 OA
ATOM     68  O   UNL A   1      39.757  34.883  38.402  1.00  0.00    -0.237 OA
ATOM     69  O   UNL A   1      41.928  35.906  37.840  1.00  0.00    -0.744 OA
ENDBRANCH  65  66
ENDBRANCH  46  60
BRANCH  47  70
ATOM     70  C   UNL A   1      43.273  24.662  27.989  1.00  0.00    -0.014 A 
ATOM     71  C   UNL A   1      44.037  24.935  26.842  1.00  0.00     0.010 A 
ATOM     72  C   UNL A   1      42.801  23.355  28.206  1.00  0.00     0.010 A 
ATOM     73  C   UNL A   1      44.324  23.916  25.927  1.00  0.00     0.020 A 
ATOM     74  C   UNL A   1      43.107  22.330  27.306  1.00  0.00     0.020 A 
ATOM     75  C   UNL A   1      43.863  22.619  26.169  1.00  0.00     0.054 A 
BRANCH  75  76
ATOM     76  S   UNL A   1      44.318  21.295  25.015  1.00  0.00     0.124 S 
ATOM     77  O   UNL A   1      43.316  20.277  25.308  1.00  0.00    -0.237 OA
ATOM     78  O   UNL A   1      44.195  21.953  23.716  1.00  0.00    -0.237 OA
ATOM     79  O   UNL A   1      45.687  20.960  25.403  1.00  0.00    -0.744 OA
ENDBRANCH  75  76
ENDBRANCH  47  70
BRANCH  59  80
ATOM     80  C   UNL A   1      46.759  27.159  33.498  1.00  0.00    -0.014 A 
ATOM     81  C   UNL A   1      46.813  26.211  34.535  1.00  0.00     0.010 A 
ATOM     82  C   UNL A   1      47.957  27.720  33.019  1.00  0.00     0.010 A 
ATOM     83  C   UNL A   1      48.040  25.857  35.105  1.00  0.00     0.020 A 
ATOM     84  C   UNL A   1      49.187  27.350  33.569  1.00  0.00     0.020 A 
ATOM     85  C   UNL A   1      49.219  26.432  34.621  1.00  0.00     0.054 A 
BRANCH  85  86
ATOM     86  S   UNL A   1      50.802  25.932  35.352  1.00  0.00     0.124 S 
ATOM     87  O   UNL A   1      50.594  26.238  36.764  1.00  0.00    -0.237 OA
ATOM     88  O   UNL A   1      50.877  24.511  35.021  1.00  0.00    -0.237 OA
ATOM     89  O   UNL A   1      51.780  26.775  34.669  1.00  0.00    -0.744 OA
ENDBRANCH  85  86
ENDBRANCH  59  80
ENDBRANCH  33  34
ENDBRANCH  26  28
ENDBRANCH  25  26
ENDBRANCH  24  25
ENDBRANCH  23  24
ENDBRANCH  22  23
ENDBRANCH   1  22
TORSDOF 21
ENDMDL
