MODEL 1
REMARK VINA RESULT:     -10.8      0.000      0.000
REMARK SMILES CC(C)[N@H+](C)Cc1cc2c(cc1Cl)C=C(C(=O)OCCOCCOC(=O)c1ccc(-c3c4nc(c(-c5ccc(S(=O)(=O)[O-])cc5)c5ccc([nH]5)c(-c5ccc(S(=O)(=O)[O-])cc5)c5nc(c(-c6ccc(S(=O)(=O)[O-])cc6)c6ccc3[nH]6)C=C5)C=C4)cc1)[C@@H](C(F)(F)F)O2
REMARK SMILES IDX 21 1 20 2 19 3 18 4 16 5 17 6 15 7 7 8 8 9 12 10 9 11 11 12
REMARK SMILES IDX 13 13 10 14 92 15 14 16 87 17 6 18 4 19 5 20 2 22 1 23 3 24
REMARK SMILES IDX 88 25 89 26 90 27 91 28 22 29 23 30 24 31 25 32 26 33 27 34
REMARK SMILES IDX 28 35 86 36 29 37 85 38 30 39 31 40 32 41 79 42 33 43 84 44
REMARK SMILES IDX 78 45 80 46 34 47 83 48 77 49 76 50 35 52 65 53 46 54 64 55
REMARK SMILES IDX 47 56 50 57 63 58 81 59 48 60 49 61 62 63 82 64 51 65 36 66
REMARK SMILES IDX 37 67 45 68 38 69 44 70 39 71 40 72 41 73 42 74 43 75 66 76
REMARK SMILES IDX 67 77 75 78 68 79 74 80 69 81 70 82 71 83 72 84 73 85 52 86
REMARK SMILES IDX 53 87 61 88 54 89 60 90 55 91 56 92 57 93 58 94 59 95
REMARK H PARENT 4 21 80 51 50 62
REMARK Flexibility Score: inf
ROOT
ATOM      1  O   UNL A   1      38.722  22.286  26.501  1.00  0.00    -0.374 OA
ENDROOT
BRANCH   1   2
ATOM      2  C   UNL A   1      38.681  21.431  25.359  1.00  0.00     0.202 C 
BRANCH   2   3
ATOM      3  C   UNL A   1      37.364  20.710  25.059  1.00  0.00     0.261 C 
BRANCH   3   4
ATOM      4  O   UNL A   1      36.248  21.609  25.114  1.00  0.00    -0.460 OA
BRANCH   4   5
ATOM      5  C   UNL A   1      35.048  21.016  24.921  1.00  0.00     0.338 C 
ATOM      6  O   UNL A   1      34.809  19.820  24.888  1.00  0.00    -0.246 OA
BRANCH   5   7
ATOM      7  C   UNL A   1      33.997  22.044  24.962  1.00  0.00     0.087 C 
ATOM      8  C   UNL A   1      31.396  26.186  23.925  1.00  0.00     0.029 A 
ATOM      9  C   UNL A   1      31.462  25.317  25.036  1.00  0.00     0.058 A 
ATOM     10  C   UNL A   1      31.943  25.737  22.708  1.00  0.00     0.050 A 
ATOM     11  C   UNL A   1      32.209  24.142  24.985  1.00  0.00     0.128 A 
ATOM     12  C   UNL A   1      32.743  24.596  22.680  1.00  0.00     0.033 A 
ATOM     13  Cl  UNL A   1      31.713  26.506  21.175  1.00  0.00    -0.084 Cl
ATOM     14  C   UNL A   1      32.921  23.836  23.831  1.00  0.00     0.019 A 
ATOM     15  O   UNL A   1      32.234  23.379  26.114  1.00  0.00    -0.475 OA
ATOM     16  C   UNL A   1      33.902  22.778  23.848  1.00  0.00     0.027 C 
ATOM     17  C   UNL A   1      33.095  22.201  26.153  1.00  0.00     0.316 C 
BRANCH   8  18
ATOM     18  C   UNL A   1      30.760  27.545  24.151  1.00  0.00     0.300 C 
BRANCH  18  19
ATOM     19  N   UNL A   1      29.474  27.715  23.488  1.00  0.00    -0.332 N 
ATOM     20  C   UNL A   1      28.475  26.737  23.864  1.00  0.00     0.333 C 
ATOM     21  H   UNL A   1      29.765  27.476  22.539  1.00  0.00     0.348 HD
BRANCH  19  22
ATOM     22  C   UNL A   1      28.993  29.039  23.095  1.00  0.00     0.177 C 
ATOM     23  C   UNL A   1      29.787  29.735  21.987  1.00  0.00     0.075 C 
ATOM     24  C   UNL A   1      27.506  29.012  22.718  1.00  0.00     0.075 C 
ENDBRANCH  19  22
ENDBRANCH  18  19
ENDBRANCH   8  18
BRANCH  17  25
ATOM     25  C   UNL A   1      33.862  22.244  27.481  1.00  0.00     0.430 C 
ATOM     26  F   UNL A   1      34.373  21.027  27.785  1.00  0.00    -0.167 F 
ATOM     27  F   UNL A   1      34.901  23.107  27.434  1.00  0.00    -0.167 F 
ATOM     28  F   UNL A   1      33.062  22.619  28.506  1.00  0.00    -0.167 F 
ENDBRANCH  17  25
ENDBRANCH   5   7
ENDBRANCH   4   5
ENDBRANCH   3   4
ENDBRANCH   2   3
ENDBRANCH   1   2
BRANCH   1  29
ATOM     29  C   UNL A   1      39.982  22.490  27.142  1.00  0.00     0.202 C 
BRANCH  29  30
ATOM     30  C   UNL A   1      41.143  23.054  26.311  1.00  0.00     0.261 C 
BRANCH  30  31
ATOM     31  O   UNL A   1      41.866  24.081  27.012  1.00  0.00    -0.460 OA
BRANCH  31  32
ATOM     32  C   UNL A   1      41.796  25.317  26.459  1.00  0.00     0.338 C 
ATOM     33  O   UNL A   1      41.842  25.597  25.271  1.00  0.00    -0.246 OA
BRANCH  32  34
ATOM     34  C   UNL A   1      41.415  26.282  27.505  1.00  0.00     0.060 A 
ATOM     35  C   UNL A   1      40.332  26.041  28.352  1.00  0.00     0.016 A 
ATOM     36  C   UNL A   1      42.184  27.445  27.642  1.00  0.00     0.016 A 
ATOM     37  C   UNL A   1      40.034  26.965  29.357  1.00  0.00     0.010 A 
ATOM     38  C   UNL A   1      41.877  28.370  28.638  1.00  0.00     0.010 A 
ATOM     39  C   UNL A   1      40.813  28.126  29.516  1.00  0.00    -0.014 A 
BRANCH  39  40
ATOM     40  C   UNL A   1      40.612  29.018  30.683  1.00  0.00     0.031 A 
ATOM     41  C   UNL A   1      41.453  28.891  31.918  1.00  0.00     0.074 A 
ATOM     42  C   UNL A   1      39.616  29.924  30.628  1.00  0.00     0.049 A 
ATOM     43  N   UNL A   1      41.403  29.603  33.014  1.00  0.00    -0.248 NA
ATOM     44  C   UNL A   1      42.476  27.836  31.931  1.00  0.00     0.031 C 
ATOM     45  C   UNL A   1      38.729  30.116  29.479  1.00  0.00     0.029 A 
ATOM     46  N   UNL A   1      39.182  30.849  31.544  1.00  0.00    -0.354 N 
ATOM     47  C   UNL A   1      42.397  29.098  33.841  1.00  0.00     0.074 A 
ATOM     48  C   UNL A   1      43.005  27.987  33.139  1.00  0.00     0.031 C 
ATOM     49  C   UNL A   1      37.878  31.117  29.747  1.00  0.00     0.029 A 
ATOM     50  C   UNL A   1      38.123  31.606  31.101  1.00  0.00     0.049 A 
ATOM     51  H   UNL A   1      39.590  30.960  32.433  1.00  0.00     0.167 HD
ATOM     52  C   UNL A   1      42.774  29.539  35.065  1.00  0.00     0.031 A 
ATOM     53  C   UNL A   1      37.420  32.582  31.712  1.00  0.00     0.031 A 
ATOM     54  C   UNL A   1      42.144  30.638  35.753  1.00  0.00     0.049 A 
ATOM     55  C   UNL A   1      37.817  33.011  33.098  1.00  0.00     0.074 A 
ATOM     56  C   UNL A   1      42.481  31.181  36.981  1.00  0.00     0.029 A 
ATOM     57  N   UNL A   1      41.050  31.356  35.290  1.00  0.00    -0.354 N 
ATOM     58  N   UNL A   1      38.809  32.573  33.836  1.00  0.00    -0.248 NA
ATOM     59  C   UNL A   1      37.017  34.067  33.731  1.00  0.00     0.031 C 
ATOM     60  C   UNL A   1      41.543  32.161  37.299  1.00  0.00     0.029 A 
ATOM     61  C   UNL A   1      40.676  32.305  36.228  1.00  0.00     0.049 A 
ATOM     62  H   UNL A   1      40.605  31.211  34.424  1.00  0.00     0.167 HD
ATOM     63  C   UNL A   1      38.769  33.318  35.009  1.00  0.00     0.074 A 
ATOM     64  C   UNL A   1      37.663  34.244  34.878  1.00  0.00     0.031 C 
ATOM     65  C   UNL A   1      39.580  33.235  36.091  1.00  0.00     0.031 A 
BRANCH  52  66
ATOM     66  C   UNL A   1      43.935  28.865  35.754  1.00  0.00    -0.014 A 
ATOM     67  C   UNL A   1      45.254  29.251  35.448  1.00  0.00     0.010 A 
ATOM     68  C   UNL A   1      43.728  27.743  36.576  1.00  0.00     0.010 A 
ATOM     69  C   UNL A   1      46.341  28.502  35.910  1.00  0.00     0.020 A 
ATOM     70  C   UNL A   1      44.814  27.009  37.066  1.00  0.00     0.020 A 
ATOM     71  C   UNL A   1      46.113  27.378  36.706  1.00  0.00     0.054 A 
BRANCH  71  72
ATOM     72  S   UNL A   1      47.532  26.386  37.246  1.00  0.00     0.124 S 
ATOM     73  O   UNL A   1      47.736  25.493  36.109  1.00  0.00    -0.237 OA
ATOM     74  O   UNL A   1      48.567  27.397  37.449  1.00  0.00    -0.237 OA
ATOM     75  O   UNL A   1      47.056  25.742  38.469  1.00  0.00    -0.744 OA
ENDBRANCH  71  72
ENDBRANCH  52  66
BRANCH  53  76
ATOM     76  C   UNL A   1      36.304  33.238  30.974  1.00  0.00    -0.014 A 
ATOM     77  C   UNL A   1      36.530  33.829  29.716  1.00  0.00     0.010 A 
ATOM     78  C   UNL A   1      35.037  33.369  31.570  1.00  0.00     0.010 A 
ATOM     79  C   UNL A   1      35.538  34.599  29.103  1.00  0.00     0.020 A 
ATOM     80  C   UNL A   1      34.029  34.108  30.941  1.00  0.00     0.020 A 
ATOM     81  C   UNL A   1      34.298  34.746  29.729  1.00  0.00     0.054 A 
BRANCH  81  82
ATOM     82  S   UNL A   1      33.055  35.814  28.952  1.00  0.00     0.124 S 
ATOM     83  O   UNL A   1      33.891  36.798  28.269  1.00  0.00    -0.237 OA
ATOM     84  O   UNL A   1      32.338  34.885  28.082  1.00  0.00    -0.237 OA
ATOM     85  O   UNL A   1      32.286  36.325  30.082  1.00  0.00    -0.744 OA
ENDBRANCH  81  82
ENDBRANCH  53  76
BRANCH  65  86
ATOM     86  C   UNL A   1      39.335  34.167  37.254  1.00  0.00    -0.014 A 
ATOM     87  C   UNL A   1      39.991  35.413  37.293  1.00  0.00     0.010 A 
ATOM     88  C   UNL A   1      38.625  33.733  38.386  1.00  0.00     0.010 A 
ATOM     89  C   UNL A   1      40.002  36.173  38.465  1.00  0.00     0.020 A 
ATOM     90  C   UNL A   1      38.604  34.508  39.550  1.00  0.00     0.020 A 
ATOM     91  C   UNL A   1      39.325  35.704  39.593  1.00  0.00     0.054 A 
BRANCH  91  92
ATOM     92  S   UNL A   1      39.441  36.653  41.135  1.00  0.00     0.124 S 
ATOM     93  O   UNL A   1      38.938  37.962  40.729  1.00  0.00    -0.237 OA
ATOM     94  O   UNL A   1      38.576  35.899  42.039  1.00  0.00    -0.237 OA
ATOM     95  O   UNL A   1      40.864  36.605  41.463  1.00  0.00    -0.744 OA
ENDBRANCH  91  92
ENDBRANCH  65  86
ENDBRANCH  39  40
ENDBRANCH  32  34
ENDBRANCH  31  32
ENDBRANCH  30  31
ENDBRANCH  29  30
ENDBRANCH   1  29
TORSDOF 21
ENDMDL
MODEL 2
REMARK VINA RESULT:     -10.5      6.387     12.114
REMARK SMILES CC(C)[N@H+](C)Cc1cc2c(cc1Cl)C=C(C(=O)OCCOCCOC(=O)c1ccc(-c3c4nc(c(-c5ccc(S(=O)(=O)[O-])cc5)c5ccc([nH]5)c(-c5ccc(S(=O)(=O)[O-])cc5)c5nc(c(-c6ccc(S(=O)(=O)[O-])cc6)c6ccc3[nH]6)C=C5)C=C4)cc1)[C@@H](C(F)(F)F)O2
REMARK SMILES IDX 21 1 20 2 19 3 18 4 16 5 17 6 15 7 7 8 8 9 12 10 9 11 11 12
REMARK SMILES IDX 13 13 10 14 92 15 14 16 87 17 6 18 4 19 5 20 2 22 1 23 3 24
REMARK SMILES IDX 88 25 89 26 90 27 91 28 22 29 23 30 24 31 25 32 26 33 27 34
REMARK SMILES IDX 28 35 86 36 29 37 85 38 30 39 31 40 32 41 79 42 33 43 84 44
REMARK SMILES IDX 78 45 80 46 34 47 83 48 77 49 76 50 35 52 65 53 46 54 64 55
REMARK SMILES IDX 47 56 50 57 63 58 81 59 48 60 49 61 62 63 82 64 51 65 36 66
REMARK SMILES IDX 37 67 45 68 38 69 44 70 39 71 40 72 41 73 42 74 43 75 66 76
REMARK SMILES IDX 67 77 75 78 68 79 74 80 69 81 70 82 71 83 72 84 73 85 52 86
REMARK SMILES IDX 53 87 61 88 54 89 60 90 55 91 56 92 57 93 58 94 59 95
REMARK H PARENT 4 21 80 51 50 62
REMARK Flexibility Score: inf
ROOT
ATOM      1  O   UNL A   1      35.287  31.478  27.627  1.00  0.00    -0.374 OA
ENDROOT
BRANCH   1   2
ATOM      2  C   UNL A   1      33.966  31.005  27.367  1.00  0.00     0.202 C 
BRANCH   2   3
ATOM      3  C   UNL A   1      33.819  29.741  26.514  1.00  0.00     0.261 C 
BRANCH   3   4
ATOM      4  O   UNL A   1      32.907  29.944  25.426  1.00  0.00    -0.460 OA
BRANCH   4   5
ATOM      5  C   UNL A   1      33.072  29.083  24.397  1.00  0.00     0.338 C 
ATOM      6  O   UNL A   1      33.704  29.267  23.370  1.00  0.00    -0.246 OA
BRANCH   5   7
ATOM      7  C   UNL A   1      32.538  27.768  24.787  1.00  0.00     0.087 C 
ATOM      8  C   UNL A   1      32.222  22.841  25.570  1.00  0.00     0.029 A 
ATOM      9  C   UNL A   1      31.275  23.875  25.408  1.00  0.00     0.058 A 
ATOM     10  C   UNL A   1      33.554  23.208  25.840  1.00  0.00     0.050 A 
ATOM     11  C   UNL A   1      31.674  25.208  25.326  1.00  0.00     0.128 A 
ATOM     12  C   UNL A   1      33.958  24.533  25.691  1.00  0.00     0.033 A 
ATOM     13  Cl  UNL A   1      34.796  22.119  26.354  1.00  0.00    -0.084 Cl
ATOM     14  C   UNL A   1      33.027  25.518  25.378  1.00  0.00     0.019 A 
ATOM     15  O   UNL A   1      30.690  26.134  25.146  1.00  0.00    -0.475 OA
ATOM     16  C   UNL A   1      33.476  26.845  25.030  1.00  0.00     0.027 C 
ATOM     17  C   UNL A   1      31.063  27.530  24.936  1.00  0.00     0.316 C 
BRANCH   8  18
ATOM     18  C   UNL A   1      31.721  21.417  25.411  1.00  0.00     0.300 C 
BRANCH  18  19
ATOM     19  N   UNL A   1      32.146  20.775  24.175  1.00  0.00    -0.332 N 
ATOM     20  C   UNL A   1      32.438  21.695  23.094  1.00  0.00     0.333 C 
ATOM     21  H   UNL A   1      31.264  20.322  23.933  1.00  0.00     0.348 HD
BRANCH  19  22
ATOM     22  C   UNL A   1      32.885  19.512  24.191  1.00  0.00     0.177 C 
ATOM     23  C   UNL A   1      32.856  18.741  25.512  1.00  0.00     0.075 C 
ATOM     24  C   UNL A   1      32.448  18.586  23.048  1.00  0.00     0.075 C 
ENDBRANCH  19  22
ENDBRANCH  18  19
ENDBRANCH   8  18
BRANCH  17  25
ATOM     25  C   UNL A   1      30.253  28.040  23.737  1.00  0.00     0.430 C 
ATOM     26  F   UNL A   1      29.035  27.448  23.689  1.00  0.00    -0.167 F 
ATOM     27  F   UNL A   1      30.040  29.373  23.804  1.00  0.00    -0.167 F 
ATOM     28  F   UNL A   1      30.880  27.782  22.566  1.00  0.00    -0.167 F 
ENDBRANCH  17  25
ENDBRANCH   5   7
ENDBRANCH   4   5
ENDBRANCH   3   4
ENDBRANCH   2   3
ENDBRANCH   1   2
BRANCH   1  29
ATOM     29  C   UNL A   1      35.454  32.498  28.612  1.00  0.00     0.202 C 
BRANCH  29  30
ATOM     30  C   UNL A   1      36.871  33.006  28.907  1.00  0.00     0.261 C 
BRANCH  30  31
ATOM     31  O   UNL A   1      37.223  32.858  30.294  1.00  0.00    -0.460 OA
BRANCH  31  32
ATOM     32  C   UNL A   1      37.232  31.583  30.755  1.00  0.00     0.338 C 
ATOM     33  O   UNL A   1      36.320  30.996  31.317  1.00  0.00    -0.246 OA
BRANCH  32  34
ATOM     34  C   UNL A   1      38.448  30.911  30.264  1.00  0.00     0.060 A 
ATOM     35  C   UNL A   1      38.533  30.435  28.956  1.00  0.00     0.016 A 
ATOM     36  C   UNL A   1      39.531  30.780  31.143  1.00  0.00     0.016 A 
ATOM     37  C   UNL A   1      39.721  29.842  28.521  1.00  0.00     0.010 A 
ATOM     38  C   UNL A   1      40.711  30.178  30.711  1.00  0.00     0.010 A 
ATOM     39  C   UNL A   1      40.822  29.725  29.390  1.00  0.00    -0.014 A 
BRANCH  39  40
ATOM     40  C   UNL A   1      42.137  29.259  28.887  1.00  0.00     0.031 A 
ATOM     41  C   UNL A   1      43.303  30.193  28.768  1.00  0.00     0.074 A 
ATOM     42  C   UNL A   1      42.249  27.976  28.491  1.00  0.00     0.049 A 
ATOM     43  N   UNL A   1      44.516  29.932  28.356  1.00  0.00    -0.248 NA
ATOM     44  C   UNL A   1      43.087  31.594  29.157  1.00  0.00     0.031 C 
ATOM     45  C   UNL A   1      41.168  26.990  28.550  1.00  0.00     0.029 A 
ATOM     46  N   UNL A   1      43.309  27.279  27.968  1.00  0.00    -0.354 N 
ATOM     47  C   UNL A   1      45.216  31.128  28.451  1.00  0.00     0.074 A 
ATOM     48  C   UNL A   1      44.279  32.128  28.917  1.00  0.00     0.031 C 
ATOM     49  C   UNL A   1      41.629  25.810  28.111  1.00  0.00     0.029 A 
ATOM     50  C   UNL A   1      43.021  25.963  27.694  1.00  0.00     0.049 A 
ATOM     51  H   UNL A   1      44.192  27.684  27.806  1.00  0.00     0.167 HD
ATOM     52  C   UNL A   1      46.525  31.357  28.191  1.00  0.00     0.031 A 
ATOM     53  C   UNL A   1      43.783  24.985  27.162  1.00  0.00     0.031 A 
ATOM     54  C   UNL A   1      47.439  30.348  27.712  1.00  0.00     0.049 A 
ATOM     55  C   UNL A   1      45.217  25.281  26.820  1.00  0.00     0.074 A 
ATOM     56  C   UNL A   1      48.792  30.478  27.454  1.00  0.00     0.029 A 
ATOM     57  N   UNL A   1      47.100  29.036  27.408  1.00  0.00    -0.354 N 
ATOM     58  N   UNL A   1      45.883  26.399  26.988  1.00  0.00    -0.248 NA
ATOM     59  C   UNL A   1      46.008  24.193  26.231  1.00  0.00     0.031 C 
ATOM     60  C   UNL A   1      49.252  29.277  26.914  1.00  0.00     0.029 A 
ATOM     61  C   UNL A   1      48.211  28.362  26.927  1.00  0.00     0.049 A 
ATOM     62  H   UNL A   1      46.205  28.644  27.519  1.00  0.00     0.167 HD
ATOM     63  C   UNL A   1      47.177  26.140  26.551  1.00  0.00     0.074 A 
ATOM     64  C   UNL A   1      47.205  24.757  26.122  1.00  0.00     0.031 C 
ATOM     65  C   UNL A   1      48.240  26.979  26.511  1.00  0.00     0.031 A 
BRANCH  52  66
ATOM     66  C   UNL A   1      47.083  32.738  28.429  1.00  0.00    -0.014 A 
ATOM     67  C   UNL A   1      47.130  33.669  27.373  1.00  0.00     0.010 A 
ATOM     68  C   UNL A   1      47.709  33.059  29.647  1.00  0.00     0.010 A 
ATOM     69  C   UNL A   1      47.832  34.870  27.513  1.00  0.00     0.020 A 
ATOM     70  C   UNL A   1      48.385  34.274  29.802  1.00  0.00     0.020 A 
ATOM     71  C   UNL A   1      48.466  35.159  28.723  1.00  0.00     0.054 A 
BRANCH  71  72
ATOM     72  S   UNL A   1      49.420  36.695  28.866  1.00  0.00     0.124 S 
ATOM     73  O   UNL A   1      50.647  36.238  29.511  1.00  0.00    -0.237 OA
ATOM     74  O   UNL A   1      49.557  37.113  27.473  1.00  0.00    -0.237 OA
ATOM     75  O   UNL A   1      48.566  37.555  29.684  1.00  0.00    -0.744 OA
ENDBRANCH  71  72
ENDBRANCH  52  66
BRANCH  53  76
ATOM     76  C   UNL A   1      43.193  23.630  26.978  1.00  0.00    -0.014 A 
ATOM     77  C   UNL A   1      43.322  22.652  27.983  1.00  0.00     0.010 A 
ATOM     78  C   UNL A   1      42.593  23.276  25.756  1.00  0.00     0.010 A 
ATOM     79  C   UNL A   1      42.931  21.331  27.745  1.00  0.00     0.020 A 
ATOM     80  C   UNL A   1      42.166  21.963  25.529  1.00  0.00     0.020 A 
ATOM     81  C   UNL A   1      42.370  20.992  26.511  1.00  0.00     0.054 A 
BRANCH  81  82
ATOM     82  S   UNL A   1      41.944  19.257  26.199  1.00  0.00     0.124 S 
ATOM     83  O   UNL A   1      42.820  18.932  25.077  1.00  0.00    -0.237 OA
ATOM     84  O   UNL A   1      42.280  18.615  27.468  1.00  0.00    -0.237 OA
ATOM     85  O   UNL A   1      40.519  19.304  25.887  1.00  0.00    -0.744 OA
ENDBRANCH  81  82
ENDBRANCH  53  76
BRANCH  65  86
ATOM     86  C   UNL A   1      49.558  26.457  25.992  1.00  0.00    -0.014 A 
ATOM     87  C   UNL A   1      50.448  25.818  26.878  1.00  0.00     0.010 A 
ATOM     88  C   UNL A   1      49.995  26.772  24.694  1.00  0.00     0.010 A 
ATOM     89  C   UNL A   1      51.769  25.569  26.500  1.00  0.00     0.020 A 
ATOM     90  C   UNL A   1      51.307  26.491  24.301  1.00  0.00     0.020 A 
ATOM     91  C   UNL A   1      52.196  25.927  25.220  1.00  0.00     0.054 A 
BRANCH  91  92
ATOM     92  S   UNL A   1      53.943  25.694  24.787  1.00  0.00     0.124 S 
ATOM     93  O   UNL A   1      54.074  24.240  24.812  1.00  0.00    -0.237 OA
ATOM     94  O   UNL A   1      54.028  26.312  23.466  1.00  0.00    -0.237 OA
ATOM     95  O   UNL A   1      54.658  26.403  25.845  1.00  0.00    -0.744 OA
ENDBRANCH  91  92
ENDBRANCH  65  86
ENDBRANCH  39  40
ENDBRANCH  32  34
ENDBRANCH  31  32
ENDBRANCH  30  31
ENDBRANCH  29  30
ENDBRANCH   1  29
TORSDOF 21
ENDMDL
MODEL 3
REMARK VINA RESULT:     -10.4      2.979      8.737
REMARK SMILES CC(C)[N@H+](C)Cc1cc2c(cc1Cl)C=C(C(=O)OCCOCCOC(=O)c1ccc(-c3c4nc(c(-c5ccc(S(=O)(=O)[O-])cc5)c5ccc([nH]5)c(-c5ccc(S(=O)(=O)[O-])cc5)c5nc(c(-c6ccc(S(=O)(=O)[O-])cc6)c6ccc3[nH]6)C=C5)C=C4)cc1)[C@@H](C(F)(F)F)O2
REMARK SMILES IDX 21 1 20 2 19 3 18 4 16 5 17 6 15 7 7 8 8 9 12 10 9 11 11 12
REMARK SMILES IDX 13 13 10 14 92 15 14 16 87 17 6 18 4 19 5 20 2 22 1 23 3 24
REMARK SMILES IDX 88 25 89 26 90 27 91 28 22 29 23 30 24 31 25 32 26 33 27 34
REMARK SMILES IDX 28 35 86 36 29 37 85 38 30 39 31 40 32 41 79 42 33 43 84 44
REMARK SMILES IDX 78 45 80 46 34 47 83 48 77 49 76 50 35 52 65 53 46 54 64 55
REMARK SMILES IDX 47 56 50 57 63 58 81 59 48 60 49 61 62 63 82 64 51 65 36 66
REMARK SMILES IDX 37 67 45 68 38 69 44 70 39 71 40 72 41 73 42 74 43 75 66 76
REMARK SMILES IDX 67 77 75 78 68 79 74 80 69 81 70 82 71 83 72 84 73 85 52 86
REMARK SMILES IDX 53 87 61 88 54 89 60 90 55 91 56 92 57 93 58 94 59 95
REMARK H PARENT 4 21 80 51 50 62
REMARK Flexibility Score: inf
ROOT
ATOM      1  O   UNL A   1      32.388  30.942  27.041  1.00  0.00    -0.374 OA
ENDROOT
BRANCH   1   2
ATOM      2  C   UNL A   1      32.221  29.751  26.274  1.00  0.00     0.202 C 
BRANCH   2   3
ATOM      3  C   UNL A   1      33.484  29.064  25.744  1.00  0.00     0.261 C 
BRANCH   3   4
ATOM      4  O   UNL A   1      33.352  27.636  25.762  1.00  0.00    -0.460 OA
BRANCH   4   5
ATOM      5  C   UNL A   1      33.524  27.049  24.555  1.00  0.00     0.338 C 
ATOM      6  O   UNL A   1      34.041  27.533  23.563  1.00  0.00    -0.246 OA
BRANCH   5   7
ATOM      7  C   UNL A   1      33.177  25.624  24.668  1.00  0.00     0.087 C 
ATOM      8  C   UNL A   1      33.521  20.643  24.410  1.00  0.00     0.029 A 
ATOM      9  C   UNL A   1      32.444  21.553  24.474  1.00  0.00     0.058 A 
ATOM     10  C   UNL A   1      34.804  21.120  24.741  1.00  0.00     0.050 A 
ATOM     11  C   UNL A   1      32.666  22.915  24.668  1.00  0.00     0.128 A 
ATOM     12  C   UNL A   1      35.029  22.489  24.868  1.00  0.00     0.033 A 
ATOM     13  Cl  UNL A   1      36.192  20.123  25.007  1.00  0.00    -0.084 Cl
ATOM     14  C   UNL A   1      33.970  23.385  24.773  1.00  0.00     0.019 A 
ATOM     15  O   UNL A   1      31.567  23.720  24.692  1.00  0.00    -0.475 OA
ATOM     16  C   UNL A   1      34.233  24.803  24.706  1.00  0.00     0.027 C 
ATOM     17  C   UNL A   1      31.750  25.167  24.774  1.00  0.00     0.316 C 
BRANCH   8  18
ATOM     18  C   UNL A   1      33.201  19.229  23.961  1.00  0.00     0.300 C 
BRANCH  18  19
ATOM     19  N   UNL A   1      33.668  18.197  24.877  1.00  0.00    -0.332 N 
ATOM     20  C   UNL A   1      32.723  17.854  25.921  1.00  0.00     0.333 C 
ATOM     21  H   UNL A   1      34.413  18.727  25.329  1.00  0.00     0.348 HD
BRANCH  19  22
ATOM     22  C   UNL A   1      34.577  17.142  24.431  1.00  0.00     0.177 C 
ATOM     23  C   UNL A   1      34.667  15.913  25.339  1.00  0.00     0.075 C 
ATOM     24  C   UNL A   1      34.266  16.696  22.996  1.00  0.00     0.075 C 
ENDBRANCH  19  22
ENDBRANCH  18  19
ENDBRANCH   8  18
BRANCH  17  25
ATOM     25  C   UNL A   1      30.840  25.800  23.714  1.00  0.00     0.430 C 
ATOM     26  F   UNL A   1      29.591  25.278  23.774  1.00  0.00    -0.167 F 
ATOM     27  F   UNL A   1      30.718  27.135  23.889  1.00  0.00    -0.167 F 
ATOM     28  F   UNL A   1      31.312  25.590  22.463  1.00  0.00    -0.167 F 
ENDBRANCH  17  25
ENDBRANCH   5   7
ENDBRANCH   4   5
ENDBRANCH   3   4
ENDBRANCH   2   3
ENDBRANCH   1   2
BRANCH   1  29
ATOM     29  C   UNL A   1      31.614  32.087  26.679  1.00  0.00     0.202 C 
BRANCH  29  30
ATOM     30  C   UNL A   1      31.892  33.414  27.397  1.00  0.00     0.261 C 
BRANCH  30  31
ATOM     31  O   UNL A   1      33.296  33.621  27.632  1.00  0.00    -0.460 OA
BRANCH  31  32
ATOM     32  C   UNL A   1      33.601  34.248  28.796  1.00  0.00     0.338 C 
ATOM     33  O   UNL A   1      32.905  35.041  29.411  1.00  0.00    -0.246 OA
BRANCH  32  34
ATOM     34  C   UNL A   1      34.826  33.645  29.351  1.00  0.00     0.060 A 
ATOM     35  C   UNL A   1      36.075  34.232  29.152  1.00  0.00     0.016 A 
ATOM     36  C   UNL A   1      34.701  32.471  30.106  1.00  0.00     0.016 A 
ATOM     37  C   UNL A   1      37.204  33.649  29.733  1.00  0.00     0.010 A 
ATOM     38  C   UNL A   1      35.829  31.885  30.676  1.00  0.00     0.010 A 
ATOM     39  C   UNL A   1      37.086  32.482  30.511  1.00  0.00    -0.014 A 
BRANCH  39  40
ATOM     40  C   UNL A   1      38.246  31.959  31.271  1.00  0.00     0.031 A 
ATOM     41  C   UNL A   1      39.167  30.931  30.685  1.00  0.00     0.074 A 
ATOM     42  C   UNL A   1      38.431  32.397  32.532  1.00  0.00     0.049 A 
ATOM     43  N   UNL A   1      40.227  30.387  31.222  1.00  0.00    -0.248 NA
ATOM     44  C   UNL A   1      38.864  30.452  29.328  1.00  0.00     0.031 C 
ATOM     45  C   UNL A   1      37.580  33.383  33.203  1.00  0.00     0.029 A 
ATOM     46  N   UNL A   1      39.380  32.081  33.470  1.00  0.00    -0.354 N 
ATOM     47  C   UNL A   1      40.732  29.514  30.267  1.00  0.00     0.074 A 
ATOM     48  C   UNL A   1      39.835  29.566  29.132  1.00  0.00     0.031 C 
ATOM     49  C   UNL A   1      38.066  33.614  34.431  1.00  0.00     0.029 A 
ATOM     50  C   UNL A   1      39.229  32.760  34.657  1.00  0.00     0.049 A 
ATOM     51  H   UNL A   1      40.102  31.432  33.309  1.00  0.00     0.167 HD
ATOM     52  C   UNL A   1      41.853  28.757  30.332  1.00  0.00     0.031 A 
ATOM     53  C   UNL A   1      39.939  32.703  35.803  1.00  0.00     0.031 A 
ATOM     54  C   UNL A   1      42.725  28.707  31.479  1.00  0.00     0.049 A 
ATOM     55  C   UNL A   1      41.142  31.805  35.873  1.00  0.00     0.074 A 
ATOM     56  C   UNL A   1      43.904  27.997  31.623  1.00  0.00     0.029 A 
ATOM     57  N   UNL A   1      42.517  29.378  32.676  1.00  0.00    -0.354 N 
ATOM     58  N   UNL A   1      41.649  31.043  34.932  1.00  0.00    -0.248 NA
ATOM     59  C   UNL A   1      41.879  31.763  37.143  1.00  0.00     0.031 C 
ATOM     60  C   UNL A   1      44.361  28.166  32.930  1.00  0.00     0.029 A 
ATOM     61  C   UNL A   1      43.524  29.063  33.575  1.00  0.00     0.049 A 
ATOM     62  H   UNL A   1      41.767  29.988  32.859  1.00  0.00     0.167 HD
ATOM     63  C   UNL A   1      42.778  30.452  35.489  1.00  0.00     0.074 A 
ATOM     64  C   UNL A   1      42.888  30.953  36.843  1.00  0.00     0.031 C 
ATOM     65  C   UNL A   1      43.639  29.573  34.921  1.00  0.00     0.031 A 
BRANCH  52  66
ATOM     66  C   UNL A   1      42.238  27.924  29.133  1.00  0.00    -0.014 A 
ATOM     67  C   UNL A   1      41.851  26.572  29.064  1.00  0.00     0.010 A 
ATOM     68  C   UNL A   1      43.118  28.431  28.161  1.00  0.00     0.010 A 
ATOM     69  C   UNL A   1      42.373  25.732  28.076  1.00  0.00     0.020 A 
ATOM     70  C   UNL A   1      43.618  27.602  27.151  1.00  0.00     0.020 A 
ATOM     71  C   UNL A   1      43.263  26.250  27.133  1.00  0.00     0.054 A 
BRANCH  71  72
ATOM     72  S   UNL A   1      43.975  25.131  25.895  1.00  0.00     0.124 S 
ATOM     73  O   UNL A   1      42.784  24.551  25.281  1.00  0.00    -0.237 OA
ATOM     74  O   UNL A   1      44.742  26.041  25.049  1.00  0.00    -0.237 OA
ATOM     75  O   UNL A   1      44.781  24.206  26.690  1.00  0.00    -0.744 OA
ENDBRANCH  71  72
ENDBRANCH  52  66
BRANCH  53  76
ATOM     76  C   UNL A   1      39.535  33.570  36.945  1.00  0.00    -0.014 A 
ATOM     77  C   UNL A   1      39.960  34.911  37.009  1.00  0.00     0.010 A 
ATOM     78  C   UNL A   1      38.815  33.032  38.026  1.00  0.00     0.010 A 
ATOM     79  C   UNL A   1      39.738  35.674  38.159  1.00  0.00     0.020 A 
ATOM     80  C   UNL A   1      38.558  33.805  39.164  1.00  0.00     0.020 A 
ATOM     81  C   UNL A   1      39.052  35.109  39.236  1.00  0.00     0.054 A 
BRANCH  81  82
ATOM     82  S   UNL A   1      38.846  36.093  40.745  1.00  0.00     0.124 S 
ATOM     83  O   UNL A   1      40.035  35.723  41.508  1.00  0.00    -0.237 OA
ATOM     84  O   UNL A   1      38.827  37.461  40.232  1.00  0.00    -0.237 OA
ATOM     85  O   UNL A   1      37.579  35.619  41.294  1.00  0.00    -0.744 OA
ENDBRANCH  81  82
ENDBRANCH  53  76
BRANCH  65  86
ATOM     86  C   UNL A   1      44.806  29.072  35.736  1.00  0.00    -0.014 A 
ATOM     87  C   UNL A   1      44.635  27.956  36.579  1.00  0.00     0.010 A 
ATOM     88  C   UNL A   1      45.998  29.813  35.819  1.00  0.00     0.010 A 
ATOM     89  C   UNL A   1      45.600  27.635  37.538  1.00  0.00     0.020 A 
ATOM     90  C   UNL A   1      46.981  29.473  36.752  1.00  0.00     0.020 A 
ATOM     91  C   UNL A   1      46.758  28.410  37.631  1.00  0.00     0.054 A 
BRANCH  91  92
ATOM     92  S   UNL A   1      47.946  28.043  38.952  1.00  0.00     0.124 S 
ATOM     93  O   UNL A   1      47.762  26.607  39.140  1.00  0.00    -0.237 OA
ATOM     94  O   UNL A   1      49.218  28.442  38.355  1.00  0.00    -0.237 OA
ATOM     95  O   UNL A   1      47.498  28.880  40.062  1.00  0.00    -0.744 OA
ENDBRANCH  91  92
ENDBRANCH  65  86
ENDBRANCH  39  40
ENDBRANCH  32  34
ENDBRANCH  31  32
ENDBRANCH  30  31
ENDBRANCH  29  30
ENDBRANCH   1  29
TORSDOF 21
ENDMDL
