MODEL 1
REMARK VINA RESULT:     -11.6      0.000      0.000
REMARK SMILES CS(=O)(=O)c1ccc(-n2nc(C(F)(F)F)cc2-c2ccc(CC(=O)OCCOCCOC(=O)c3ccc(-c4c5nc(c(-c6ccc(S(=O)(=O)[O-])cc6)c6ccc([nH]6)c(-c6ccc(S(=O)(=O)[O-])cc6)c6nc(c(-c7ccc(S(=O)(=O)[O-])cc7)c7ccc4[nH]7)C=C6)C=C5)cc3)cc2)cc1
REMARK SMILES IDX 27 1 26 2 25 3 23 4 24 5 22 6 21 7 18 8 19 9 95 10 20 11
REMARK SMILES IDX 94 12 17 13 9 14 10 15 11 16 16 17 8 18 5 19 6 20 97 21 7 22
REMARK SMILES IDX 96 23 2 24 1 25 3 26 4 27 12 28 13 29 14 30 15 31 28 32
REMARK SMILES IDX 29 33 30 34 31 35 32 36 33 37 34 38 35 39 93 40 36 41 92 42
REMARK SMILES IDX 37 43 38 44 39 45 86 46 40 47 91 48 85 49 87 50 41 51 90 52
REMARK SMILES IDX 84 53 83 54 42 56 72 57 53 58 71 59 54 60 57 61 70 62 88 63
REMARK SMILES IDX 55 64 56 65 69 67 89 68 58 69 43 70 44 71 52 72 45 73 51 74
REMARK SMILES IDX 46 75 47 76 48 77 49 78 50 79 73 80 74 81 82 82 75 83 81 84
REMARK SMILES IDX 76 85 77 86 78 87 79 88 80 89 59 90 60 91 68 92 61 93 67 94
REMARK SMILES IDX 62 95 63 96 64 97 65 98 66 99
REMARK H PARENT 87 55 57 66
REMARK Flexibility Score: inf
ROOT
ATOM      1  C   UNL A   1      42.058  19.088  26.661  1.00  0.00     0.202 C 
ENDROOT
BRANCH   1   2
ATOM      2  C   UNL A   1      41.625  20.465  27.182  1.00  0.00     0.261 C 
BRANCH   2   3
ATOM      3  O   UNL A   1      40.443  21.024  26.583  1.00  0.00    -0.463 OA
BRANCH   3   4
ATOM      4  C   UNL A   1      40.518  22.355  26.315  1.00  0.00     0.310 C 
ATOM      5  O   UNL A   1      41.452  22.889  25.719  1.00  0.00    -0.252 OA
BRANCH   4   6
ATOM      6  C   UNL A   1      39.389  23.182  26.877  1.00  0.00     0.158 C 
BRANCH   6   7
ATOM      7  C   UNL A   1      38.078  23.269  26.133  1.00  0.00    -0.037 A 
ATOM      8  C   UNL A   1      35.737  23.658  24.602  1.00  0.00     0.000 A 
ATOM      9  C   UNL A   1      36.793  22.883  24.109  1.00  0.00     0.010 A 
ATOM     10  C   UNL A   1      35.864  24.242  25.868  1.00  0.00     0.010 A 
ATOM     11  C   UNL A   1      37.943  22.677  24.871  1.00  0.00     0.005 A 
ATOM     12  C   UNL A   1      37.021  24.045  26.629  1.00  0.00     0.005 A 
BRANCH   8  13
ATOM     13  C   UNL A   1      34.553  23.908  23.774  1.00  0.00     0.075 A 
ATOM     14  N   UNL A   1      33.648  22.960  23.274  1.00  0.00    -0.233 N 
ATOM     15  N   UNL A   1      32.861  23.503  22.305  1.00  0.00    -0.163 NA
ATOM     16  C   UNL A   1      33.148  24.823  22.298  1.00  0.00     0.167 A 
ATOM     17  C   UNL A   1      34.193  25.110  23.202  1.00  0.00     0.064 A 
BRANCH  14  18
ATOM     18  C   UNL A   1      33.466  21.591  23.676  1.00  0.00     0.065 A 
ATOM     19  C   UNL A   1      33.180  18.833  24.298  1.00  0.00     0.067 A 
ATOM     20  C   UNL A   1      32.373  19.446  23.351  1.00  0.00     0.022 A 
ATOM     21  C   UNL A   1      34.103  19.613  24.997  1.00  0.00     0.022 A 
ATOM     22  C   UNL A   1      32.506  20.804  23.044  1.00  0.00     0.030 A 
ATOM     23  C   UNL A   1      34.267  20.985  24.660  1.00  0.00     0.030 A 
BRANCH  19  24
ATOM     24  S   UNL A   1      33.030  17.055  24.493  1.00  0.00     0.175 S 
ATOM     25  C   UNL A   1      34.482  16.469  25.345  1.00  0.00     0.163 C 
ATOM     26  O   UNL A   1      33.075  16.509  23.146  1.00  0.00    -0.224 OA
ATOM     27  O   UNL A   1      31.873  16.824  25.334  1.00  0.00    -0.224 OA
ENDBRANCH  19  24
ENDBRANCH  14  18
BRANCH  16  28
ATOM     28  C   UNL A   1      32.501  25.847  21.388  1.00  0.00     0.435 C 
ATOM     29  F   UNL A   1      31.255  26.161  21.808  1.00  0.00    -0.164 F 
ATOM     30  F   UNL A   1      33.248  26.969  21.279  1.00  0.00    -0.164 F 
ATOM     31  F   UNL A   1      32.370  25.345  20.124  1.00  0.00    -0.164 F 
ENDBRANCH  16  28
ENDBRANCH   8  13
ENDBRANCH   6   7
ENDBRANCH   4   6
ENDBRANCH   3   4
ENDBRANCH   2   3
ENDBRANCH   1   2
BRANCH   1  32
ATOM     32  O   UNL A   1      42.700  19.009  25.399  1.00  0.00    -0.374 OA
BRANCH  32  33
ATOM     33  C   UNL A   1      44.006  18.449  25.357  1.00  0.00     0.202 C 
BRANCH  33  34
ATOM     34  C   UNL A   1      45.173  19.342  24.956  1.00  0.00     0.261 C 
BRANCH  34  35
ATOM     35  O   UNL A   1      45.151  20.652  25.552  1.00  0.00    -0.460 OA
BRANCH  35  36
ATOM     36  C   UNL A   1      44.667  21.646  24.741  1.00  0.00     0.338 C 
ATOM     37  O   UNL A   1      44.312  21.539  23.600  1.00  0.00    -0.246 OA
BRANCH  36  38
ATOM     38  C   UNL A   1      44.958  22.948  25.393  1.00  0.00     0.060 A 
ATOM     39  C   UNL A   1      44.982  22.928  26.790  1.00  0.00     0.016 A 
ATOM     40  C   UNL A   1      44.817  24.151  24.696  1.00  0.00     0.016 A 
ATOM     41  C   UNL A   1      44.629  24.075  27.486  1.00  0.00     0.010 A 
ATOM     42  C   UNL A   1      44.409  25.279  25.399  1.00  0.00     0.010 A 
ATOM     43  C   UNL A   1      44.216  25.212  26.784  1.00  0.00    -0.014 A 
BRANCH  43  44
ATOM     44  C   UNL A   1      43.858  26.425  27.527  1.00  0.00     0.031 A 
ATOM     45  C   UNL A   1      44.964  27.376  27.487  1.00  0.00     0.074 A 
ATOM     46  C   UNL A   1      42.718  26.724  28.185  1.00  0.00     0.049 A 
ATOM     47  N   UNL A   1      45.747  27.627  28.481  1.00  0.00    -0.248 NA
ATOM     48  C   UNL A   1      45.408  27.903  26.191  1.00  0.00     0.031 C 
ATOM     49  C   UNL A   1      41.583  25.852  28.345  1.00  0.00     0.029 A 
ATOM     50  N   UNL A   1      42.276  27.858  28.817  1.00  0.00    -0.354 N 
ATOM     51  C   UNL A   1      46.589  28.604  27.997  1.00  0.00     0.074 A 
ATOM     52  C   UNL A   1      46.529  28.522  26.558  1.00  0.00     0.031 C 
ATOM     53  C   UNL A   1      40.498  26.510  28.788  1.00  0.00     0.029 A 
ATOM     54  C   UNL A   1      40.897  27.865  29.068  1.00  0.00     0.049 A 
ATOM     55  H   UNL A   1      42.872  28.599  29.071  1.00  0.00     0.167 HD
ATOM     56  C   UNL A   1      46.877  29.670  28.785  1.00  0.00     0.031 A 
ATOM     57  C   UNL A   1      40.092  28.849  29.543  1.00  0.00     0.031 A 
ATOM     58  C   UNL A   1      46.714  29.384  30.189  1.00  0.00     0.049 A 
ATOM     59  C   UNL A   1      40.954  29.706  30.374  1.00  0.00     0.074 A 
ATOM     60  C   UNL A   1      47.177  28.389  31.030  1.00  0.00     0.029 A 
ATOM     61  N   UNL A   1      45.665  29.984  30.843  1.00  0.00    -0.354 N 
ATOM     62  N   UNL A   1      41.437  29.317  31.522  1.00  0.00    -0.248 NA
ATOM     63  C   UNL A   1      41.651  30.808  29.738  1.00  0.00     0.031 C 
ATOM     64  C   UNL A   1      46.148  28.183  31.990  1.00  0.00     0.029 A 
ATOM     65  C   UNL A   1      45.123  29.096  31.737  1.00  0.00     0.049 A 
ATOM     66  H   UNL A   1      45.352  30.906  30.694  1.00  0.00     0.167 HD
ATOM     67  C   UNL A   1      42.742  29.781  31.513  1.00  0.00     0.074 A 
ATOM     68  C   UNL A   1      42.775  30.793  30.458  1.00  0.00     0.031 C 
ATOM     69  C   UNL A   1      43.733  29.101  32.158  1.00  0.00     0.031 A 
BRANCH  56  70
ATOM     70  C   UNL A   1      46.812  31.054  28.201  1.00  0.00    -0.014 A 
ATOM     71  C   UNL A   1      45.607  31.521  27.662  1.00  0.00     0.010 A 
ATOM     72  C   UNL A   1      47.975  31.823  27.957  1.00  0.00     0.010 A 
ATOM     73  C   UNL A   1      45.575  32.710  26.922  1.00  0.00     0.020 A 
ATOM     74  C   UNL A   1      47.946  33.033  27.278  1.00  0.00     0.020 A 
ATOM     75  C   UNL A   1      46.744  33.457  26.741  1.00  0.00     0.054 A 
BRANCH  75  76
ATOM     76  S   UNL A   1      46.703  34.965  25.750  1.00  0.00     0.124 S 
ATOM     77  O   UNL A   1      48.123  35.212  25.535  1.00  0.00    -0.237 OA
ATOM     78  O   UNL A   1      45.941  34.541  24.579  1.00  0.00    -0.237 OA
ATOM     79  O   UNL A   1      46.018  35.922  26.618  1.00  0.00    -0.744 OA
ENDBRANCH  75  76
ENDBRANCH  56  70
BRANCH  57  80
ATOM     80  C   UNL A   1      38.686  29.173  29.168  1.00  0.00    -0.014 A 
ATOM     81  C   UNL A   1      37.729  29.465  30.163  1.00  0.00     0.010 A 
ATOM     82  C   UNL A   1      38.338  29.485  27.839  1.00  0.00     0.010 A 
ATOM     83  C   UNL A   1      36.550  30.171  29.859  1.00  0.00     0.020 A 
ATOM     84  C   UNL A   1      37.145  30.153  27.525  1.00  0.00     0.020 A 
ATOM     85  C   UNL A   1      36.286  30.550  28.544  1.00  0.00     0.054 A 
BRANCH  85  86
ATOM     86  S   UNL A   1      34.945  31.730  28.190  1.00  0.00     0.124 S 
ATOM     87  O   UNL A   1      35.658  32.830  27.549  1.00  0.00    -0.237 OA
ATOM     88  O   UNL A   1      34.058  30.963  27.319  1.00  0.00    -0.237 OA
ATOM     89  O   UNL A   1      34.390  32.029  29.510  1.00  0.00    -0.744 OA
ENDBRANCH  85  86
ENDBRANCH  57  80
BRANCH  69  90
ATOM     90  C   UNL A   1      43.355  28.132  33.259  1.00  0.00    -0.014 A 
ATOM     91  C   UNL A   1      43.484  26.732  33.183  1.00  0.00     0.010 A 
ATOM     92  C   UNL A   1      42.965  28.699  34.487  1.00  0.00     0.010 A 
ATOM     93  C   UNL A   1      43.217  25.926  34.305  1.00  0.00     0.020 A 
ATOM     94  C   UNL A   1      42.713  27.907  35.609  1.00  0.00     0.020 A 
ATOM     95  C   UNL A   1      42.835  26.523  35.513  1.00  0.00     0.054 A 
BRANCH  95  96
ATOM     96  S   UNL A   1      42.542  25.488  36.977  1.00  0.00     0.124 S 
ATOM     97  O   UNL A   1      43.897  25.147  37.402  1.00  0.00    -0.237 OA
ATOM     98  O   UNL A   1      41.810  26.389  37.866  1.00  0.00    -0.237 OA
ATOM     99  O   UNL A   1      41.755  24.368  36.462  1.00  0.00    -0.744 OA
ENDBRANCH  95  96
ENDBRANCH  69  90
ENDBRANCH  43  44
ENDBRANCH  36  38
ENDBRANCH  35  36
ENDBRANCH  34  35
ENDBRANCH  33  34
ENDBRANCH  32  33
ENDBRANCH   1  32
TORSDOF 22
ENDMDL
MODEL 2
REMARK VINA RESULT:     -11.2      4.390      8.724
REMARK SMILES CS(=O)(=O)c1ccc(-n2nc(C(F)(F)F)cc2-c2ccc(CC(=O)OCCOCCOC(=O)c3ccc(-c4c5nc(c(-c6ccc(S(=O)(=O)[O-])cc6)c6ccc([nH]6)c(-c6ccc(S(=O)(=O)[O-])cc6)c6nc(c(-c7ccc(S(=O)(=O)[O-])cc7)c7ccc4[nH]7)C=C6)C=C5)cc3)cc2)cc1
REMARK SMILES IDX 27 1 26 2 25 3 23 4 24 5 22 6 21 7 18 8 19 9 95 10 20 11
REMARK SMILES IDX 94 12 17 13 9 14 10 15 11 16 16 17 8 18 5 19 6 20 97 21 7 22
REMARK SMILES IDX 96 23 2 24 1 25 3 26 4 27 12 28 13 29 14 30 15 31 28 32
REMARK SMILES IDX 29 33 30 34 31 35 32 36 33 37 34 38 35 39 93 40 36 41 92 42
REMARK SMILES IDX 37 43 38 44 39 45 86 46 40 47 91 48 85 49 87 50 41 51 90 52
REMARK SMILES IDX 84 53 83 54 42 56 72 57 53 58 71 59 54 60 57 61 70 62 88 63
REMARK SMILES IDX 55 64 56 65 69 67 89 68 58 69 43 70 44 71 52 72 45 73 51 74
REMARK SMILES IDX 46 75 47 76 48 77 49 78 50 79 73 80 74 81 82 82 75 83 81 84
REMARK SMILES IDX 76 85 77 86 78 87 79 88 80 89 59 90 60 91 68 92 61 93 67 94
REMARK SMILES IDX 62 95 63 96 64 97 65 98 66 99
REMARK H PARENT 87 55 57 66
REMARK Flexibility Score: inf
ROOT
ATOM      1  C   UNL A   1      30.272  28.993  23.521  1.00  0.00     0.202 C 
ENDROOT
BRANCH   1   2
ATOM      2  C   UNL A   1      30.087  27.691  22.730  1.00  0.00     0.261 C 
BRANCH   2   3
ATOM      3  O   UNL A   1      29.778  26.519  23.505  1.00  0.00    -0.463 OA
BRANCH   3   4
ATOM      4  C   UNL A   1      30.604  25.461  23.288  1.00  0.00     0.310 C 
ATOM      5  O   UNL A   1      30.268  24.285  23.411  1.00  0.00    -0.252 OA
BRANCH   4   6
ATOM      6  C   UNL A   1      32.027  25.825  22.949  1.00  0.00     0.158 C 
BRANCH   6   7
ATOM      7  C   UNL A   1      33.169  25.060  23.576  1.00  0.00    -0.037 A 
ATOM      8  C   UNL A   1      35.474  23.853  24.673  1.00  0.00     0.000 A 
ATOM      9  C   UNL A   1      34.715  24.756  25.425  1.00  0.00     0.010 A 
ATOM     10  C   UNL A   1      35.074  23.562  23.363  1.00  0.00     0.010 A 
ATOM     11  C   UNL A   1      33.567  25.341  24.890  1.00  0.00     0.005 A 
ATOM     12  C   UNL A   1      33.928  24.156  22.822  1.00  0.00     0.005 A 
BRANCH   8  13
ATOM     13  C   UNL A   1      36.705  23.280  25.226  1.00  0.00     0.075 A 
ATOM     14  N   UNL A   1      36.930  21.947  25.603  1.00  0.00    -0.233 N 
ATOM     15  N   UNL A   1      38.062  21.839  26.352  1.00  0.00    -0.163 NA
ATOM     16  C   UNL A   1      38.640  23.059  26.321  1.00  0.00     0.167 A 
ATOM     17  C   UNL A   1      37.825  23.978  25.626  1.00  0.00     0.064 A 
BRANCH  14  18
ATOM     18  C   UNL A   1      36.162  20.778  25.273  1.00  0.00     0.065 A 
ATOM     19  C   UNL A   1      34.592  18.554  24.455  1.00  0.00     0.067 A 
ATOM     20  C   UNL A   1      34.004  19.746  24.850  1.00  0.00     0.022 A 
ATOM     21  C   UNL A   1      35.982  18.438  24.525  1.00  0.00     0.022 A 
ATOM     22  C   UNL A   1      34.771  20.842  25.259  1.00  0.00     0.030 A 
ATOM     23  C   UNL A   1      36.766  19.563  24.904  1.00  0.00     0.030 A 
BRANCH  19  24
ATOM     24  S   UNL A   1      33.519  17.273  23.799  1.00  0.00     0.175 S 
ATOM     25  C   UNL A   1      32.229  16.970  24.992  1.00  0.00     0.163 C 
ATOM     26  O   UNL A   1      34.336  16.072  23.738  1.00  0.00    -0.224 OA
ATOM     27  O   UNL A   1      32.920  17.809  22.594  1.00  0.00    -0.224 OA
ENDBRANCH  19  24
ENDBRANCH  14  18
BRANCH  16  28
ATOM     28  C   UNL A   1      39.942  23.420  27.007  1.00  0.00     0.435 C 
ATOM     29  F   UNL A   1      40.580  22.319  27.461  1.00  0.00    -0.164 F 
ATOM     30  F   UNL A   1      40.761  24.127  26.196  1.00  0.00    -0.164 F 
ATOM     31  F   UNL A   1      39.703  24.208  28.098  1.00  0.00    -0.164 F 
ENDBRANCH  16  28
ENDBRANCH   8  13
ENDBRANCH   6   7
ENDBRANCH   4   6
ENDBRANCH   3   4
ENDBRANCH   2   3
ENDBRANCH   1   2
BRANCH   1  32
ATOM     32  O   UNL A   1      31.426  29.137  24.334  1.00  0.00    -0.374 OA
BRANCH  32  33
ATOM     33  C   UNL A   1      31.358  28.649  25.668  1.00  0.00     0.202 C 
BRANCH  33  34
ATOM     34  C   UNL A   1      32.021  29.456  26.777  1.00  0.00     0.261 C 
BRANCH  34  35
ATOM     35  O   UNL A   1      32.684  30.651  26.327  1.00  0.00    -0.460 OA
BRANCH  35  36
ATOM     36  C   UNL A   1      32.899  31.592  27.302  1.00  0.00     0.338 C 
ATOM     37  O   UNL A   1      32.383  32.671  27.391  1.00  0.00    -0.246 OA
BRANCH  36  38
ATOM     38  C   UNL A   1      34.118  31.199  28.054  1.00  0.00     0.060 A 
ATOM     39  C   UNL A   1      34.499  32.071  29.078  1.00  0.00     0.016 A 
ATOM     40  C   UNL A   1      35.023  30.273  27.528  1.00  0.00     0.016 A 
ATOM     41  C   UNL A   1      35.843  32.176  29.407  1.00  0.00     0.010 A 
ATOM     42  C   UNL A   1      36.372  30.424  27.824  1.00  0.00     0.010 A 
ATOM     43  C   UNL A   1      36.792  31.444  28.686  1.00  0.00    -0.014 A 
BRANCH  43  44
ATOM     44  C   UNL A   1      38.209  31.550  29.051  1.00  0.00     0.031 A 
ATOM     45  C   UNL A   1      38.823  30.226  29.046  1.00  0.00     0.074 A 
ATOM     46  C   UNL A   1      38.936  32.644  29.364  1.00  0.00     0.049 A 
ATOM     47  N   UNL A   1      39.138  29.564  30.107  1.00  0.00    -0.248 NA
ATOM     48  C   UNL A   1      38.861  29.461  27.794  1.00  0.00     0.031 C 
ATOM     49  C   UNL A   1      38.435  33.990  29.460  1.00  0.00     0.029 A 
ATOM     50  N   UNL A   1      40.269  32.834  29.621  1.00  0.00    -0.354 N 
ATOM     51  C   UNL A   1      39.719  28.416  29.616  1.00  0.00     0.074 A 
ATOM     52  C   UNL A   1      39.271  28.279  28.251  1.00  0.00     0.031 C 
ATOM     53  C   UNL A   1      39.426  34.897  29.502  1.00  0.00     0.029 A 
ATOM     54  C   UNL A   1      40.671  34.176  29.559  1.00  0.00     0.049 A 
ATOM     55  H   UNL A   1      40.887  32.098  29.831  1.00  0.00     0.167 HD
ATOM     56  C   UNL A   1      40.858  27.958  30.196  1.00  0.00     0.031 A 
ATOM     57  C   UNL A   1      41.908  34.729  29.622  1.00  0.00     0.031 A 
ATOM     58  C   UNL A   1      41.006  28.406  31.559  1.00  0.00     0.049 A 
ATOM     59  C   UNL A   1      42.726  33.795  30.413  1.00  0.00     0.074 A 
ATOM     60  C   UNL A   1      40.193  28.378  32.676  1.00  0.00     0.029 A 
ATOM     61  N   UNL A   1      41.991  29.327  31.822  1.00  0.00    -0.354 N 
ATOM     62  N   UNL A   1      42.557  33.622  31.695  1.00  0.00    -0.248 NA
ATOM     63  C   UNL A   1      43.419  32.725  29.718  1.00  0.00     0.031 C 
ATOM     64  C   UNL A   1      40.503  29.556  33.411  1.00  0.00     0.029 A 
ATOM     65  C   UNL A   1      41.531  30.228  32.748  1.00  0.00     0.049 A 
ATOM     66  H   UNL A   1      42.886  29.338  31.411  1.00  0.00     0.167 HD
ATOM     67  C   UNL A   1      42.677  32.253  31.868  1.00  0.00     0.074 A 
ATOM     68  C   UNL A   1      43.331  31.775  30.651  1.00  0.00     0.031 C 
ATOM     69  C   UNL A   1      41.980  31.605  32.845  1.00  0.00     0.031 A 
BRANCH  56  70
ATOM     70  C   UNL A   1      42.008  27.538  29.324  1.00  0.00    -0.014 A 
ATOM     71  C   UNL A   1      42.746  28.509  28.637  1.00  0.00     0.010 A 
ATOM     72  C   UNL A   1      42.234  26.184  28.977  1.00  0.00     0.010 A 
ATOM     73  C   UNL A   1      43.674  28.133  27.657  1.00  0.00     0.020 A 
ATOM     74  C   UNL A   1      43.193  25.796  28.053  1.00  0.00     0.020 A 
ATOM     75  C   UNL A   1      43.891  26.780  27.377  1.00  0.00     0.054 A 
BRANCH  75  76
ATOM     76  S   UNL A   1      45.057  26.306  26.084  1.00  0.00     0.124 S 
ATOM     77  O   UNL A   1      45.996  25.474  26.826  1.00  0.00    -0.237 OA
ATOM     78  O   UNL A   1      44.194  25.608  25.135  1.00  0.00    -0.237 OA
ATOM     79  O   UNL A   1      45.582  27.586  25.613  1.00  0.00    -0.744 OA
ENDBRANCH  75  76
ENDBRANCH  56  70
BRANCH  57  80
ATOM     80  C   UNL A   1      42.445  35.912  28.889  1.00  0.00    -0.014 A 
ATOM     81  C   UNL A   1      41.897  36.293  27.647  1.00  0.00     0.010 A 
ATOM     82  C   UNL A   1      43.292  36.842  29.525  1.00  0.00     0.010 A 
ATOM     83  C   UNL A   1      42.066  37.596  27.142  1.00  0.00     0.020 A 
ATOM     84  C   UNL A   1      43.496  38.129  29.005  1.00  0.00     0.020 A 
ATOM     85  C   UNL A   1      42.831  38.522  27.849  1.00  0.00     0.054 A 
BRANCH  85  86
ATOM     86  S   UNL A   1      42.791  40.281  27.381  1.00  0.00     0.124 S 
ATOM     87  O   UNL A   1      43.276  40.938  28.590  1.00  0.00    -0.237 OA
ATOM     88  O   UNL A   1      43.691  40.334  26.232  1.00  0.00    -0.237 OA
ATOM     89  O   UNL A   1      41.384  40.522  27.061  1.00  0.00    -0.744 OA
ENDBRANCH  85  86
ENDBRANCH  57  80
BRANCH  69  90
ATOM     90  C   UNL A   1      41.461  32.405  34.023  1.00  0.00    -0.014 A 
ATOM     91  C   UNL A   1      42.101  32.511  35.273  1.00  0.00     0.010 A 
ATOM     92  C   UNL A   1      40.317  33.193  33.792  1.00  0.00     0.010 A 
ATOM     93  C   UNL A   1      41.599  33.375  36.264  1.00  0.00     0.020 A 
ATOM     94  C   UNL A   1      39.823  34.064  34.764  1.00  0.00     0.020 A 
ATOM     95  C   UNL A   1      40.462  34.148  35.999  1.00  0.00     0.054 A 
BRANCH  95  96
ATOM     96  S   UNL A   1      39.845  35.304  37.257  1.00  0.00     0.124 S 
ATOM     97  O   UNL A   1      39.561  36.504  36.475  1.00  0.00    -0.237 OA
ATOM     98  O   UNL A   1      38.675  34.605  37.788  1.00  0.00    -0.237 OA
ATOM     99  O   UNL A   1      40.960  35.427  38.195  1.00  0.00    -0.744 OA
ENDBRANCH  95  96
ENDBRANCH  69  90
ENDBRANCH  43  44
ENDBRANCH  36  38
ENDBRANCH  35  36
ENDBRANCH  34  35
ENDBRANCH  33  34
ENDBRANCH  32  33
ENDBRANCH   1  32
TORSDOF 22
ENDMDL
MODEL 3
REMARK VINA RESULT:     -10.9      2.756      3.573
REMARK SMILES CS(=O)(=O)c1ccc(-n2nc(C(F)(F)F)cc2-c2ccc(CC(=O)OCCOCCOC(=O)c3ccc(-c4c5nc(c(-c6ccc(S(=O)(=O)[O-])cc6)c6ccc([nH]6)c(-c6ccc(S(=O)(=O)[O-])cc6)c6nc(c(-c7ccc(S(=O)(=O)[O-])cc7)c7ccc4[nH]7)C=C6)C=C5)cc3)cc2)cc1
REMARK SMILES IDX 27 1 26 2 25 3 23 4 24 5 22 6 21 7 18 8 19 9 95 10 20 11
REMARK SMILES IDX 94 12 17 13 9 14 10 15 11 16 16 17 8 18 5 19 6 20 97 21 7 22
REMARK SMILES IDX 96 23 2 24 1 25 3 26 4 27 12 28 13 29 14 30 15 31 28 32
REMARK SMILES IDX 29 33 30 34 31 35 32 36 33 37 34 38 35 39 93 40 36 41 92 42
REMARK SMILES IDX 37 43 38 44 39 45 86 46 40 47 91 48 85 49 87 50 41 51 90 52
REMARK SMILES IDX 84 53 83 54 42 56 72 57 53 58 71 59 54 60 57 61 70 62 88 63
REMARK SMILES IDX 55 64 56 65 69 67 89 68 58 69 43 70 44 71 52 72 45 73 51 74
REMARK SMILES IDX 46 75 47 76 48 77 49 78 50 79 73 80 74 81 82 82 75 83 81 84
REMARK SMILES IDX 76 85 77 86 78 87 79 88 80 89 59 90 60 91 68 92 61 93 67 94
REMARK SMILES IDX 62 95 63 96 64 97 65 98 66 99
REMARK H PARENT 87 55 57 66
REMARK Flexibility Score: inf
ROOT
ATOM      1  C   UNL A   1      41.021  20.585  26.800  1.00  0.00     0.202 C 
ENDROOT
BRANCH   1   2
ATOM      2  C   UNL A   1      41.280  21.859  27.615  1.00  0.00     0.261 C 
BRANCH   2   3
ATOM      3  O   UNL A   1      40.189  22.792  27.692  1.00  0.00    -0.463 OA
BRANCH   3   4
ATOM      4  C   UNL A   1      40.172  23.728  26.706  1.00  0.00     0.310 C 
ATOM      5  O   UNL A   1      41.181  24.220  26.202  1.00  0.00    -0.252 OA
BRANCH   4   6
ATOM      6  C   UNL A   1      38.799  24.203  26.302  1.00  0.00     0.158 C 
BRANCH   6   7
ATOM      7  C   UNL A   1      37.711  23.198  26.008  1.00  0.00    -0.037 A 
ATOM      8  C   UNL A   1      35.656  21.440  25.195  1.00  0.00     0.000 A 
ATOM      9  C   UNL A   1      36.996  21.153  24.910  1.00  0.00     0.010 A 
ATOM     10  C   UNL A   1      35.352  22.618  25.887  1.00  0.00     0.010 A 
ATOM     11  C   UNL A   1      38.013  22.013  25.325  1.00  0.00     0.005 A 
ATOM     12  C   UNL A   1      36.371  23.487  26.295  1.00  0.00     0.005 A 
BRANCH   8  13
ATOM     13  C   UNL A   1      34.592  20.555  24.713  1.00  0.00     0.075 A 
ATOM     14  N   UNL A   1      33.330  20.927  24.227  1.00  0.00    -0.233 N 
ATOM     15  N   UNL A   1      32.497  19.852  24.161  1.00  0.00    -0.163 NA
ATOM     16  C   UNL A   1      33.264  18.778  24.448  1.00  0.00     0.167 A 
ATOM     17  C   UNL A   1      34.573  19.178  24.793  1.00  0.00     0.064 A 
BRANCH  14  18
ATOM     18  C   UNL A   1      32.879  22.223  23.795  1.00  0.00     0.065 A 
ATOM     19  C   UNL A   1      32.064  24.857  23.106  1.00  0.00     0.067 A 
ATOM     20  C   UNL A   1      31.453  24.159  24.137  1.00  0.00     0.022 A 
ATOM     21  C   UNL A   1      33.055  24.217  22.360  1.00  0.00     0.022 A 
ATOM     22  C   UNL A   1      31.846  22.861  24.477  1.00  0.00     0.030 A 
ATOM     23  C   UNL A   1      33.483  22.911  22.728  1.00  0.00     0.030 A 
BRANCH  19  24
ATOM     24  S   UNL A   1      31.588  26.571  22.864  1.00  0.00     0.175 S 
ATOM     25  C   UNL A   1      33.060  27.572  22.971  1.00  0.00     0.163 C 
ATOM     26  O   UNL A   1      30.757  26.911  24.008  1.00  0.00    -0.224 OA
ATOM     27  O   UNL A   1      31.056  26.670  21.521  1.00  0.00    -0.224 OA
ENDBRANCH  19  24
ENDBRANCH  14  18
BRANCH  16  28
ATOM     28  C   UNL A   1      32.773  17.345  24.482  1.00  0.00     0.435 C 
ATOM     29  F   UNL A   1      33.084  16.746  25.654  1.00  0.00    -0.164 F 
ATOM     30  F   UNL A   1      31.441  17.262  24.261  1.00  0.00    -0.164 F 
ATOM     31  F   UNL A   1      33.376  16.611  23.500  1.00  0.00    -0.164 F 
ENDBRANCH  16  28
ENDBRANCH   8  13
ENDBRANCH   6   7
ENDBRANCH   4   6
ENDBRANCH   3   4
ENDBRANCH   2   3
ENDBRANCH   1   2
BRANCH   1  32
ATOM     32  O   UNL A   1      41.895  20.274  25.726  1.00  0.00    -0.374 OA
BRANCH  32  33
ATOM     33  C   UNL A   1      43.201  19.814  26.050  1.00  0.00     0.202 C 
BRANCH  33  34
ATOM     34  C   UNL A   1      44.391  20.405  25.304  1.00  0.00     0.261 C 
BRANCH  34  35
ATOM     35  O   UNL A   1      44.765  21.726  25.734  1.00  0.00    -0.460 OA
BRANCH  35  36
ATOM     36  C   UNL A   1      44.236  22.746  24.985  1.00  0.00     0.338 C 
ATOM     37  O   UNL A   1      43.860  22.688  23.848  1.00  0.00    -0.246 OA
BRANCH  36  38
ATOM     38  C   UNL A   1      44.504  24.021  25.699  1.00  0.00     0.060 A 
ATOM     39  C   UNL A   1      44.503  23.939  27.094  1.00  0.00     0.016 A 
ATOM     40  C   UNL A   1      44.364  25.252  25.054  1.00  0.00     0.016 A 
ATOM     41  C   UNL A   1      44.127  25.051  27.833  1.00  0.00     0.010 A 
ATOM     42  C   UNL A   1      43.935  26.345  25.797  1.00  0.00     0.010 A 
ATOM     43  C   UNL A   1      43.717  26.215  27.174  1.00  0.00    -0.014 A 
BRANCH  43  44
ATOM     44  C   UNL A   1      43.336  27.391  27.963  1.00  0.00     0.031 A 
ATOM     45  C   UNL A   1      44.440  28.344  28.001  1.00  0.00     0.074 A 
ATOM     46  C   UNL A   1      42.175  27.658  28.601  1.00  0.00     0.049 A 
ATOM     47  N   UNL A   1      45.193  28.548  29.028  1.00  0.00    -0.248 NA
ATOM     48  C   UNL A   1      44.920  28.932  26.744  1.00  0.00     0.031 C 
ATOM     49  C   UNL A   1      41.039  26.778  28.686  1.00  0.00     0.029 A 
ATOM     50  N   UNL A   1      41.713  28.761  29.272  1.00  0.00    -0.354 N 
ATOM     51  C   UNL A   1      46.046  29.547  28.616  1.00  0.00     0.074 A 
ATOM     52  C   UNL A   1      46.029  29.534  27.173  1.00  0.00     0.031 C 
ATOM     53  C   UNL A   1      39.940  27.414  29.128  1.00  0.00     0.029 A 
ATOM     54  C   UNL A   1      40.327  28.755  29.483  1.00  0.00     0.049 A 
ATOM     55  H   UNL A   1      42.300  29.489  29.579  1.00  0.00     0.167 HD
ATOM     56  C   UNL A   1      46.310  30.575  29.461  1.00  0.00     0.031 A 
ATOM     57  C   UNL A   1      39.507  29.714  29.981  1.00  0.00     0.031 A 
ATOM     58  C   UNL A   1      46.106  30.222  30.845  1.00  0.00     0.049 A 
ATOM     59  C   UNL A   1      40.342  30.531  30.876  1.00  0.00     0.074 A 
ATOM     60  C   UNL A   1      46.547  29.189  31.650  1.00  0.00     0.029 A 
ATOM     61  N   UNL A   1      45.038  30.790  31.495  1.00  0.00    -0.354 N 
ATOM     62  N   UNL A   1      40.793  30.089  32.018  1.00  0.00    -0.248 NA
ATOM     63  C   UNL A   1      41.056  31.663  30.314  1.00  0.00     0.031 C 
ATOM     64  C   UNL A   1      45.490  28.937  32.569  1.00  0.00     0.029 A 
ATOM     65  C   UNL A   1      44.472  29.860  32.330  1.00  0.00     0.049 A 
ATOM     66  H   UNL A   1      44.727  31.718  31.381  1.00  0.00     0.167 HD
ATOM     67  C   UNL A   1      42.097  30.554  32.069  1.00  0.00     0.074 A 
ATOM     68  C   UNL A   1      42.158  31.614  31.065  1.00  0.00     0.031 C 
ATOM     69  C   UNL A   1      43.070  29.845  32.710  1.00  0.00     0.031 A 
BRANCH  56  70
ATOM     70  C   UNL A   1      46.259  31.985  28.941  1.00  0.00    -0.014 A 
ATOM     71  C   UNL A   1      45.020  32.572  28.655  1.00  0.00     0.010 A 
ATOM     72  C   UNL A   1      47.419  32.668  28.505  1.00  0.00     0.010 A 
ATOM     73  C   UNL A   1      44.956  33.792  27.969  1.00  0.00     0.020 A 
ATOM     74  C   UNL A   1      47.371  33.906  27.880  1.00  0.00     0.020 A 
ATOM     75  C   UNL A   1      46.132  34.450  27.593  1.00  0.00     0.054 A 
BRANCH  75  76
ATOM     76  S   UNL A   1      46.040  36.000  26.674  1.00  0.00     0.124 S 
ATOM     77  O   UNL A   1      47.116  35.831  25.706  1.00  0.00    -0.237 OA
ATOM     78  O   UNL A   1      44.683  35.958  26.137  1.00  0.00    -0.237 OA
ATOM     79  O   UNL A   1      46.266  37.017  27.699  1.00  0.00    -0.744 OA
ENDBRANCH  75  76
ENDBRANCH  56  70
BRANCH  57  80
ATOM     80  C   UNL A   1      38.112  30.055  29.581  1.00  0.00    -0.014 A 
ATOM     81  C   UNL A   1      37.870  30.929  28.501  1.00  0.00     0.010 A 
ATOM     82  C   UNL A   1      37.014  29.311  30.057  1.00  0.00     0.010 A 
ATOM     83  C   UNL A   1      36.630  30.943  27.835  1.00  0.00     0.020 A 
ATOM     84  C   UNL A   1      35.764  29.352  29.421  1.00  0.00     0.020 A 
ATOM     85  C   UNL A   1      35.596  30.119  28.274  1.00  0.00     0.054 A 
BRANCH  85  86
ATOM     86  S   UNL A   1      34.115  29.889  27.239  1.00  0.00     0.124 S 
ATOM     87  O   UNL A   1      34.672  29.312  26.020  1.00  0.00    -0.237 OA
ATOM     88  O   UNL A   1      33.292  28.988  28.043  1.00  0.00    -0.237 OA
ATOM     89  O   UNL A   1      33.576  31.241  27.101  1.00  0.00    -0.744 OA
ENDBRANCH  85  86
ENDBRANCH  57  80
BRANCH  69  90
ATOM     90  C   UNL A   1      42.662  28.825  33.753  1.00  0.00    -0.014 A 
ATOM     91  C   UNL A   1      42.193  27.526  33.473  1.00  0.00     0.010 A 
ATOM     92  C   UNL A   1      42.893  29.174  35.097  1.00  0.00     0.010 A 
ATOM     93  C   UNL A   1      41.953  26.612  34.515  1.00  0.00     0.020 A 
ATOM     94  C   UNL A   1      42.672  28.267  36.134  1.00  0.00     0.020 A 
ATOM     95  C   UNL A   1      42.197  26.990  35.841  1.00  0.00     0.054 A 
BRANCH  95  96
ATOM     96  S   UNL A   1      41.940  25.794  37.183  1.00  0.00     0.124 S 
ATOM     97  O   UNL A   1      42.412  24.545  36.591  1.00  0.00    -0.237 OA
ATOM     98  O   UNL A   1      42.768  26.335  38.259  1.00  0.00    -0.237 OA
ATOM     99  O   UNL A   1      40.500  25.854  37.433  1.00  0.00    -0.744 OA
ENDBRANCH  95  96
ENDBRANCH  69  90
ENDBRANCH  43  44
ENDBRANCH  36  38
ENDBRANCH  35  36
ENDBRANCH  34  35
ENDBRANCH  33  34
ENDBRANCH  32  33
ENDBRANCH   1  32
TORSDOF 22
ENDMDL
