MODEL 1
REMARK VINA RESULT:     -10.3      0.000      0.000
REMARK SMILES COc1cc(C(=O)N[C@H]2CCCC[C@H]2C(=O)OCCOCCOC(=O)c2ccc(-c3c4nc(c(-c5ccc(S(=O)(=O)[O-])cc5)c5ccc([nH]5)c(-c5ccc(S(=O)(=O)[O-])cc5)c5nc(c(-c6ccc(S(=O)(=O)[O-])cc6)c6ccc3[nH]6)C=C5)C=C4)cc2)cc(Cl)c1OC
REMARK SMILES IDX 20 1 19 2 18 3 17 4 15 5 16 6 14 7 9 8 10 9 11 10 13 11
REMARK SMILES IDX 12 12 8 13 6 14 7 15 5 17 3 18 4 19 89 20 87 21 86 22 88 23
REMARK SMILES IDX 2 24 1 25 90 26 91 27 21 28 22 29 23 30 24 31 25 32 26 33
REMARK SMILES IDX 27 34 85 35 28 36 84 37 29 38 30 39 31 40 78 41 32 42 83 43
REMARK SMILES IDX 77 44 79 45 33 46 82 47 76 48 75 49 34 51 64 52 45 53 63 54
REMARK SMILES IDX 46 55 49 56 62 57 80 58 47 59 48 60 61 62 81 63 50 64 35 65
REMARK SMILES IDX 36 66 44 67 37 68 43 69 38 70 39 71 40 72 41 73 42 74 65 75
REMARK SMILES IDX 66 76 74 77 67 78 73 79 68 80 69 81 70 82 71 83 72 84 51 85
REMARK SMILES IDX 52 86 60 87 53 88 59 89 54 90 55 91 56 92 57 93 58 94
REMARK H PARENT 8 16 79 50 49 61
REMARK Flexibility Score: inf
ROOT
ATOM      1  O   UNL A   1      39.194  22.689  26.190  1.00  0.00    -0.374 OA
ENDROOT
BRANCH   1   2
ATOM      2  C   UNL A   1      38.013  22.057  25.709  1.00  0.00     0.202 C 
BRANCH   2   3
ATOM      3  C   UNL A   1      36.789  22.943  25.438  1.00  0.00     0.261 C 
BRANCH   3   4
ATOM      4  O   UNL A   1      36.584  23.320  24.060  1.00  0.00    -0.463 OA
BRANCH   4   5
ATOM      5  C   UNL A   1      35.282  23.366  23.684  1.00  0.00     0.311 C 
ATOM      6  O   UNL A   1      34.847  24.049  22.759  1.00  0.00    -0.252 OA
BRANCH   5   7
ATOM      7  C   UNL A   1      34.343  22.554  24.548  1.00  0.00     0.121 C 
ATOM      8  C   UNL A   1      33.068  23.197  25.140  1.00  0.00     0.096 C 
ATOM      9  C   UNL A   1      32.462  22.191  26.153  1.00  0.00     0.026 C 
ATOM     10  C   UNL A   1      32.240  20.797  25.551  1.00  0.00     0.002 C 
ATOM     11  C   UNL A   1      34.112  21.181  23.917  1.00  0.00     0.017 C 
ATOM     12  C   UNL A   1      33.514  20.226  24.944  1.00  0.00     0.001 C 
BRANCH   8  13
ATOM     13  N   UNL A   1      32.006  23.561  24.203  1.00  0.00    -0.348 N 
ATOM     14  C   UNL A   1      31.248  24.711  24.090  1.00  0.00     0.251 C 
ATOM     15  O   UNL A   1      30.218  24.657  23.420  1.00  0.00    -0.269 OA
ATOM     16  H   UNL A   1      31.794  22.867  23.538  1.00  0.00     0.164 HD
BRANCH  14  17
ATOM     17  C   UNL A   1      31.655  26.036  24.647  1.00  0.00     0.045 A 
ATOM     18  C   UNL A   1      32.992  28.060  24.287  1.00  0.00     0.163 A 
ATOM     19  C   UNL A   1      32.419  26.874  23.810  1.00  0.00     0.064 A 
ATOM     20  C   UNL A   1      32.741  28.449  25.613  1.00  0.00     0.179 A 
ATOM     21  C   UNL A   1      31.866  27.691  26.402  1.00  0.00     0.087 A 
ATOM     22  C   UNL A   1      31.331  26.492  25.921  1.00  0.00     0.038 A 
ATOM     23  Cl  UNL A   1      31.403  28.182  27.994  1.00  0.00    -0.080 Cl
BRANCH  18  24
ATOM     24  O   UNL A   1      33.827  28.869  23.563  1.00  0.00    -0.493 OA
ATOM     25  C   UNL A   1      34.017  28.579  22.181  1.00  0.00     0.278 C 
ENDBRANCH  18  24
BRANCH  20  26
ATOM     26  O   UNL A   1      33.311  29.612  26.067  1.00  0.00    -0.491 OA
ATOM     27  C   UNL A   1      34.402  29.374  26.959  1.00  0.00     0.278 C 
ENDBRANCH  20  26
ENDBRANCH  14  17
ENDBRANCH   8  13
ENDBRANCH   5   7
ENDBRANCH   4   5
ENDBRANCH   3   4
ENDBRANCH   2   3
ENDBRANCH   1   2
BRANCH   1  28
ATOM     28  C   UNL A   1      40.285  21.859  26.577  1.00  0.00     0.202 C 
BRANCH  28  29
ATOM     29  C   UNL A   1      41.696  22.400  26.334  1.00  0.00     0.261 C 
BRANCH  29  30
ATOM     30  O   UNL A   1      42.050  23.467  27.236  1.00  0.00    -0.460 OA
BRANCH  30  31
ATOM     31  C   UNL A   1      42.105  24.686  26.649  1.00  0.00     0.338 C 
ATOM     32  O   UNL A   1      42.424  24.916  25.484  1.00  0.00    -0.246 OA
BRANCH  31  33
ATOM     33  C   UNL A   1      41.603  25.761  27.522  1.00  0.00     0.060 A 
ATOM     34  C   UNL A   1      42.432  26.871  27.716  1.00  0.00     0.016 A 
ATOM     35  C   UNL A   1      40.431  25.631  28.266  1.00  0.00     0.016 A 
ATOM     36  C   UNL A   1      42.124  27.811  28.698  1.00  0.00     0.010 A 
ATOM     37  C   UNL A   1      40.130  26.561  29.265  1.00  0.00     0.010 A 
ATOM     38  C   UNL A   1      40.996  27.635  29.509  1.00  0.00    -0.014 A 
BRANCH  38  39
ATOM     39  C   UNL A   1      40.758  28.552  30.646  1.00  0.00     0.031 A 
ATOM     40  C   UNL A   1      41.577  28.424  31.899  1.00  0.00     0.074 A 
ATOM     41  C   UNL A   1      39.815  29.504  30.540  1.00  0.00     0.049 A 
ATOM     42  N   UNL A   1      41.576  29.183  32.965  1.00  0.00    -0.248 NA
ATOM     43  C   UNL A   1      42.520  27.296  31.964  1.00  0.00     0.031 C 
ATOM     44  C   UNL A   1      38.954  29.709  29.376  1.00  0.00     0.029 A 
ATOM     45  N   UNL A   1      39.426  30.473  31.427  1.00  0.00    -0.354 N 
ATOM     46  C   UNL A   1      42.524  28.636  33.822  1.00  0.00     0.074 A 
ATOM     47  C   UNL A   1      43.056  27.460  33.167  1.00  0.00     0.031 C 
ATOM     48  C   UNL A   1      38.131  30.743  29.622  1.00  0.00     0.029 A 
ATOM     49  C   UNL A   1      38.405  31.263  30.960  1.00  0.00     0.049 A 
ATOM     50  H   UNL A   1      39.839  30.592  32.313  1.00  0.00     0.167 HD
ATOM     51  C   UNL A   1      42.918  29.080  35.040  1.00  0.00     0.031 A 
ATOM     52  C   UNL A   1      37.763  32.292  31.544  1.00  0.00     0.031 A 
ATOM     53  C   UNL A   1      42.361  30.233  35.698  1.00  0.00     0.049 A 
ATOM     54  C   UNL A   1      38.197  32.750  32.908  1.00  0.00     0.074 A 
ATOM     55  C   UNL A   1      42.716  30.789  36.916  1.00  0.00     0.029 A 
ATOM     56  N   UNL A   1      41.318  31.000  35.199  1.00  0.00    -0.354 N 
ATOM     57  N   UNL A   1      39.149  32.269  33.672  1.00  0.00    -0.248 NA
ATOM     58  C   UNL A   1      37.485  33.900  33.480  1.00  0.00     0.031 C 
ATOM     59  C   UNL A   1      41.858  31.864  37.173  1.00  0.00     0.029 A 
ATOM     60  C   UNL A   1      41.000  32.008  36.094  1.00  0.00     0.049 A 
ATOM     61  H   UNL A   1      40.871  30.850  34.335  1.00  0.00     0.167 HD
ATOM     62  C   UNL A   1      39.165  33.073  34.806  1.00  0.00     0.074 A 
ATOM     63  C   UNL A   1      38.135  34.076  34.622  1.00  0.00     0.031 C 
ATOM     64  C   UNL A   1      39.966  32.991  35.897  1.00  0.00     0.031 A 
BRANCH  51  65
ATOM     65  C   UNL A   1      44.001  28.307  35.747  1.00  0.00    -0.014 A 
ATOM     66  C   UNL A   1      45.357  28.634  35.565  1.00  0.00     0.010 A 
ATOM     67  C   UNL A   1      43.660  27.273  36.638  1.00  0.00     0.010 A 
ATOM     68  C   UNL A   1      46.354  27.916  36.233  1.00  0.00     0.020 A 
ATOM     69  C   UNL A   1      44.653  26.567  37.323  1.00  0.00     0.020 A 
ATOM     70  C   UNL A   1      45.996  26.883  37.102  1.00  0.00     0.054 A 
BRANCH  70  71
ATOM     71  S   UNL A   1      47.307  25.976  37.969  1.00  0.00     0.124 S 
ATOM     72  O   UNL A   1      48.456  26.861  37.785  1.00  0.00    -0.237 OA
ATOM     73  O   UNL A   1      46.794  25.890  39.333  1.00  0.00    -0.237 OA
ATOM     74  O   UNL A   1      47.380  24.704  37.254  1.00  0.00    -0.744 OA
ENDBRANCH  70  71
ENDBRANCH  51  65
BRANCH  52  75
ATOM     75  C   UNL A   1      36.654  32.966  30.821  1.00  0.00    -0.014 A 
ATOM     76  C   UNL A   1      35.321  32.779  31.219  1.00  0.00     0.010 A 
ATOM     77  C   UNL A   1      36.937  33.839  29.753  1.00  0.00     0.010 A 
ATOM     78  C   UNL A   1      34.286  33.448  30.560  1.00  0.00     0.020 A 
ATOM     79  C   UNL A   1      35.907  34.524  29.106  1.00  0.00     0.020 A 
ATOM     80  C   UNL A   1      34.587  34.320  29.509  1.00  0.00     0.054 A 
BRANCH  80  81
ATOM     81  S   UNL A   1      33.237  35.238  28.717  1.00  0.00     0.124 S 
ATOM     82  O   UNL A   1      32.512  35.764  29.869  1.00  0.00    -0.237 OA
ATOM     83  O   UNL A   1      33.953  36.225  27.913  1.00  0.00    -0.237 OA
ATOM     84  O   UNL A   1      32.535  34.213  27.947  1.00  0.00    -0.744 OA
ENDBRANCH  80  81
ENDBRANCH  52  75
BRANCH  64  85
ATOM     85  C   UNL A   1      39.771  34.028  36.970  1.00  0.00    -0.014 A 
ATOM     86  C   UNL A   1      39.053  33.731  38.142  1.00  0.00     0.010 A 
ATOM     87  C   UNL A   1      40.355  35.298  36.824  1.00  0.00     0.010 A 
ATOM     88  C   UNL A   1      38.899  34.700  39.138  1.00  0.00     0.020 A 
ATOM     89  C   UNL A   1      40.220  36.262  37.826  1.00  0.00     0.020 A 
ATOM     90  C   UNL A   1      39.481  35.960  38.972  1.00  0.00     0.054 A 
BRANCH  90  91
ATOM     91  S   UNL A   1      39.303  37.189  40.295  1.00  0.00     0.124 S 
ATOM     92  O   UNL A   1      38.557  36.442  41.304  1.00  0.00    -0.237 OA
ATOM     93  O   UNL A   1      40.690  37.496  40.639  1.00  0.00    -0.237 OA
ATOM     94  O   UNL A   1      38.570  38.280  39.656  1.00  0.00    -0.744 OA
ENDBRANCH  90  91
ENDBRANCH  64  85
ENDBRANCH  38  39
ENDBRANCH  31  33
ENDBRANCH  30  31
ENDBRANCH  29  30
ENDBRANCH  28  29
ENDBRANCH   1  28
TORSDOF 21
ENDMDL
MODEL 2
REMARK VINA RESULT:      -9.9      4.992     10.920
REMARK SMILES COc1cc(C(=O)N[C@H]2CCCC[C@H]2C(=O)OCCOCCOC(=O)c2ccc(-c3c4nc(c(-c5ccc(S(=O)(=O)[O-])cc5)c5ccc([nH]5)c(-c5ccc(S(=O)(=O)[O-])cc5)c5nc(c(-c6ccc(S(=O)(=O)[O-])cc6)c6ccc3[nH]6)C=C5)C=C4)cc2)cc(Cl)c1OC
REMARK SMILES IDX 20 1 19 2 18 3 17 4 15 5 16 6 14 7 9 8 10 9 11 10 13 11
REMARK SMILES IDX 12 12 8 13 6 14 7 15 5 17 3 18 4 19 89 20 87 21 86 22 88 23
REMARK SMILES IDX 2 24 1 25 90 26 91 27 21 28 22 29 23 30 24 31 25 32 26 33
REMARK SMILES IDX 27 34 85 35 28 36 84 37 29 38 30 39 31 40 78 41 32 42 83 43
REMARK SMILES IDX 77 44 79 45 33 46 82 47 76 48 75 49 34 51 64 52 45 53 63 54
REMARK SMILES IDX 46 55 49 56 62 57 80 58 47 59 48 60 61 62 81 63 50 64 35 65
REMARK SMILES IDX 36 66 44 67 37 68 43 69 38 70 39 71 40 72 41 73 42 74 65 75
REMARK SMILES IDX 66 76 74 77 67 78 73 79 68 80 69 81 70 82 71 83 72 84 51 85
REMARK SMILES IDX 52 86 60 87 53 88 59 89 54 90 55 91 56 92 57 93 58 94
REMARK H PARENT 8 16 79 50 49 61
REMARK Flexibility Score: inf
ROOT
ATOM      1  O   UNL A   1      33.212  36.845  30.286  1.00  0.00    -0.374 OA
ENDROOT
BRANCH   1   2
ATOM      2  C   UNL A   1      33.433  36.221  29.025  1.00  0.00     0.202 C 
BRANCH   2   3
ATOM      3  C   UNL A   1      32.806  34.839  28.792  1.00  0.00     0.261 C 
BRANCH   3   4
ATOM      4  O   UNL A   1      33.605  33.913  28.027  1.00  0.00    -0.463 OA
BRANCH   4   5
ATOM      5  C   UNL A   1      32.933  32.808  27.616  1.00  0.00     0.311 C 
ATOM      6  O   UNL A   1      31.773  32.808  27.210  1.00  0.00    -0.252 OA
BRANCH   5   7
ATOM      7  C   UNL A   1      33.697  31.511  27.761  1.00  0.00     0.121 C 
ATOM      8  C   UNL A   1      33.167  30.212  27.113  1.00  0.00     0.096 C 
ATOM      9  C   UNL A   1      34.033  29.037  27.638  1.00  0.00     0.026 C 
ATOM     10  C   UNL A   1      35.537  29.268  27.439  1.00  0.00     0.002 C 
ATOM     11  C   UNL A   1      35.188  31.757  27.531  1.00  0.00     0.017 C 
ATOM     12  C   UNL A   1      36.001  30.580  28.058  1.00  0.00     0.001 C 
BRANCH   8  13
ATOM     13  N   UNL A   1      33.179  30.139  25.652  1.00  0.00    -0.348 N 
ATOM     14  C   UNL A   1      33.210  29.056  24.796  1.00  0.00     0.251 C 
ATOM     15  O   UNL A   1      33.520  29.258  23.623  1.00  0.00    -0.269 OA
ATOM     16  H   UNL A   1      33.163  31.014  25.201  1.00  0.00     0.164 HD
BRANCH  14  17
ATOM     17  C   UNL A   1      32.793  27.675  25.184  1.00  0.00     0.045 A 
ATOM     18  C   UNL A   1      33.503  25.341  25.436  1.00  0.00     0.163 A 
ATOM     19  C   UNL A   1      33.804  26.695  25.248  1.00  0.00     0.064 A 
ATOM     20  C   UNL A   1      32.164  24.966  25.631  1.00  0.00     0.179 A 
ATOM     21  C   UNL A   1      31.174  25.954  25.712  1.00  0.00     0.087 A 
ATOM     22  C   UNL A   1      31.488  27.297  25.485  1.00  0.00     0.038 A 
ATOM     23  Cl  UNL A   1      29.527  25.579  26.085  1.00  0.00    -0.080 Cl
BRANCH  18  24
ATOM     24  O   UNL A   1      34.421  24.325  25.407  1.00  0.00    -0.493 OA
ATOM     25  C   UNL A   1      35.079  24.046  24.175  1.00  0.00     0.278 C 
ENDBRANCH  18  24
BRANCH  20  26
ATOM     26  O   UNL A   1      31.882  23.635  25.812  1.00  0.00    -0.491 OA
ATOM     27  C   UNL A   1      31.459  22.996  24.606  1.00  0.00     0.278 C 
ENDBRANCH  20  26
ENDBRANCH  14  17
ENDBRANCH   8  13
ENDBRANCH   5   7
ENDBRANCH   4   5
ENDBRANCH   3   4
ENDBRANCH   2   3
ENDBRANCH   1   2
BRANCH   1  28
ATOM     28  C   UNL A   1      32.606  36.071  31.317  1.00  0.00     0.202 C 
BRANCH  28  29
ATOM     29  C   UNL A   1      33.540  35.336  32.281  1.00  0.00     0.261 C 
BRANCH  29  30
ATOM     30  O   UNL A   1      33.781  33.968  31.893  1.00  0.00    -0.460 OA
BRANCH  30  31
ATOM     31  C   UNL A   1      34.605  33.298  32.733  1.00  0.00     0.338 C 
ATOM     32  O   UNL A   1      34.403  33.078  33.926  1.00  0.00    -0.246 OA
BRANCH  31  33
ATOM     33  C   UNL A   1      35.764  32.708  32.041  1.00  0.00     0.060 A 
ATOM     34  C   UNL A   1      36.579  31.841  32.778  1.00  0.00     0.016 A 
ATOM     35  C   UNL A   1      36.152  33.107  30.763  1.00  0.00     0.016 A 
ATOM     36  C   UNL A   1      37.807  31.429  32.264  1.00  0.00     0.010 A 
ATOM     37  C   UNL A   1      37.392  32.712  30.253  1.00  0.00     0.010 A 
ATOM     38  C   UNL A   1      38.241  31.901  31.018  1.00  0.00    -0.014 A 
BRANCH  38  39
ATOM     39  C   UNL A   1      39.607  31.583  30.546  1.00  0.00     0.031 A 
ATOM     40  C   UNL A   1      40.698  32.609  30.656  1.00  0.00     0.074 A 
ATOM     41  C   UNL A   1      39.861  30.366  30.035  1.00  0.00     0.049 A 
ATOM     42  N   UNL A   1      41.971  32.491  30.377  1.00  0.00    -0.248 NA
ATOM     43  C   UNL A   1      40.309  33.943  31.140  1.00  0.00     0.031 C 
ATOM     44  C   UNL A   1      38.875  29.299  29.870  1.00  0.00     0.029 A 
ATOM     45  N   UNL A   1      41.028  29.828  29.559  1.00  0.00    -0.354 N 
ATOM     46  C   UNL A   1      42.539  33.727  30.664  1.00  0.00     0.074 A 
ATOM     47  C   UNL A   1      41.466  34.592  31.106  1.00  0.00     0.031 C 
ATOM     48  C   UNL A   1      39.479  28.230  29.325  1.00  0.00     0.029 A 
ATOM     49  C   UNL A   1      40.889  28.541  29.099  1.00  0.00     0.049 A 
ATOM     50  H   UNL A   1      41.884  30.315  29.548  1.00  0.00     0.167 HD
ATOM     51  C   UNL A   1      43.839  34.101  30.575  1.00  0.00     0.031 A 
ATOM     52  C   UNL A   1      41.796  27.708  28.556  1.00  0.00     0.031 A 
ATOM     53  C   UNL A   1      44.895  33.242  30.105  1.00  0.00     0.049 A 
ATOM     54  C   UNL A   1      43.226  28.154  28.439  1.00  0.00     0.074 A 
ATOM     55  C   UNL A   1      46.250  33.512  30.011  1.00  0.00     0.029 A 
ATOM     56  N   UNL A   1      44.713  31.950  29.635  1.00  0.00    -0.354 N 
ATOM     57  N   UNL A   1      43.761  29.300  28.789  1.00  0.00    -0.248 NA
ATOM     58  C   UNL A   1      44.178  27.188  27.874  1.00  0.00     0.031 C 
ATOM     59  C   UNL A   1      46.879  32.399  29.442  1.00  0.00     0.029 A 
ATOM     60  C   UNL A   1      45.924  31.419  29.226  1.00  0.00     0.049 A 
ATOM     61  H   UNL A   1      43.849  31.480  29.597  1.00  0.00     0.167 HD
ATOM     62  C   UNL A   1      45.117  29.185  28.507  1.00  0.00     0.074 A 
ATOM     63  C   UNL A   1      45.321  27.854  27.967  1.00  0.00     0.031 C 
ATOM     64  C   UNL A   1      46.105  30.096  28.684  1.00  0.00     0.031 A 
BRANCH  51  65
ATOM     65  C   UNL A   1      44.189  35.507  30.985  1.00  0.00    -0.014 A 
ATOM     66  C   UNL A   1      44.137  36.563  30.057  1.00  0.00     0.010 A 
ATOM     67  C   UNL A   1      44.532  35.786  32.320  1.00  0.00     0.010 A 
ATOM     68  C   UNL A   1      44.455  37.867  30.449  1.00  0.00     0.020 A 
ATOM     69  C   UNL A   1      44.831  37.093  32.720  1.00  0.00     0.020 A 
ATOM     70  C   UNL A   1      44.807  38.122  31.777  1.00  0.00     0.054 A 
BRANCH  70  71
ATOM     71  S   UNL A   1      45.201  39.825  32.265  1.00  0.00     0.124 S 
ATOM     72  O   UNL A   1      44.805  39.833  33.671  1.00  0.00    -0.237 OA
ATOM     73  O   UNL A   1      46.639  39.907  32.017  1.00  0.00    -0.237 OA
ATOM     74  O   UNL A   1      44.373  40.640  31.379  1.00  0.00    -0.744 OA
ENDBRANCH  70  71
ENDBRANCH  51  65
BRANCH  52  75
ATOM     75  C   UNL A   1      41.369  26.358  28.106  1.00  0.00    -0.014 A 
ATOM     76  C   UNL A   1      40.585  26.204  26.951  1.00  0.00     0.010 A 
ATOM     77  C   UNL A   1      41.789  25.215  28.810  1.00  0.00     0.010 A 
ATOM     78  C   UNL A   1      40.221  24.929  26.510  1.00  0.00     0.020 A 
ATOM     79  C   UNL A   1      41.443  23.938  28.361  1.00  0.00     0.020 A 
ATOM     80  C   UNL A   1      40.656  23.803  27.216  1.00  0.00     0.054 A 
BRANCH  80  81
ATOM     81  S   UNL A   1      40.238  22.155  26.584  1.00  0.00     0.124 S 
ATOM     82  O   UNL A   1      38.865  22.344  26.129  1.00  0.00    -0.237 OA
ATOM     83  O   UNL A   1      41.233  21.956  25.533  1.00  0.00    -0.237 OA
ATOM     84  O   UNL A   1      40.400  21.292  27.753  1.00  0.00    -0.744 OA
ENDBRANCH  80  81
ENDBRANCH  52  75
BRANCH  64  85
ATOM     85  C   UNL A   1      47.501  29.677  28.309  1.00  0.00    -0.014 A 
ATOM     86  C   UNL A   1      47.998  29.896  27.012  1.00  0.00     0.010 A 
ATOM     87  C   UNL A   1      48.339  29.103  29.280  1.00  0.00     0.010 A 
ATOM     88  C   UNL A   1      49.304  29.519  26.686  1.00  0.00     0.020 A 
ATOM     89  C   UNL A   1      49.652  28.744  28.964  1.00  0.00     0.020 A 
ATOM     90  C   UNL A   1      50.122  28.943  27.663  1.00  0.00     0.054 A 
BRANCH  90  91
ATOM     91  S   UNL A   1      51.827  28.499  27.231  1.00  0.00     0.124 S 
ATOM     92  O   UNL A   1      52.213  27.649  28.353  1.00  0.00    -0.237 OA
ATOM     93  O   UNL A   1      51.667  27.813  25.950  1.00  0.00    -0.237 OA
ATOM     94  O   UNL A   1      52.511  29.788  27.158  1.00  0.00    -0.744 OA
ENDBRANCH  90  91
ENDBRANCH  64  85
ENDBRANCH  38  39
ENDBRANCH  31  33
ENDBRANCH  30  31
ENDBRANCH  29  30
ENDBRANCH  28  29
ENDBRANCH   1  28
TORSDOF 21
ENDMDL
MODEL 3
REMARK VINA RESULT:      -9.9      2.090      8.888
REMARK SMILES COc1cc(C(=O)N[C@H]2CCCC[C@H]2C(=O)OCCOCCOC(=O)c2ccc(-c3c4nc(c(-c5ccc(S(=O)(=O)[O-])cc5)c5ccc([nH]5)c(-c5ccc(S(=O)(=O)[O-])cc5)c5nc(c(-c6ccc(S(=O)(=O)[O-])cc6)c6ccc3[nH]6)C=C5)C=C4)cc2)cc(Cl)c1OC
REMARK SMILES IDX 20 1 19 2 18 3 17 4 15 5 16 6 14 7 9 8 10 9 11 10 13 11
REMARK SMILES IDX 12 12 8 13 6 14 7 15 5 17 3 18 4 19 89 20 87 21 86 22 88 23
REMARK SMILES IDX 2 24 1 25 90 26 91 27 21 28 22 29 23 30 24 31 25 32 26 33
REMARK SMILES IDX 27 34 85 35 28 36 84 37 29 38 30 39 31 40 78 41 32 42 83 43
REMARK SMILES IDX 77 44 79 45 33 46 82 47 76 48 75 49 34 51 64 52 45 53 63 54
REMARK SMILES IDX 46 55 49 56 62 57 80 58 47 59 48 60 61 62 81 63 50 64 35 65
REMARK SMILES IDX 36 66 44 67 37 68 43 69 38 70 39 71 40 72 41 73 42 74 65 75
REMARK SMILES IDX 66 76 74 77 67 78 73 79 68 80 69 81 70 82 71 83 72 84 51 85
REMARK SMILES IDX 52 86 60 87 53 88 59 89 54 90 55 91 56 92 57 93 58 94
REMARK H PARENT 8 16 79 50 49 61
REMARK Flexibility Score: inf
ROOT
ATOM      1  O   UNL A   1      35.044  30.705  27.433  1.00  0.00    -0.374 OA
ENDROOT
BRANCH   1   2
ATOM      2  C   UNL A   1      35.116  29.289  27.565  1.00  0.00     0.202 C 
BRANCH   2   3
ATOM      3  C   UNL A   1      33.881  28.471  27.164  1.00  0.00     0.261 C 
BRANCH   3   4
ATOM      4  O   UNL A   1      33.836  28.044  25.786  1.00  0.00    -0.463 OA
BRANCH   4   5
ATOM      5  C   UNL A   1      32.877  28.654  25.046  1.00  0.00     0.311 C 
ATOM      6  O   UNL A   1      32.695  29.869  25.007  1.00  0.00    -0.252 OA
BRANCH   5   7
ATOM      7  C   UNL A   1      31.958  27.714  24.300  1.00  0.00     0.121 C 
ATOM      8  C   UNL A   1      32.079  26.184  24.487  1.00  0.00     0.096 C 
ATOM      9  C   UNL A   1      31.176  25.507  23.424  1.00  0.00     0.026 C 
ATOM     10  C   UNL A   1      29.733  26.029  23.445  1.00  0.00     0.002 C 
ATOM     11  C   UNL A   1      30.522  28.235  24.357  1.00  0.00     0.017 C 
ATOM     12  C   UNL A   1      29.670  27.544  23.299  1.00  0.00     0.001 C 
BRANCH   8  13
ATOM     13  N   UNL A   1      31.698  25.638  25.789  1.00  0.00    -0.348 N 
ATOM     14  C   UNL A   1      32.029  24.449  26.409  1.00  0.00     0.251 C 
ATOM     15  O   UNL A   1      31.344  24.087  27.364  1.00  0.00    -0.269 OA
ATOM     16  H   UNL A   1      31.102  26.219  26.316  1.00  0.00     0.164 HD
BRANCH  14  17
ATOM     17  C   UNL A   1      33.226  23.629  26.053  1.00  0.00     0.045 A 
ATOM     18  C   UNL A   1      34.027  21.447  25.272  1.00  0.00     0.163 A 
ATOM     19  C   UNL A   1      32.988  22.361  25.487  1.00  0.00     0.064 A 
ATOM     20  C   UNL A   1      35.344  21.835  25.569  1.00  0.00     0.179 A 
ATOM     21  C   UNL A   1      35.599  23.145  25.995  1.00  0.00     0.087 A 
ATOM     22  C   UNL A   1      34.545  24.032  26.239  1.00  0.00     0.038 A 
ATOM     23  Cl  UNL A   1      37.204  23.735  26.249  1.00  0.00    -0.080 Cl
BRANCH  18  24
ATOM     24  O   UNL A   1      33.859  20.164  24.823  1.00  0.00    -0.493 OA
ATOM     25  C   UNL A   1      33.042  19.283  25.589  1.00  0.00     0.278 C 
ENDBRANCH  18  24
BRANCH  20  26
ATOM     26  O   UNL A   1      36.352  20.928  25.355  1.00  0.00    -0.491 OA
ATOM     27  C   UNL A   1      37.237  21.331  24.308  1.00  0.00     0.278 C 
ENDBRANCH  20  26
ENDBRANCH  14  17
ENDBRANCH   8  13
ENDBRANCH   5   7
ENDBRANCH   4   5
ENDBRANCH   3   4
ENDBRANCH   2   3
ENDBRANCH   1   2
BRANCH   1  28
ATOM     28  C   UNL A   1      33.955  31.380  28.056  1.00  0.00     0.202 C 
BRANCH  28  29
ATOM     29  C   UNL A   1      33.693  32.826  27.632  1.00  0.00     0.261 C 
BRANCH  29  30
ATOM     30  O   UNL A   1      32.748  33.498  28.489  1.00  0.00    -0.460 OA
BRANCH  30  31
ATOM     31  C   UNL A   1      33.258  34.578  29.127  1.00  0.00     0.338 C 
ATOM     32  O   UNL A   1      32.813  35.723  29.085  1.00  0.00    -0.246 OA
BRANCH  31  33
ATOM     33  C   UNL A   1      34.373  34.232  30.027  1.00  0.00     0.060 A 
ATOM     34  C   UNL A   1      35.664  34.576  29.612  1.00  0.00     0.016 A 
ATOM     35  C   UNL A   1      34.195  33.448  31.166  1.00  0.00     0.016 A 
ATOM     36  C   UNL A   1      36.773  34.083  30.296  1.00  0.00     0.010 A 
ATOM     37  C   UNL A   1      35.306  32.936  31.842  1.00  0.00     0.010 A 
ATOM     38  C   UNL A   1      36.600  33.221  31.387  1.00  0.00    -0.014 A 
BRANCH  38  39
ATOM     39  C   UNL A   1      37.778  32.582  32.014  1.00  0.00     0.031 A 
ATOM     40  C   UNL A   1      38.278  33.068  33.344  1.00  0.00     0.074 A 
ATOM     41  C   UNL A   1      38.383  31.557  31.389  1.00  0.00     0.049 A 
ATOM     42  N   UNL A   1      39.238  32.584  34.091  1.00  0.00    -0.248 NA
ATOM     43  C   UNL A   1      37.614  34.253  33.910  1.00  0.00     0.031 C 
ATOM     44  C   UNL A   1      37.989  31.013  30.090  1.00  0.00     0.029 A 
ATOM     45  N   UNL A   1      39.457  30.795  31.765  1.00  0.00    -0.354 N 
ATOM     46  C   UNL A   1      39.286  33.394  35.219  1.00  0.00     0.074 A 
ATOM     47  C   UNL A   1      38.282  34.422  35.044  1.00  0.00     0.031 C 
ATOM     48  C   UNL A   1      38.817  30.003  29.774  1.00  0.00     0.029 A 
ATOM     49  C   UNL A   1      39.798  29.836  30.844  1.00  0.00     0.049 A 
ATOM     50  H   UNL A   1      39.939  30.922  32.615  1.00  0.00     0.167 HD
ATOM     51  C   UNL A   1      40.090  33.283  36.305  1.00  0.00     0.031 A 
ATOM     52  C   UNL A   1      40.788  28.925  30.861  1.00  0.00     0.031 A 
ATOM     53  C   UNL A   1      41.107  32.275  36.456  1.00  0.00     0.049 A 
ATOM     54  C   UNL A   1      41.687  28.839  32.062  1.00  0.00     0.074 A 
ATOM     55  C   UNL A   1      41.950  32.053  37.533  1.00  0.00     0.029 A 
ATOM     56  N   UNL A   1      41.431  31.329  35.495  1.00  0.00    -0.354 N 
ATOM     57  N   UNL A   1      41.668  29.562  33.156  1.00  0.00    -0.248 NA
ATOM     58  C   UNL A   1      42.726  27.801  32.040  1.00  0.00     0.031 C 
ATOM     59  C   UNL A   1      42.812  31.002  37.203  1.00  0.00     0.029 A 
ATOM     60  C   UNL A   1      42.476  30.538  35.941  1.00  0.00     0.049 A 
ATOM     61  H   UNL A   1      40.983  31.234  34.623  1.00  0.00     0.167 HD
ATOM     62  C   UNL A   1      42.678  29.052  33.964  1.00  0.00     0.074 A 
ATOM     63  C   UNL A   1      43.281  27.953  33.235  1.00  0.00     0.031 C 
ATOM     64  C   UNL A   1      43.067  29.454  35.199  1.00  0.00     0.031 A 
BRANCH  51  65
ATOM     65  C   UNL A   1      39.907  34.287  37.413  1.00  0.00    -0.014 A 
ATOM     66  C   UNL A   1      39.064  34.011  38.505  1.00  0.00     0.010 A 
ATOM     67  C   UNL A   1      40.619  35.499  37.387  1.00  0.00     0.010 A 
ATOM     68  C   UNL A   1      38.909  34.946  39.533  1.00  0.00     0.020 A 
ATOM     69  C   UNL A   1      40.482  36.428  38.424  1.00  0.00     0.020 A 
ATOM     70  C   UNL A   1      39.613  36.152  39.482  1.00  0.00     0.054 A 
BRANCH  70  71
ATOM     71  S   UNL A   1      39.406  37.342  40.836  1.00  0.00     0.124 S 
ATOM     72  O   UNL A   1      38.896  36.491  41.909  1.00  0.00    -0.237 OA
ATOM     73  O   UNL A   1      40.761  37.851  41.029  1.00  0.00    -0.237 OA
ATOM     74  O   UNL A   1      38.451  38.311  40.303  1.00  0.00    -0.744 OA
ENDBRANCH  70  71
ENDBRANCH  51  65
BRANCH  52  75
ATOM     75  C   UNL A   1      40.959  28.010  29.703  1.00  0.00    -0.014 A 
ATOM     76  C   UNL A   1      42.131  28.045  28.930  1.00  0.00     0.010 A 
ATOM     77  C   UNL A   1      39.961  27.066  29.398  1.00  0.00     0.010 A 
ATOM     78  C   UNL A   1      42.302  27.154  27.867  1.00  0.00     0.020 A 
ATOM     79  C   UNL A   1      40.137  26.161  28.349  1.00  0.00     0.020 A 
ATOM     80  C   UNL A   1      41.305  26.215  27.585  1.00  0.00     0.054 A 
BRANCH  80  81
ATOM     81  S   UNL A   1      41.579  25.017  26.251  1.00  0.00     0.124 S 
ATOM     82  O   UNL A   1      40.578  23.998  26.548  1.00  0.00    -0.237 OA
ATOM     83  O   UNL A   1      41.336  25.815  25.052  1.00  0.00    -0.237 OA
ATOM     84  O   UNL A   1      42.969  24.607  26.443  1.00  0.00    -0.744 OA
ENDBRANCH  80  81
ENDBRANCH  52  75
BRANCH  64  85
ATOM     85  C   UNL A   1      44.186  28.687  35.849  1.00  0.00    -0.014 A 
ATOM     86  C   UNL A   1      45.529  28.950  35.525  1.00  0.00     0.010 A 
ATOM     87  C   UNL A   1      43.891  27.726  36.832  1.00  0.00     0.010 A 
ATOM     88  C   UNL A   1      46.557  28.242  36.154  1.00  0.00     0.020 A 
ATOM     89  C   UNL A   1      44.917  27.031  37.478  1.00  0.00     0.020 A 
ATOM     90  C   UNL A   1      46.244  27.285  37.124  1.00  0.00     0.054 A 
BRANCH  90  91
ATOM     91  S   UNL A   1      47.595  26.406  37.957  1.00  0.00     0.124 S 
ATOM     92  O   UNL A   1      46.891  25.724  39.039  1.00  0.00    -0.237 OA
ATOM     93  O   UNL A   1      48.116  25.540  36.902  1.00  0.00    -0.237 OA
ATOM     94  O   UNL A   1      48.497  27.478  38.375  1.00  0.00    -0.744 OA
ENDBRANCH  90  91
ENDBRANCH  64  85
ENDBRANCH  38  39
ENDBRANCH  31  33
ENDBRANCH  30  31
ENDBRANCH  29  30
ENDBRANCH  28  29
ENDBRANCH   1  28
TORSDOF 21
ENDMDL
