MODEL 1
REMARK VINA RESULT:      -8.4      0.000      0.000
REMARK SMILES CC1CC[NH+]([C@H](c2ccc(F)cc2)c2ccc([C@@H](C)C(=O)OCCOCCOC(=O)c3ccc(-c4c5nc(c(-c6ccc(S(=O)(=O)[O-])cc6)c6ccc([nH]6)c(-c6ccc(S(=O)(=O)[O-])cc6)c6nc(c(-c7ccc(S(=O)(=O)[O-])cc7)c7ccc4[nH]7)C=C6)C=C5)cc3)cc2-c2ccc(C(F)(F)F)cc2)CC1
REMARK SMILES IDX 25 1 24 2 23 3 22 4 20 5 21 6 18 7 19 8 17 9 14 10 15 11
REMARK SMILES IDX 92 12 16 13 91 14 6 15 5 16 1 17 2 18 3 19 104 20 4 21
REMARK SMILES IDX 103 22 7 24 8 25 13 26 9 27 12 28 10 29 11 30 93 31 94 32
REMARK SMILES IDX 102 33 95 34 101 35 96 36 97 37 98 38 99 39 100 40 26 41
REMARK SMILES IDX 27 42 28 43 29 44 30 45 31 46 32 47 90 48 33 49 89 50 34 51
REMARK SMILES IDX 35 52 36 53 83 54 37 55 88 56 82 57 84 58 38 59 87 60 81 61
REMARK SMILES IDX 80 62 39 64 69 65 50 66 68 67 51 68 54 69 67 70 85 71 52 72
REMARK SMILES IDX 53 73 66 75 86 76 55 77 40 78 41 79 49 80 42 81 48 82 43 83
REMARK SMILES IDX 44 84 45 85 46 86 47 87 70 88 71 89 79 90 72 91 78 92 73 93
REMARK SMILES IDX 74 94 75 95 76 96 77 97 56 98 57 99 65 100 58 101 64 102
REMARK SMILES IDX 59 103 60 104 61 105 62 106 63 107
REMARK H PARENT 5 23 84 63 54 74
REMARK Flexibility Score: inf
ROOT
ATOM      1  O   UNL A   1      52.651  26.734  36.407  1.00  0.00    -0.374 OA
ENDROOT
BRANCH   1   2
ATOM      2  C   UNL A   1      52.672  25.989  35.189  1.00  0.00     0.202 C 
BRANCH   2   3
ATOM      3  C   UNL A   1      53.541  24.729  35.203  1.00  0.00     0.261 C 
BRANCH   3   4
ATOM      4  O   UNL A   1      52.736  23.558  35.437  1.00  0.00    -0.463 OA
BRANCH   4   5
ATOM      5  C   UNL A   1      52.527  22.738  34.374  1.00  0.00     0.313 C 
ATOM      6  O   UNL A   1      52.561  23.098  33.202  1.00  0.00    -0.252 OA
BRANCH   5   7
ATOM      7  C   UNL A   1      52.194  21.305  34.771  1.00  0.00     0.126 C 
ATOM      8  C   UNL A   1      52.106  20.439  33.518  1.00  0.00     0.025 C 
BRANCH   7   9
ATOM      9  C   UNL A   1      51.001  21.092  35.700  1.00  0.00    -0.033 A 
ATOM     10  C   UNL A   1      48.729  20.866  37.460  1.00  0.00     0.022 A 
ATOM     11  C   UNL A   1      50.004  20.365  37.796  1.00  0.00     0.011 A 
ATOM     12  C   UNL A   1      48.593  21.456  36.169  1.00  0.00    -0.009 A 
ATOM     13  C   UNL A   1      51.117  20.496  36.954  1.00  0.00     0.005 A 
ATOM     14  C   UNL A   1      49.727  21.548  35.321  1.00  0.00     0.013 A 
BRANCH  10  15
ATOM     15  C   UNL A   1      47.531  20.818  38.460  1.00  0.00     0.247 C 
BRANCH  15  16
ATOM     16  N   UNL A   1      47.236  22.019  39.308  1.00  0.00    -0.325 N 
ATOM     17  C   UNL A   1      45.981  26.173  40.061  1.00  0.00     0.008 C 
ATOM     18  C   UNL A   1      46.348  24.808  39.490  1.00  0.00    -0.003 C 
ATOM     19  C   UNL A   1      45.470  23.692  40.054  1.00  0.00     0.065 C 
ATOM     20  C   UNL A   1      47.790  24.442  39.818  1.00  0.00     0.065 C 
ATOM     21  C   UNL A   1      45.809  22.340  39.413  1.00  0.00     0.263 C 
ATOM     22  C   UNL A   1      48.173  23.127  39.145  1.00  0.00     0.263 C 
ATOM     23  H   UNL A   1      47.449  21.740  40.265  1.00  0.00     0.348 HD
ENDBRANCH  15  16
BRANCH  15  24
ATOM     24  C   UNL A   1      47.484  19.525  39.296  1.00  0.00     0.014 A 
ATOM     25  C   UNL A   1      48.338  19.322  40.396  1.00  0.00     0.013 A 
ATOM     26  C   UNL A   1      46.551  18.518  38.978  1.00  0.00     0.013 A 
ATOM     27  C   UNL A   1      48.272  18.146  41.145  1.00  0.00     0.040 A 
ATOM     28  C   UNL A   1      46.501  17.334  39.714  1.00  0.00     0.040 A 
ATOM     29  C   UNL A   1      47.360  17.159  40.791  1.00  0.00     0.123 A 
ATOM     30  F   UNL A   1      47.306  16.025  41.501  1.00  0.00    -0.207 F 
ENDBRANCH  15  24
ENDBRANCH  10  15
BRANCH  12  31
ATOM     31  C   UNL A   1      47.316  21.975  35.639  1.00  0.00    -0.018 A 
ATOM     32  C   UNL A   1      46.535  21.184  34.781  1.00  0.00     0.009 A 
ATOM     33  C   UNL A   1      46.849  23.255  35.967  1.00  0.00     0.009 A 
ATOM     34  C   UNL A   1      45.304  21.639  34.301  1.00  0.00     0.014 A 
ATOM     35  C   UNL A   1      45.612  23.710  35.497  1.00  0.00     0.014 A 
ATOM     36  C   UNL A   1      44.820  22.901  34.671  1.00  0.00     0.056 A 
BRANCH  36  37
ATOM     37  C   UNL A   1      43.477  23.371  34.169  1.00  0.00     0.416 C 
ATOM     38  F   UNL A   1      43.492  24.680  33.794  1.00  0.00    -0.166 F 
ATOM     39  F   UNL A   1      43.047  22.677  33.079  1.00  0.00    -0.166 F 
ATOM     40  F   UNL A   1      42.481  23.260  35.094  1.00  0.00    -0.166 F 
ENDBRANCH  36  37
ENDBRANCH  12  31
ENDBRANCH   7   9
ENDBRANCH   5   7
ENDBRANCH   4   5
ENDBRANCH   3   4
ENDBRANCH   2   3
ENDBRANCH   1   2
BRANCH   1  41
ATOM     41  C   UNL A   1      52.267  26.025  37.583  1.00  0.00     0.202 C 
BRANCH  41  42
ATOM     42  C   UNL A   1      50.957  26.468  38.242  1.00  0.00     0.261 C 
BRANCH  42  43
ATOM     43  O   UNL A   1      50.116  27.218  37.349  1.00  0.00    -0.460 OA
BRANCH  43  44
ATOM     44  C   UNL A   1      49.277  26.472  36.590  1.00  0.00     0.338 C 
ATOM     45  O   UNL A   1      49.363  25.273  36.362  1.00  0.00    -0.246 OA
BRANCH  44  46
ATOM     46  C   UNL A   1      48.117  27.284  36.174  1.00  0.00     0.060 A 
ATOM     47  C   UNL A   1      46.843  26.894  36.598  1.00  0.00     0.016 A 
ATOM     48  C   UNL A   1      48.265  28.385  35.331  1.00  0.00     0.016 A 
ATOM     49  C   UNL A   1      45.714  27.572  36.136  1.00  0.00     0.010 A 
ATOM     50  C   UNL A   1      47.138  29.075  34.881  1.00  0.00     0.010 A 
ATOM     51  C   UNL A   1      45.852  28.644  35.243  1.00  0.00    -0.014 A 
BRANCH  51  52
ATOM     52  C   UNL A   1      44.660  29.222  34.574  1.00  0.00     0.031 A 
ATOM     53  C   UNL A   1      44.278  28.731  33.202  1.00  0.00     0.074 A 
ATOM     54  C   UNL A   1      43.925  30.173  35.177  1.00  0.00     0.049 A 
ATOM     55  N   UNL A   1      43.277  29.093  32.442  1.00  0.00    -0.248 NA
ATOM     56  C   UNL A   1      45.146  27.702  32.605  1.00  0.00     0.031 C 
ATOM     57  C   UNL A   1      44.190  30.735  36.501  1.00  0.00     0.029 A 
ATOM     58  N   UNL A   1      42.804  30.836  34.746  1.00  0.00    -0.354 N 
ATOM     59  C   UNL A   1      43.400  28.346  31.276  1.00  0.00     0.074 A 
ATOM     60  C   UNL A   1      44.595  27.542  31.411  1.00  0.00     0.031 C 
ATOM     61  C   UNL A   1      43.255  31.660  36.776  1.00  0.00     0.029 A 
ATOM     62  C   UNL A   1      42.341  31.771  35.640  1.00  0.00     0.049 A 
ATOM     63  H   UNL A   1      42.372  30.659  33.879  1.00  0.00     0.167 HD
ATOM     64  C   UNL A   1      42.585  28.320  30.193  1.00  0.00     0.031 A 
ATOM     65  C   UNL A   1      41.304  32.628  35.551  1.00  0.00     0.031 A 
ATOM     66  C   UNL A   1      41.399  29.124  30.055  1.00  0.00     0.049 A 
ATOM     67  C   UNL A   1      40.428  32.607  34.328  1.00  0.00     0.074 A 
ATOM     68  C   UNL A   1      40.485  29.137  29.018  1.00  0.00     0.029 A 
ATOM     69  N   UNL A   1      40.972  30.067  30.978  1.00  0.00    -0.354 N 
ATOM     70  N   UNL A   1      40.523  31.851  33.259  1.00  0.00    -0.248 NA
ATOM     71  C   UNL A   1      39.295  33.545  34.304  1.00  0.00     0.031 C 
ATOM     72  C   UNL A   1      39.533  30.126  29.288  1.00  0.00     0.029 A 
ATOM     73  C   UNL A   1      39.822  30.688  30.521  1.00  0.00     0.049 A 
ATOM     74  H   UNL A   1      41.420  30.263  31.832  1.00  0.00     0.167 HD
ATOM     75  C   UNL A   1      39.450  32.206  32.447  1.00  0.00     0.074 A 
ATOM     76  C   UNL A   1      38.714  33.235  33.153  1.00  0.00     0.031 C 
ATOM     77  C   UNL A   1      39.105  31.719  31.229  1.00  0.00     0.031 A 
BRANCH  64  78
ATOM     78  C   UNL A   1      42.972  27.406  29.059  1.00  0.00    -0.014 A 
ATOM     79  C   UNL A   1      42.510  26.078  29.002  1.00  0.00     0.010 A 
ATOM     80  C   UNL A   1      43.802  27.886  28.030  1.00  0.00     0.010 A 
ATOM     81  C   UNL A   1      42.915  25.233  27.964  1.00  0.00     0.020 A 
ATOM     82  C   UNL A   1      44.185  27.052  26.976  1.00  0.00     0.020 A 
ATOM     83  C   UNL A   1      43.757  25.723  26.962  1.00  0.00     0.054 A 
BRANCH  83  84
ATOM     84  S   UNL A   1      44.271  24.604  25.631  1.00  0.00     0.124 S 
ATOM     85  O   UNL A   1      43.004  24.347  24.950  1.00  0.00    -0.237 OA
ATOM     86  O   UNL A   1      45.233  25.412  24.885  1.00  0.00    -0.237 OA
ATOM     87  O   UNL A   1      44.840  23.460  26.341  1.00  0.00    -0.744 OA
ENDBRANCH  83  84
ENDBRANCH  64  78
BRANCH  65  88
ATOM     88  C   UNL A   1      41.038  33.572  36.670  1.00  0.00    -0.014 A 
ATOM     89  C   UNL A   1      40.224  33.194  37.751  1.00  0.00     0.010 A 
ATOM     90  C   UNL A   1      41.637  34.846  36.675  1.00  0.00     0.010 A 
ATOM     91  C   UNL A   1      40.016  34.071  38.820  1.00  0.00     0.020 A 
ATOM     92  C   UNL A   1      41.451  35.715  37.754  1.00  0.00     0.020 A 
ATOM     93  C   UNL A   1      40.637  35.323  38.817  1.00  0.00     0.054 A 
BRANCH  93  94
ATOM     94  S   UNL A   1      40.426  36.407  40.257  1.00  0.00     0.124 S 
ATOM     95  O   UNL A   1      40.906  37.688  39.747  1.00  0.00    -0.237 OA
ATOM     96  O   UNL A   1      38.988  36.323  40.507  1.00  0.00    -0.237 OA
ATOM     97  O   UNL A   1      41.264  35.784  41.279  1.00  0.00    -0.744 OA
ENDBRANCH  93  94
ENDBRANCH  65  88
BRANCH  77  98
ATOM     98  C   UNL A   1      37.862  32.274  30.585  1.00  0.00    -0.014 A 
ATOM     99  C   UNL A   1      37.936  33.264  29.589  1.00  0.00     0.010 A 
ATOM    100  C   UNL A   1      36.604  31.751  30.939  1.00  0.00     0.010 A 
ATOM    101  C   UNL A   1      36.771  33.743  28.981  1.00  0.00     0.020 A 
ATOM    102  C   UNL A   1      35.440  32.208  30.315  1.00  0.00     0.020 A 
ATOM    103  C   UNL A   1      35.531  33.212  29.349  1.00  0.00     0.054 A 
BRANCH 103 104
ATOM    104  S   UNL A   1      34.038  33.819  28.515  1.00  0.00     0.124 S 
ATOM    105  O   UNL A   1      34.573  34.883  27.670  1.00  0.00    -0.237 OA
ATOM    106  O   UNL A   1      33.561  32.634  27.807  1.00  0.00    -0.237 OA
ATOM    107  O   UNL A   1      33.184  34.266  29.614  1.00  0.00    -0.744 OA
ENDBRANCH 103 104
ENDBRANCH  77  98
ENDBRANCH  51  52
ENDBRANCH  44  46
ENDBRANCH  43  44
ENDBRANCH  42  43
ENDBRANCH  41  42
ENDBRANCH   1  41
TORSDOF 23
ENDMDL
MODEL 2
REMARK VINA RESULT:      -8.4      6.149     11.998
REMARK SMILES CC1CC[NH+]([C@H](c2ccc(F)cc2)c2ccc([C@@H](C)C(=O)OCCOCCOC(=O)c3ccc(-c4c5nc(c(-c6ccc(S(=O)(=O)[O-])cc6)c6ccc([nH]6)c(-c6ccc(S(=O)(=O)[O-])cc6)c6nc(c(-c7ccc(S(=O)(=O)[O-])cc7)c7ccc4[nH]7)C=C6)C=C5)cc3)cc2-c2ccc(C(F)(F)F)cc2)CC1
REMARK SMILES IDX 25 1 24 2 23 3 22 4 20 5 21 6 18 7 19 8 17 9 14 10 15 11
REMARK SMILES IDX 92 12 16 13 91 14 6 15 5 16 1 17 2 18 3 19 104 20 4 21
REMARK SMILES IDX 103 22 7 24 8 25 13 26 9 27 12 28 10 29 11 30 93 31 94 32
REMARK SMILES IDX 102 33 95 34 101 35 96 36 97 37 98 38 99 39 100 40 26 41
REMARK SMILES IDX 27 42 28 43 29 44 30 45 31 46 32 47 90 48 33 49 89 50 34 51
REMARK SMILES IDX 35 52 36 53 83 54 37 55 88 56 82 57 84 58 38 59 87 60 81 61
REMARK SMILES IDX 80 62 39 64 69 65 50 66 68 67 51 68 54 69 67 70 85 71 52 72
REMARK SMILES IDX 53 73 66 75 86 76 55 77 40 78 41 79 49 80 42 81 48 82 43 83
REMARK SMILES IDX 44 84 45 85 46 86 47 87 70 88 71 89 79 90 72 91 78 92 73 93
REMARK SMILES IDX 74 94 75 95 76 96 77 97 56 98 57 99 65 100 58 101 64 102
REMARK SMILES IDX 59 103 60 104 61 105 62 106 63 107
REMARK H PARENT 5 23 84 63 54 74
REMARK Flexibility Score: inf
ROOT
ATOM      1  O   UNL A   1      38.508  32.413  31.307  1.00  0.00    -0.374 OA
ENDROOT
BRANCH   1   2
ATOM      2  C   UNL A   1      38.973  33.485  32.129  1.00  0.00     0.202 C 
BRANCH   2   3
ATOM      3  C   UNL A   1      40.221  34.211  31.620  1.00  0.00     0.261 C 
BRANCH   3   4
ATOM      4  O   UNL A   1      41.375  33.850  32.402  1.00  0.00    -0.463 OA
BRANCH   4   5
ATOM      5  C   UNL A   1      42.535  33.653  31.725  1.00  0.00     0.313 C 
ATOM      6  O   UNL A   1      42.670  33.814  30.515  1.00  0.00    -0.252 OA
BRANCH   5   7
ATOM      7  C   UNL A   1      43.676  33.161  32.607  1.00  0.00     0.126 C 
ATOM      8  C   UNL A   1      44.808  34.185  32.589  1.00  0.00     0.025 C 
BRANCH   7   9
ATOM      9  C   UNL A   1      44.184  31.741  32.373  1.00  0.00    -0.033 A 
ATOM     10  C   UNL A   1      45.205  29.059  32.096  1.00  0.00     0.022 A 
ATOM     11  C   UNL A   1      45.623  30.121  31.267  1.00  0.00     0.011 A 
ATOM     12  C   UNL A   1      44.202  29.359  33.064  1.00  0.00    -0.009 A 
ATOM     13  C   UNL A   1      45.147  31.432  31.415  1.00  0.00     0.005 A 
ATOM     14  C   UNL A   1      43.712  30.687  33.173  1.00  0.00     0.013 A 
BRANCH  10  15
ATOM     15  C   UNL A   1      45.835  27.634  31.995  1.00  0.00     0.247 C 
BRANCH  15  16
ATOM     16  N   UNL A   1      47.273  27.495  31.594  1.00  0.00    -0.325 N 
ATOM     17  C   UNL A   1      51.064  28.807  29.776  1.00  0.00     0.008 C 
ATOM     18  C   UNL A   1      49.647  28.649  30.317  1.00  0.00    -0.003 C 
ATOM     19  C   UNL A   1      49.628  28.431  31.829  1.00  0.00     0.065 C 
ATOM     20  C   UNL A   1      48.948  27.449  29.690  1.00  0.00     0.065 C 
ATOM     21  C   UNL A   1      48.191  28.345  32.360  1.00  0.00     0.263 C 
ATOM     22  C   UNL A   1      47.497  27.372  30.157  1.00  0.00     0.263 C 
ATOM     23  H   UNL A   1      47.557  26.566  31.904  1.00  0.00     0.348 HD
ENDBRANCH  15  16
BRANCH  15  24
ATOM     24  C   UNL A   1      44.948  26.627  31.237  1.00  0.00     0.014 A 
ATOM     25  C   UNL A   1      43.831  27.039  30.489  1.00  0.00     0.013 A 
ATOM     26  C   UNL A   1      45.266  25.254  31.265  1.00  0.00     0.013 A 
ATOM     27  C   UNL A   1      43.047  26.111  29.802  1.00  0.00     0.040 A 
ATOM     28  C   UNL A   1      44.469  24.325  30.596  1.00  0.00     0.040 A 
ATOM     29  C   UNL A   1      43.368  24.761  29.870  1.00  0.00     0.123 A 
ATOM     30  F   UNL A   1      42.608  23.868  29.224  1.00  0.00    -0.207 F 
ENDBRANCH  15  24
ENDBRANCH  10  15
BRANCH  12  31
ATOM     31  C   UNL A   1      43.614  28.352  33.969  1.00  0.00    -0.018 A 
ATOM     32  C   UNL A   1      44.289  27.978  35.142  1.00  0.00     0.009 A 
ATOM     33  C   UNL A   1      42.382  27.742  33.691  1.00  0.00     0.009 A 
ATOM     34  C   UNL A   1      43.731  27.058  36.034  1.00  0.00     0.014 A 
ATOM     35  C   UNL A   1      41.815  26.828  34.587  1.00  0.00     0.014 A 
ATOM     36  C   UNL A   1      42.477  26.488  35.774  1.00  0.00     0.056 A 
BRANCH  36  37
ATOM     37  C   UNL A   1      41.872  25.515  36.757  1.00  0.00     0.416 C 
ATOM     38  F   UNL A   1      41.791  24.252  36.255  1.00  0.00    -0.166 F 
ATOM     39  F   UNL A   1      42.590  25.412  37.910  1.00  0.00    -0.166 F 
ATOM     40  F   UNL A   1      40.606  25.845  37.139  1.00  0.00    -0.166 F 
ENDBRANCH  36  37
ENDBRANCH  12  31
ENDBRANCH   7   9
ENDBRANCH   5   7
ENDBRANCH   4   5
ENDBRANCH   3   4
ENDBRANCH   2   3
ENDBRANCH   1   2
BRANCH   1  41
ATOM     41  C   UNL A   1      37.186  32.534  30.786  1.00  0.00     0.202 C 
BRANCH  41  42
ATOM     42  C   UNL A   1      36.665  31.339  29.981  1.00  0.00     0.261 C 
BRANCH  42  43
ATOM     43  O   UNL A   1      37.389  31.143  28.754  1.00  0.00    -0.460 OA
BRANCH  43  44
ATOM     44  C   UNL A   1      37.406  29.867  28.297  1.00  0.00     0.338 C 
ATOM     45  O   UNL A   1      36.437  29.169  28.027  1.00  0.00    -0.246 OA
BRANCH  44  46
ATOM     46  C   UNL A   1      38.793  29.452  28.010  1.00  0.00     0.060 A 
ATOM     47  C   UNL A   1      39.658  29.228  29.086  1.00  0.00     0.016 A 
ATOM     48  C   UNL A   1      39.261  29.335  26.702  1.00  0.00     0.016 A 
ATOM     49  C   UNL A   1      41.004  28.941  28.852  1.00  0.00     0.010 A 
ATOM     50  C   UNL A   1      40.603  29.032  26.466  1.00  0.00     0.010 A 
ATOM     51  C   UNL A   1      41.494  28.878  27.540  1.00  0.00    -0.014 A 
BRANCH  51  52
ATOM     52  C   UNL A   1      42.954  28.799  27.288  1.00  0.00     0.031 A 
ATOM     53  C   UNL A   1      43.543  27.508  26.781  1.00  0.00     0.074 A 
ATOM     54  C   UNL A   1      43.749  29.861  27.507  1.00  0.00     0.049 A 
ATOM     55  N   UNL A   1      44.786  27.222  26.491  1.00  0.00    -0.248 NA
ATOM     56  C   UNL A   1      42.606  26.389  26.586  1.00  0.00     0.031 C 
ATOM     57  C   UNL A   1      43.305  31.164  27.999  1.00  0.00     0.029 A 
ATOM     58  N   UNL A   1      45.105  30.005  27.346  1.00  0.00    -0.354 N 
ATOM     59  C   UNL A   1      44.783  25.892  26.088  1.00  0.00     0.074 A 
ATOM     60  C   UNL A   1      43.423  25.415  26.212  1.00  0.00     0.031 C 
ATOM     61  C   UNL A   1      44.370  31.978  28.099  1.00  0.00     0.029 A 
ATOM     62  C   UNL A   1      45.573  31.247  27.701  1.00  0.00     0.049 A 
ATOM     63  H   UNL A   1      45.687  29.286  27.008  1.00  0.00     0.167 HD
ATOM     64  C   UNL A   1      45.816  25.136  25.643  1.00  0.00     0.031 A 
ATOM     65  C   UNL A   1      46.827  31.739  27.713  1.00  0.00     0.031 A 
ATOM     66  C   UNL A   1      47.170  25.608  25.524  1.00  0.00     0.049 A 
ATOM     67  C   UNL A   1      47.967  30.875  27.245  1.00  0.00     0.074 A 
ATOM     68  C   UNL A   1      48.277  24.934  25.042  1.00  0.00     0.029 A 
ATOM     69  N   UNL A   1      47.603  26.869  25.906  1.00  0.00    -0.354 N 
ATOM     70  N   UNL A   1      47.937  29.637  26.810  1.00  0.00    -0.248 NA
ATOM     71  C   UNL A   1      49.307  31.479  27.254  1.00  0.00     0.031 C 
ATOM     72  C   UNL A   1      49.391  25.768  25.182  1.00  0.00     0.029 A 
ATOM     73  C   UNL A   1      48.967  26.983  25.696  1.00  0.00     0.049 A 
ATOM     74  H   UNL A   1      47.025  27.578  26.270  1.00  0.00     0.167 HD
ATOM     75  C   UNL A   1      49.250  29.322  26.473  1.00  0.00     0.074 A 
ATOM     76  C   UNL A   1      50.045  30.502  26.743  1.00  0.00     0.031 C 
ATOM     77  C   UNL A   1      49.749  28.161  25.980  1.00  0.00     0.031 A 
BRANCH  64  78
ATOM     78  C   UNL A   1      45.516  23.705  25.275  1.00  0.00    -0.014 A 
ATOM     79  C   UNL A   1      45.777  22.652  26.171  1.00  0.00     0.010 A 
ATOM     80  C   UNL A   1      44.956  23.412  24.019  1.00  0.00     0.010 A 
ATOM     81  C   UNL A   1      45.533  21.327  25.795  1.00  0.00     0.020 A 
ATOM     82  C   UNL A   1      44.684  22.091  23.651  1.00  0.00     0.020 A 
ATOM     83  C   UNL A   1      44.996  21.055  24.534  1.00  0.00     0.054 A 
BRANCH  83  84
ATOM     84  S   UNL A   1      44.693  19.328  24.071  1.00  0.00     0.124 S 
ATOM     85  O   UNL A   1      44.668  19.409  22.612  1.00  0.00    -0.237 OA
ATOM     86  O   UNL A   1      45.845  18.635  24.641  1.00  0.00    -0.237 OA
ATOM     87  O   UNL A   1      43.410  19.021  24.699  1.00  0.00    -0.744 OA
ENDBRANCH  83  84
ENDBRANCH  64  78
BRANCH  65  88
ATOM     88  C   UNL A   1      47.062  33.131  28.182  1.00  0.00    -0.014 A 
ATOM     89  C   UNL A   1      46.878  34.221  27.314  1.00  0.00     0.010 A 
ATOM     90  C   UNL A   1      47.432  33.374  29.518  1.00  0.00     0.010 A 
ATOM     91  C   UNL A   1      47.057  35.530  27.774  1.00  0.00     0.020 A 
ATOM     92  C   UNL A   1      47.587  34.681  29.987  1.00  0.00     0.020 A 
ATOM     93  C   UNL A   1      47.403  35.750  29.110  1.00  0.00     0.054 A 
BRANCH  93  94
ATOM     94  S   UNL A   1      47.540  37.458  29.708  1.00  0.00     0.124 S 
ATOM     95  O   UNL A   1      48.206  37.279  30.993  1.00  0.00    -0.237 OA
ATOM     96  O   UNL A   1      48.339  38.095  28.662  1.00  0.00    -0.237 OA
ATOM     97  O   UNL A   1      46.151  37.907  29.778  1.00  0.00    -0.744 OA
ENDBRANCH  93  94
ENDBRANCH  65  88
BRANCH  77  98
ATOM     98  C   UNL A   1      51.223  28.111  25.675  1.00  0.00    -0.014 A 
ATOM     99  C   UNL A   1      52.095  27.300  26.422  1.00  0.00     0.010 A 
ATOM    100  C   UNL A   1      51.732  28.842  24.585  1.00  0.00     0.010 A 
ATOM    101  C   UNL A   1      53.455  27.243  26.102  1.00  0.00     0.020 A 
ATOM    102  C   UNL A   1      53.086  28.768  24.246  1.00  0.00     0.020 A 
ATOM    103  C   UNL A   1      53.942  27.978  25.017  1.00  0.00     0.054 A 
BRANCH 103 104
ATOM    104  S   UNL A   1      55.703  27.855  24.596  1.00  0.00     0.124 S 
ATOM    105  O   UNL A   1      55.945  29.130  23.928  1.00  0.00    -0.237 OA
ATOM    106  O   UNL A   1      56.335  27.700  25.903  1.00  0.00    -0.237 OA
ATOM    107  O   UNL A   1      55.771  26.677  23.733  1.00  0.00    -0.744 OA
ENDBRANCH 103 104
ENDBRANCH  77  98
ENDBRANCH  51  52
ENDBRANCH  44  46
ENDBRANCH  43  44
ENDBRANCH  42  43
ENDBRANCH  41  42
ENDBRANCH   1  41
TORSDOF 23
ENDMDL
MODEL 3
REMARK VINA RESULT:      -8.2      5.418      9.281
REMARK SMILES CC1CC[NH+]([C@H](c2ccc(F)cc2)c2ccc([C@@H](C)C(=O)OCCOCCOC(=O)c3ccc(-c4c5nc(c(-c6ccc(S(=O)(=O)[O-])cc6)c6ccc([nH]6)c(-c6ccc(S(=O)(=O)[O-])cc6)c6nc(c(-c7ccc(S(=O)(=O)[O-])cc7)c7ccc4[nH]7)C=C6)C=C5)cc3)cc2-c2ccc(C(F)(F)F)cc2)CC1
REMARK SMILES IDX 25 1 24 2 23 3 22 4 20 5 21 6 18 7 19 8 17 9 14 10 15 11
REMARK SMILES IDX 92 12 16 13 91 14 6 15 5 16 1 17 2 18 3 19 104 20 4 21
REMARK SMILES IDX 103 22 7 24 8 25 13 26 9 27 12 28 10 29 11 30 93 31 94 32
REMARK SMILES IDX 102 33 95 34 101 35 96 36 97 37 98 38 99 39 100 40 26 41
REMARK SMILES IDX 27 42 28 43 29 44 30 45 31 46 32 47 90 48 33 49 89 50 34 51
REMARK SMILES IDX 35 52 36 53 83 54 37 55 88 56 82 57 84 58 38 59 87 60 81 61
REMARK SMILES IDX 80 62 39 64 69 65 50 66 68 67 51 68 54 69 67 70 85 71 52 72
REMARK SMILES IDX 53 73 66 75 86 76 55 77 40 78 41 79 49 80 42 81 48 82 43 83
REMARK SMILES IDX 44 84 45 85 46 86 47 87 70 88 71 89 79 90 72 91 78 92 73 93
REMARK SMILES IDX 74 94 75 95 76 96 77 97 56 98 57 99 65 100 58 101 64 102
REMARK SMILES IDX 59 103 60 104 61 105 62 106 63 107
REMARK H PARENT 5 23 84 63 54 74
REMARK Flexibility Score: inf
ROOT
ATOM      1  O   UNL A   1      47.611  21.920  35.419  1.00  0.00    -0.374 OA
ENDROOT
BRANCH   1   2
ATOM      2  C   UNL A   1      46.311  21.532  35.868  1.00  0.00     0.202 C 
BRANCH   2   3
ATOM      3  C   UNL A   1      45.265  22.650  35.901  1.00  0.00     0.261 C 
BRANCH   3   4
ATOM      4  O   UNL A   1      44.715  22.872  34.588  1.00  0.00    -0.463 OA
BRANCH   4   5
ATOM      5  C   UNL A   1      43.755  23.826  34.482  1.00  0.00     0.313 C 
ATOM      6  O   UNL A   1      42.552  23.618  34.607  1.00  0.00    -0.252 OA
BRANCH   5   7
ATOM      7  C   UNL A   1      44.307  25.205  34.142  1.00  0.00     0.126 C 
ATOM      8  C   UNL A   1      43.758  26.229  35.132  1.00  0.00     0.025 C 
BRANCH   7   9
ATOM      9  C   UNL A   1      44.175  25.678  32.697  1.00  0.00    -0.033 A 
ATOM     10  C   UNL A   1      43.752  26.535  29.976  1.00  0.00     0.022 A 
ATOM     11  C   UNL A   1      44.636  25.489  30.316  1.00  0.00     0.011 A 
ATOM     12  C   UNL A   1      43.101  27.198  31.057  1.00  0.00    -0.009 A 
ATOM     13  C   UNL A   1      44.824  25.053  31.635  1.00  0.00     0.005 A 
ATOM     14  C   UNL A   1      43.333  26.759  32.387  1.00  0.00     0.013 A 
BRANCH  10  15
ATOM     15  C   UNL A   1      43.465  26.926  28.493  1.00  0.00     0.247 C 
BRANCH  15  16
ATOM     16  N   UNL A   1      43.393  25.849  27.452  1.00  0.00    -0.325 N 
ATOM     17  C   UNL A   1      43.792  21.742  25.911  1.00  0.00     0.008 C 
ATOM     18  C   UNL A   1      43.748  23.030  26.726  1.00  0.00    -0.003 C 
ATOM     19  C   UNL A   1      42.344  23.630  26.782  1.00  0.00     0.065 C 
ATOM     20  C   UNL A   1      44.658  24.095  26.126  1.00  0.00     0.065 C 
ATOM     21  C   UNL A   1      42.309  24.884  27.665  1.00  0.00     0.263 C 
ATOM     22  C   UNL A   1      44.688  25.334  27.015  1.00  0.00     0.263 C 
ATOM     23  H   UNL A   1      43.084  26.311  26.597  1.00  0.00     0.348 HD
ENDBRANCH  15  16
BRANCH  15  24
ATOM     24  C   UNL A   1      44.309  28.117  28.000  1.00  0.00     0.014 A 
ATOM     25  C   UNL A   1      45.624  28.331  28.451  1.00  0.00     0.013 A 
ATOM     26  C   UNL A   1      43.771  29.013  27.054  1.00  0.00     0.013 A 
ATOM     27  C   UNL A   1      46.374  29.412  27.985  1.00  0.00     0.040 A 
ATOM     28  C   UNL A   1      44.514  30.106  26.605  1.00  0.00     0.040 A 
ATOM     29  C   UNL A   1      45.808  30.294  27.073  1.00  0.00     0.123 A 
ATOM     30  F   UNL A   1      46.521  31.340  26.636  1.00  0.00    -0.207 F 
ENDBRANCH  15  24
ENDBRANCH  10  15
BRANCH  12  31
ATOM     31  C   UNL A   1      42.192  28.348  30.880  1.00  0.00    -0.018 A 
ATOM     32  C   UNL A   1      42.699  29.588  30.458  1.00  0.00     0.009 A 
ATOM     33  C   UNL A   1      40.816  28.244  31.125  1.00  0.00     0.009 A 
ATOM     34  C   UNL A   1      41.850  30.679  30.243  1.00  0.00     0.014 A 
ATOM     35  C   UNL A   1      39.963  29.331  30.902  1.00  0.00     0.014 A 
ATOM     36  C   UNL A   1      40.469  30.555  30.444  1.00  0.00     0.056 A 
BRANCH  36  37
ATOM     37  C   UNL A   1      39.560  31.731  30.184  1.00  0.00     0.416 C 
ATOM     38  F   UNL A   1      38.790  32.041  31.264  1.00  0.00    -0.166 F 
ATOM     39  F   UNL A   1      40.242  32.869  29.875  1.00  0.00    -0.166 F 
ATOM     40  F   UNL A   1      38.691  31.528  29.154  1.00  0.00    -0.166 F 
ENDBRANCH  36  37
ENDBRANCH  12  31
ENDBRANCH   7   9
ENDBRANCH   5   7
ENDBRANCH   4   5
ENDBRANCH   3   4
ENDBRANCH   2   3
ENDBRANCH   1   2
BRANCH   1  41
ATOM     41  C   UNL A   1      48.494  22.452  36.404  1.00  0.00     0.202 C 
BRANCH  41  42
ATOM     42  C   UNL A   1      49.459  23.543  35.927  1.00  0.00     0.261 C 
BRANCH  42  43
ATOM     43  O   UNL A   1      49.219  23.935  34.565  1.00  0.00    -0.460 OA
BRANCH  43  44
ATOM     44  C   UNL A   1      49.968  24.977  34.129  1.00  0.00     0.338 C 
ATOM     45  O   UNL A   1      51.170  24.973  33.898  1.00  0.00    -0.246 OA
BRANCH  44  46
ATOM     46  C   UNL A   1      49.098  26.126  33.811  1.00  0.00     0.060 A 
ATOM     47  C   UNL A   1      48.232  26.024  32.718  1.00  0.00     0.016 A 
ATOM     48  C   UNL A   1      49.166  27.312  34.540  1.00  0.00     0.016 A 
ATOM     49  C   UNL A   1      47.474  27.128  32.321  1.00  0.00     0.010 A 
ATOM     50  C   UNL A   1      48.396  28.412  34.155  1.00  0.00     0.010 A 
ATOM     51  C   UNL A   1      47.580  28.341  33.015  1.00  0.00    -0.014 A 
BRANCH  51  52
ATOM     52  C   UNL A   1      46.957  29.573  32.471  1.00  0.00     0.031 A 
ATOM     53  C   UNL A   1      47.673  30.342  31.390  1.00  0.00     0.074 A 
ATOM     54  C   UNL A   1      45.771  30.007  32.932  1.00  0.00     0.049 A 
ATOM     55  N   UNL A   1      47.309  31.436  30.772  1.00  0.00    -0.248 NA
ATOM     56  C   UNL A   1      48.975  29.810  30.955  1.00  0.00     0.031 C 
ATOM     57  C   UNL A   1      44.980  29.357  33.976  1.00  0.00     0.029 A 
ATOM     58  N   UNL A   1      45.027  31.105  32.578  1.00  0.00    -0.354 N 
ATOM     59  C   UNL A   1      48.338  31.728  29.885  1.00  0.00     0.074 A 
ATOM     60  C   UNL A   1      49.359  30.721  30.074  1.00  0.00     0.031 C 
ATOM     61  C   UNL A   1      43.859  30.070  34.179  1.00  0.00     0.029 A 
ATOM     62  C   UNL A   1      43.864  31.236  33.297  1.00  0.00     0.049 A 
ATOM     63  H   UNL A   1      45.301  31.739  31.876  1.00  0.00     0.167 HD
ATOM     64  C   UNL A   1      48.423  32.737  28.983  1.00  0.00     0.031 A 
ATOM     65  C   UNL A   1      42.913  32.190  33.256  1.00  0.00     0.031 A 
ATOM     66  C   UNL A   1      47.410  33.742  28.799  1.00  0.00     0.049 A 
ATOM     67  C   UNL A   1      43.039  33.320  32.270  1.00  0.00     0.074 A 
ATOM     68  C   UNL A   1      47.382  34.777  27.882  1.00  0.00     0.029 A 
ATOM     69  N   UNL A   1      46.252  33.845  29.555  1.00  0.00    -0.354 N 
ATOM     70  N   UNL A   1      43.991  33.549  31.396  1.00  0.00    -0.248 NA
ATOM     71  C   UNL A   1      41.955  34.314  32.255  1.00  0.00     0.031 C 
ATOM     72  C   UNL A   1      46.233  35.539  28.119  1.00  0.00     0.029 A 
ATOM     73  C   UNL A   1      45.516  34.944  29.144  1.00  0.00     0.049 A 
ATOM     74  H   UNL A   1      45.991  33.227  30.276  1.00  0.00     0.167 HD
ATOM     75  C   UNL A   1      43.609  34.699  30.711  1.00  0.00     0.074 A 
ATOM     76  C   UNL A   1      42.335  35.111  31.265  1.00  0.00     0.031 C 
ATOM     77  C   UNL A   1      44.254  35.350  29.712  1.00  0.00     0.031 A 
BRANCH  64  78
ATOM     78  C   UNL A   1      49.673  32.812  28.147  1.00  0.00    -0.014 A 
ATOM     79  C   UNL A   1      50.797  33.543  28.576  1.00  0.00     0.010 A 
ATOM     80  C   UNL A   1      49.730  32.132  26.916  1.00  0.00     0.010 A 
ATOM     81  C   UNL A   1      51.932  33.636  27.766  1.00  0.00     0.020 A 
ATOM     82  C   UNL A   1      50.874  32.199  26.117  1.00  0.00     0.020 A 
ATOM     83  C   UNL A   1      51.960  32.970  26.537  1.00  0.00     0.054 A 
BRANCH  83  84
ATOM     84  S   UNL A   1      53.443  33.111  25.503  1.00  0.00     0.124 S 
ATOM     85  O   UNL A   1      54.484  33.343  26.502  1.00  0.00    -0.237 OA
ATOM     86  O   UNL A   1      53.494  31.814  24.833  1.00  0.00    -0.237 OA
ATOM     87  O   UNL A   1      53.151  34.249  24.633  1.00  0.00    -0.744 OA
ENDBRANCH  83  84
ENDBRANCH  64  78
BRANCH  65  88
ATOM     88  C   UNL A   1      41.751  32.105  34.182  1.00  0.00    -0.014 A 
ATOM     89  C   UNL A   1      41.720  32.861  35.366  1.00  0.00     0.010 A 
ATOM     90  C   UNL A   1      40.648  31.294  33.856  1.00  0.00     0.010 A 
ATOM     91  C   UNL A   1      40.604  32.810  36.208  1.00  0.00     0.020 A 
ATOM     92  C   UNL A   1      39.522  31.260  34.683  1.00  0.00     0.020 A 
ATOM     93  C   UNL A   1      39.510  32.016  35.856  1.00  0.00     0.054 A 
BRANCH  93  94
ATOM     94  S   UNL A   1      38.037  32.037  36.917  1.00  0.00     0.124 S 
ATOM     95  O   UNL A   1      37.064  32.723  36.074  1.00  0.00    -0.237 OA
ATOM     96  O   UNL A   1      37.790  30.614  37.141  1.00  0.00    -0.237 OA
ATOM     97  O   UNL A   1      38.478  32.776  38.098  1.00  0.00    -0.744 OA
ENDBRANCH  93  94
ENDBRANCH  65  88
BRANCH  77  98
ATOM     98  C   UNL A   1      43.585  36.568  29.130  1.00  0.00    -0.014 A 
ATOM     99  C   UNL A   1      43.850  37.854  29.630  1.00  0.00     0.010 A 
ATOM    100  C   UNL A   1      42.725  36.425  28.025  1.00  0.00     0.010 A 
ATOM    101  C   UNL A   1      43.243  38.975  29.054  1.00  0.00     0.020 A 
ATOM    102  C   UNL A   1      42.137  37.545  27.430  1.00  0.00     0.020 A 
ATOM    103  C   UNL A   1      42.390  38.813  27.959  1.00  0.00     0.054 A 
BRANCH 103 104
ATOM    104  S   UNL A   1      41.648  40.286  27.202  1.00  0.00     0.124 S 
ATOM    105  O   UNL A   1      40.896  40.854  28.317  1.00  0.00    -0.237 OA
ATOM    106  O   UNL A   1      42.817  41.052  26.777  1.00  0.00    -0.237 OA
ATOM    107  O   UNL A   1      40.836  39.744  26.114  1.00  0.00    -0.744 OA
ENDBRANCH 103 104
ENDBRANCH  77  98
ENDBRANCH  51  52
ENDBRANCH  44  46
ENDBRANCH  43  44
ENDBRANCH  42  43
ENDBRANCH  41  42
ENDBRANCH   1  41
TORSDOF 23
ENDMDL
