MODEL 1
REMARK VINA RESULT:      -8.5      0.000      0.000
REMARK SMILES O=C(OCCOCCOC(=O)C1(C/C=C/c2ccccc2)CCCCC1)c1ccc(-c2c3nc(c(-c4ccc(S(=O)(=O)[O-])cc4)c4ccc([nH]4)c(-c4ccc(S(=O)(=O)[O-])cc4)c4nc(c(-c5ccc(S(=O)(=O)[O-])cc5)c5ccc2[nH]5)C=C4)C=C3)cc1
REMARK SMILES IDX 6 1 5 2 4 3 3 4 2 5 1 6 27 7 28 8 86 9 29 10 85 11 30 12
REMARK SMILES IDX 31 13 32 14 79 15 33 16 84 17 78 18 80 19 34 20 83 21 77 22
REMARK SMILES IDX 76 23 35 25 65 26 46 27 64 28 47 29 50 30 63 31 81 32 48 33
REMARK SMILES IDX 49 34 62 36 82 37 51 38 36 39 37 40 45 41 38 42 44 43 39 44
REMARK SMILES IDX 40 45 41 46 42 47 43 48 66 49 67 50 75 51 68 52 74 53 69 54
REMARK SMILES IDX 70 55 71 56 72 57 73 58 52 59 53 60 61 61 54 62 60 63 55 64
REMARK SMILES IDX 56 65 57 66 58 67 59 68 7 69 8 70 9 71 10 72 11 73 12 74
REMARK SMILES IDX 22 75 26 76 23 77 25 78 24 79 13 80 14 81 15 82 16 83 17 84
REMARK SMILES IDX 21 85 18 86 20 87 19 88
REMARK H PARENT 80 24 50 35
REMARK Flexibility Score: inf
ROOT
ATOM      1  O   UNL A   1      33.560  34.196  29.837  1.00  0.00    -0.374 OA
ENDROOT
BRANCH   1   2
ATOM      2  C   UNL A   1      34.691  33.685  29.135  1.00  0.00     0.202 C 
BRANCH   2   3
ATOM      3  C   UNL A   1      34.434  32.700  27.991  1.00  0.00     0.261 C 
BRANCH   3   4
ATOM      4  O   UNL A   1      34.123  31.398  28.516  1.00  0.00    -0.460 OA
BRANCH   4   5
ATOM      5  C   UNL A   1      34.665  30.223  28.110  1.00  0.00     0.338 C 
ATOM      6  O   UNL A   1      33.966  29.404  27.518  1.00  0.00    -0.246 OA
BRANCH   5   7
ATOM      7  C   UNL A   1      36.103  29.916  28.326  1.00  0.00     0.060 A 
ATOM      8  C   UNL A   1      37.073  30.063  27.336  1.00  0.00     0.016 A 
ATOM      9  C   UNL A   1      36.513  29.518  29.601  1.00  0.00     0.016 A 
ATOM     10  C   UNL A   1      38.389  29.766  27.544  1.00  0.00     0.010 A 
ATOM     11  C   UNL A   1      37.865  29.271  29.852  1.00  0.00     0.010 A 
ATOM     12  C   UNL A   1      38.794  29.404  28.812  1.00  0.00    -0.014 A 
BRANCH  12  13
ATOM     13  C   UNL A   1      40.212  29.087  28.932  1.00  0.00     0.031 A 
ATOM     14  C   UNL A   1      41.096  30.127  29.521  1.00  0.00     0.074 A 
ATOM     15  C   UNL A   1      40.603  27.820  28.708  1.00  0.00     0.049 A 
ATOM     16  N   UNL A   1      42.389  30.120  29.645  1.00  0.00    -0.248 NA
ATOM     17  C   UNL A   1      40.437  31.334  30.059  1.00  0.00     0.031 C 
ATOM     18  C   UNL A   1      39.713  26.705  28.347  1.00  0.00     0.029 A 
ATOM     19  N   UNL A   1      41.834  27.240  28.794  1.00  0.00    -0.354 N 
ATOM     20  C   UNL A   1      42.709  31.349  30.202  1.00  0.00     0.074 A 
ATOM     21  C   UNL A   1      41.476  32.064  30.430  1.00  0.00     0.031 C 
ATOM     22  C   UNL A   1      40.432  25.579  28.249  1.00  0.00     0.029 A 
ATOM     23  C   UNL A   1      41.836  25.914  28.432  1.00  0.00     0.049 A 
ATOM     24  H   UNL A   1      42.641  27.722  29.086  1.00  0.00     0.167 HD
ATOM     25  C   UNL A   1      43.944  31.826  30.452  1.00  0.00     0.031 A 
ATOM     26  C   UNL A   1      42.877  25.097  28.200  1.00  0.00     0.031 A 
ATOM     27  C   UNL A   1      45.126  31.053  30.193  1.00  0.00     0.049 A 
ATOM     28  C   UNL A   1      44.246  25.696  28.367  1.00  0.00     0.074 A 
ATOM     29  C   UNL A   1      46.448  31.421  30.332  1.00  0.00     0.029 A 
ATOM     30  N   UNL A   1      45.113  29.740  29.733  1.00  0.00    -0.354 N 
ATOM     31  N   UNL A   1      44.568  26.895  28.802  1.00  0.00    -0.248 NA
ATOM     32  C   UNL A   1      45.387  24.859  27.992  1.00  0.00     0.031 C 
ATOM     33  C   UNL A   1      47.234  30.351  29.892  1.00  0.00     0.029 A 
ATOM     34  C   UNL A   1      46.403  29.291  29.549  1.00  0.00     0.049 A 
ATOM     35  H   UNL A   1      44.300  29.210  29.565  1.00  0.00     0.167 HD
ATOM     36  C   UNL A   1      45.952  26.953  28.763  1.00  0.00     0.074 A 
ATOM     37  C   UNL A   1      46.404  25.657  28.286  1.00  0.00     0.031 C 
ATOM     38  C   UNL A   1      46.781  27.979  29.080  1.00  0.00     0.031 A 
BRANCH  25  39
ATOM     39  C   UNL A   1      44.054  33.256  30.892  1.00  0.00    -0.014 A 
ATOM     40  C   UNL A   1      43.454  33.725  32.073  1.00  0.00     0.010 A 
ATOM     41  C   UNL A   1      44.757  34.160  30.074  1.00  0.00     0.010 A 
ATOM     42  C   UNL A   1      43.536  35.079  32.415  1.00  0.00     0.020 A 
ATOM     43  C   UNL A   1      44.864  35.507  30.425  1.00  0.00     0.020 A 
ATOM     44  C   UNL A   1      44.241  35.961  31.589  1.00  0.00     0.054 A 
BRANCH  44  45
ATOM     45  S   UNL A   1      44.360  37.704  32.073  1.00  0.00     0.124 S 
ATOM     46  O   UNL A   1      45.797  37.949  31.970  1.00  0.00    -0.237 OA
ATOM     47  O   UNL A   1      43.536  38.371  31.067  1.00  0.00    -0.237 OA
ATOM     48  O   UNL A   1      43.821  37.726  33.430  1.00  0.00    -0.744 OA
ENDBRANCH  44  45
ENDBRANCH  25  39
BRANCH  26  49
ATOM     49  C   UNL A   1      42.663  23.720  27.676  1.00  0.00    -0.014 A 
ATOM     50  C   UNL A   1      42.554  23.474  26.299  1.00  0.00     0.010 A 
ATOM     51  C   UNL A   1      42.556  22.632  28.568  1.00  0.00     0.010 A 
ATOM     52  C   UNL A   1      42.313  22.178  25.825  1.00  0.00     0.020 A 
ATOM     53  C   UNL A   1      42.351  21.332  28.099  1.00  0.00     0.020 A 
ATOM     54  C   UNL A   1      42.210  21.116  26.730  1.00  0.00     0.054 A 
BRANCH  54  55
ATOM     55  S   UNL A   1      41.902  19.445  26.092  1.00  0.00     0.124 S 
ATOM     56  O   UNL A   1      42.740  19.417  24.898  1.00  0.00    -0.237 OA
ATOM     57  O   UNL A   1      42.344  18.599  27.197  1.00  0.00    -0.237 OA
ATOM     58  O   UNL A   1      40.461  19.433  25.846  1.00  0.00    -0.744 OA
ENDBRANCH  54  55
ENDBRANCH  26  49
BRANCH  38  59
ATOM     59  C   UNL A   1      48.251  27.716  28.954  1.00  0.00    -0.014 A 
ATOM     60  C   UNL A   1      48.948  28.051  27.781  1.00  0.00     0.010 A 
ATOM     61  C   UNL A   1      48.953  27.220  30.066  1.00  0.00     0.010 A 
ATOM     62  C   UNL A   1      50.330  27.879  27.719  1.00  0.00     0.020 A 
ATOM     63  C   UNL A   1      50.339  27.081  30.020  1.00  0.00     0.020 A 
ATOM     64  C   UNL A   1      51.017  27.406  28.842  1.00  0.00     0.054 A 
BRANCH  64  65
ATOM     65  S   UNL A   1      52.821  27.278  28.764  1.00  0.00     0.124 S 
ATOM     66  O   UNL A   1      53.004  26.101  27.920  1.00  0.00    -0.237 OA
ATOM     67  O   UNL A   1      53.205  28.552  28.161  1.00  0.00    -0.237 OA
ATOM     68  O   UNL A   1      53.217  27.111  30.161  1.00  0.00    -0.744 OA
ENDBRANCH  64  65
ENDBRANCH  38  59
ENDBRANCH  12  13
ENDBRANCH   5   7
ENDBRANCH   4   5
ENDBRANCH   3   4
ENDBRANCH   2   3
ENDBRANCH   1   2
BRANCH   1  69
ATOM     69  C   UNL A   1      33.818  35.173  30.848  1.00  0.00     0.202 C 
BRANCH  69  70
ATOM     70  C   UNL A   1      34.143  34.481  32.167  1.00  0.00     0.261 C 
BRANCH  70  71
ATOM     71  O   UNL A   1      35.309  35.116  32.723  1.00  0.00    -0.463 OA
BRANCH  71  72
ATOM     72  C   UNL A   1      35.770  34.522  33.865  1.00  0.00     0.312 C 
ATOM     73  O   UNL A   1      35.165  34.554  34.921  1.00  0.00    -0.252 OA
BRANCH  72  74
ATOM     74  C   UNL A   1      37.150  33.860  33.638  1.00  0.00     0.071 C 
ATOM     75  C   UNL A   1      37.890  34.526  32.436  1.00  0.00     0.019 C 
ATOM     76  C   UNL A   1      37.941  34.095  34.945  1.00  0.00     0.019 C 
ATOM     77  C   UNL A   1      39.394  34.309  32.372  1.00  0.00     0.001 C 
ATOM     78  C   UNL A   1      39.441  33.851  34.821  1.00  0.00     0.001 C 
ATOM     79  C   UNL A   1      40.050  34.667  33.689  1.00  0.00     0.000 C 
BRANCH  74  80
ATOM     80  C   UNL A   1      36.968  32.346  33.271  1.00  0.00     0.046 C 
BRANCH  80  81
ATOM     81  C   UNL A   1      38.215  31.588  32.894  1.00  0.00    -0.025 C 
ATOM     82  C   UNL A   1      38.607  30.471  33.535  1.00  0.00     0.004 C 
BRANCH  82  83
ATOM     83  C   UNL A   1      39.954  29.907  33.387  1.00  0.00    -0.026 A 
ATOM     84  C   UNL A   1      41.079  30.638  33.772  1.00  0.00     0.008 A 
ATOM     85  C   UNL A   1      40.130  28.669  32.753  1.00  0.00     0.008 A 
ATOM     86  C   UNL A   1      42.361  30.117  33.566  1.00  0.00     0.001 A 
ATOM     87  C   UNL A   1      41.407  28.151  32.542  1.00  0.00     0.001 A 
ATOM     88  C   UNL A   1      42.524  28.873  32.956  1.00  0.00     0.000 A 
ENDBRANCH  82  83
ENDBRANCH  80  81
ENDBRANCH  74  80
ENDBRANCH  72  74
ENDBRANCH  71  72
ENDBRANCH  70  71
ENDBRANCH  69  70
ENDBRANCH   1  69
TORSDOF 20
ENDMDL
MODEL 2
REMARK VINA RESULT:      -8.5      4.148      7.519
REMARK SMILES O=C(OCCOCCOC(=O)C1(C/C=C/c2ccccc2)CCCCC1)c1ccc(-c2c3nc(c(-c4ccc(S(=O)(=O)[O-])cc4)c4ccc([nH]4)c(-c4ccc(S(=O)(=O)[O-])cc4)c4nc(c(-c5ccc(S(=O)(=O)[O-])cc5)c5ccc2[nH]5)C=C4)C=C3)cc1
REMARK SMILES IDX 6 1 5 2 4 3 3 4 2 5 1 6 27 7 28 8 86 9 29 10 85 11 30 12
REMARK SMILES IDX 31 13 32 14 79 15 33 16 84 17 78 18 80 19 34 20 83 21 77 22
REMARK SMILES IDX 76 23 35 25 65 26 46 27 64 28 47 29 50 30 63 31 81 32 48 33
REMARK SMILES IDX 49 34 62 36 82 37 51 38 36 39 37 40 45 41 38 42 44 43 39 44
REMARK SMILES IDX 40 45 41 46 42 47 43 48 66 49 67 50 75 51 68 52 74 53 69 54
REMARK SMILES IDX 70 55 71 56 72 57 73 58 52 59 53 60 61 61 54 62 60 63 55 64
REMARK SMILES IDX 56 65 57 66 58 67 59 68 7 69 8 70 9 71 10 72 11 73 12 74
REMARK SMILES IDX 22 75 26 76 23 77 25 78 24 79 13 80 14 81 15 82 16 83 17 84
REMARK SMILES IDX 21 85 18 86 20 87 19 88
REMARK H PARENT 80 24 50 35
REMARK Flexibility Score: inf
ROOT
ATOM      1  O   UNL A   1      31.294  29.023  24.877  1.00  0.00    -0.374 OA
ENDROOT
BRANCH   1   2
ATOM      2  C   UNL A   1      32.093  29.988  25.558  1.00  0.00     0.202 C 
BRANCH   2   3
ATOM      3  C   UNL A   1      33.268  29.476  26.396  1.00  0.00     0.261 C 
BRANCH   3   4
ATOM      4  O   UNL A   1      33.441  30.297  27.563  1.00  0.00    -0.460 OA
BRANCH   4   5
ATOM      5  C   UNL A   1      34.433  31.198  27.766  1.00  0.00     0.338 C 
ATOM      6  O   UNL A   1      34.257  32.375  27.460  1.00  0.00    -0.246 OA
BRANCH   5   7
ATOM      7  C   UNL A   1      35.722  30.805  28.394  1.00  0.00     0.060 A 
ATOM      8  C   UNL A   1      35.872  29.664  29.179  1.00  0.00     0.016 A 
ATOM      9  C   UNL A   1      36.853  31.584  28.134  1.00  0.00     0.016 A 
ATOM     10  C   UNL A   1      37.059  29.321  29.761  1.00  0.00     0.010 A 
ATOM     11  C   UNL A   1      38.090  31.214  28.667  1.00  0.00     0.010 A 
ATOM     12  C   UNL A   1      38.179  30.075  29.476  1.00  0.00    -0.014 A 
BRANCH  12  13
ATOM     13  C   UNL A   1      39.393  29.643  30.158  1.00  0.00     0.031 A 
ATOM     14  C   UNL A   1      39.703  30.278  31.467  1.00  0.00     0.074 A 
ATOM     15  C   UNL A   1      40.042  28.565  29.684  1.00  0.00     0.049 A 
ATOM     16  N   UNL A   1      40.758  30.134  32.210  1.00  0.00    -0.248 NA
ATOM     17  C   UNL A   1      38.682  31.188  32.023  1.00  0.00     0.031 C 
ATOM     18  C   UNL A   1      39.629  27.768  28.518  1.00  0.00     0.029 A 
ATOM     19  N   UNL A   1      41.154  27.922  30.142  1.00  0.00    -0.354 N 
ATOM     20  C   UNL A   1      40.566  30.990  33.284  1.00  0.00     0.074 A 
ATOM     21  C   UNL A   1      39.280  31.623  33.120  1.00  0.00     0.031 C 
ATOM     22  C   UNL A   1      40.477  26.742  28.361  1.00  0.00     0.029 A 
ATOM     23  C   UNL A   1      41.543  26.874  29.342  1.00  0.00     0.049 A 
ATOM     24  H   UNL A   1      41.630  28.182  30.963  1.00  0.00     0.167 HD
ATOM     25  C   UNL A   1      41.433  31.234  34.287  1.00  0.00     0.031 A 
ATOM     26  C   UNL A   1      42.683  26.163  29.367  1.00  0.00     0.031 A 
ATOM     27  C   UNL A   1      42.700  30.565  34.380  1.00  0.00     0.049 A 
ATOM     28  C   UNL A   1      43.685  26.545  30.422  1.00  0.00     0.074 A 
ATOM     29  C   UNL A   1      43.712  30.752  35.298  1.00  0.00     0.029 A 
ATOM     30  N   UNL A   1      43.121  29.571  33.502  1.00  0.00    -0.354 N 
ATOM     31  N   UNL A   1      43.559  27.425  31.390  1.00  0.00    -0.248 NA
ATOM     32  C   UNL A   1      44.982  25.868  30.378  1.00  0.00     0.031 C 
ATOM     33  C   UNL A   1      44.773  29.916  34.934  1.00  0.00     0.029 A 
ATOM     34  C   UNL A   1      44.393  29.157  33.834  1.00  0.00     0.049 A 
ATOM     35  H   UNL A   1      42.588  29.217  32.754  1.00  0.00     0.167 HD
ATOM     36  C   UNL A   1      44.760  27.402  32.081  1.00  0.00     0.074 A 
ATOM     37  C   UNL A   1      45.588  26.400  31.432  1.00  0.00     0.031 C 
ATOM     38  C   UNL A   1      45.157  28.142  33.147  1.00  0.00     0.031 A 
BRANCH  25  39
ATOM     39  C   UNL A   1      41.085  32.337  35.245  1.00  0.00    -0.014 A 
ATOM     40  C   UNL A   1      41.364  33.686  34.967  1.00  0.00     0.010 A 
ATOM     41  C   UNL A   1      40.487  31.998  36.473  1.00  0.00     0.010 A 
ATOM     42  C   UNL A   1      41.073  34.674  35.913  1.00  0.00     0.020 A 
ATOM     43  C   UNL A   1      40.170  32.984  37.408  1.00  0.00     0.020 A 
ATOM     44  C   UNL A   1      40.477  34.316  37.127  1.00  0.00     0.054 A 
BRANCH  44  45
ATOM     45  S   UNL A   1      40.079  35.621  38.321  1.00  0.00     0.124 S 
ATOM     46  O   UNL A   1      39.908  36.784  37.452  1.00  0.00    -0.237 OA
ATOM     47  O   UNL A   1      38.857  35.120  38.946  1.00  0.00    -0.237 OA
ATOM     48  O   UNL A   1      41.250  35.664  39.194  1.00  0.00    -0.744 OA
ENDBRANCH  44  45
ENDBRANCH  25  39
BRANCH  26  49
ATOM     49  C   UNL A   1      42.973  25.152  28.313  1.00  0.00    -0.014 A 
ATOM     50  C   UNL A   1      42.690  23.792  28.512  1.00  0.00     0.010 A 
ATOM     51  C   UNL A   1      43.552  25.551  27.091  1.00  0.00     0.010 A 
ATOM     52  C   UNL A   1      43.006  22.849  27.526  1.00  0.00     0.020 A 
ATOM     53  C   UNL A   1      43.838  24.618  26.090  1.00  0.00     0.020 A 
ATOM     54  C   UNL A   1      43.580  23.269  26.322  1.00  0.00     0.054 A 
BRANCH  54  55
ATOM     55  S   UNL A   1      43.978  22.028  25.058  1.00  0.00     0.124 S 
ATOM     56  O   UNL A   1      43.140  20.905  25.463  1.00  0.00    -0.237 OA
ATOM     57  O   UNL A   1      43.583  22.700  23.823  1.00  0.00    -0.237 OA
ATOM     58  O   UNL A   1      45.416  21.826  25.216  1.00  0.00    -0.744 OA
ENDBRANCH  54  55
ENDBRANCH  26  49
BRANCH  38  59
ATOM     59  C   UNL A   1      46.525  27.859  33.688  1.00  0.00    -0.014 A 
ATOM     60  C   UNL A   1      47.641  28.593  33.252  1.00  0.00     0.010 A 
ATOM     61  C   UNL A   1      46.670  26.913  34.718  1.00  0.00     0.010 A 
ATOM     62  C   UNL A   1      48.889  28.373  33.833  1.00  0.00     0.020 A 
ATOM     63  C   UNL A   1      47.909  26.717  35.325  1.00  0.00     0.020 A 
ATOM     64  C   UNL A   1      49.012  27.445  34.872  1.00  0.00     0.054 A 
BRANCH  64  65
ATOM     65  S   UNL A   1      50.625  27.245  35.669  1.00  0.00     0.124 S 
ATOM     66  O   UNL A   1      50.311  27.537  37.065  1.00  0.00    -0.237 OA
ATOM     67  O   UNL A   1      50.955  25.852  35.375  1.00  0.00    -0.237 OA
ATOM     68  O   UNL A   1      51.467  28.234  34.999  1.00  0.00    -0.744 OA
ENDBRANCH  64  65
ENDBRANCH  38  59
ENDBRANCH  12  13
ENDBRANCH   5   7
ENDBRANCH   4   5
ENDBRANCH   3   4
ENDBRANCH   2   3
ENDBRANCH   1   2
BRANCH   1  69
ATOM     69  C   UNL A   1      31.905  27.761  24.601  1.00  0.00     0.202 C 
BRANCH  69  70
ATOM     70  C   UNL A   1      32.672  27.831  23.285  1.00  0.00     0.261 C 
BRANCH  70  71
ATOM     71  O   UNL A   1      33.736  26.863  23.343  1.00  0.00    -0.463 OA
BRANCH  71  72
ATOM     72  C   UNL A   1      33.519  25.757  22.567  1.00  0.00     0.312 C 
ATOM     73  O   UNL A   1      33.516  25.789  21.350  1.00  0.00    -0.252 OA
BRANCH  72  74
ATOM     74  C   UNL A   1      33.242  24.507  23.436  1.00  0.00     0.071 C 
ATOM     75  C   UNL A   1      33.560  24.796  24.936  1.00  0.00     0.019 C 
ATOM     76  C   UNL A   1      31.736  24.206  23.260  1.00  0.00     0.019 C 
ATOM     77  C   UNL A   1      32.930  23.851  25.947  1.00  0.00     0.001 C 
ATOM     78  C   UNL A   1      31.164  23.246  24.296  1.00  0.00     0.001 C 
ATOM     79  C   UNL A   1      31.439  23.724  25.716  1.00  0.00     0.000 C 
BRANCH  74  80
ATOM     80  C   UNL A   1      34.179  23.328  22.997  1.00  0.00     0.046 C 
BRANCH  80  81
ATOM     81  C   UNL A   1      35.566  23.312  23.585  1.00  0.00    -0.025 C 
ATOM     82  C   UNL A   1      35.922  22.481  24.582  1.00  0.00     0.004 C 
BRANCH  82  83
ATOM     83  C   UNL A   1      37.153  22.663  25.361  1.00  0.00    -0.026 A 
ATOM     84  C   UNL A   1      37.432  23.886  25.977  1.00  0.00     0.008 A 
ATOM     85  C   UNL A   1      38.115  21.645  25.401  1.00  0.00     0.008 A 
ATOM     86  C   UNL A   1      38.639  24.068  26.661  1.00  0.00     0.001 A 
ATOM     87  C   UNL A   1      39.320  21.827  26.078  1.00  0.00     0.001 A 
ATOM     88  C   UNL A   1      39.579  23.038  26.716  1.00  0.00     0.000 A 
ENDBRANCH  82  83
ENDBRANCH  80  81
ENDBRANCH  74  80
ENDBRANCH  72  74
ENDBRANCH  71  72
ENDBRANCH  70  71
ENDBRANCH  69  70
ENDBRANCH   1  69
TORSDOF 20
ENDMDL
MODEL 3
REMARK VINA RESULT:      -8.4      4.788     10.504
REMARK SMILES O=C(OCCOCCOC(=O)C1(C/C=C/c2ccccc2)CCCCC1)c1ccc(-c2c3nc(c(-c4ccc(S(=O)(=O)[O-])cc4)c4ccc([nH]4)c(-c4ccc(S(=O)(=O)[O-])cc4)c4nc(c(-c5ccc(S(=O)(=O)[O-])cc5)c5ccc2[nH]5)C=C4)C=C3)cc1
REMARK SMILES IDX 6 1 5 2 4 3 3 4 2 5 1 6 27 7 28 8 86 9 29 10 85 11 30 12
REMARK SMILES IDX 31 13 32 14 79 15 33 16 84 17 78 18 80 19 34 20 83 21 77 22
REMARK SMILES IDX 76 23 35 25 65 26 46 27 64 28 47 29 50 30 63 31 81 32 48 33
REMARK SMILES IDX 49 34 62 36 82 37 51 38 36 39 37 40 45 41 38 42 44 43 39 44
REMARK SMILES IDX 40 45 41 46 42 47 43 48 66 49 67 50 75 51 68 52 74 53 69 54
REMARK SMILES IDX 70 55 71 56 72 57 73 58 52 59 53 60 61 61 54 62 60 63 55 64
REMARK SMILES IDX 56 65 57 66 58 67 59 68 7 69 8 70 9 71 10 72 11 73 12 74
REMARK SMILES IDX 22 75 26 76 23 77 25 78 24 79 13 80 14 81 15 82 16 83 17 84
REMARK SMILES IDX 21 85 18 86 20 87 19 88
REMARK H PARENT 80 24 50 35
REMARK Flexibility Score: inf
ROOT
ATOM      1  O   UNL A   1      37.417  22.073  24.488  1.00  0.00    -0.374 OA
ENDROOT
BRANCH   1   2
ATOM      2  C   UNL A   1      38.004  20.949  25.140  1.00  0.00     0.202 C 
BRANCH   2   3
ATOM      3  C   UNL A   1      39.181  21.208  26.085  1.00  0.00     0.261 C 
BRANCH   3   4
ATOM      4  O   UNL A   1      40.203  20.216  25.890  1.00  0.00    -0.460 OA
BRANCH   4   5
ATOM      5  C   UNL A   1      41.496  20.313  26.287  1.00  0.00     0.338 C 
ATOM      6  O   UNL A   1      42.195  19.303  26.333  1.00  0.00    -0.246 OA
BRANCH   5   7
ATOM      7  C   UNL A   1      42.107  21.625  26.626  1.00  0.00     0.060 A 
ATOM      8  C   UNL A   1      42.311  22.638  25.691  1.00  0.00     0.016 A 
ATOM      9  C   UNL A   1      42.438  21.878  27.960  1.00  0.00     0.016 A 
ATOM     10  C   UNL A   1      42.884  23.834  26.014  1.00  0.00     0.010 A 
ATOM     11  C   UNL A   1      42.966  23.119  28.322  1.00  0.00     0.010 A 
ATOM     12  C   UNL A   1      43.180  24.091  27.337  1.00  0.00    -0.014 A 
BRANCH  12  13
ATOM     13  C   UNL A   1      43.807  25.385  27.581  1.00  0.00     0.031 A 
ATOM     14  C   UNL A   1      42.972  26.439  28.216  1.00  0.00     0.074 A 
ATOM     15  C   UNL A   1      45.138  25.488  27.421  1.00  0.00     0.049 A 
ATOM     16  N   UNL A   1      43.269  27.682  28.446  1.00  0.00    -0.248 NA
ATOM     17  C   UNL A   1      41.625  26.038  28.668  1.00  0.00     0.031 C 
ATOM     18  C   UNL A   1      46.034  24.394  27.014  1.00  0.00     0.029 A 
ATOM     19  N   UNL A   1      45.980  26.542  27.622  1.00  0.00    -0.354 N 
ATOM     20  C   UNL A   1      42.123  28.234  28.999  1.00  0.00     0.074 A 
ATOM     21  C   UNL A   1      41.137  27.187  29.106  1.00  0.00     0.031 C 
ATOM     22  C   UNL A   1      47.299  24.839  27.003  1.00  0.00     0.029 A 
ATOM     23  C   UNL A   1      47.285  26.264  27.293  1.00  0.00     0.049 A 
ATOM     24  H   UNL A   1      45.683  27.415  27.968  1.00  0.00     0.167 HD
ATOM     25  C   UNL A   1      41.931  29.524  29.338  1.00  0.00     0.031 A 
ATOM     26  C   UNL A   1      48.328  27.103  27.168  1.00  0.00     0.031 A 
ATOM     27  C   UNL A   1      42.963  30.512  29.196  1.00  0.00     0.049 A 
ATOM     28  C   UNL A   1      48.050  28.557  27.433  1.00  0.00     0.074 A 
ATOM     29  C   UNL A   1      42.901  31.869  29.435  1.00  0.00     0.029 A 
ATOM     30  N   UNL A   1      44.257  30.230  28.768  1.00  0.00    -0.354 N 
ATOM     31  N   UNL A   1      46.939  29.113  27.864  1.00  0.00    -0.248 NA
ATOM     32  C   UNL A   1      49.141  29.498  27.174  1.00  0.00     0.031 C 
ATOM     33  C   UNL A   1      44.140  32.416  29.087  1.00  0.00     0.029 A 
ATOM     34  C   UNL A   1      44.996  31.391  28.702  1.00  0.00     0.049 A 
ATOM     35  H   UNL A   1      44.594  29.331  28.546  1.00  0.00     0.167 HD
ATOM     36  C   UNL A   1      47.200  30.472  27.938  1.00  0.00     0.074 A 
ATOM     37  C   UNL A   1      48.584  30.647  27.532  1.00  0.00     0.031 C 
ATOM     38  C   UNL A   1      46.378  31.491  28.298  1.00  0.00     0.031 A 
BRANCH  25  39
ATOM     39  C   UNL A   1      40.546  29.928  29.751  1.00  0.00    -0.014 A 
ATOM     40  C   UNL A   1      39.559  30.283  28.816  1.00  0.00     0.010 A 
ATOM     41  C   UNL A   1      40.241  29.980  31.124  1.00  0.00     0.010 A 
ATOM     42  C   UNL A   1      38.298  30.707  29.249  1.00  0.00     0.020 A 
ATOM     43  C   UNL A   1      38.975  30.377  31.559  1.00  0.00     0.020 A 
ATOM     44  C   UNL A   1      38.015  30.750  30.619  1.00  0.00     0.054 A 
BRANCH  44  45
ATOM     45  S   UNL A   1      36.362  31.271  31.151  1.00  0.00     0.124 S 
ATOM     46  O   UNL A   1      35.601  31.178  29.907  1.00  0.00    -0.237 OA
ATOM     47  O   UNL A   1      36.027  30.276  32.168  1.00  0.00    -0.237 OA
ATOM     48  O   UNL A   1      36.569  32.627  31.654  1.00  0.00    -0.744 OA
ENDBRANCH  44  45
ENDBRANCH  25  39
BRANCH  26  49
ATOM     49  C   UNL A   1      49.640  26.617  26.661  1.00  0.00    -0.014 A 
ATOM     50  C   UNL A   1      49.994  26.751  25.310  1.00  0.00     0.010 A 
ATOM     51  C   UNL A   1      50.553  25.998  27.541  1.00  0.00     0.010 A 
ATOM     52  C   UNL A   1      51.216  26.252  24.842  1.00  0.00     0.020 A 
ATOM     53  C   UNL A   1      51.788  25.529  27.086  1.00  0.00     0.020 A 
ATOM     54  C   UNL A   1      52.104  25.642  25.734  1.00  0.00     0.054 A 
BRANCH  54  55
ATOM     55  S   UNL A   1      53.684  25.007  25.105  1.00  0.00     0.124 S 
ATOM     56  O   UNL A   1      53.535  23.570  25.309  1.00  0.00    -0.237 OA
ATOM     57  O   UNL A   1      53.672  25.454  23.715  1.00  0.00    -0.237 OA
ATOM     58  O   UNL A   1      54.678  25.660  25.953  1.00  0.00    -0.744 OA
ENDBRANCH  54  55
ENDBRANCH  26  49
BRANCH  38  59
ATOM     59  C   UNL A   1      46.975  32.865  28.300  1.00  0.00    -0.014 A 
ATOM     60  C   UNL A   1      47.551  33.401  29.465  1.00  0.00     0.010 A 
ATOM     61  C   UNL A   1      47.043  33.582  27.093  1.00  0.00     0.010 A 
ATOM     62  C   UNL A   1      48.178  34.645  29.421  1.00  0.00     0.020 A 
ATOM     63  C   UNL A   1      47.701  34.809  27.039  1.00  0.00     0.020 A 
ATOM     64  C   UNL A   1      48.258  35.335  28.207  1.00  0.00     0.054 A 
BRANCH  64  65
ATOM     65  S   UNL A   1      49.157  36.906  28.160  1.00  0.00     0.124 S 
ATOM     66  O   UNL A   1      48.204  37.779  27.481  1.00  0.00    -0.237 OA
ATOM     67  O   UNL A   1      49.373  37.191  29.577  1.00  0.00    -0.237 OA
ATOM     68  O   UNL A   1      50.365  36.592  27.401  1.00  0.00    -0.744 OA
ENDBRANCH  64  65
ENDBRANCH  38  59
ENDBRANCH  12  13
ENDBRANCH   5   7
ENDBRANCH   4   5
ENDBRANCH   3   4
ENDBRANCH   2   3
ENDBRANCH   1   2
BRANCH   1  69
ATOM     69  C   UNL A   1      37.406  23.304  25.213  1.00  0.00     0.202 C 
BRANCH  69  70
ATOM     70  C   UNL A   1      36.047  23.506  25.874  1.00  0.00     0.261 C 
BRANCH  70  71
ATOM     71  O   UNL A   1      35.041  23.409  24.849  1.00  0.00    -0.463 OA
BRANCH  71  72
ATOM     72  C   UNL A   1      33.834  23.945  25.208  1.00  0.00     0.312 C 
ATOM     73  O   UNL A   1      33.564  24.267  26.350  1.00  0.00    -0.252 OA
BRANCH  72  74
ATOM     74  C   UNL A   1      32.878  24.040  23.995  1.00  0.00     0.071 C 
ATOM     75  C   UNL A   1      32.250  25.466  23.897  1.00  0.00     0.019 C 
ATOM     76  C   UNL A   1      33.755  23.760  22.754  1.00  0.00     0.019 C 
ATOM     77  C   UNL A   1      31.664  25.847  22.547  1.00  0.00     0.001 C 
ATOM     78  C   UNL A   1      33.110  24.154  21.430  1.00  0.00     0.001 C 
ATOM     79  C   UNL A   1      32.664  25.610  21.435  1.00  0.00     0.000 C 
BRANCH  74  80
ATOM     80  C   UNL A   1      31.686  23.035  24.169  1.00  0.00     0.046 C 
BRANCH  80  81
ATOM     81  C   UNL A   1      31.949  21.603  23.782  1.00  0.00    -0.025 C 
ATOM     82  C   UNL A   1      32.453  20.699  24.643  1.00  0.00     0.004 C 
BRANCH  82  83
ATOM     83  C   UNL A   1      32.995  19.407  24.205  1.00  0.00    -0.026 A 
ATOM     84  C   UNL A   1      34.180  18.909  24.751  1.00  0.00     0.008 A 
ATOM     85  C   UNL A   1      32.384  18.712  23.152  1.00  0.00     0.008 A 
ATOM     86  C   UNL A   1      34.721  17.708  24.278  1.00  0.00     0.001 A 
ATOM     87  C   UNL A   1      32.925  17.518  22.677  1.00  0.00     0.001 A 
ATOM     88  C   UNL A   1      34.091  17.011  23.246  1.00  0.00     0.000 A 
ENDBRANCH  82  83
ENDBRANCH  80  81
ENDBRANCH  74  80
ENDBRANCH  72  74
ENDBRANCH  71  72
ENDBRANCH  70  71
ENDBRANCH  69  70
ENDBRANCH   1  69
TORSDOF 20
ENDMDL
