MODEL 1
REMARK VINA RESULT:     -10.4      0.000      0.000
REMARK SMILES O=C(OCCOCCOC(=O)c1cc(-c2cc(Cl)ccc2Cl)cc([N+](=O)[O-])c1)c1ccc(-c2c3nc(c(-c4ccc(S(=O)(=O)[O-])cc4)c4ccc([nH]4)c(-c4ccc(S(=O)(=O)[O-])cc4)c4nc(c(-c5ccc(S(=O)(=O)[O-])cc5)c5ccc2[nH]5)C=C4)C=C3)cc1
REMARK SMILES IDX 5 1 4 2 3 3 2 4 1 5 29 6 30 7 88 8 31 9 87 10 32 11 33 12
REMARK SMILES IDX 34 13 81 14 35 15 86 16 80 17 82 18 36 19 85 20 79 21 78 22
REMARK SMILES IDX 37 24 67 25 48 26 66 27 49 28 52 29 65 30 83 31 50 32 51 33
REMARK SMILES IDX 64 35 84 36 53 37 38 38 39 39 47 40 40 41 46 42 41 43 42 44
REMARK SMILES IDX 43 45 44 46 45 47 68 48 69 49 77 50 70 51 76 52 71 53 72 54
REMARK SMILES IDX 73 55 74 56 75 57 54 58 55 59 63 60 56 61 62 62 57 63 58 64
REMARK SMILES IDX 59 65 60 66 61 67 6 68 7 69 8 70 9 71 10 72 11 73 12 74
REMARK SMILES IDX 13 75 28 76 14 77 24 78 23 79 15 80 16 81 21 82 17 83 20 84
REMARK SMILES IDX 22 85 18 86 19 87 25 88 26 89 27 90
REMARK H PARENT 82 23 52 34
REMARK Flexibility Score: inf
ROOT
ATOM      1  C   UNL A   1      37.068  22.671  25.275  1.00  0.00     0.202 C 
ENDROOT
BRANCH   1   2
ATOM      2  C   UNL A   1      37.759  21.372  25.699  1.00  0.00     0.261 C 
BRANCH   2   3
ATOM      3  O   UNL A   1      39.183  21.538  25.682  1.00  0.00    -0.460 OA
BRANCH   3   4
ATOM      4  C   UNL A   1      39.992  21.837  26.725  1.00  0.00     0.338 C 
ATOM      5  O   UNL A   1      40.364  20.921  27.458  1.00  0.00    -0.246 OA
BRANCH   4   6
ATOM      6  C   UNL A   1      40.470  23.218  27.034  1.00  0.00     0.060 A 
ATOM      7  C   UNL A   1      40.073  24.378  26.361  1.00  0.00     0.016 A 
ATOM      8  C   UNL A   1      41.300  23.358  28.156  1.00  0.00     0.016 A 
ATOM      9  C   UNL A   1      40.488  25.635  26.760  1.00  0.00     0.010 A 
ATOM     10  C   UNL A   1      41.722  24.619  28.574  1.00  0.00     0.010 A 
ATOM     11  C   UNL A   1      41.316  25.755  27.864  1.00  0.00    -0.014 A 
BRANCH  11  12
ATOM     12  C   UNL A   1      41.878  27.076  28.148  1.00  0.00     0.031 A 
ATOM     13  C   UNL A   1      43.333  27.270  27.883  1.00  0.00     0.074 A 
ATOM     14  C   UNL A   1      41.070  28.076  28.534  1.00  0.00     0.049 A 
ATOM     15  N   UNL A   1      44.096  28.282  28.176  1.00  0.00    -0.248 NA
ATOM     16  C   UNL A   1      44.021  26.167  27.187  1.00  0.00     0.031 C 
ATOM     17  C   UNL A   1      39.612  27.987  28.648  1.00  0.00     0.029 A 
ATOM     18  N   UNL A   1      41.358  29.361  28.893  1.00  0.00    -0.354 N 
ATOM     19  C   UNL A   1      45.367  27.916  27.752  1.00  0.00     0.074 A 
ATOM     20  C   UNL A   1      45.271  26.597  27.173  1.00  0.00     0.031 C 
ATOM     21  C   UNL A   1      39.135  29.169  29.071  1.00  0.00     0.029 A 
ATOM     22  C   UNL A   1      40.259  30.061  29.327  1.00  0.00     0.049 A 
ATOM     23  H   UNL A   1      42.263  29.747  28.846  1.00  0.00     0.167 HD
ATOM     24  C   UNL A   1      46.511  28.626  27.872  1.00  0.00     0.031 A 
ATOM     25  C   UNL A   1      40.193  31.265  29.926  1.00  0.00     0.031 A 
ATOM     26  C   UNL A   1      46.547  29.922  28.490  1.00  0.00     0.049 A 
ATOM     27  C   UNL A   1      41.488  31.997  30.149  1.00  0.00     0.074 A 
ATOM     28  C   UNL A   1      47.633  30.735  28.737  1.00  0.00     0.029 A 
ATOM     29  N   UNL A   1      45.422  30.588  28.968  1.00  0.00    -0.354 N 
ATOM     30  N   UNL A   1      42.705  31.625  29.821  1.00  0.00    -0.248 NA
ATOM     31  C   UNL A   1      41.412  33.297  30.821  1.00  0.00     0.031 C 
ATOM     32  C   UNL A   1      47.172  31.864  29.423  1.00  0.00     0.029 A 
ATOM     33  C   UNL A   1      45.788  31.794  29.528  1.00  0.00     0.049 A 
ATOM     34  H   UNL A   1      44.499  30.248  28.915  1.00  0.00     0.167 HD
ATOM     35  C   UNL A   1      43.541  32.659  30.218  1.00  0.00     0.074 A 
ATOM     36  C   UNL A   1      42.686  33.671  30.813  1.00  0.00     0.031 C 
ATOM     37  C   UNL A   1      44.888  32.772  30.097  1.00  0.00     0.031 A 
BRANCH  24  38
ATOM     38  C   UNL A   1      47.782  27.948  27.438  1.00  0.00    -0.014 A 
ATOM     39  C   UNL A   1      48.533  27.139  28.313  1.00  0.00     0.010 A 
ATOM     40  C   UNL A   1      48.277  28.194  26.145  1.00  0.00     0.010 A 
ATOM     41  C   UNL A   1      49.786  26.653  27.926  1.00  0.00     0.020 A 
ATOM     42  C   UNL A   1      49.513  27.681  25.742  1.00  0.00     0.020 A 
ATOM     43  C   UNL A   1      50.272  26.937  26.647  1.00  0.00     0.054 A 
BRANCH  43  44
ATOM     44  S   UNL A   1      51.917  26.329  26.184  1.00  0.00     0.124 S 
ATOM     45  O   UNL A   1      51.925  26.556  24.740  1.00  0.00    -0.237 OA
ATOM     46  O   UNL A   1      52.807  27.189  26.959  1.00  0.00    -0.237 OA
ATOM     47  O   UNL A   1      51.897  24.927  26.593  1.00  0.00    -0.744 OA
ENDBRANCH  43  44
ENDBRANCH  24  38
BRANCH  25  48
ATOM     48  C   UNL A   1      38.879  31.785  30.394  1.00  0.00    -0.014 A 
ATOM     49  C   UNL A   1      38.383  31.463  31.668  1.00  0.00     0.010 A 
ATOM     50  C   UNL A   1      38.145  32.673  29.583  1.00  0.00     0.010 A 
ATOM     51  C   UNL A   1      37.184  32.025  32.124  1.00  0.00     0.020 A 
ATOM     52  C   UNL A   1      36.962  33.259  30.045  1.00  0.00     0.020 A 
ATOM     53  C   UNL A   1      36.487  32.927  31.314  1.00  0.00     0.054 A 
BRANCH  53  54
ATOM     54  S   UNL A   1      34.980  33.705  31.962  1.00  0.00     0.124 S 
ATOM     55  O   UNL A   1      35.458  34.315  33.198  1.00  0.00    -0.237 OA
ATOM     56  O   UNL A   1      34.622  34.634  30.893  1.00  0.00    -0.237 OA
ATOM     57  O   UNL A   1      34.060  32.582  32.133  1.00  0.00    -0.744 OA
ENDBRANCH  53  54
ENDBRANCH  25  48
BRANCH  37  58
ATOM     58  C   UNL A   1      45.515  34.058  30.552  1.00  0.00    -0.014 A 
ATOM     59  C   UNL A   1      45.616  35.167  29.698  1.00  0.00     0.010 A 
ATOM     60  C   UNL A   1      45.885  34.185  31.904  1.00  0.00     0.010 A 
ATOM     61  C   UNL A   1      46.078  36.388  30.193  1.00  0.00     0.020 A 
ATOM     62  C   UNL A   1      46.317  35.411  32.407  1.00  0.00     0.020 A 
ATOM     63  C   UNL A   1      46.412  36.504  31.546  1.00  0.00     0.054 A 
BRANCH  63  64
ATOM     64  S   UNL A   1      46.907  38.126  32.186  1.00  0.00     0.124 S 
ATOM     65  O   UNL A   1      48.335  38.149  31.885  1.00  0.00    -0.237 OA
ATOM     66  O   UNL A   1      46.083  39.042  31.399  1.00  0.00    -0.237 OA
ATOM     67  O   UNL A   1      46.568  38.058  33.605  1.00  0.00    -0.744 OA
ENDBRANCH  63  64
ENDBRANCH  37  58
ENDBRANCH  11  12
ENDBRANCH   4   6
ENDBRANCH   3   4
ENDBRANCH   2   3
ENDBRANCH   1   2
BRANCH   1  68
ATOM     68  O   UNL A   1      35.677  22.742  25.584  1.00  0.00    -0.374 OA
BRANCH  68  69
ATOM     69  C   UNL A   1      35.107  21.614  26.257  1.00  0.00     0.202 C 
BRANCH  69  70
ATOM     70  C   UNL A   1      33.951  22.079  27.144  1.00  0.00     0.261 C 
BRANCH  70  71
ATOM     71  O   UNL A   1      32.807  22.296  26.305  1.00  0.00    -0.460 OA
BRANCH  71  72
ATOM     72  C   UNL A   1      32.122  23.432  26.584  1.00  0.00     0.338 C 
ATOM     73  O   UNL A   1      31.338  23.636  27.495  1.00  0.00    -0.246 OA
BRANCH  72  74
ATOM     74  C   UNL A   1      32.633  24.499  25.705  1.00  0.00     0.067 A 
ATOM     75  C   UNL A   1      32.843  25.769  26.260  1.00  0.00     0.025 A 
ATOM     76  C   UNL A   1      32.882  24.265  24.354  1.00  0.00     0.101 A 
ATOM     77  C   UNL A   1      33.300  26.834  25.472  1.00  0.00    -0.009 A 
ATOM     78  C   UNL A   1      33.319  25.327  23.559  1.00  0.00     0.270 A 
ATOM     79  C   UNL A   1      33.550  26.599  24.110  1.00  0.00     0.094 A 
BRANCH  77  80
ATOM     80  C   UNL A   1      33.356  28.188  26.040  1.00  0.00     0.002 A 
ATOM     81  C   UNL A   1      34.401  28.566  26.901  1.00  0.00     0.030 A 
ATOM     82  C   UNL A   1      32.332  29.125  25.784  1.00  0.00     0.048 A 
ATOM     83  C   UNL A   1      34.412  29.836  27.487  1.00  0.00     0.041 A 
ATOM     84  C   UNL A   1      32.347  30.390  26.375  1.00  0.00     0.023 A 
ATOM     85  Cl  UNL A   1      30.999  28.751  24.742  1.00  0.00    -0.084 Cl
ATOM     86  Cl  UNL A   1      35.694  30.284  28.543  1.00  0.00    -0.084 Cl
ATOM     87  C   UNL A   1      33.387  30.746  27.231  1.00  0.00     0.022 A 
ENDBRANCH  77  80
BRANCH  78  88
ATOM     88  N   UNL A   1      33.458  25.123  22.114  1.00  0.00     0.062 N 
ATOM     89  O   UNL A   1      33.409  23.960  21.690  1.00  0.00    -0.258 OA
ATOM     90  O   UNL A   1      33.630  26.124  21.405  1.00  0.00    -0.258 OA
ENDBRANCH  78  88
ENDBRANCH  72  74
ENDBRANCH  71  72
ENDBRANCH  70  71
ENDBRANCH  69  70
ENDBRANCH  68  69
ENDBRANCH   1  68
TORSDOF 19
ENDMDL
MODEL 2
REMARK VINA RESULT:     -10.0      4.313     10.140
REMARK SMILES O=C(OCCOCCOC(=O)c1cc(-c2cc(Cl)ccc2Cl)cc([N+](=O)[O-])c1)c1ccc(-c2c3nc(c(-c4ccc(S(=O)(=O)[O-])cc4)c4ccc([nH]4)c(-c4ccc(S(=O)(=O)[O-])cc4)c4nc(c(-c5ccc(S(=O)(=O)[O-])cc5)c5ccc2[nH]5)C=C4)C=C3)cc1
REMARK SMILES IDX 5 1 4 2 3 3 2 4 1 5 29 6 30 7 88 8 31 9 87 10 32 11 33 12
REMARK SMILES IDX 34 13 81 14 35 15 86 16 80 17 82 18 36 19 85 20 79 21 78 22
REMARK SMILES IDX 37 24 67 25 48 26 66 27 49 28 52 29 65 30 83 31 50 32 51 33
REMARK SMILES IDX 64 35 84 36 53 37 38 38 39 39 47 40 40 41 46 42 41 43 42 44
REMARK SMILES IDX 43 45 44 46 45 47 68 48 69 49 77 50 70 51 76 52 71 53 72 54
REMARK SMILES IDX 73 55 74 56 75 57 54 58 55 59 63 60 56 61 62 62 57 63 58 64
REMARK SMILES IDX 59 65 60 66 61 67 6 68 7 69 8 70 9 71 10 72 11 73 12 74
REMARK SMILES IDX 13 75 28 76 14 77 24 78 23 79 15 80 16 81 21 82 17 83 20 84
REMARK SMILES IDX 22 85 18 86 19 87 25 88 26 89 27 90
REMARK H PARENT 82 23 52 34
REMARK Flexibility Score: inf
ROOT
ATOM      1  C   UNL A   1      39.163  32.168  33.554  1.00  0.00     0.202 C 
ENDROOT
BRANCH   1   2
ATOM      2  C   UNL A   1      38.232  31.055  34.043  1.00  0.00     0.261 C 
BRANCH   2   3
ATOM      3  O   UNL A   1      37.225  30.779  33.060  1.00  0.00    -0.460 OA
BRANCH   3   4
ATOM      4  C   UNL A   1      37.327  29.974  31.977  1.00  0.00     0.338 C 
ATOM      5  O   UNL A   1      36.302  29.457  31.535  1.00  0.00    -0.246 OA
BRANCH   4   6
ATOM      6  C   UNL A   1      38.615  29.684  31.278  1.00  0.00     0.060 A 
ATOM      7  C   UNL A   1      39.699  28.999  31.836  1.00  0.00     0.016 A 
ATOM      8  C   UNL A   1      38.686  30.041  29.923  1.00  0.00     0.016 A 
ATOM      9  C   UNL A   1      40.826  28.688  31.099  1.00  0.00     0.010 A 
ATOM     10  C   UNL A   1      39.815  29.728  29.166  1.00  0.00     0.010 A 
ATOM     11  C   UNL A   1      40.886  29.056  29.765  1.00  0.00    -0.014 A 
BRANCH  11  12
ATOM     12  C   UNL A   1      42.160  28.871  29.068  1.00  0.00     0.031 A 
ATOM     13  C   UNL A   1      42.421  27.531  28.468  1.00  0.00     0.074 A 
ATOM     14  C   UNL A   1      42.989  29.914  28.907  1.00  0.00     0.049 A 
ATOM     15  N   UNL A   1      43.511  27.068  27.930  1.00  0.00    -0.248 NA
ATOM     16  C   UNL A   1      41.293  26.582  28.477  1.00  0.00     0.031 C 
ATOM     17  C   UNL A   1      42.708  31.290  29.328  1.00  0.00     0.029 A 
ATOM     18  N   UNL A   1      44.230  29.981  28.342  1.00  0.00    -0.354 N 
ATOM     19  C   UNL A   1      43.219  25.754  27.585  1.00  0.00     0.074 A 
ATOM     20  C   UNL A   1      41.850  25.498  27.965  1.00  0.00     0.031 C 
ATOM     21  C   UNL A   1      43.762  32.063  29.020  1.00  0.00     0.029 A 
ATOM     22  C   UNL A   1      44.811  31.221  28.457  1.00  0.00     0.049 A 
ATOM     23  H   UNL A   1      44.665  29.218  27.897  1.00  0.00     0.167 HD
ATOM     24  C   UNL A   1      44.048  24.847  27.025  1.00  0.00     0.031 A 
ATOM     25  C   UNL A   1      46.075  31.601  28.194  1.00  0.00     0.031 A 
ATOM     26  C   UNL A   1      45.413  25.154  26.700  1.00  0.00     0.049 A 
ATOM     27  C   UNL A   1      47.016  30.552  27.671  1.00  0.00     0.074 A 
ATOM     28  C   UNL A   1      46.390  24.327  26.186  1.00  0.00     0.029 A 
ATOM     29  N   UNL A   1      45.992  26.408  26.875  1.00  0.00    -0.354 N 
ATOM     30  N   UNL A   1      46.771  29.286  27.414  1.00  0.00    -0.248 NA
ATOM     31  C   UNL A   1      48.398  30.967  27.406  1.00  0.00     0.031 C 
ATOM     32  C   UNL A   1      47.575  25.065  26.110  1.00  0.00     0.029 A 
ATOM     33  C   UNL A   1      47.318  26.374  26.498  1.00  0.00     0.049 A 
ATOM     34  H   UNL A   1      45.522  27.203  27.218  1.00  0.00     0.167 HD
ATOM     35  C   UNL A   1      47.958  28.757  26.928  1.00  0.00     0.074 A 
ATOM     36  C   UNL A   1      48.922  29.844  26.929  1.00  0.00     0.031 C 
ATOM     37  C   UNL A   1      48.230  27.495  26.509  1.00  0.00     0.031 A 
BRANCH  24  38
ATOM     38  C   UNL A   1      43.518  23.448  26.864  1.00  0.00    -0.014 A 
ATOM     39  C   UNL A   1      43.294  22.603  27.968  1.00  0.00     0.010 A 
ATOM     40  C   UNL A   1      43.316  22.941  25.568  1.00  0.00     0.010 A 
ATOM     41  C   UNL A   1      42.951  21.261  27.773  1.00  0.00     0.020 A 
ATOM     42  C   UNL A   1      42.939  21.611  25.370  1.00  0.00     0.020 A 
ATOM     43  C   UNL A   1      42.787  20.771  26.474  1.00  0.00     0.054 A 
BRANCH  43  44
ATOM     44  S   UNL A   1      42.381  19.018  26.247  1.00  0.00     0.124 S 
ATOM     45  O   UNL A   1      41.063  19.094  25.621  1.00  0.00    -0.237 OA
ATOM     46  O   UNL A   1      43.460  18.549  25.382  1.00  0.00    -0.237 OA
ATOM     47  O   UNL A   1      42.394  18.480  27.605  1.00  0.00    -0.744 OA
ENDBRANCH  43  44
ENDBRANCH  24  38
BRANCH  25  48
ATOM     48  C   UNL A   1      46.501  32.997  28.486  1.00  0.00    -0.014 A 
ATOM     49  C   UNL A   1      46.462  33.990  27.494  1.00  0.00     0.010 A 
ATOM     50  C   UNL A   1      46.882  33.358  29.794  1.00  0.00     0.010 A 
ATOM     51  C   UNL A   1      46.788  35.316  27.804  1.00  0.00     0.020 A 
ATOM     52  C   UNL A   1      47.181  34.685  30.116  1.00  0.00     0.020 A 
ATOM     53  C   UNL A   1      47.136  35.657  29.116  1.00  0.00     0.054 A 
BRANCH  53  54
ATOM     54  S   UNL A   1      47.474  37.396  29.510  1.00  0.00     0.124 S 
ATOM     55  O   UNL A   1      48.334  37.799  28.402  1.00  0.00    -0.237 OA
ATOM     56  O   UNL A   1      46.135  37.981  29.519  1.00  0.00    -0.237 OA
ATOM     57  O   UNL A   1      48.125  37.333  30.817  1.00  0.00    -0.744 OA
ENDBRANCH  53  54
ENDBRANCH  25  48
BRANCH  37  58
ATOM     58  C   UNL A   1      49.601  27.235  25.953  1.00  0.00    -0.014 A 
ATOM     59  C   UNL A   1      50.623  26.691  26.746  1.00  0.00     0.010 A 
ATOM     60  C   UNL A   1      49.814  27.422  24.574  1.00  0.00     0.010 A 
ATOM     61  C   UNL A   1      51.841  26.335  26.165  1.00  0.00     0.020 A 
ATOM     62  C   UNL A   1      51.018  27.038  23.987  1.00  0.00     0.020 A 
ATOM     63  C   UNL A   1      52.025  26.499  24.788  1.00  0.00     0.054 A 
BRANCH  63  64
ATOM     64  S   UNL A   1      53.576  25.929  24.043  1.00  0.00     0.124 S 
ATOM     65  O   UNL A   1      54.532  26.914  24.540  1.00  0.00    -0.237 OA
ATOM     66  O   UNL A   1      53.716  24.582  24.592  1.00  0.00    -0.237 OA
ATOM     67  O   UNL A   1      53.312  25.986  22.607  1.00  0.00    -0.744 OA
ENDBRANCH  63  64
ENDBRANCH  37  58
ENDBRANCH  11  12
ENDBRANCH   4   6
ENDBRANCH   3   4
ENDBRANCH   2   3
ENDBRANCH   1   2
BRANCH   1  68
ATOM     68  O   UNL A   1      39.920  32.813  34.577  1.00  0.00    -0.374 OA
BRANCH  68  69
ATOM     69  C   UNL A   1      39.673  34.209  34.780  1.00  0.00     0.202 C 
BRANCH  69  70
ATOM     70  C   UNL A   1      38.308  34.394  35.443  1.00  0.00     0.261 C 
BRANCH  70  71
ATOM     71  O   UNL A   1      37.380  34.825  34.436  1.00  0.00    -0.460 OA
BRANCH  71  72
ATOM     72  C   UNL A   1      36.163  34.235  34.515  1.00  0.00     0.338 C 
ATOM     73  O   UNL A   1      35.657  33.672  35.471  1.00  0.00    -0.246 OA
BRANCH  72  74
ATOM     74  C   UNL A   1      35.421  34.554  33.282  1.00  0.00     0.067 A 
ATOM     75  C   UNL A   1      35.538  33.678  32.193  1.00  0.00     0.025 A 
ATOM     76  C   UNL A   1      34.640  35.705  33.186  1.00  0.00     0.101 A 
ATOM     77  C   UNL A   1      34.881  33.939  30.983  1.00  0.00    -0.009 A 
ATOM     78  C   UNL A   1      33.998  35.980  31.976  1.00  0.00     0.270 A 
ATOM     79  C   UNL A   1      34.095  35.098  30.886  1.00  0.00     0.094 A 
BRANCH  77  80
ATOM     80  C   UNL A   1      35.150  33.094  29.812  1.00  0.00     0.002 A 
ATOM     81  C   UNL A   1      34.111  32.394  29.173  1.00  0.00     0.030 A 
ATOM     82  C   UNL A   1      36.466  32.915  29.334  1.00  0.00     0.048 A 
ATOM     83  C   UNL A   1      34.386  31.542  28.099  1.00  0.00     0.041 A 
ATOM     84  C   UNL A   1      36.734  32.060  28.262  1.00  0.00     0.023 A 
ATOM     85  Cl  UNL A   1      37.814  33.728  30.057  1.00  0.00    -0.084 Cl
ATOM     86  Cl  UNL A   1      33.106  30.687  27.331  1.00  0.00    -0.084 Cl
ATOM     87  C   UNL A   1      35.692  31.369  27.646  1.00  0.00     0.022 A 
ENDBRANCH  77  80
BRANCH  78  88
ATOM     88  N   UNL A   1      33.282  37.250  31.824  1.00  0.00     0.062 N 
ATOM     89  O   UNL A   1      33.370  38.073  32.746  1.00  0.00    -0.258 OA
ATOM     90  O   UNL A   1      32.622  37.420  30.790  1.00  0.00    -0.258 OA
ENDBRANCH  78  88
ENDBRANCH  72  74
ENDBRANCH  71  72
ENDBRANCH  70  71
ENDBRANCH  69  70
ENDBRANCH  68  69
ENDBRANCH   1  68
TORSDOF 19
ENDMDL
MODEL 3
REMARK VINA RESULT:      -9.9      3.026      9.400
REMARK SMILES O=C(OCCOCCOC(=O)c1cc(-c2cc(Cl)ccc2Cl)cc([N+](=O)[O-])c1)c1ccc(-c2c3nc(c(-c4ccc(S(=O)(=O)[O-])cc4)c4ccc([nH]4)c(-c4ccc(S(=O)(=O)[O-])cc4)c4nc(c(-c5ccc(S(=O)(=O)[O-])cc5)c5ccc2[nH]5)C=C4)C=C3)cc1
REMARK SMILES IDX 5 1 4 2 3 3 2 4 1 5 29 6 30 7 88 8 31 9 87 10 32 11 33 12
REMARK SMILES IDX 34 13 81 14 35 15 86 16 80 17 82 18 36 19 85 20 79 21 78 22
REMARK SMILES IDX 37 24 67 25 48 26 66 27 49 28 52 29 65 30 83 31 50 32 51 33
REMARK SMILES IDX 64 35 84 36 53 37 38 38 39 39 47 40 40 41 46 42 41 43 42 44
REMARK SMILES IDX 43 45 44 46 45 47 68 48 69 49 77 50 70 51 76 52 71 53 72 54
REMARK SMILES IDX 73 55 74 56 75 57 54 58 55 59 63 60 56 61 62 62 57 63 58 64
REMARK SMILES IDX 59 65 60 66 61 67 6 68 7 69 8 70 9 71 10 72 11 73 12 74
REMARK SMILES IDX 13 75 28 76 14 77 24 78 23 79 15 80 16 81 21 82 17 83 20 84
REMARK SMILES IDX 22 85 18 86 19 87 25 88 26 89 27 90
REMARK H PARENT 82 23 52 34
REMARK Flexibility Score: inf
ROOT
ATOM      1  C   UNL A   1      38.526  22.282  26.022  1.00  0.00     0.202 C 
ENDROOT
BRANCH   1   2
ATOM      2  C   UNL A   1      38.746  20.790  25.757  1.00  0.00     0.261 C 
BRANCH   2   3
ATOM      3  O   UNL A   1      40.128  20.451  25.936  1.00  0.00    -0.460 OA
BRANCH   3   4
ATOM      4  C   UNL A   1      40.892  20.650  27.036  1.00  0.00     0.338 C 
ATOM      5  O   UNL A   1      40.952  19.754  27.876  1.00  0.00    -0.246 OA
BRANCH   4   6
ATOM      6  C   UNL A   1      41.676  21.896  27.285  1.00  0.00     0.060 A 
ATOM      7  C   UNL A   1      42.232  22.268  28.513  1.00  0.00     0.016 A 
ATOM      8  C   UNL A   1      41.958  22.693  26.165  1.00  0.00     0.016 A 
ATOM      9  C   UNL A   1      43.024  23.393  28.648  1.00  0.00     0.010 A 
ATOM     10  C   UNL A   1      42.760  23.827  26.285  1.00  0.00     0.010 A 
ATOM     11  C   UNL A   1      43.284  24.176  27.535  1.00  0.00    -0.014 A 
BRANCH  11  12
ATOM     12  C   UNL A   1      43.973  25.449  27.749  1.00  0.00     0.031 A 
ATOM     13  C   UNL A   1      43.171  26.571  28.317  1.00  0.00     0.074 A 
ATOM     14  C   UNL A   1      45.293  25.539  27.527  1.00  0.00     0.049 A 
ATOM     15  N   UNL A   1      43.495  27.821  28.469  1.00  0.00    -0.248 NA
ATOM     16  C   UNL A   1      41.813  26.232  28.779  1.00  0.00     0.031 C 
ATOM     17  C   UNL A   1      46.161  24.427  27.129  1.00  0.00     0.029 A 
ATOM     18  N   UNL A   1      46.135  26.611  27.610  1.00  0.00    -0.354 N 
ATOM     19  C   UNL A   1      42.363  28.432  28.994  1.00  0.00     0.074 A 
ATOM     20  C   UNL A   1      41.349  27.416  29.142  1.00  0.00     0.031 C 
ATOM     21  C   UNL A   1      47.415  24.883  26.985  1.00  0.00     0.029 A 
ATOM     22  C   UNL A   1      47.416  26.324  27.203  1.00  0.00     0.049 A 
ATOM     23  H   UNL A   1      45.854  27.498  27.929  1.00  0.00     0.167 HD
ATOM     24  C   UNL A   1      42.197  29.739  29.291  1.00  0.00     0.031 A 
ATOM     25  C   UNL A   1      48.447  27.159  26.973  1.00  0.00     0.031 A 
ATOM     26  C   UNL A   1      43.236  30.710  29.089  1.00  0.00     0.049 A 
ATOM     27  C   UNL A   1      48.213  28.626  27.208  1.00  0.00     0.074 A 
ATOM     28  C   UNL A   1      43.199  32.074  29.286  1.00  0.00     0.029 A 
ATOM     29  N   UNL A   1      44.511  30.399  28.626  1.00  0.00    -0.354 N 
ATOM     30  N   UNL A   1      47.121  29.224  27.630  1.00  0.00    -0.248 NA
ATOM     31  C   UNL A   1      49.333  29.532  26.935  1.00  0.00     0.031 C 
ATOM     32  C   UNL A   1      44.432  32.596  28.881  1.00  0.00     0.029 A 
ATOM     33  C   UNL A   1      45.267  31.548  28.512  1.00  0.00     0.049 A 
ATOM     34  H   UNL A   1      44.829  29.491  28.412  1.00  0.00     0.167 HD
ATOM     35  C   UNL A   1      47.429  30.575  27.704  1.00  0.00     0.074 A 
ATOM     36  C   UNL A   1      48.811  30.704  27.280  1.00  0.00     0.031 C 
ATOM     37  C   UNL A   1      46.648  31.615  28.094  1.00  0.00     0.031 A 
BRANCH  24  38
ATOM     38  C   UNL A   1      40.824  30.167  29.735  1.00  0.00    -0.014 A 
ATOM     39  C   UNL A   1      40.538  30.485  31.076  1.00  0.00     0.010 A 
ATOM     40  C   UNL A   1      39.776  30.171  28.796  1.00  0.00     0.010 A 
ATOM     41  C   UNL A   1      39.221  30.727  31.480  1.00  0.00     0.020 A 
ATOM     42  C   UNL A   1      38.464  30.446  29.190  1.00  0.00     0.020 A 
ATOM     43  C   UNL A   1      38.191  30.694  30.536  1.00  0.00     0.054 A 
BRANCH  43  44
ATOM     44  S   UNL A   1      36.488  30.971  31.093  1.00  0.00     0.124 S 
ATOM     45  O   UNL A   1      35.808  31.281  29.837  1.00  0.00    -0.237 OA
ATOM     46  O   UNL A   1      36.135  29.689  31.697  1.00  0.00    -0.237 OA
ATOM     47  O   UNL A   1      36.605  32.086  32.028  1.00  0.00    -0.744 OA
ENDBRANCH  43  44
ENDBRANCH  24  38
BRANCH  25  48
ATOM     48  C   UNL A   1      49.729  26.619  26.445  1.00  0.00    -0.014 A 
ATOM     49  C   UNL A   1      50.074  26.760  25.091  1.00  0.00     0.010 A 
ATOM     50  C   UNL A   1      50.654  26.017  27.322  1.00  0.00     0.010 A 
ATOM     51  C   UNL A   1      51.318  26.319  24.626  1.00  0.00     0.020 A 
ATOM     52  C   UNL A   1      51.909  25.601  26.868  1.00  0.00     0.020 A 
ATOM     53  C   UNL A   1      52.232  25.751  25.520  1.00  0.00     0.054 A 
BRANCH  53  54
ATOM     54  S   UNL A   1      53.870  25.263  24.908  1.00  0.00     0.124 S 
ATOM     55  O   UNL A   1      53.768  23.807  24.890  1.00  0.00    -0.237 OA
ATOM     56  O   UNL A   1      53.922  25.911  23.600  1.00  0.00    -0.237 OA
ATOM     57  O   UNL A   1      54.788  25.814  25.903  1.00  0.00    -0.744 OA
ENDBRANCH  53  54
ENDBRANCH  25  48
BRANCH  37  58
ATOM     58  C   UNL A   1      47.288  32.972  28.148  1.00  0.00    -0.014 A 
ATOM     59  C   UNL A   1      47.885  33.455  29.324  1.00  0.00     0.010 A 
ATOM     60  C   UNL A   1      47.402  33.711  26.956  1.00  0.00     0.010 A 
ATOM     61  C   UNL A   1      48.589  34.661  29.303  1.00  0.00     0.020 A 
ATOM     62  C   UNL A   1      48.130  34.898  26.926  1.00  0.00     0.020 A 
ATOM     63  C   UNL A   1      48.718  35.366  28.102  1.00  0.00     0.054 A 
BRANCH  63  64
ATOM     64  S   UNL A   1      49.727  36.871  28.080  1.00  0.00     0.124 S 
ATOM     65  O   UNL A   1      50.959  36.402  27.454  1.00  0.00    -0.237 OA
ATOM     66  O   UNL A   1      48.918  37.784  27.274  1.00  0.00    -0.237 OA
ATOM     67  O   UNL A   1      49.843  37.233  29.491  1.00  0.00    -0.744 OA
ENDBRANCH  63  64
ENDBRANCH  37  58
ENDBRANCH  11  12
ENDBRANCH   4   6
ENDBRANCH   3   4
ENDBRANCH   2   3
ENDBRANCH   1   2
BRANCH   1  68
ATOM     68  O   UNL A   1      37.382  22.845  25.381  1.00  0.00    -0.374 OA
BRANCH  68  69
ATOM     69  C   UNL A   1      37.104  22.401  24.049  1.00  0.00     0.202 C 
BRANCH  69  70
ATOM     70  C   UNL A   1      35.929  23.196  23.480  1.00  0.00     0.261 C 
BRANCH  70  71
ATOM     71  O   UNL A   1      35.502  24.134  24.479  1.00  0.00    -0.460 OA
BRANCH  71  72
ATOM     72  C   UNL A   1      34.273  24.660  24.258  1.00  0.00     0.338 C 
ATOM     73  O   UNL A   1      33.978  25.635  23.588  1.00  0.00    -0.246 OA
BRANCH  72  74
ATOM     74  C   UNL A   1      33.273  23.726  24.808  1.00  0.00     0.067 A 
ATOM     75  C   UNL A   1      33.382  22.369  24.474  1.00  0.00     0.025 A 
ATOM     76  C   UNL A   1      32.234  24.177  25.620  1.00  0.00     0.101 A 
ATOM     77  C   UNL A   1      32.448  21.435  24.942  1.00  0.00    -0.009 A 
ATOM     78  C   UNL A   1      31.289  23.254  26.073  1.00  0.00     0.270 A 
ATOM     79  C   UNL A   1      31.400  21.888  25.759  1.00  0.00     0.094 A 
BRANCH  77  80
ATOM     80  C   UNL A   1      32.491  20.051  24.447  1.00  0.00     0.002 A 
ATOM     81  C   UNL A   1      32.832  18.990  25.304  1.00  0.00     0.030 A 
ATOM     82  C   UNL A   1      32.251  19.760  23.088  1.00  0.00     0.048 A 
ATOM     83  C   UNL A   1      32.933  17.685  24.809  1.00  0.00     0.041 A 
ATOM     84  C   UNL A   1      32.358  18.456  22.600  1.00  0.00     0.023 A 
ATOM     85  Cl  UNL A   1      31.831  21.000  21.953  1.00  0.00    -0.084 Cl
ATOM     86  Cl  UNL A   1      33.357  16.397  25.867  1.00  0.00    -0.084 Cl
ATOM     87  C   UNL A   1      32.703  17.416  23.461  1.00  0.00     0.022 A 
ENDBRANCH  77  80
BRANCH  78  88
ATOM     88  N   UNL A   1      30.122  23.737  26.817  1.00  0.00     0.062 N 
ATOM     89  O   UNL A   1      29.586  22.956  27.616  1.00  0.00    -0.258 OA
ATOM     90  O   UNL A   1      29.734  24.892  26.594  1.00  0.00    -0.258 OA
ENDBRANCH  78  88
ENDBRANCH  72  74
ENDBRANCH  71  72
ENDBRANCH  70  71
ENDBRANCH  69  70
ENDBRANCH  68  69
ENDBRANCH   1  68
TORSDOF 19
ENDMDL
