MODEL 1
REMARK VINA RESULT:      -9.8      0.000      0.000
REMARK SMILES O=C(OCCOCCOC(=O)[C@@H]1CCCN(C(=O)Nc2ccccc2)C1)c1ccc(-c2c3nc(c(-c4ccc(S(=O)(=O)[O-])cc4)c4ccc([nH]4)c(-c4ccc(S(=O)(=O)[O-])cc4)c4nc(c(-c5ccc(S(=O)(=O)[O-])cc5)c5ccc2[nH]5)C=C4)C=C3)cc1
REMARK SMILES IDX 5 1 4 2 3 3 2 4 1 5 27 6 28 7 86 8 29 9 85 10 30 11 31 12
REMARK SMILES IDX 32 13 79 14 33 15 84 16 78 17 80 18 34 19 83 20 77 21 76 22
REMARK SMILES IDX 35 24 65 25 46 26 64 27 47 28 50 29 63 30 81 31 48 32 49 33
REMARK SMILES IDX 62 35 82 36 51 37 36 38 37 39 45 40 38 41 44 42 39 43 40 44
REMARK SMILES IDX 41 45 42 46 43 47 66 48 67 49 75 50 68 51 74 52 69 53 70 54
REMARK SMILES IDX 71 55 72 56 73 57 52 58 53 59 61 60 54 61 60 62 55 63 56 64
REMARK SMILES IDX 57 65 58 66 59 67 6 68 7 69 8 70 9 71 10 72 11 73 12 74
REMARK SMILES IDX 13 75 26 76 14 77 16 78 15 79 17 80 18 81 19 82 20 84 21 85
REMARK SMILES IDX 25 86 22 87 24 88 23 89
REMARK H PARENT 80 23 50 34 19 83
REMARK Flexibility Score: inf
ROOT
ATOM      1  C   UNL A   1      35.356  22.832  26.266  1.00  0.00     0.202 C 
ENDROOT
BRANCH   1   2
ATOM      2  C   UNL A   1      36.421  23.692  25.581  1.00  0.00     0.261 C 
BRANCH   2   3
ATOM      3  O   UNL A   1      37.618  22.931  25.361  1.00  0.00    -0.460 OA
BRANCH   3   4
ATOM      4  C   UNL A   1      38.775  22.989  26.064  1.00  0.00     0.338 C 
ATOM      5  O   UNL A   1      39.472  21.974  26.118  1.00  0.00    -0.246 OA
BRANCH   4   6
ATOM      6  C   UNL A   1      39.290  24.226  26.733  1.00  0.00     0.060 A 
ATOM      7  C   UNL A   1      40.106  25.191  26.140  1.00  0.00     0.016 A 
ATOM      8  C   UNL A   1      38.852  24.462  28.049  1.00  0.00     0.016 A 
ATOM      9  C   UNL A   1      40.497  26.329  26.814  1.00  0.00     0.010 A 
ATOM     10  C   UNL A   1      39.233  25.617  28.741  1.00  0.00     0.010 A 
ATOM     11  C   UNL A   1      40.067  26.547  28.116  1.00  0.00    -0.014 A 
BRANCH  11  12
ATOM     12  C   UNL A   1      40.660  27.705  28.794  1.00  0.00     0.031 A 
ATOM     13  C   UNL A   1      39.794  28.908  29.001  1.00  0.00     0.074 A 
ATOM     14  C   UNL A   1      41.842  27.549  29.419  1.00  0.00     0.049 A 
ATOM     15  N   UNL A   1      40.057  30.009  29.644  1.00  0.00    -0.248 NA
ATOM     16  C   UNL A   1      38.432  28.845  28.437  1.00  0.00     0.031 C 
ATOM     17  C   UNL A   1      42.650  26.323  29.397  1.00  0.00     0.029 A 
ATOM     18  N   UNL A   1      42.533  28.388  30.247  1.00  0.00    -0.354 N 
ATOM     19  C   UNL A   1      38.903  30.776  29.553  1.00  0.00     0.074 A 
ATOM     20  C   UNL A   1      37.937  30.021  28.791  1.00  0.00     0.031 C 
ATOM     21  C   UNL A   1      43.712  26.484  30.204  1.00  0.00     0.029 A 
ATOM     22  C   UNL A   1      43.694  27.838  30.740  1.00  0.00     0.049 A 
ATOM     23  H   UNL A   1      42.230  29.297  30.471  1.00  0.00     0.167 HD
ATOM     24  C   UNL A   1      38.684  32.007  30.064  1.00  0.00     0.031 A 
ATOM     25  C   UNL A   1      44.648  28.395  31.509  1.00  0.00     0.031 A 
ATOM     26  C   UNL A   1      39.684  32.734  30.794  1.00  0.00     0.049 A 
ATOM     27  C   UNL A   1      44.434  29.819  31.947  1.00  0.00     0.074 A 
ATOM     28  C   UNL A   1      39.649  34.034  31.257  1.00  0.00     0.029 A 
ATOM     29  N   UNL A   1      40.912  32.202  31.171  1.00  0.00    -0.354 N 
ATOM     30  N   UNL A   1      43.383  30.586  31.760  1.00  0.00    -0.248 NA
ATOM     31  C   UNL A   1      45.529  30.457  32.683  1.00  0.00     0.031 C 
ATOM     32  C   UNL A   1      40.876  34.304  31.875  1.00  0.00     0.029 A 
ATOM     33  C   UNL A   1      41.650  33.152  31.850  1.00  0.00     0.049 A 
ATOM     34  H   UNL A   1      41.212  31.284  30.981  1.00  0.00     0.167 HD
ATOM     35  C   UNL A   1      43.691  31.801  32.357  1.00  0.00     0.074 A 
ATOM     36  C   UNL A   1      45.009  31.649  32.945  1.00  0.00     0.031 C 
ATOM     37  C   UNL A   1      42.964  32.945  32.408  1.00  0.00     0.031 A 
BRANCH  24  38
ATOM     38  C   UNL A   1      37.359  32.648  29.764  1.00  0.00    -0.014 A 
ATOM     39  C   UNL A   1      37.176  33.463  28.631  1.00  0.00     0.010 A 
ATOM     40  C   UNL A   1      36.283  32.455  30.649  1.00  0.00     0.010 A 
ATOM     41  C   UNL A   1      35.949  34.096  28.406  1.00  0.00     0.020 A 
ATOM     42  C   UNL A   1      35.049  33.068  30.416  1.00  0.00     0.020 A 
ATOM     43  C   UNL A   1      34.895  33.897  29.302  1.00  0.00     0.054 A 
BRANCH  43  44
ATOM     44  S   UNL A   1      33.309  34.720  28.982  1.00  0.00     0.124 S 
ATOM     45  O   UNL A   1      33.741  36.010  28.449  1.00  0.00    -0.237 OA
ATOM     46  O   UNL A   1      32.675  33.824  28.019  1.00  0.00    -0.237 OA
ATOM     47  O   UNL A   1      32.672  34.770  30.296  1.00  0.00    -0.744 OA
ENDBRANCH  43  44
ENDBRANCH  24  38
BRANCH  25  48
ATOM     48  C   UNL A   1      45.907  27.656  31.813  1.00  0.00    -0.014 A 
ATOM     49  C   UNL A   1      46.064  26.911  32.993  1.00  0.00     0.010 A 
ATOM     50  C   UNL A   1      46.989  27.729  30.911  1.00  0.00     0.010 A 
ATOM     51  C   UNL A   1      47.284  26.285  33.282  1.00  0.00     0.020 A 
ATOM     52  C   UNL A   1      48.195  27.078  31.179  1.00  0.00     0.020 A 
ATOM     53  C   UNL A   1      48.343  26.377  32.374  1.00  0.00     0.054 A 
BRANCH  53  54
ATOM     54  S   UNL A   1      49.917  25.562  32.763  1.00  0.00     0.124 S 
ATOM     55  O   UNL A   1      50.717  26.671  33.269  1.00  0.00    -0.237 OA
ATOM     56  O   UNL A   1      49.522  24.562  33.752  1.00  0.00    -0.237 OA
ATOM     57  O   UNL A   1      50.347  25.016  31.477  1.00  0.00    -0.744 OA
ENDBRANCH  53  54
ENDBRANCH  25  48
BRANCH  37  58
ATOM     58  C   UNL A   1      43.584  34.099  33.142  1.00  0.00    -0.014 A 
ATOM     59  C   UNL A   1      43.399  34.260  34.526  1.00  0.00     0.010 A 
ATOM     60  C   UNL A   1      44.392  35.010  32.439  1.00  0.00     0.010 A 
ATOM     61  C   UNL A   1      43.978  35.342  35.189  1.00  0.00     0.020 A 
ATOM     62  C   UNL A   1      44.998  36.075  33.104  1.00  0.00     0.020 A 
ATOM     63  C   UNL A   1      44.771  36.244  34.472  1.00  0.00     0.054 A 
BRANCH  63  64
ATOM     64  S   UNL A   1      45.537  37.626  35.359  1.00  0.00     0.124 S 
ATOM     65  O   UNL A   1      46.385  36.932  36.325  1.00  0.00    -0.237 OA
ATOM     66  O   UNL A   1      46.244  38.337  34.297  1.00  0.00    -0.237 OA
ATOM     67  O   UNL A   1      44.399  38.343  35.930  1.00  0.00    -0.744 OA
ENDBRANCH  63  64
ENDBRANCH  37  58
ENDBRANCH  11  12
ENDBRANCH   4   6
ENDBRANCH   3   4
ENDBRANCH   2   3
ENDBRANCH   1   2
BRANCH   1  68
ATOM     68  O   UNL A   1      34.624  22.018  25.350  1.00  0.00    -0.374 OA
BRANCH  68  69
ATOM     69  C   UNL A   1      34.471  22.536  24.026  1.00  0.00     0.202 C 
BRANCH  69  70
ATOM     70  C   UNL A   1      32.992  22.724  23.708  1.00  0.00     0.261 C 
BRANCH  70  71
ATOM     71  O   UNL A   1      32.554  23.914  24.374  1.00  0.00    -0.463 OA
BRANCH  71  72
ATOM     72  C   UNL A   1      32.632  25.050  23.626  1.00  0.00     0.310 C 
ATOM     73  O   UNL A   1      33.621  25.766  23.531  1.00  0.00    -0.252 OA
BRANCH  72  74
ATOM     74  C   UNL A   1      31.350  25.246  22.827  1.00  0.00     0.119 C 
ATOM     75  C   UNL A   1      31.473  26.453  21.900  1.00  0.00     0.019 C 
ATOM     76  C   UNL A   1      30.155  25.466  23.744  1.00  0.00     0.136 C 
ATOM     77  C   UNL A   1      31.639  27.735  22.702  1.00  0.00     0.023 C 
ATOM     78  N   UNL A   1      30.447  26.562  24.657  1.00  0.00    -0.324 N 
ATOM     79  C   UNL A   1      30.794  27.828  23.981  1.00  0.00     0.121 C 
BRANCH  78  80
ATOM     80  C   UNL A   1      30.507  26.231  26.004  1.00  0.00     0.321 C 
ATOM     81  O   UNL A   1      29.718  25.429  26.517  1.00  0.00    -0.248 OA
ATOM     82  N   UNL A   1      31.536  26.633  26.791  1.00  0.00    -0.308 N 
ATOM     83  H   UNL A   1      31.745  26.019  27.531  1.00  0.00     0.171 HD
BRANCH  82  84
ATOM     84  C   UNL A   1      32.347  27.761  26.735  1.00  0.00     0.042 A 
ATOM     85  C   UNL A   1      31.778  28.986  27.085  1.00  0.00     0.026 A 
ATOM     86  C   UNL A   1      33.708  27.668  26.434  1.00  0.00     0.026 A 
ATOM     87  C   UNL A   1      32.608  30.084  27.296  1.00  0.00     0.002 A 
ATOM     88  C   UNL A   1      34.531  28.771  26.636  1.00  0.00     0.002 A 
ATOM     89  C   UNL A   1      33.985  29.970  27.096  1.00  0.00     0.000 A 
ENDBRANCH  82  84
ENDBRANCH  78  80
ENDBRANCH  72  74
ENDBRANCH  71  72
ENDBRANCH  70  71
ENDBRANCH  69  70
ENDBRANCH  68  69
ENDBRANCH   1  68
TORSDOF 19
ENDMDL
MODEL 2
REMARK VINA RESULT:      -9.6      2.917      9.209
REMARK SMILES O=C(OCCOCCOC(=O)[C@@H]1CCCN(C(=O)Nc2ccccc2)C1)c1ccc(-c2c3nc(c(-c4ccc(S(=O)(=O)[O-])cc4)c4ccc([nH]4)c(-c4ccc(S(=O)(=O)[O-])cc4)c4nc(c(-c5ccc(S(=O)(=O)[O-])cc5)c5ccc2[nH]5)C=C4)C=C3)cc1
REMARK SMILES IDX 5 1 4 2 3 3 2 4 1 5 27 6 28 7 86 8 29 9 85 10 30 11 31 12
REMARK SMILES IDX 32 13 79 14 33 15 84 16 78 17 80 18 34 19 83 20 77 21 76 22
REMARK SMILES IDX 35 24 65 25 46 26 64 27 47 28 50 29 63 30 81 31 48 32 49 33
REMARK SMILES IDX 62 35 82 36 51 37 36 38 37 39 45 40 38 41 44 42 39 43 40 44
REMARK SMILES IDX 41 45 42 46 43 47 66 48 67 49 75 50 68 51 74 52 69 53 70 54
REMARK SMILES IDX 71 55 72 56 73 57 52 58 53 59 61 60 54 61 60 62 55 63 56 64
REMARK SMILES IDX 57 65 58 66 59 67 6 68 7 69 8 70 9 71 10 72 11 73 12 74
REMARK SMILES IDX 13 75 26 76 14 77 16 78 15 79 17 80 18 81 19 82 20 84 21 85
REMARK SMILES IDX 25 86 22 87 24 88 23 89
REMARK H PARENT 80 23 50 34 19 83
REMARK Flexibility Score: inf
ROOT
ATOM      1  C   UNL A   1      31.866  28.013  27.196  1.00  0.00     0.202 C 
ENDROOT
BRANCH   1   2
ATOM      2  C   UNL A   1      32.247  29.484  27.018  1.00  0.00     0.261 C 
BRANCH   2   3
ATOM      3  O   UNL A   1      33.674  29.637  26.997  1.00  0.00    -0.460 OA
BRANCH   3   4
ATOM      4  C   UNL A   1      34.434  30.418  27.802  1.00  0.00     0.338 C 
ATOM      5  O   UNL A   1      33.945  31.469  28.218  1.00  0.00    -0.246 OA
BRANCH   4   6
ATOM      6  C   UNL A   1      35.811  30.057  28.266  1.00  0.00     0.060 A 
ATOM      7  C   UNL A   1      36.155  29.655  29.558  1.00  0.00     0.016 A 
ATOM      8  C   UNL A   1      36.828  30.059  27.293  1.00  0.00     0.016 A 
ATOM      9  C   UNL A   1      37.442  29.293  29.891  1.00  0.00     0.010 A 
ATOM     10  C   UNL A   1      38.137  29.683  27.614  1.00  0.00     0.010 A 
ATOM     11  C   UNL A   1      38.439  29.308  28.925  1.00  0.00    -0.014 A 
BRANCH  11  12
ATOM     12  C   UNL A   1      39.800  29.054  29.413  1.00  0.00     0.031 A 
ATOM     13  C   UNL A   1      40.438  27.751  29.046  1.00  0.00     0.074 A 
ATOM     14  C   UNL A   1      40.498  30.080  29.933  1.00  0.00     0.049 A 
ATOM     15  N   UNL A   1      41.650  27.336  29.280  1.00  0.00    -0.248 NA
ATOM     16  C   UNL A   1      39.609  26.802  28.279  1.00  0.00     0.031 C 
ATOM     17  C   UNL A   1      39.971  31.434  30.148  1.00  0.00     0.029 A 
ATOM     18  N   UNL A   1      41.810  30.172  30.307  1.00  0.00    -0.354 N 
ATOM     19  C   UNL A   1      41.727  26.075  28.703  1.00  0.00     0.074 A 
ATOM     20  C   UNL A   1      40.442  25.788  28.110  1.00  0.00     0.031 C 
ATOM     21  C   UNL A   1      40.963  32.227  30.586  1.00  0.00     0.029 A 
ATOM     22  C   UNL A   1      42.168  31.424  30.748  1.00  0.00     0.049 A 
ATOM     23  H   UNL A   1      42.437  29.414  30.264  1.00  0.00     0.167 HD
ATOM     24  C   UNL A   1      42.786  25.237  28.681  1.00  0.00     0.031 A 
ATOM     25  C   UNL A   1      43.338  31.852  31.259  1.00  0.00     0.031 A 
ATOM     26  C   UNL A   1      44.039  25.552  29.307  1.00  0.00     0.049 A 
ATOM     27  C   UNL A   1      44.457  30.849  31.346  1.00  0.00     0.074 A 
ATOM     28  C   UNL A   1      45.152  24.753  29.476  1.00  0.00     0.029 A 
ATOM     29  N   UNL A   1      44.338  26.789  29.867  1.00  0.00    -0.354 N 
ATOM     30  N   UNL A   1      44.489  29.613  30.900  1.00  0.00    -0.248 NA
ATOM     31  C   UNL A   1      45.688  31.287  32.012  1.00  0.00     0.031 C 
ATOM     32  C   UNL A   1      46.109  25.492  30.180  1.00  0.00     0.029 A 
ATOM     33  C   UNL A   1      45.615  26.772  30.396  1.00  0.00     0.049 A 
ATOM     34  H   UNL A   1      43.730  27.562  29.886  1.00  0.00     0.167 HD
ATOM     35  C   UNL A   1      45.745  29.123  31.231  1.00  0.00     0.074 A 
ATOM     36  C   UNL A   1      46.454  30.212  31.878  1.00  0.00     0.031 C 
ATOM     37  C   UNL A   1      46.268  27.886  31.036  1.00  0.00     0.031 A 
BRANCH  24  38
ATOM     38  C   UNL A   1      42.583  23.892  28.041  1.00  0.00    -0.014 A 
ATOM     39  C   UNL A   1      42.068  22.803  28.768  1.00  0.00     0.010 A 
ATOM     40  C   UNL A   1      42.942  23.708  26.694  1.00  0.00     0.010 A 
ATOM     41  C   UNL A   1      41.945  21.546  28.165  1.00  0.00     0.020 A 
ATOM     42  C   UNL A   1      42.800  22.460  26.082  1.00  0.00     0.020 A 
ATOM     43  C   UNL A   1      42.315  21.382  26.827  1.00  0.00     0.054 A 
BRANCH  43  44
ATOM     44  S   UNL A   1      42.134  19.746  26.065  1.00  0.00     0.124 S 
ATOM     45  O   UNL A   1      43.067  19.829  24.944  1.00  0.00    -0.237 OA
ATOM     46  O   UNL A   1      42.530  18.846  27.145  1.00  0.00    -0.237 OA
ATOM     47  O   UNL A   1      40.721  19.688  25.697  1.00  0.00    -0.744 OA
ENDBRANCH  43  44
ENDBRANCH  24  38
BRANCH  25  48
ATOM     48  C   UNL A   1      43.468  33.230  31.812  1.00  0.00    -0.014 A 
ATOM     49  C   UNL A   1      43.936  34.301  31.033  1.00  0.00     0.010 A 
ATOM     50  C   UNL A   1      43.146  33.468  33.164  1.00  0.00     0.010 A 
ATOM     51  C   UNL A   1      44.112  35.570  31.601  1.00  0.00     0.020 A 
ATOM     52  C   UNL A   1      43.287  34.739  33.726  1.00  0.00     0.020 A 
ATOM     53  C   UNL A   1      43.791  35.779  32.946  1.00  0.00     0.054 A 
BRANCH  53  54
ATOM     54  S   UNL A   1      44.025  37.427  33.668  1.00  0.00     0.124 S 
ATOM     55  O   UNL A   1      44.701  38.138  32.589  1.00  0.00    -0.237 OA
ATOM     56  O   UNL A   1      42.655  37.851  33.945  1.00  0.00    -0.237 OA
ATOM     57  O   UNL A   1      44.839  37.169  34.854  1.00  0.00    -0.744 OA
ENDBRANCH  53  54
ENDBRANCH  25  48
BRANCH  37  58
ATOM     58  C   UNL A   1      47.675  27.673  31.514  1.00  0.00    -0.014 A 
ATOM     59  C   UNL A   1      47.934  27.138  32.788  1.00  0.00     0.010 A 
ATOM     60  C   UNL A   1      48.747  27.980  30.658  1.00  0.00     0.010 A 
ATOM     61  C   UNL A   1      49.248  26.954  33.216  1.00  0.00     0.020 A 
ATOM     62  C   UNL A   1      50.062  27.768  31.072  1.00  0.00     0.020 A 
ATOM     63  C   UNL A   1      50.304  27.273  32.355  1.00  0.00     0.054 A 
BRANCH  63  64
ATOM     64  S   UNL A   1      52.003  26.998  32.922  1.00  0.00     0.124 S 
ATOM     65  O   UNL A   1      52.127  27.985  33.991  1.00  0.00    -0.237 OA
ATOM     66  O   UNL A   1      51.977  25.603  33.352  1.00  0.00    -0.237 OA
ATOM     67  O   UNL A   1      52.810  27.263  31.733  1.00  0.00    -0.744 OA
ENDBRANCH  63  64
ENDBRANCH  37  58
ENDBRANCH  11  12
ENDBRANCH   4   6
ENDBRANCH   3   4
ENDBRANCH   2   3
ENDBRANCH   1   2
BRANCH   1  68
ATOM     68  O   UNL A   1      31.263  27.448  26.032  1.00  0.00    -0.374 OA
BRANCH  68  69
ATOM     69  C   UNL A   1      30.885  26.072  26.119  1.00  0.00     0.202 C 
BRANCH  69  70
ATOM     70  C   UNL A   1      31.719  25.241  25.151  1.00  0.00     0.261 C 
BRANCH  70  71
ATOM     71  O   UNL A   1      32.536  24.360  25.929  1.00  0.00    -0.463 OA
BRANCH  71  72
ATOM     72  C   UNL A   1      33.821  24.238  25.494  1.00  0.00     0.310 C 
ATOM     73  O   UNL A   1      34.291  24.804  24.515  1.00  0.00    -0.252 OA
BRANCH  72  74
ATOM     74  C   UNL A   1      34.631  23.388  26.465  1.00  0.00     0.119 C 
ATOM     75  C   UNL A   1      36.125  23.519  26.180  1.00  0.00     0.019 C 
ATOM     76  C   UNL A   1      34.251  21.918  26.363  1.00  0.00     0.136 C 
ATOM     77  C   UNL A   1      36.461  22.972  24.801  1.00  0.00     0.023 C 
ATOM     78  N   UNL A   1      34.366  21.489  24.975  1.00  0.00    -0.324 N 
ATOM     79  C   UNL A   1      35.707  21.697  24.394  1.00  0.00     0.121 C 
BRANCH  78  80
ATOM     80  C   UNL A   1      33.185  21.096  24.361  1.00  0.00     0.321 C 
ATOM     81  O   UNL A   1      32.354  21.915  23.952  1.00  0.00    -0.248 OA
ATOM     82  N   UNL A   1      32.957  19.803  24.020  1.00  0.00    -0.308 N 
ATOM     83  H   UNL A   1      32.378  19.687  23.232  1.00  0.00     0.171 HD
BRANCH  82  84
ATOM     84  C   UNL A   1      33.396  18.613  24.589  1.00  0.00     0.042 A 
ATOM     85  C   UNL A   1      32.508  17.921  25.412  1.00  0.00     0.026 A 
ATOM     86  C   UNL A   1      34.646  18.073  24.277  1.00  0.00     0.026 A 
ATOM     87  C   UNL A   1      32.806  16.613  25.786  1.00  0.00     0.002 A 
ATOM     88  C   UNL A   1      34.944  16.769  24.662  1.00  0.00     0.002 A 
ATOM     89  C   UNL A   1      34.011  16.030  25.389  1.00  0.00     0.000 A 
ENDBRANCH  82  84
ENDBRANCH  78  80
ENDBRANCH  72  74
ENDBRANCH  71  72
ENDBRANCH  70  71
ENDBRANCH  69  70
ENDBRANCH  68  69
ENDBRANCH   1  68
TORSDOF 19
ENDMDL
MODEL 3
REMARK VINA RESULT:      -9.6      2.665      8.937
REMARK SMILES O=C(OCCOCCOC(=O)[C@@H]1CCCN(C(=O)Nc2ccccc2)C1)c1ccc(-c2c3nc(c(-c4ccc(S(=O)(=O)[O-])cc4)c4ccc([nH]4)c(-c4ccc(S(=O)(=O)[O-])cc4)c4nc(c(-c5ccc(S(=O)(=O)[O-])cc5)c5ccc2[nH]5)C=C4)C=C3)cc1
REMARK SMILES IDX 5 1 4 2 3 3 2 4 1 5 27 6 28 7 86 8 29 9 85 10 30 11 31 12
REMARK SMILES IDX 32 13 79 14 33 15 84 16 78 17 80 18 34 19 83 20 77 21 76 22
REMARK SMILES IDX 35 24 65 25 46 26 64 27 47 28 50 29 63 30 81 31 48 32 49 33
REMARK SMILES IDX 62 35 82 36 51 37 36 38 37 39 45 40 38 41 44 42 39 43 40 44
REMARK SMILES IDX 41 45 42 46 43 47 66 48 67 49 75 50 68 51 74 52 69 53 70 54
REMARK SMILES IDX 71 55 72 56 73 57 52 58 53 59 61 60 54 61 60 62 55 63 56 64
REMARK SMILES IDX 57 65 58 66 59 67 6 68 7 69 8 70 9 71 10 72 11 73 12 74
REMARK SMILES IDX 13 75 26 76 14 77 16 78 15 79 17 80 18 81 19 82 20 84 21 85
REMARK SMILES IDX 25 86 22 87 24 88 23 89
REMARK H PARENT 80 23 50 34 19 83
REMARK Flexibility Score: inf
ROOT
ATOM      1  C   UNL A   1      32.286  28.669  25.533  1.00  0.00     0.202 C 
ENDROOT
BRANCH   1   2
ATOM      2  C   UNL A   1      32.456  29.766  26.586  1.00  0.00     0.261 C 
BRANCH   2   3
ATOM      3  O   UNL A   1      33.551  29.459  27.462  1.00  0.00    -0.460 OA
BRANCH   3   4
ATOM      4  C   UNL A   1      34.435  30.324  28.015  1.00  0.00     0.338 C 
ATOM      5  O   UNL A   1      34.045  31.465  28.271  1.00  0.00    -0.246 OA
BRANCH   4   6
ATOM      6  C   UNL A   1      35.840  29.966  28.389  1.00  0.00     0.060 A 
ATOM      7  C   UNL A   1      36.266  29.557  29.654  1.00  0.00     0.016 A 
ATOM      8  C   UNL A   1      36.793  29.980  27.354  1.00  0.00     0.016 A 
ATOM      9  C   UNL A   1      37.573  29.198  29.903  1.00  0.00     0.010 A 
ATOM     10  C   UNL A   1      38.121  29.607  27.590  1.00  0.00     0.010 A 
ATOM     11  C   UNL A   1      38.507  29.224  28.876  1.00  0.00    -0.014 A 
BRANCH  11  12
ATOM     12  C   UNL A   1      39.896  28.972  29.276  1.00  0.00     0.031 A 
ATOM     13  C   UNL A   1      40.498  27.653  28.906  1.00  0.00     0.074 A 
ATOM     14  C   UNL A   1      40.637  30.007  29.714  1.00  0.00     0.049 A 
ATOM     15  N   UNL A   1      41.721  27.234  29.068  1.00  0.00    -0.248 NA
ATOM     16  C   UNL A   1      39.611  26.689  28.228  1.00  0.00     0.031 C 
ATOM     17  C   UNL A   1      40.136  31.372  29.923  1.00  0.00     0.029 A 
ATOM     18  N   UNL A   1      41.972  30.098  29.993  1.00  0.00    -0.354 N 
ATOM     19  C   UNL A   1      41.748  25.955  28.525  1.00  0.00     0.074 A 
ATOM     20  C   UNL A   1      40.423  25.662  28.033  1.00  0.00     0.031 C 
ATOM     21  C   UNL A   1      41.162  32.168  30.267  1.00  0.00     0.029 A 
ATOM     22  C   UNL A   1      42.369  31.359  30.369  1.00  0.00     0.049 A 
ATOM     23  H   UNL A   1      42.590  29.334  29.930  1.00  0.00     0.167 HD
ATOM     24  C   UNL A   1      42.797  25.107  28.456  1.00  0.00     0.031 A 
ATOM     25  C   UNL A   1      43.575  31.792  30.784  1.00  0.00     0.031 A 
ATOM     26  C   UNL A   1      44.094  25.430  28.983  1.00  0.00     0.049 A 
ATOM     27  C   UNL A   1      44.690  30.782  30.824  1.00  0.00     0.074 A 
ATOM     28  C   UNL A   1      45.209  24.626  29.098  1.00  0.00     0.029 A 
ATOM     29  N   UNL A   1      44.440  26.680  29.483  1.00  0.00    -0.354 N 
ATOM     30  N   UNL A   1      44.682  29.532  30.415  1.00  0.00    -0.248 NA
ATOM     31  C   UNL A   1      45.968  31.228  31.388  1.00  0.00     0.031 C 
ATOM     32  C   UNL A   1      46.219  25.378  29.711  1.00  0.00     0.029 A 
ATOM     33  C   UNL A   1      45.750  26.667  29.921  1.00  0.00     0.049 A 
ATOM     34  H   UNL A   1      43.840  27.459  29.520  1.00  0.00     0.167 HD
ATOM     35  C   UNL A   1      45.955  29.041  30.673  1.00  0.00     0.074 A 
ATOM     36  C   UNL A   1      46.715  30.143  31.235  1.00  0.00     0.031 C 
ATOM     37  C   UNL A   1      46.454  27.795  30.480  1.00  0.00     0.031 A 
BRANCH  24  38
ATOM     38  C   UNL A   1      42.541  23.746  27.873  1.00  0.00    -0.014 A 
ATOM     39  C   UNL A   1      42.050  22.689  28.662  1.00  0.00     0.010 A 
ATOM     40  C   UNL A   1      42.824  23.512  26.515  1.00  0.00     0.010 A 
ATOM     41  C   UNL A   1      41.877  21.416  28.110  1.00  0.00     0.020 A 
ATOM     42  C   UNL A   1      42.631  22.247  25.955  1.00  0.00     0.020 A 
ATOM     43  C   UNL A   1      42.171  21.202  26.760  1.00  0.00     0.054 A 
BRANCH  43  44
ATOM     44  S   UNL A   1      41.926  19.545  26.065  1.00  0.00     0.124 S 
ATOM     45  O   UNL A   1      40.485  19.529  25.822  1.00  0.00    -0.237 OA
ATOM     46  O   UNL A   1      42.763  19.574  24.869  1.00  0.00    -0.237 OA
ATOM     47  O   UNL A   1      42.389  18.651  27.124  1.00  0.00    -0.744 OA
ENDBRANCH  43  44
ENDBRANCH  24  38
BRANCH  25  48
ATOM     48  C   UNL A   1      43.753  33.185  31.284  1.00  0.00    -0.014 A 
ATOM     49  C   UNL A   1      43.427  33.547  32.602  1.00  0.00     0.010 A 
ATOM     50  C   UNL A   1      44.231  34.181  30.408  1.00  0.00     0.010 A 
ATOM     51  C   UNL A   1      43.540  34.879  33.022  1.00  0.00     0.020 A 
ATOM     52  C   UNL A   1      44.379  35.504  30.833  1.00  0.00     0.020 A 
ATOM     53  C   UNL A   1      44.011  35.849  32.132  1.00  0.00     0.054 A 
BRANCH  53  54
ATOM     54  S   UNL A   1      44.151  37.571  32.690  1.00  0.00     0.124 S 
ATOM     55  O   UNL A   1      43.128  37.638  33.727  1.00  0.00    -0.237 OA
ATOM     56  O   UNL A   1      45.533  37.641  33.160  1.00  0.00    -0.237 OA
ATOM     57  O   UNL A   1      43.873  38.346  31.484  1.00  0.00    -0.744 OA
ENDBRANCH  53  54
ENDBRANCH  25  48
BRANCH  37  58
ATOM     58  C   UNL A   1      47.890  27.583  30.865  1.00  0.00    -0.014 A 
ATOM     59  C   UNL A   1      48.922  27.740  29.924  1.00  0.00     0.010 A 
ATOM     60  C   UNL A   1      48.205  27.257  32.195  1.00  0.00     0.010 A 
ATOM     61  C   UNL A   1      50.249  27.531  30.299  1.00  0.00     0.020 A 
ATOM     62  C   UNL A   1      49.534  27.078  32.581  1.00  0.00     0.020 A 
ATOM     63  C   UNL A   1      50.545  27.199  31.625  1.00  0.00     0.054 A 
BRANCH  63  64
ATOM     64  S   UNL A   1      52.278  26.961  32.097  1.00  0.00     0.124 S 
ATOM     65  O   UNL A   1      52.982  27.625  31.004  1.00  0.00    -0.237 OA
ATOM     66  O   UNL A   1      52.353  27.630  33.393  1.00  0.00    -0.237 OA
ATOM     67  O   UNL A   1      52.427  25.508  32.143  1.00  0.00    -0.744 OA
ENDBRANCH  63  64
ENDBRANCH  37  58
ENDBRANCH  11  12
ENDBRANCH   4   6
ENDBRANCH   3   4
ENDBRANCH   2   3
ENDBRANCH   1   2
BRANCH   1  68
ATOM     68  O   UNL A   1      31.436  29.060  24.454  1.00  0.00    -0.374 OA
BRANCH  68  69
ATOM     69  C   UNL A   1      31.133  28.048  23.490  1.00  0.00     0.202 C 
BRANCH  69  70
ATOM     70  C   UNL A   1      30.494  26.848  24.179  1.00  0.00     0.261 C 
BRANCH  70  71
ATOM     71  O   UNL A   1      31.226  25.682  23.786  1.00  0.00    -0.463 OA
BRANCH  71  72
ATOM     72  C   UNL A   1      31.597  24.866  24.811  1.00  0.00     0.310 C 
ATOM     73  O   UNL A   1      32.223  25.220  25.803  1.00  0.00    -0.252 OA
BRANCH  72  74
ATOM     74  C   UNL A   1      31.022  23.469  24.612  1.00  0.00     0.119 C 
ATOM     75  C   UNL A   1      31.046  22.685  25.921  1.00  0.00     0.019 C 
ATOM     76  C   UNL A   1      31.813  22.690  23.571  1.00  0.00     0.136 C 
ATOM     77  C   UNL A   1      32.475  22.460  26.390  1.00  0.00     0.023 C 
ATOM     78  N   UNL A   1      33.223  22.694  23.939  1.00  0.00    -0.324 N 
ATOM     79  C   UNL A   1      33.492  22.143  25.282  1.00  0.00     0.121 C 
BRANCH  78  80
ATOM     80  C   UNL A   1      34.079  23.340  23.058  1.00  0.00     0.321 C 
ATOM     81  O   UNL A   1      33.710  23.707  21.936  1.00  0.00    -0.248 OA
ATOM     82  N   UNL A   1      35.311  23.758  23.440  1.00  0.00    -0.308 N 
ATOM     83  H   UNL A   1      35.635  24.556  22.964  1.00  0.00     0.171 HD
BRANCH  82  84
ATOM     84  C   UNL A   1      36.197  23.256  24.387  1.00  0.00     0.042 A 
ATOM     85  C   UNL A   1      36.751  21.997  24.153  1.00  0.00     0.026 A 
ATOM     86  C   UNL A   1      36.599  24.017  25.487  1.00  0.00     0.026 A 
ATOM     87  C   UNL A   1      37.828  21.574  24.928  1.00  0.00     0.002 A 
ATOM     88  C   UNL A   1      37.668  23.585  26.265  1.00  0.00     0.002 A 
ATOM     89  C   UNL A   1      38.302  22.379  25.966  1.00  0.00     0.000 A 
ENDBRANCH  82  84
ENDBRANCH  78  80
ENDBRANCH  72  74
ENDBRANCH  71  72
ENDBRANCH  70  71
ENDBRANCH  69  70
ENDBRANCH  68  69
ENDBRANCH   1  68
TORSDOF 19
ENDMDL
