MODEL 1
REMARK VINA RESULT:     -10.6      0.000      0.000
REMARK SMILES O=C(CCC(=O)OCCOCCOC(=O)c1ccc(-c2c3nc(c(-c4ccc(S(=O)(=O)[O-])cc4)c4ccc([nH]4)c(-c4ccc(S(=O)(=O)[O-])cc4)c4nc(c(-c5ccc(S(=O)(=O)[O-])cc5)c5ccc2[nH]5)C=C4)C=C3)cc1)Nc1cccc2c1C(=O)c1ccccc1C2=O
REMARK SMILES IDX 10 1 9 2 8 3 7 4 5 5 6 6 4 7 3 8 2 9 1 10 76 11 77 13 78 14
REMARK SMILES IDX 82 15 79 16 81 17 83 18 80 19 91 20 84 21 85 22 90 23 92 24
REMARK SMILES IDX 86 25 89 26 87 27 88 28 11 29 12 30 13 31 14 32 15 33 16 34
REMARK SMILES IDX 17 35 75 36 18 37 74 38 19 39 20 40 21 41 68 42 22 43 73 44
REMARK SMILES IDX 67 45 69 46 23 47 72 48 66 49 65 50 24 52 54 53 35 54 53 55
REMARK SMILES IDX 36 56 39 57 52 58 70 59 37 60 38 61 51 63 71 64 40 65 25 66
REMARK SMILES IDX 26 67 34 68 27 69 33 70 28 71 29 72 30 73 31 74 32 75 55 76
REMARK SMILES IDX 56 77 64 78 57 79 63 80 58 81 59 82 60 83 61 84 62 85 41 86
REMARK SMILES IDX 42 87 50 88 43 89 49 90 44 91 45 92 46 93 47 94 48 95
REMARK H PARENT 76 12 69 51 39 62
REMARK Flexibility Score: inf
ROOT
ATOM      1  O   UNL A   1      42.084  19.827  27.398  1.00  0.00    -0.374 OA
ENDROOT
BRANCH   1   2
ATOM      2  C   UNL A   1      41.162  20.873  27.717  1.00  0.00     0.202 C 
BRANCH   2   3
ATOM      3  C   UNL A   1      41.442  22.150  26.922  1.00  0.00     0.261 C 
BRANCH   3   4
ATOM      4  O   UNL A   1      40.273  22.561  26.170  1.00  0.00    -0.463 OA
BRANCH   4   5
ATOM      5  C   UNL A   1      39.454  23.470  26.762  1.00  0.00     0.306 C 
ATOM      6  O   UNL A   1      39.735  24.134  27.752  1.00  0.00    -0.252 OA
BRANCH   5   7
ATOM      7  C   UNL A   1      38.081  23.501  26.121  1.00  0.00     0.132 C 
BRANCH   7   8
ATOM      8  C   UNL A   1      37.626  22.165  25.546  1.00  0.00     0.112 C 
BRANCH   8   9
ATOM      9  C   UNL A   1      36.124  21.899  25.487  1.00  0.00     0.224 C 
ATOM     10  O   UNL A   1      35.542  21.471  26.480  1.00  0.00    -0.275 OA
ATOM     11  N   UNL A   1      35.504  22.335  24.336  1.00  0.00    -0.325 N 
ATOM     12  H   UNL A   1      36.044  22.367  23.514  1.00  0.00     0.169 HD
BRANCH  11  13
ATOM     13  C   UNL A   1      34.143  22.745  24.244  1.00  0.00     0.053 A 
ATOM     14  C   UNL A   1      33.326  21.691  23.820  1.00  0.00     0.027 A 
ATOM     15  C   UNL A   1      33.796  24.046  23.861  1.00  0.00     0.057 A 
ATOM     16  C   UNL A   1      32.534  21.890  22.698  1.00  0.00     0.003 A 
ATOM     17  C   UNL A   1      33.318  24.178  22.573  1.00  0.00     0.036 A 
ATOM     18  C   UNL A   1      32.932  24.842  24.823  1.00  0.00     0.196 C 
ATOM     19  C   UNL A   1      32.598  23.113  22.030  1.00  0.00     0.013 A 
ATOM     20  C   UNL A   1      33.025  25.537  22.110  1.00  0.00     0.194 C 
ATOM     21  O   UNL A   1      33.001  24.660  26.032  1.00  0.00    -0.288 OA
ATOM     22  C   UNL A   1      31.911  25.798  24.260  1.00  0.00     0.034 A 
ATOM     23  C   UNL A   1      32.024  26.218  22.930  1.00  0.00     0.034 A 
ATOM     24  O   UNL A   1      33.533  26.013  21.109  1.00  0.00    -0.289 OA
ATOM     25  C   UNL A   1      30.802  26.214  24.997  1.00  0.00     0.013 A 
ATOM     26  C   UNL A   1      31.106  27.087  22.338  1.00  0.00     0.013 A 
ATOM     27  C   UNL A   1      29.842  27.043  24.396  1.00  0.00     0.001 A 
ATOM     28  C   UNL A   1      30.003  27.493  23.080  1.00  0.00     0.001 A 
ENDBRANCH  11  13
ENDBRANCH   8   9
ENDBRANCH   7   8
ENDBRANCH   5   7
ENDBRANCH   4   5
ENDBRANCH   3   4
ENDBRANCH   2   3
ENDBRANCH   1   2
BRANCH   1  29
ATOM     29  C   UNL A   1      41.871  19.209  26.129  1.00  0.00     0.202 C 
BRANCH  29  30
ATOM     30  C   UNL A   1      42.919  18.145  25.788  1.00  0.00     0.261 C 
BRANCH  30  31
ATOM     31  O   UNL A   1      44.240  18.711  25.701  1.00  0.00    -0.460 OA
BRANCH  31  32
ATOM     32  C   UNL A   1      44.531  19.359  24.542  1.00  0.00     0.338 C 
ATOM     33  O   UNL A   1      44.567  18.881  23.426  1.00  0.00    -0.246 OA
BRANCH  32  34
ATOM     34  C   UNL A   1      44.693  20.812  24.806  1.00  0.00     0.060 A 
ATOM     35  C   UNL A   1      44.534  21.713  23.742  1.00  0.00     0.016 A 
ATOM     36  C   UNL A   1      45.024  21.291  26.069  1.00  0.00     0.016 A 
ATOM     37  C   UNL A   1      44.688  23.094  23.943  1.00  0.00     0.010 A 
ATOM     38  C   UNL A   1      45.189  22.667  26.259  1.00  0.00     0.010 A 
ATOM     39  C   UNL A   1      45.010  23.592  25.210  1.00  0.00    -0.014 A 
BRANCH  39  40
ATOM     40  C   UNL A   1      45.192  25.046  25.507  1.00  0.00     0.031 A 
ATOM     41  C   UNL A   1      46.592  25.602  25.562  1.00  0.00     0.074 A 
ATOM     42  C   UNL A   1      44.164  25.842  25.877  1.00  0.00     0.049 A 
ATOM     43  N   UNL A   1      47.010  26.748  26.034  1.00  0.00    -0.248 NA
ATOM     44  C   UNL A   1      47.659  24.736  25.035  1.00  0.00     0.031 C 
ATOM     45  C   UNL A   1      42.749  25.474  25.880  1.00  0.00     0.029 A 
ATOM     46  N   UNL A   1      44.166  27.115  26.402  1.00  0.00    -0.354 N 
ATOM     47  C   UNL A   1      48.390  26.735  25.871  1.00  0.00     0.074 A 
ATOM     48  C   UNL A   1      48.741  25.444  25.319  1.00  0.00     0.031 C 
ATOM     49  C   UNL A   1      42.036  26.447  26.477  1.00  0.00     0.029 A 
ATOM     50  C   UNL A   1      42.937  27.522  26.876  1.00  0.00     0.049 A 
ATOM     51  H   UNL A   1      44.970  27.683  26.435  1.00  0.00     0.167 HD
ATOM     52  C   UNL A   1      49.287  27.719  26.115  1.00  0.00     0.031 A 
ATOM     53  C   UNL A   1      42.575  28.622  27.566  1.00  0.00     0.031 A 
ATOM     54  C   UNL A   1      48.955  29.026  26.600  1.00  0.00     0.049 A 
ATOM     55  C   UNL A   1      43.588  29.697  27.853  1.00  0.00     0.074 A 
ATOM     56  C   UNL A   1      49.789  30.119  26.767  1.00  0.00     0.029 A 
ATOM     57  N   UNL A   1      47.686  29.425  26.981  1.00  0.00    -0.354 N 
ATOM     58  N   UNL A   1      44.875  29.696  27.611  1.00  0.00    -0.248 NA
ATOM     59  C   UNL A   1      43.089  30.942  28.462  1.00  0.00     0.031 C 
ATOM     60  C   UNL A   1      49.022  31.181  27.260  1.00  0.00     0.029 A 
ATOM     61  C   UNL A   1      47.712  30.749  27.382  1.00  0.00     0.049 A 
ATOM     62  H   UNL A   1      46.886  28.852  26.970  1.00  0.00     0.167 HD
ATOM     63  C   UNL A   1      45.321  30.966  27.961  1.00  0.00     0.074 A 
ATOM     64  C   UNL A   1      44.181  31.694  28.472  1.00  0.00     0.031 C 
ATOM     65  C   UNL A   1      46.565  31.486  27.837  1.00  0.00     0.031 A 
BRANCH  52  66
ATOM     66  C   UNL A   1      50.724  27.416  25.806  1.00  0.00    -0.014 A 
ATOM     67  C   UNL A   1      51.294  27.838  24.593  1.00  0.00     0.010 A 
ATOM     68  C   UNL A   1      51.511  26.715  26.736  1.00  0.00     0.010 A 
ATOM     69  C   UNL A   1      52.618  27.519  24.289  1.00  0.00     0.020 A 
ATOM     70  C   UNL A   1      52.843  26.414  26.444  1.00  0.00     0.020 A 
ATOM     71  C   UNL A   1      53.380  26.799  25.212  1.00  0.00     0.054 A 
BRANCH  71  72
ATOM     72  S   UNL A   1      55.101  26.398  24.803  1.00  0.00     0.124 S 
ATOM     73  O   UNL A   1      55.173  26.800  23.400  1.00  0.00    -0.237 OA
ATOM     74  O   UNL A   1      55.861  27.228  25.733  1.00  0.00    -0.237 OA
ATOM     75  O   UNL A   1      55.183  24.960  25.046  1.00  0.00    -0.744 OA
ENDBRANCH  71  72
ENDBRANCH  52  66
BRANCH  53  76
ATOM     76  C   UNL A   1      41.174  28.797  28.034  1.00  0.00    -0.014 A 
ATOM     77  C   UNL A   1      40.183  29.267  27.155  1.00  0.00     0.010 A 
ATOM     78  C   UNL A   1      40.848  28.565  29.382  1.00  0.00     0.010 A 
ATOM     79  C   UNL A   1      38.896  29.543  27.626  1.00  0.00     0.020 A 
ATOM     80  C   UNL A   1      39.557  28.827  29.852  1.00  0.00     0.020 A 
ATOM     81  C   UNL A   1      38.595  29.333  28.976  1.00  0.00     0.054 A 
BRANCH  81  82
ATOM     82  S   UNL A   1      36.921  29.708  29.569  1.00  0.00     0.124 S 
ATOM     83  O   UNL A   1      36.981  31.155  29.746  1.00  0.00    -0.237 OA
ATOM     84  O   UNL A   1      36.081  29.236  28.471  1.00  0.00    -0.237 OA
ATOM     85  O   UNL A   1      36.817  28.927  30.801  1.00  0.00    -0.744 OA
ENDBRANCH  81  82
ENDBRANCH  53  76
BRANCH  65  86
ATOM     86  C   UNL A   1      46.752  32.944  28.141  1.00  0.00    -0.014 A 
ATOM     87  C   UNL A   1      47.077  33.391  29.431  1.00  0.00     0.010 A 
ATOM     88  C   UNL A   1      46.691  33.870  27.082  1.00  0.00     0.010 A 
ATOM     89  C   UNL A   1      47.336  34.746  29.659  1.00  0.00     0.020 A 
ATOM     90  C   UNL A   1      46.963  35.221  27.305  1.00  0.00     0.020 A 
ATOM     91  C   UNL A   1      47.279  35.652  28.594  1.00  0.00     0.054 A 
BRANCH  91  92
ATOM     92  S   UNL A   1      47.708  37.391  28.887  1.00  0.00     0.124 S 
ATOM     93  O   UNL A   1      47.567  37.498  30.336  1.00  0.00    -0.237 OA
ATOM     94  O   UNL A   1      49.075  37.481  28.379  1.00  0.00    -0.237 OA
ATOM     95  O   UNL A   1      46.714  38.125  28.106  1.00  0.00    -0.744 OA
ENDBRANCH  91  92
ENDBRANCH  65  86
ENDBRANCH  39  40
ENDBRANCH  32  34
ENDBRANCH  31  32
ENDBRANCH  30  31
ENDBRANCH  29  30
ENDBRANCH   1  29
TORSDOF 20
ENDMDL
MODEL 2
REMARK VINA RESULT:     -10.4      6.337      8.702
REMARK SMILES O=C(CCC(=O)OCCOCCOC(=O)c1ccc(-c2c3nc(c(-c4ccc(S(=O)(=O)[O-])cc4)c4ccc([nH]4)c(-c4ccc(S(=O)(=O)[O-])cc4)c4nc(c(-c5ccc(S(=O)(=O)[O-])cc5)c5ccc2[nH]5)C=C4)C=C3)cc1)Nc1cccc2c1C(=O)c1ccccc1C2=O
REMARK SMILES IDX 10 1 9 2 8 3 7 4 5 5 6 6 4 7 3 8 2 9 1 10 76 11 77 13 78 14
REMARK SMILES IDX 82 15 79 16 81 17 83 18 80 19 91 20 84 21 85 22 90 23 92 24
REMARK SMILES IDX 86 25 89 26 87 27 88 28 11 29 12 30 13 31 14 32 15 33 16 34
REMARK SMILES IDX 17 35 75 36 18 37 74 38 19 39 20 40 21 41 68 42 22 43 73 44
REMARK SMILES IDX 67 45 69 46 23 47 72 48 66 49 65 50 24 52 54 53 35 54 53 55
REMARK SMILES IDX 36 56 39 57 52 58 70 59 37 60 38 61 51 63 71 64 40 65 25 66
REMARK SMILES IDX 26 67 34 68 27 69 33 70 28 71 29 72 30 73 31 74 32 75 55 76
REMARK SMILES IDX 56 77 64 78 57 79 63 80 58 81 59 82 60 83 61 84 62 85 41 86
REMARK SMILES IDX 42 87 50 88 43 89 49 90 44 91 45 92 46 93 47 94 48 95
REMARK H PARENT 76 12 69 51 39 62
REMARK Flexibility Score: inf
ROOT
ATOM      1  O   UNL A   1      39.332  21.552  26.673  1.00  0.00    -0.374 OA
ENDROOT
BRANCH   1   2
ATOM      2  C   UNL A   1      38.552  22.023  25.572  1.00  0.00     0.202 C 
BRANCH   2   3
ATOM      3  C   UNL A   1      37.339  21.130  25.301  1.00  0.00     0.261 C 
BRANCH   3   4
ATOM      4  O   UNL A   1      36.236  21.472  26.175  1.00  0.00    -0.463 OA
BRANCH   4   5
ATOM      5  C   UNL A   1      35.191  22.133  25.610  1.00  0.00     0.306 C 
ATOM      6  O   UNL A   1      34.588  23.069  26.119  1.00  0.00    -0.252 OA
BRANCH   5   7
ATOM      7  C   UNL A   1      34.767  21.507  24.296  1.00  0.00     0.132 C 
BRANCH   7   8
ATOM      8  C   UNL A   1      33.390  20.855  24.326  1.00  0.00     0.112 C 
BRANCH   8   9
ATOM      9  C   UNL A   1      32.184  21.765  24.545  1.00  0.00     0.224 C 
ATOM     10  O   UNL A   1      31.359  21.485  25.410  1.00  0.00    -0.275 OA
ATOM     11  N   UNL A   1      32.218  22.949  23.841  1.00  0.00    -0.325 N 
ATOM     12  H   UNL A   1      32.707  22.956  22.987  1.00  0.00     0.169 HD
BRANCH  11  13
ATOM     13  C   UNL A   1      31.601  24.165  24.253  1.00  0.00     0.053 A 
ATOM     14  C   UNL A   1      30.433  24.412  23.523  1.00  0.00     0.027 A 
ATOM     15  C   UNL A   1      32.360  25.262  24.677  1.00  0.00     0.057 A 
ATOM     16  C   UNL A   1      30.326  25.622  22.855  1.00  0.00     0.003 A 
ATOM     17  C   UNL A   1      32.462  26.299  23.771  1.00  0.00     0.036 A 
ATOM     18  C   UNL A   1      32.071  25.808  26.064  1.00  0.00     0.196 C 
ATOM     19  C   UNL A   1      31.383  26.529  22.917  1.00  0.00     0.013 A 
ATOM     20  C   UNL A   1      33.319  27.427  24.147  1.00  0.00     0.194 C 
ATOM     21  O   UNL A   1      31.679  25.074  26.962  1.00  0.00    -0.288 OA
ATOM     22  C   UNL A   1      32.184  27.293  26.297  1.00  0.00     0.034 A 
ATOM     23  C   UNL A   1      32.895  28.080  25.385  1.00  0.00     0.034 A 
ATOM     24  O   UNL A   1      34.250  27.802  23.456  1.00  0.00    -0.289 OA
ATOM     25  C   UNL A   1      31.526  27.928  27.351  1.00  0.00     0.013 A 
ATOM     26  C   UNL A   1      33.024  29.462  25.529  1.00  0.00     0.013 A 
ATOM     27  C   UNL A   1      31.602  29.324  27.476  1.00  0.00     0.001 A 
ATOM     28  C   UNL A   1      32.362  30.085  26.580  1.00  0.00     0.001 A 
ENDBRANCH  11  13
ENDBRANCH   8   9
ENDBRANCH   7   8
ENDBRANCH   5   7
ENDBRANCH   4   5
ENDBRANCH   3   4
ENDBRANCH   2   3
ENDBRANCH   1   2
BRANCH   1  29
ATOM     29  C   UNL A   1      40.619  21.046  26.321  1.00  0.00     0.202 C 
BRANCH  29  30
ATOM     30  C   UNL A   1      41.762  22.014  26.640  1.00  0.00     0.261 C 
BRANCH  30  31
ATOM     31  O   UNL A   1      41.274  23.237  27.223  1.00  0.00    -0.460 OA
BRANCH  31  32
ATOM     32  C   UNL A   1      41.791  24.385  26.710  1.00  0.00     0.338 C 
ATOM     33  O   UNL A   1      42.237  24.550  25.592  1.00  0.00    -0.246 OA
BRANCH  32  34
ATOM     34  C   UNL A   1      41.631  25.490  27.689  1.00  0.00     0.060 A 
ATOM     35  C   UNL A   1      42.701  26.376  27.889  1.00  0.00     0.016 A 
ATOM     36  C   UNL A   1      40.462  25.646  28.427  1.00  0.00     0.016 A 
ATOM     37  C   UNL A   1      42.597  27.429  28.812  1.00  0.00     0.010 A 
ATOM     38  C   UNL A   1      40.371  26.690  29.354  1.00  0.00     0.010 A 
ATOM     39  C   UNL A   1      41.425  27.606  29.552  1.00  0.00    -0.014 A 
BRANCH  39  40
ATOM     40  C   UNL A   1      41.234  28.700  30.555  1.00  0.00     0.031 A 
ATOM     41  C   UNL A   1      41.957  28.604  31.873  1.00  0.00     0.074 A 
ATOM     42  C   UNL A   1      40.325  29.685  30.384  1.00  0.00     0.049 A 
ATOM     43  N   UNL A   1      41.766  29.284  32.974  1.00  0.00    -0.248 NA
ATOM     44  C   UNL A   1      43.022  27.592  31.963  1.00  0.00     0.031 C 
ATOM     45  C   UNL A   1      39.539  29.931  29.176  1.00  0.00     0.029 A 
ATOM     46  N   UNL A   1      39.851  30.625  31.272  1.00  0.00    -0.354 N 
ATOM     47  C   UNL A   1      42.677  28.772  33.891  1.00  0.00     0.074 A 
ATOM     48  C   UNL A   1      43.372  27.685  33.236  1.00  0.00     0.031 C 
ATOM     49  C   UNL A   1      38.613  30.874  29.429  1.00  0.00     0.029 A 
ATOM     50  C   UNL A   1      38.756  31.321  30.810  1.00  0.00     0.049 A 
ATOM     51  H   UNL A   1      40.257  30.784  32.155  1.00  0.00     0.167 HD
ATOM     52  C   UNL A   1      42.947  29.190  35.149  1.00  0.00     0.031 A 
ATOM     53  C   UNL A   1      37.946  32.207  31.426  1.00  0.00     0.031 A 
ATOM     54  C   UNL A   1      42.317  30.306  35.793  1.00  0.00     0.049 A 
ATOM     55  C   UNL A   1      38.243  32.645  32.834  1.00  0.00     0.074 A 
ATOM     56  C   UNL A   1      42.612  30.866  37.024  1.00  0.00     0.029 A 
ATOM     57  N   UNL A   1      41.276  31.040  35.255  1.00  0.00    -0.354 N 
ATOM     58  N   UNL A   1      39.166  32.204  33.652  1.00  0.00    -0.248 NA
ATOM     59  C   UNL A   1      37.419  33.733  33.386  1.00  0.00     0.031 C 
ATOM     60  C   UNL A   1      41.740  31.940  37.235  1.00  0.00     0.029 A 
ATOM     61  C   UNL A   1      40.917  32.052  36.127  1.00  0.00     0.049 A 
ATOM     62  H   UNL A   1      40.854  30.867  34.382  1.00  0.00     0.167 HD
ATOM     63  C   UNL A   1      39.087  33.017  34.778  1.00  0.00     0.074 A 
ATOM     64  C   UNL A   1      38.000  33.945  34.559  1.00  0.00     0.031 C 
ATOM     65  C   UNL A   1      39.872  33.008  35.881  1.00  0.00     0.031 A 
BRANCH  52  66
ATOM     66  C   UNL A   1      44.020  28.449  35.892  1.00  0.00    -0.014 A 
ATOM     67  C   UNL A   1      45.370  28.811  35.739  1.00  0.00     0.010 A 
ATOM     68  C   UNL A   1      43.678  27.393  36.753  1.00  0.00     0.010 A 
ATOM     69  C   UNL A   1      46.369  28.095  36.397  1.00  0.00     0.020 A 
ATOM     70  C   UNL A   1      44.676  26.688  37.431  1.00  0.00     0.020 A 
ATOM     71  C   UNL A   1      46.015  27.030  37.230  1.00  0.00     0.054 A 
BRANCH  71  72
ATOM     72  S   UNL A   1      47.328  26.113  38.082  1.00  0.00     0.124 S 
ATOM     73  O   UNL A   1      46.670  25.750  39.336  1.00  0.00    -0.237 OA
ATOM     74  O   UNL A   1      47.597  25.004  37.171  1.00  0.00    -0.237 OA
ATOM     75  O   UNL A   1      48.405  27.091  38.202  1.00  0.00    -0.744 OA
ENDBRANCH  71  72
ENDBRANCH  52  66
BRANCH  53  76
ATOM     76  C   UNL A   1      36.766  32.774  30.720  1.00  0.00    -0.014 A 
ATOM     77  C   UNL A   1      36.937  33.690  29.668  1.00  0.00     0.010 A 
ATOM     78  C   UNL A   1      35.467  32.455  31.153  1.00  0.00     0.010 A 
ATOM     79  C   UNL A   1      35.829  34.311  29.086  1.00  0.00     0.020 A 
ATOM     80  C   UNL A   1      34.355  33.065  30.562  1.00  0.00     0.020 A 
ATOM     81  C   UNL A   1      34.544  34.004  29.545  1.00  0.00     0.054 A 
BRANCH  81  82
ATOM     82  S   UNL A   1      33.119  34.830  28.783  1.00  0.00     0.124 S 
ATOM     83  O   UNL A   1      33.736  36.015  28.196  1.00  0.00    -0.237 OA
ATOM     84  O   UNL A   1      32.640  33.827  27.836  1.00  0.00    -0.237 OA
ATOM     85  O   UNL A   1      32.229  35.079  29.916  1.00  0.00    -0.744 OA
ENDBRANCH  81  82
ENDBRANCH  53  76
BRANCH  65  86
ATOM     86  C   UNL A   1      39.678  34.101  36.891  1.00  0.00    -0.014 A 
ATOM     87  C   UNL A   1      38.922  33.901  38.056  1.00  0.00     0.010 A 
ATOM     88  C   UNL A   1      40.352  35.323  36.704  1.00  0.00     0.010 A 
ATOM     89  C   UNL A   1      38.840  34.910  39.021  1.00  0.00     0.020 A 
ATOM     90  C   UNL A   1      40.283  36.326  37.672  1.00  0.00     0.020 A 
ATOM     91  C   UNL A   1      39.523  36.116  38.823  1.00  0.00     0.054 A 
BRANCH  91  92
ATOM     92  S   UNL A   1      39.483  37.380  40.126  1.00  0.00     0.124 S 
ATOM     93  O   UNL A   1      40.884  37.440  40.532  1.00  0.00    -0.237 OA
ATOM     94  O   UNL A   1      38.980  38.557  39.423  1.00  0.00    -0.237 OA
ATOM     95  O   UNL A   1      38.568  36.819  41.119  1.00  0.00    -0.744 OA
ENDBRANCH  91  92
ENDBRANCH  65  86
ENDBRANCH  39  40
ENDBRANCH  32  34
ENDBRANCH  31  32
ENDBRANCH  30  31
ENDBRANCH  29  30
ENDBRANCH   1  29
TORSDOF 20
ENDMDL
MODEL 3
REMARK VINA RESULT:     -10.4      6.350     10.793
REMARK SMILES O=C(CCC(=O)OCCOCCOC(=O)c1ccc(-c2c3nc(c(-c4ccc(S(=O)(=O)[O-])cc4)c4ccc([nH]4)c(-c4ccc(S(=O)(=O)[O-])cc4)c4nc(c(-c5ccc(S(=O)(=O)[O-])cc5)c5ccc2[nH]5)C=C4)C=C3)cc1)Nc1cccc2c1C(=O)c1ccccc1C2=O
REMARK SMILES IDX 10 1 9 2 8 3 7 4 5 5 6 6 4 7 3 8 2 9 1 10 76 11 77 13 78 14
REMARK SMILES IDX 82 15 79 16 81 17 83 18 80 19 91 20 84 21 85 22 90 23 92 24
REMARK SMILES IDX 86 25 89 26 87 27 88 28 11 29 12 30 13 31 14 32 15 33 16 34
REMARK SMILES IDX 17 35 75 36 18 37 74 38 19 39 20 40 21 41 68 42 22 43 73 44
REMARK SMILES IDX 67 45 69 46 23 47 72 48 66 49 65 50 24 52 54 53 35 54 53 55
REMARK SMILES IDX 36 56 39 57 52 58 70 59 37 60 38 61 51 63 71 64 40 65 25 66
REMARK SMILES IDX 26 67 34 68 27 69 33 70 28 71 29 72 30 73 31 74 32 75 55 76
REMARK SMILES IDX 56 77 64 78 57 79 63 80 58 81 59 82 60 83 61 84 62 85 41 86
REMARK SMILES IDX 42 87 50 88 43 89 49 90 44 91 45 92 46 93 47 94 48 95
REMARK H PARENT 76 12 69 51 39 62
REMARK Flexibility Score: inf
ROOT
ATOM      1  O   UNL A   1      42.537  20.893  25.782  1.00  0.00    -0.374 OA
ENDROOT
BRANCH   1   2
ATOM      2  C   UNL A   1      41.591  20.496  26.777  1.00  0.00     0.202 C 
BRANCH   2   3
ATOM      3  C   UNL A   1      40.152  20.820  26.367  1.00  0.00     0.261 C 
BRANCH   3   4
ATOM      4  O   UNL A   1      39.761  22.133  26.838  1.00  0.00    -0.463 OA
BRANCH   4   5
ATOM      5  C   UNL A   1      38.670  22.692  26.251  1.00  0.00     0.306 C 
ATOM      6  O   UNL A   1      38.244  23.817  26.478  1.00  0.00    -0.252 OA
BRANCH   5   7
ATOM      7  C   UNL A   1      37.952  21.715  25.341  1.00  0.00     0.132 C 
BRANCH   7   8
ATOM      8  C   UNL A   1      36.461  21.571  25.625  1.00  0.00     0.112 C 
BRANCH   8   9
ATOM      9  C   UNL A   1      35.513  22.536  24.918  1.00  0.00     0.224 C 
ATOM     10  O   UNL A   1      35.016  22.221  23.840  1.00  0.00    -0.275 OA
ATOM     11  N   UNL A   1      35.155  23.643  25.657  1.00  0.00    -0.325 N 
ATOM     12  H   UNL A   1      35.799  23.968  26.327  1.00  0.00     0.169 HD
BRANCH  11  13
ATOM     13  C   UNL A   1      33.927  24.353  25.528  1.00  0.00     0.053 A 
ATOM     14  C   UNL A   1      32.831  23.496  25.674  1.00  0.00     0.027 A 
ATOM     15  C   UNL A   1      33.803  25.445  24.663  1.00  0.00     0.057 A 
ATOM     16  C   UNL A   1      31.890  23.463  24.655  1.00  0.00     0.003 A 
ATOM     17  C   UNL A   1      33.112  25.200  23.492  1.00  0.00     0.036 A 
ATOM     18  C   UNL A   1      33.349  26.761  25.271  1.00  0.00     0.196 C 
ATOM     19  C   UNL A   1      32.082  24.260  23.527  1.00  0.00     0.013 A 
ATOM     20  C   UNL A   1      33.036  26.297  22.524  1.00  0.00     0.194 C 
ATOM     21  O   UNL A   1      33.622  27.048  26.429  1.00  0.00    -0.288 OA
ATOM     22  C   UNL A   1      32.469  27.672  24.453  1.00  0.00     0.034 A 
ATOM     23  C   UNL A   1      32.397  27.495  23.067  1.00  0.00     0.034 A 
ATOM     24  O   UNL A   1      33.420  26.184  21.373  1.00  0.00    -0.289 OA
ATOM     25  C   UNL A   1      31.652  28.636  25.044  1.00  0.00     0.013 A 
ATOM     26  C   UNL A   1      31.591  28.290  22.251  1.00  0.00     0.013 A 
ATOM     27  C   UNL A   1      30.795  29.405  24.241  1.00  0.00     0.001 A 
ATOM     28  C   UNL A   1      30.778  29.246  22.850  1.00  0.00     0.001 A 
ENDBRANCH  11  13
ENDBRANCH   8   9
ENDBRANCH   7   8
ENDBRANCH   5   7
ENDBRANCH   4   5
ENDBRANCH   3   4
ENDBRANCH   2   3
ENDBRANCH   1   2
BRANCH   1  29
ATOM     29  C   UNL A   1      43.382  21.979  26.160  1.00  0.00     0.202 C 
BRANCH  29  30
ATOM     30  C   UNL A   1      42.972  23.316  25.533  1.00  0.00     0.261 C 
BRANCH  30  31
ATOM     31  O   UNL A   1      42.092  24.058  26.398  1.00  0.00    -0.460 OA
BRANCH  31  32
ATOM     32  C   UNL A   1      41.930  25.372  26.090  1.00  0.00     0.338 C 
ATOM     33  O   UNL A   1      41.877  25.861  24.979  1.00  0.00    -0.246 OA
BRANCH  32  34
ATOM     34  C   UNL A   1      41.700  26.155  27.331  1.00  0.00     0.060 A 
ATOM     35  C   UNL A   1      42.575  27.208  27.638  1.00  0.00     0.016 A 
ATOM     36  C   UNL A   1      40.659  25.850  28.203  1.00  0.00     0.016 A 
ATOM     37  C   UNL A   1      42.402  27.968  28.805  1.00  0.00     0.010 A 
ATOM     38  C   UNL A   1      40.501  26.603  29.371  1.00  0.00     0.010 A 
ATOM     39  C   UNL A   1      41.354  27.680  29.686  1.00  0.00    -0.014 A 
BRANCH  39  40
ATOM     40  C   UNL A   1      41.101  28.440  30.949  1.00  0.00     0.031 A 
ATOM     41  C   UNL A   1      40.052  29.522  30.944  1.00  0.00     0.074 A 
ATOM     42  C   UNL A   1      41.879  28.296  32.045  1.00  0.00     0.049 A 
ATOM     43  N   UNL A   1      39.828  30.463  31.824  1.00  0.00    -0.248 NA
ATOM     44  C   UNL A   1      39.154  29.555  29.778  1.00  0.00     0.031 C 
ATOM     45  C   UNL A   1      42.936  27.303  32.227  1.00  0.00     0.029 A 
ATOM     46  N   UNL A   1      41.948  29.053  33.194  1.00  0.00    -0.354 N 
ATOM     47  C   UNL A   1      38.772  31.207  31.312  1.00  0.00     0.074 A 
ATOM     48  C   UNL A   1      38.446  30.647  30.017  1.00  0.00     0.031 C 
ATOM     49  C   UNL A   1      43.615  27.574  33.357  1.00  0.00     0.029 A 
ATOM     50  C   UNL A   1      43.025  28.744  33.997  1.00  0.00     0.049 A 
ATOM     51  H   UNL A   1      41.290  29.749  33.421  1.00  0.00     0.167 HD
ATOM     52  C   UNL A   1      38.100  32.237  31.878  1.00  0.00     0.031 A 
ATOM     53  C   UNL A   1      43.498  29.340  35.110  1.00  0.00     0.031 A 
ATOM     54  C   UNL A   1      38.363  32.764  33.185  1.00  0.00     0.049 A 
ATOM     55  C   UNL A   1      42.755  30.500  35.716  1.00  0.00     0.074 A 
ATOM     56  C   UNL A   1      37.657  33.731  33.879  1.00  0.00     0.029 A 
ATOM     57  N   UNL A   1      39.405  32.362  34.001  1.00  0.00    -0.354 N 
ATOM     58  N   UNL A   1      41.706  31.133  35.254  1.00  0.00    -0.248 NA
ATOM     59  C   UNL A   1      43.233  30.995  37.018  1.00  0.00     0.031 C 
ATOM     60  C   UNL A   1      38.280  33.921  35.119  1.00  0.00     0.029 A 
ATOM     61  C   UNL A   1      39.361  33.059  35.195  1.00  0.00     0.049 A 
ATOM     62  H   UNL A   1      40.078  31.682  33.766  1.00  0.00     0.167 HD
ATOM     63  C   UNL A   1      41.351  32.041  36.246  1.00  0.00     0.074 A 
ATOM     64  C   UNL A   1      42.319  31.909  37.312  1.00  0.00     0.031 C 
ATOM     65  C   UNL A   1      40.292  32.885  36.275  1.00  0.00     0.031 A 
BRANCH  52  66
ATOM     66  C   UNL A   1      36.972  32.825  31.084  1.00  0.00    -0.014 A 
ATOM     67  C   UNL A   1      37.236  33.641  29.969  1.00  0.00     0.010 A 
ATOM     68  C   UNL A   1      35.641  32.556  31.445  1.00  0.00     0.010 A 
ATOM     69  C   UNL A   1      36.187  34.221  29.257  1.00  0.00     0.020 A 
ATOM     70  C   UNL A   1      34.588  33.118  30.720  1.00  0.00     0.020 A 
ATOM     71  C   UNL A   1      34.869  33.965  29.645  1.00  0.00     0.054 A 
BRANCH  71  72
ATOM     72  S   UNL A   1      33.517  34.724  28.705  1.00  0.00     0.124 S 
ATOM     73  O   UNL A   1      33.196  33.671  27.744  1.00  0.00    -0.237 OA
ATOM     74  O   UNL A   1      32.504  34.969  29.727  1.00  0.00    -0.237 OA
ATOM     75  O   UNL A   1      34.127  35.924  28.138  1.00  0.00    -0.744 OA
ENDBRANCH  71  72
ENDBRANCH  52  66
BRANCH  53  76
ATOM     76  C   UNL A   1      44.742  28.851  35.763  1.00  0.00    -0.014 A 
ATOM     77  C   UNL A   1      45.998  29.331  35.354  1.00  0.00     0.010 A 
ATOM     78  C   UNL A   1      44.673  27.846  36.744  1.00  0.00     0.010 A 
ATOM     79  C   UNL A   1      47.169  28.784  35.885  1.00  0.00     0.020 A 
ATOM     80  C   UNL A   1      45.844  27.308  37.288  1.00  0.00     0.020 A 
ATOM     81  C   UNL A   1      47.085  27.767  36.840  1.00  0.00     0.054 A 
BRANCH  81  82
ATOM     82  S   UNL A   1      48.618  27.063  37.510  1.00  0.00     0.124 S 
ATOM     83  O   UNL A   1      48.178  25.742  37.946  1.00  0.00    -0.237 OA
ATOM     84  O   UNL A   1      49.510  27.085  36.353  1.00  0.00    -0.237 OA
ATOM     85  O   UNL A   1      48.978  27.992  38.579  1.00  0.00    -0.744 OA
ENDBRANCH  81  82
ENDBRANCH  53  76
BRANCH  65  86
ATOM     86  C   UNL A   1      40.041  33.653  37.540  1.00  0.00    -0.014 A 
ATOM     87  C   UNL A   1      40.624  34.909  37.768  1.00  0.00     0.010 A 
ATOM     88  C   UNL A   1      39.123  33.136  38.475  1.00  0.00     0.010 A 
ATOM     89  C   UNL A   1      40.293  35.639  38.914  1.00  0.00     0.020 A 
ATOM     90  C   UNL A   1      38.780  33.869  39.612  1.00  0.00     0.020 A 
ATOM     91  C   UNL A   1      39.372  35.114  39.828  1.00  0.00     0.054 A 
BRANCH  91  92
ATOM     92  S   UNL A   1      38.883  36.112  41.263  1.00  0.00     0.124 S 
ATOM     93  O   UNL A   1      37.712  35.389  41.751  1.00  0.00    -0.237 OA
ATOM     94  O   UNL A   1      40.063  36.050  42.122  1.00  0.00    -0.237 OA
ATOM     95  O   UNL A   1      38.611  37.429  40.688  1.00  0.00    -0.744 OA
ENDBRANCH  91  92
ENDBRANCH  65  86
ENDBRANCH  39  40
ENDBRANCH  32  34
ENDBRANCH  31  32
ENDBRANCH  30  31
ENDBRANCH  29  30
ENDBRANCH   1  29
TORSDOF 20
ENDMDL
