MODEL 1
REMARK VINA RESULT:      -9.3      0.000      0.000
REMARK SMILES CCCc1nc(C[N@H+]2CCCC[C@@H]2C(=O)OCCOCCOC(=O)c2ccc(-c3c4nc(c(-c5ccc(S(=O)(=O)[O-])cc5)c5ccc([nH]5)c(-c5ccc(S(=O)(=O)[O-])cc5)c5nc(c(-c6ccc(S(=O)(=O)[O-])cc6)c6ccc3[nH]6)C=C5)C=C4)cc2)cs1
REMARK SMILES IDX 18 1 17 2 16 3 14 4 15 5 13 6 8 7 9 8 10 10 12 11 11 12 7 13
REMARK SMILES IDX 6 14 4 15 5 16 86 17 85 18 3 19 2 20 1 21 19 22 20 23 21 24
REMARK SMILES IDX 22 25 23 26 24 27 25 28 26 29 84 30 27 31 83 32 28 33 29 34
REMARK SMILES IDX 30 35 77 36 31 37 82 38 76 39 78 40 32 41 81 42 75 43 74 44
REMARK SMILES IDX 33 46 63 47 44 48 62 49 45 50 48 51 61 52 79 53 46 54 47 55
REMARK SMILES IDX 60 57 80 58 49 59 34 60 35 61 43 62 36 63 42 64 37 65 38 66
REMARK SMILES IDX 39 67 40 68 41 69 64 70 65 71 73 72 66 73 72 74 67 75 68 76
REMARK SMILES IDX 69 77 70 78 71 79 50 80 51 81 59 82 52 83 58 84 53 85 54 86
REMARK SMILES IDX 55 87 56 88 57 89
REMARK H PARENT 8 9 78 45 48 56
REMARK Flexibility Score: inf
ROOT
ATOM      1  C   UNL A   1      32.905  26.544  26.448  1.00  0.00     0.202 C 
ENDROOT
BRANCH   1   2
ATOM      2  C   UNL A   1      33.941  25.890  25.521  1.00  0.00     0.261 C 
BRANCH   2   3
ATOM      3  O   UNL A   1      34.252  24.530  25.849  1.00  0.00    -0.459 OA
BRANCH   3   4
ATOM      4  C   UNL A   1      34.799  23.835  24.815  1.00  0.00     0.364 C 
ATOM      5  O   UNL A   1      35.722  24.271  24.130  1.00  0.00    -0.245 OA
BRANCH   4   6
ATOM      6  C   UNL A   1      34.221  22.410  24.635  1.00  0.00     0.295 C 
ATOM      7  N   UNL A   1      32.984  22.415  23.815  1.00  0.00    -0.318 N 
ATOM      8  C   UNL A   1      32.441  21.068  23.591  1.00  0.00     0.263 C 
ATOM      9  H   UNL A   1      32.328  22.934  24.398  1.00  0.00     0.349 HD
ATOM     10  C   UNL A   1      32.195  20.321  24.901  1.00  0.00     0.062 C 
ATOM     11  C   UNL A   1      33.983  21.684  25.974  1.00  0.00     0.078 C 
ATOM     12  C   UNL A   1      33.458  20.270  25.745  1.00  0.00     0.013 C 
BRANCH   7  13
ATOM     13  C   UNL A   1      33.064  23.169  22.547  1.00  0.00     0.321 C 
BRANCH  13  14
ATOM     14  C   UNL A   1      32.372  24.511  22.530  1.00  0.00     0.106 A 
ATOM     15  C   UNL A   1      30.889  25.910  23.403  1.00  0.00     0.093 A 
ATOM     16  N   UNL A   1      31.230  24.645  23.306  1.00  0.00    -0.240 NA
ATOM     17  S   UNL A   1      31.737  26.982  22.367  1.00  0.00    -0.127 S 
ATOM     18  C   UNL A   1      32.767  25.689  21.920  1.00  0.00     0.096 A 
BRANCH  15  19
ATOM     19  C   UNL A   1      29.883  26.442  24.373  1.00  0.00     0.067 C 
BRANCH  19  20
ATOM     20  C   UNL A   1      28.533  26.744  23.715  1.00  0.00     0.004 C 
ATOM     21  C   UNL A   1      28.398  28.184  23.227  1.00  0.00     0.004 C 
ENDBRANCH  19  20
ENDBRANCH  15  19
ENDBRANCH  13  14
ENDBRANCH   7  13
ENDBRANCH   4   6
ENDBRANCH   3   4
ENDBRANCH   2   3
ENDBRANCH   1   2
BRANCH   1  22
ATOM     22  O   UNL A   1      33.125  27.880  26.886  1.00  0.00    -0.374 OA
BRANCH  22  23
ATOM     23  C   UNL A   1      32.064  28.828  26.773  1.00  0.00     0.202 C 
BRANCH  23  24
ATOM     24  C   UNL A   1      32.365  30.305  27.048  1.00  0.00     0.261 C 
BRANCH  24  25
ATOM     25  O   UNL A   1      33.747  30.632  26.815  1.00  0.00    -0.460 OA
BRANCH  25  26
ATOM     26  C   UNL A   1      34.318  31.379  27.788  1.00  0.00     0.338 C 
ATOM     27  O   UNL A   1      33.770  32.231  28.481  1.00  0.00    -0.246 OA
BRANCH  26  28
ATOM     28  C   UNL A   1      35.679  30.901  28.074  1.00  0.00     0.060 A 
ATOM     29  C   UNL A   1      35.842  29.539  28.359  1.00  0.00     0.016 A 
ATOM     30  C   UNL A   1      36.754  31.785  28.178  1.00  0.00     0.016 A 
ATOM     31  C   UNL A   1      37.072  29.064  28.806  1.00  0.00     0.010 A 
ATOM     32  C   UNL A   1      37.985  31.307  28.640  1.00  0.00     0.010 A 
ATOM     33  C   UNL A   1      38.136  29.954  28.994  1.00  0.00    -0.014 A 
BRANCH  33  34
ATOM     34  C   UNL A   1      39.342  29.494  29.722  1.00  0.00     0.031 A 
ATOM     35  C   UNL A   1      39.723  30.183  31.006  1.00  0.00     0.074 A 
ATOM     36  C   UNL A   1      40.055  28.446  29.277  1.00  0.00     0.049 A 
ATOM     37  N   UNL A   1      40.733  29.949  31.802  1.00  0.00    -0.248 NA
ATOM     38  C   UNL A   1      38.846  31.280  31.449  1.00  0.00     0.031 C 
ATOM     39  C   UNL A   1      39.754  27.664  28.080  1.00  0.00     0.029 A 
ATOM     40  N   UNL A   1      41.185  27.857  29.789  1.00  0.00    -0.354 N 
ATOM     41  C   UNL A   1      40.616  30.867  32.839  1.00  0.00     0.074 A 
ATOM     42  C   UNL A   1      39.454  31.682  32.557  1.00  0.00     0.031 C 
ATOM     43  C   UNL A   1      40.679  26.698  27.945  1.00  0.00     0.029 A 
ATOM     44  C   UNL A   1      41.654  26.813  29.029  1.00  0.00     0.049 A 
ATOM     45  H   UNL A   1      41.618  28.156  30.621  1.00  0.00     0.167 HD
ATOM     46  C   UNL A   1      41.402  31.016  33.933  1.00  0.00     0.031 A 
ATOM     47  C   UNL A   1      42.753  26.049  29.181  1.00  0.00     0.031 A 
ATOM     48  C   UNL A   1      42.567  30.216  34.203  1.00  0.00     0.049 A 
ATOM     49  C   UNL A   1      43.658  26.286  30.362  1.00  0.00     0.074 A 
ATOM     50  C   UNL A   1      43.431  30.291  35.281  1.00  0.00     0.029 A 
ATOM     51  N   UNL A   1      43.036  29.200  33.383  1.00  0.00    -0.354 N 
ATOM     52  N   UNL A   1      43.530  27.153  31.338  1.00  0.00    -0.248 NA
ATOM     53  C   UNL A   1      44.852  25.434  30.464  1.00  0.00     0.031 C 
ATOM     54  C   UNL A   1      44.450  29.352  35.088  1.00  0.00     0.029 A 
ATOM     55  C   UNL A   1      44.190  28.655  33.919  1.00  0.00     0.049 A 
ATOM     56  H   UNL A   1      42.610  28.911  32.544  1.00  0.00     0.167 HD
ATOM     57  C   UNL A   1      44.613  26.935  32.183  1.00  0.00     0.074 A 
ATOM     58  C   UNL A   1      45.378  25.847  31.609  1.00  0.00     0.031 C 
ATOM     59  C   UNL A   1      44.943  27.575  33.333  1.00  0.00     0.031 A 
BRANCH  46  60
ATOM     60  C   UNL A   1      41.041  32.111  34.900  1.00  0.00    -0.014 A 
ATOM     61  C   UNL A   1      41.440  33.441  34.676  1.00  0.00     0.010 A 
ATOM     62  C   UNL A   1      40.271  31.809  36.038  1.00  0.00     0.010 A 
ATOM     63  C   UNL A   1      41.107  34.443  35.591  1.00  0.00     0.020 A 
ATOM     64  C   UNL A   1      39.916  32.813  36.943  1.00  0.00     0.020 A 
ATOM     65  C   UNL A   1      40.351  34.121  36.723  1.00  0.00     0.054 A 
BRANCH  65  66
ATOM     66  S   UNL A   1      39.921  35.442  37.889  1.00  0.00     0.124 S 
ATOM     67  O   UNL A   1      39.741  36.584  36.995  1.00  0.00    -0.237 OA
ATOM     68  O   UNL A   1      38.703  34.937  38.515  1.00  0.00    -0.237 OA
ATOM     69  O   UNL A   1      41.085  35.521  38.770  1.00  0.00    -0.744 OA
ENDBRANCH  65  66
ENDBRANCH  46  60
BRANCH  47  70
ATOM     70  C   UNL A   1      43.069  24.998  28.176  1.00  0.00    -0.014 A 
ATOM     71  C   UNL A   1      43.852  25.294  27.049  1.00  0.00     0.010 A 
ATOM     72  C   UNL A   1      42.592  23.686  28.353  1.00  0.00     0.010 A 
ATOM     73  C   UNL A   1      44.144  24.300  26.108  1.00  0.00     0.020 A 
ATOM     74  C   UNL A   1      42.902  22.684  27.430  1.00  0.00     0.020 A 
ATOM     75  C   UNL A   1      43.669  23.000  26.307  1.00  0.00     0.054 A 
BRANCH  75  76
ATOM     76  S   UNL A   1      44.109  21.713  25.107  1.00  0.00     0.124 S 
ATOM     77  O   UNL A   1      44.028  22.436  23.842  1.00  0.00    -0.237 OA
ATOM     78  O   UNL A   1      45.453  21.330  25.533  1.00  0.00    -0.237 OA
ATOM     79  O   UNL A   1      43.085  20.691  25.313  1.00  0.00    -0.744 OA
ENDBRANCH  75  76
ENDBRANCH  47  70
BRANCH  59  80
ATOM     80  C   UNL A   1      46.167  27.098  34.067  1.00  0.00    -0.014 A 
ATOM     81  C   UNL A   1      46.098  26.036  34.986  1.00  0.00     0.010 A 
ATOM     82  C   UNL A   1      47.415  27.686  33.790  1.00  0.00     0.010 A 
ATOM     83  C   UNL A   1      47.251  25.588  35.635  1.00  0.00     0.020 A 
ATOM     84  C   UNL A   1      48.574  27.224  34.418  1.00  0.00     0.020 A 
ATOM     85  C   UNL A   1      48.483  26.187  35.349  1.00  0.00     0.054 A 
BRANCH  85  86
ATOM     86  S   UNL A   1      49.973  25.560  36.171  1.00  0.00     0.124 S 
ATOM     87  O   UNL A   1      50.416  26.728  36.926  1.00  0.00    -0.237 OA
ATOM     88  O   UNL A   1      49.457  24.452  36.972  1.00  0.00    -0.237 OA
ATOM     89  O   UNL A   1      50.840  25.168  35.063  1.00  0.00    -0.744 OA
ENDBRANCH  85  86
ENDBRANCH  59  80
ENDBRANCH  33  34
ENDBRANCH  26  28
ENDBRANCH  25  26
ENDBRANCH  24  25
ENDBRANCH  23  24
ENDBRANCH  22  23
ENDBRANCH   1  22
TORSDOF 21
ENDMDL
MODEL 2
REMARK VINA RESULT:      -9.0      5.194     11.374
REMARK SMILES CCCc1nc(C[N@H+]2CCCC[C@@H]2C(=O)OCCOCCOC(=O)c2ccc(-c3c4nc(c(-c5ccc(S(=O)(=O)[O-])cc5)c5ccc([nH]5)c(-c5ccc(S(=O)(=O)[O-])cc5)c5nc(c(-c6ccc(S(=O)(=O)[O-])cc6)c6ccc3[nH]6)C=C5)C=C4)cc2)cs1
REMARK SMILES IDX 18 1 17 2 16 3 14 4 15 5 13 6 8 7 9 8 10 10 12 11 11 12 7 13
REMARK SMILES IDX 6 14 4 15 5 16 86 17 85 18 3 19 2 20 1 21 19 22 20 23 21 24
REMARK SMILES IDX 22 25 23 26 24 27 25 28 26 29 84 30 27 31 83 32 28 33 29 34
REMARK SMILES IDX 30 35 77 36 31 37 82 38 76 39 78 40 32 41 81 42 75 43 74 44
REMARK SMILES IDX 33 46 63 47 44 48 62 49 45 50 48 51 61 52 79 53 46 54 47 55
REMARK SMILES IDX 60 57 80 58 49 59 34 60 35 61 43 62 36 63 42 64 37 65 38 66
REMARK SMILES IDX 39 67 40 68 41 69 64 70 65 71 73 72 66 73 72 74 67 75 68 76
REMARK SMILES IDX 69 77 70 78 71 79 50 80 51 81 59 82 52 83 58 84 53 85 54 86
REMARK SMILES IDX 55 87 56 88 57 89
REMARK H PARENT 8 9 78 45 48 56
REMARK Flexibility Score: inf
ROOT
ATOM      1  C   UNL A   1      44.670  25.992  25.194  1.00  0.00     0.202 C 
ENDROOT
BRANCH   1   2
ATOM      2  C   UNL A   1      45.829  25.009  24.970  1.00  0.00     0.261 C 
BRANCH   2   3
ATOM      3  O   UNL A   1      45.455  23.796  24.305  1.00  0.00    -0.459 OA
BRANCH   3   4
ATOM      4  C   UNL A   1      45.781  22.674  25.002  1.00  0.00     0.364 C 
ATOM      5  O   UNL A   1      46.749  22.614  25.758  1.00  0.00    -0.245 OA
BRANCH   4   6
ATOM      6  C   UNL A   1      44.775  21.510  24.833  1.00  0.00     0.295 C 
ATOM      7  N   UNL A   1      43.950  21.312  26.051  1.00  0.00    -0.318 N 
ATOM      8  C   UNL A   1      42.954  20.242  25.900  1.00  0.00     0.263 C 
ATOM      9  H   UNL A   1      44.637  21.017  26.745  1.00  0.00     0.349 HD
ATOM     10  C   UNL A   1      43.591  18.918  25.480  1.00  0.00     0.062 C 
ATOM     11  C   UNL A   1      45.447  20.189  24.411  1.00  0.00     0.078 C 
ATOM     12  C   UNL A   1      44.413  19.085  24.213  1.00  0.00     0.013 C 
BRANCH   7  13
ATOM     13  C   UNL A   1      43.331  22.533  26.607  1.00  0.00     0.321 C 
BRANCH  13  14
ATOM     14  C   UNL A   1      43.733  22.896  28.016  1.00  0.00     0.106 A 
ATOM     15  C   UNL A   1      44.925  24.153  29.403  1.00  0.00     0.093 A 
ATOM     16  N   UNL A   1      44.847  23.710  28.168  1.00  0.00    -0.240 NA
ATOM     17  S   UNL A   1      43.844  23.423  30.516  1.00  0.00    -0.127 S 
ATOM     18  C   UNL A   1      43.087  22.617  29.208  1.00  0.00     0.096 A 
BRANCH  15  19
ATOM     19  C   UNL A   1      45.830  25.257  29.848  1.00  0.00     0.067 C 
BRANCH  19  20
ATOM     20  C   UNL A   1      45.146  26.220  30.823  1.00  0.00     0.004 C 
ATOM     21  C   UNL A   1      45.588  26.041  32.273  1.00  0.00     0.004 C 
ENDBRANCH  19  20
ENDBRANCH  15  19
ENDBRANCH  13  14
ENDBRANCH   7  13
ENDBRANCH   4   6
ENDBRANCH   3   4
ENDBRANCH   2   3
ENDBRANCH   1   2
BRANCH   1  22
ATOM     22  O   UNL A   1      43.388  25.673  24.662  1.00  0.00    -0.374 OA
BRANCH  22  23
ATOM     23  C   UNL A   1      42.222  26.091  25.370  1.00  0.00     0.202 C 
BRANCH  23  24
ATOM     24  C   UNL A   1      42.219  26.004  26.900  1.00  0.00     0.261 C 
BRANCH  24  25
ATOM     25  O   UNL A   1      41.205  25.107  27.391  1.00  0.00    -0.460 OA
BRANCH  25  26
ATOM     26  C   UNL A   1      39.940  25.566  27.257  1.00  0.00     0.338 C 
ATOM     27  O   UNL A   1      39.079  25.143  26.491  1.00  0.00    -0.246 OA
BRANCH  26  28
ATOM     28  C   UNL A   1      39.631  26.542  28.313  1.00  0.00     0.060 A 
ATOM     29  C   UNL A   1      40.177  27.826  28.190  1.00  0.00     0.016 A 
ATOM     30  C   UNL A   1      38.922  26.176  29.458  1.00  0.00     0.016 A 
ATOM     31  C   UNL A   1      40.066  28.734  29.239  1.00  0.00     0.010 A 
ATOM     32  C   UNL A   1      38.821  27.085  30.516  1.00  0.00     0.010 A 
ATOM     33  C   UNL A   1      39.428  28.351  30.426  1.00  0.00    -0.014 A 
BRANCH  33  34
ATOM     34  C   UNL A   1      39.553  29.216  31.623  1.00  0.00     0.031 A 
ATOM     35  C   UNL A   1      40.710  28.996  32.561  1.00  0.00     0.074 A 
ATOM     36  C   UNL A   1      38.682  30.215  31.843  1.00  0.00     0.049 A 
ATOM     37  N   UNL A   1      41.013  29.629  33.664  1.00  0.00    -0.248 NA
ATOM     38  C   UNL A   1      41.650  27.919  32.206  1.00  0.00     0.031 C 
ATOM     39  C   UNL A   1      37.555  30.562  30.979  1.00  0.00     0.029 A 
ATOM     40  N   UNL A   1      38.613  31.126  32.868  1.00  0.00    -0.354 N 
ATOM     41  C   UNL A   1      42.175  29.031  34.136  1.00  0.00     0.074 A 
ATOM     42  C   UNL A   1      42.507  27.964  33.216  1.00  0.00     0.031 C 
ATOM     43  C   UNL A   1      36.903  31.609  31.511  1.00  0.00     0.029 A 
ATOM     44  C   UNL A   1      37.548  31.987  32.768  1.00  0.00     0.049 A 
ATOM     45  H   UNL A   1      39.265  31.158  33.604  1.00  0.00     0.167 HD
ATOM     46  C   UNL A   1      42.905  29.343  35.233  1.00  0.00     0.031 A 
ATOM     47  C   UNL A   1      37.130  32.958  33.604  1.00  0.00     0.031 A 
ATOM     48  C   UNL A   1      42.564  30.393  36.156  1.00  0.00     0.049 A 
ATOM     49  C   UNL A   1      37.912  33.235  34.861  1.00  0.00     0.074 A 
ATOM     50  C   UNL A   1      43.237  30.786  37.300  1.00  0.00     0.029 A 
ATOM     51  N   UNL A   1      41.449  31.211  36.046  1.00  0.00    -0.354 N 
ATOM     52  N   UNL A   1      39.013  32.665  35.290  1.00  0.00    -0.248 NA
ATOM     53  C   UNL A   1      37.397  34.292  35.743  1.00  0.00     0.031 C 
ATOM     54  C   UNL A   1      42.502  31.810  37.907  1.00  0.00     0.029 A 
ATOM     55  C   UNL A   1      41.402  32.093  37.112  1.00  0.00     0.049 A 
ATOM     56  H   UNL A   1      40.789  31.170  35.316  1.00  0.00     0.167 HD
ATOM     57  C   UNL A   1      39.337  33.311  36.479  1.00  0.00     0.074 A 
ATOM     58  C   UNL A   1      38.322  34.322  36.694  1.00  0.00     0.031 C 
ATOM     59  C   UNL A   1      40.382  33.090  37.314  1.00  0.00     0.031 A 
BRANCH  46  60
ATOM     60  C   UNL A   1      44.129  28.512  35.511  1.00  0.00    -0.014 A 
ATOM     61  C   UNL A   1      44.053  27.341  36.285  1.00  0.00     0.010 A 
ATOM     62  C   UNL A   1      45.369  28.895  34.967  1.00  0.00     0.010 A 
ATOM     63  C   UNL A   1      45.202  26.588  36.543  1.00  0.00     0.020 A 
ATOM     64  C   UNL A   1      46.515  28.132  35.202  1.00  0.00     0.020 A 
ATOM     65  C   UNL A   1      46.428  26.992  36.004  1.00  0.00     0.054 A 
BRANCH  65  66
ATOM     66  S   UNL A   1      47.901  25.990  36.343  1.00  0.00     0.124 S 
ATOM     67  O   UNL A   1      48.212  26.369  37.720  1.00  0.00    -0.237 OA
ATOM     68  O   UNL A   1      47.412  24.626  36.164  1.00  0.00    -0.237 OA
ATOM     69  O   UNL A   1      48.866  26.441  35.342  1.00  0.00    -0.744 OA
ENDBRANCH  65  66
ENDBRANCH  46  60
BRANCH  47  70
ATOM     70  C   UNL A   1      35.898  33.729  33.286  1.00  0.00    -0.014 A 
ATOM     71  C   UNL A   1      35.967  35.095  32.966  1.00  0.00     0.010 A 
ATOM     72  C   UNL A   1      34.644  33.090  33.293  1.00  0.00     0.010 A 
ATOM     73  C   UNL A   1      34.804  35.812  32.669  1.00  0.00     0.020 A 
ATOM     74  C   UNL A   1      33.482  33.797  32.972  1.00  0.00     0.020 A 
ATOM     75  C   UNL A   1      33.568  35.157  32.671  1.00  0.00     0.054 A 
BRANCH  75  76
ATOM     76  S   UNL A   1      32.079  36.092  32.225  1.00  0.00     0.124 S 
ATOM     77  O   UNL A   1      32.379  37.415  32.762  1.00  0.00    -0.237 OA
ATOM     78  O   UNL A   1      32.066  35.988  30.768  1.00  0.00    -0.237 OA
ATOM     79  O   UNL A   1      31.006  35.367  32.902  1.00  0.00    -0.744 OA
ENDBRANCH  75  76
ENDBRANCH  47  70
BRANCH  59  80
ATOM     80  C   UNL A   1      40.502  33.976  38.525  1.00  0.00    -0.014 A 
ATOM     81  C   UNL A   1      39.994  33.577  39.774  1.00  0.00     0.010 A 
ATOM     82  C   UNL A   1      41.185  35.202  38.422  1.00  0.00     0.010 A 
ATOM     83  C   UNL A   1      40.142  34.401  40.893  1.00  0.00     0.020 A 
ATOM     84  C   UNL A   1      41.358  36.016  39.544  1.00  0.00     0.020 A 
ATOM     85  C   UNL A   1      40.822  35.617  40.770  1.00  0.00     0.054 A 
BRANCH  85  86
ATOM     86  S   UNL A   1      41.040  36.650  42.246  1.00  0.00     0.124 S 
ATOM     87  O   UNL A   1      40.677  35.727  43.317  1.00  0.00    -0.237 OA
ATOM     88  O   UNL A   1      42.454  37.013  42.179  1.00  0.00    -0.237 OA
ATOM     89  O   UNL A   1      40.109  37.756  42.034  1.00  0.00    -0.744 OA
ENDBRANCH  85  86
ENDBRANCH  59  80
ENDBRANCH  33  34
ENDBRANCH  26  28
ENDBRANCH  25  26
ENDBRANCH  24  25
ENDBRANCH  23  24
ENDBRANCH  22  23
ENDBRANCH   1  22
TORSDOF 21
ENDMDL
MODEL 3
REMARK VINA RESULT:      -8.9      2.726      9.115
REMARK SMILES CCCc1nc(C[N@H+]2CCCC[C@@H]2C(=O)OCCOCCOC(=O)c2ccc(-c3c4nc(c(-c5ccc(S(=O)(=O)[O-])cc5)c5ccc([nH]5)c(-c5ccc(S(=O)(=O)[O-])cc5)c5nc(c(-c6ccc(S(=O)(=O)[O-])cc6)c6ccc3[nH]6)C=C5)C=C4)cc2)cs1
REMARK SMILES IDX 18 1 17 2 16 3 14 4 15 5 13 6 8 7 9 8 10 10 12 11 11 12 7 13
REMARK SMILES IDX 6 14 4 15 5 16 86 17 85 18 3 19 2 20 1 21 19 22 20 23 21 24
REMARK SMILES IDX 22 25 23 26 24 27 25 28 26 29 84 30 27 31 83 32 28 33 29 34
REMARK SMILES IDX 30 35 77 36 31 37 82 38 76 39 78 40 32 41 81 42 75 43 74 44
REMARK SMILES IDX 33 46 63 47 44 48 62 49 45 50 48 51 61 52 79 53 46 54 47 55
REMARK SMILES IDX 60 57 80 58 49 59 34 60 35 61 43 62 36 63 42 64 37 65 38 66
REMARK SMILES IDX 39 67 40 68 41 69 64 70 65 71 73 72 66 73 72 74 67 75 68 76
REMARK SMILES IDX 69 77 70 78 71 79 50 80 51 81 59 82 52 83 58 84 53 85 54 86
REMARK SMILES IDX 55 87 56 88 57 89
REMARK H PARENT 8 9 78 45 48 56
REMARK Flexibility Score: inf
ROOT
ATOM      1  C   UNL A   1      33.126  29.100  25.915  1.00  0.00     0.202 C 
ENDROOT
BRANCH   1   2
ATOM      2  C   UNL A   1      31.961  28.118  26.115  1.00  0.00     0.261 C 
BRANCH   2   3
ATOM      3  O   UNL A   1      32.237  26.779  25.685  1.00  0.00    -0.459 OA
BRANCH   3   4
ATOM      4  C   UNL A   1      31.147  26.135  25.186  1.00  0.00     0.364 C 
ATOM      5  O   UNL A   1      30.067  26.096  25.772  1.00  0.00    -0.245 OA
BRANCH   4   6
ATOM      6  C   UNL A   1      31.358  25.536  23.774  1.00  0.00     0.295 C 
ATOM      7  N   UNL A   1      32.316  24.404  23.792  1.00  0.00    -0.318 N 
ATOM      8  C   UNL A   1      32.498  23.787  22.470  1.00  0.00     0.263 C 
ATOM      9  H   UNL A   1      33.192  24.852  24.062  1.00  0.00     0.349 HD
ATOM     10  C   UNL A   1      32.916  24.807  21.412  1.00  0.00     0.062 C 
ATOM     11  C   UNL A   1      31.779  26.589  22.730  1.00  0.00     0.078 C 
ATOM     12  C   UNL A   1      31.929  25.962  21.348  1.00  0.00     0.013 C 
BRANCH   7  13
ATOM     13  C   UNL A   1      32.068  23.376  24.823  1.00  0.00     0.321 C 
BRANCH  13  14
ATOM     14  C   UNL A   1      32.835  22.084  24.669  1.00  0.00     0.106 A 
ATOM     15  C   UNL A   1      34.743  20.963  24.812  1.00  0.00     0.093 A 
ATOM     16  N   UNL A   1      34.219  22.162  24.693  1.00  0.00    -0.240 NA
ATOM     17  S   UNL A   1      33.644  19.659  24.632  1.00  0.00    -0.127 S 
ATOM     18  C   UNL A   1      32.356  20.787  24.604  1.00  0.00     0.096 A 
BRANCH  15  19
ATOM     19  C   UNL A   1      36.178  20.697  25.141  1.00  0.00     0.067 C 
BRANCH  19  20
ATOM     20  C   UNL A   1      37.114  21.788  24.614  1.00  0.00     0.004 C 
ATOM     21  C   UNL A   1      37.725  22.655  25.711  1.00  0.00     0.004 C 
ENDBRANCH  19  20
ENDBRANCH  15  19
ENDBRANCH  13  14
ENDBRANCH   7  13
ENDBRANCH   4   6
ENDBRANCH   3   4
ENDBRANCH   2   3
ENDBRANCH   1   2
BRANCH   1  22
ATOM     22  O   UNL A   1      33.212  30.241  26.761  1.00  0.00    -0.374 OA
BRANCH  22  23
ATOM     23  C   UNL A   1      32.074  31.092  26.893  1.00  0.00     0.202 C 
BRANCH  23  24
ATOM     24  C   UNL A   1      32.297  32.586  27.152  1.00  0.00     0.261 C 
BRANCH  24  25
ATOM     25  O   UNL A   1      33.565  32.845  27.783  1.00  0.00    -0.460 OA
BRANCH  25  26
ATOM     26  C   UNL A   1      33.539  33.834  28.706  1.00  0.00     0.338 C 
ATOM     27  O   UNL A   1      32.687  34.709  28.826  1.00  0.00    -0.246 OA
BRANCH  26  28
ATOM     28  C   UNL A   1      34.585  33.622  29.717  1.00  0.00     0.060 A 
ATOM     29  C   UNL A   1      35.821  34.250  29.515  1.00  0.00     0.016 A 
ATOM     30  C   UNL A   1      34.404  32.733  30.778  1.00  0.00     0.016 A 
ATOM     31  C   UNL A   1      36.900  33.947  30.340  1.00  0.00     0.010 A 
ATOM     32  C   UNL A   1      35.492  32.421  31.599  1.00  0.00     0.010 A 
ATOM     33  C   UNL A   1      36.753  32.996  31.357  1.00  0.00    -0.014 A 
BRANCH  33  34
ATOM     34  C   UNL A   1      37.961  32.484  32.046  1.00  0.00     0.031 A 
ATOM     35  C   UNL A   1      38.901  31.582  31.290  1.00  0.00     0.074 A 
ATOM     36  C   UNL A   1      38.245  32.857  33.305  1.00  0.00     0.049 A 
ATOM     37  N   UNL A   1      40.011  31.020  31.693  1.00  0.00    -0.248 NA
ATOM     38  C   UNL A   1      38.543  31.278  29.895  1.00  0.00     0.031 C 
ATOM     39  C   UNL A   1      37.442  33.768  34.119  1.00  0.00     0.029 A 
ATOM     40  N   UNL A   1      39.295  32.514  34.120  1.00  0.00    -0.354 N 
ATOM     41  C   UNL A   1      40.483  30.295  30.605  1.00  0.00     0.074 A 
ATOM     42  C   UNL A   1      39.525  30.465  29.534  1.00  0.00     0.031 C 
ATOM     43  C   UNL A   1      38.027  33.909  35.321  1.00  0.00     0.029 A 
ATOM     44  C   UNL A   1      39.228  33.076  35.371  1.00  0.00     0.049 A 
ATOM     45  H   UNL A   1      40.027  31.921  33.834  1.00  0.00     0.167 HD
ATOM     46  C   UNL A   1      41.615  29.559  30.503  1.00  0.00     0.031 A 
ATOM     47  C   UNL A   1      40.034  32.923  36.440  1.00  0.00     0.031 A 
ATOM     48  C   UNL A   1      42.558  29.376  31.575  1.00  0.00     0.049 A 
ATOM     49  C   UNL A   1      41.245  32.034  36.330  1.00  0.00     0.074 A 
ATOM     50  C   UNL A   1      43.733  28.647  31.573  1.00  0.00     0.029 A 
ATOM     51  N   UNL A   1      42.428  29.924  32.843  1.00  0.00    -0.354 N 
ATOM     52  N   UNL A   1      41.681  31.360  35.292  1.00  0.00    -0.248 NA
ATOM     53  C   UNL A   1      42.074  31.890  37.535  1.00  0.00     0.031 C 
ATOM     54  C   UNL A   1      44.289  28.713  32.856  1.00  0.00     0.029 A 
ATOM     55  C   UNL A   1      43.489  29.530  33.639  1.00  0.00     0.049 A 
ATOM     56  H   UNL A   1      41.689  30.506  33.133  1.00  0.00     0.167 HD
ATOM     57  C   UNL A   1      42.850  30.733  35.711  1.00  0.00     0.074 A 
ATOM     58  C   UNL A   1      43.058  31.118  37.093  1.00  0.00     0.031 C 
ATOM     59  C   UNL A   1      43.679  29.917  35.014  1.00  0.00     0.031 A 
BRANCH  46  60
ATOM     60  C   UNL A   1      41.875  28.865  29.192  1.00  0.00    -0.014 A 
ATOM     61  C   UNL A   1      42.549  29.518  28.145  1.00  0.00     0.010 A 
ATOM     62  C   UNL A   1      41.460  27.533  29.015  1.00  0.00     0.010 A 
ATOM     63  C   UNL A   1      42.770  28.863  26.930  1.00  0.00     0.020 A 
ATOM     64  C   UNL A   1      41.701  26.867  27.811  1.00  0.00     0.020 A 
ATOM     65  C   UNL A   1      42.339  27.542  26.769  1.00  0.00     0.054 A 
BRANCH  65  66
ATOM     66  S   UNL A   1      42.651  26.711  25.187  1.00  0.00     0.124 S 
ATOM     67  O   UNL A   1      41.453  25.887  25.040  1.00  0.00    -0.237 OA
ATOM     68  O   UNL A   1      42.763  27.827  24.253  1.00  0.00    -0.237 OA
ATOM     69  O   UNL A   1      43.889  25.971  25.422  1.00  0.00    -0.744 OA
ENDBRANCH  65  66
ENDBRANCH  46  60
BRANCH  47  70
ATOM     70  C   UNL A   1      39.709  33.616  37.717  1.00  0.00    -0.014 A 
ATOM     71  C   UNL A   1      39.096  32.924  38.774  1.00  0.00     0.010 A 
ATOM     72  C   UNL A   1      40.026  34.977  37.882  1.00  0.00     0.010 A 
ATOM     73  C   UNL A   1      38.794  33.583  39.970  1.00  0.00     0.020 A 
ATOM     74  C   UNL A   1      39.750  35.632  39.085  1.00  0.00     0.020 A 
ATOM     75  C   UNL A   1      39.126  34.933  40.119  1.00  0.00     0.054 A 
BRANCH  75  76
ATOM     76  S   UNL A   1      38.781  35.752  41.700  1.00  0.00     0.124 S 
ATOM     77  O   UNL A   1      38.984  37.158  41.365  1.00  0.00    -0.237 OA
ATOM     78  O   UNL A   1      37.399  35.358  41.965  1.00  0.00    -0.237 OA
ATOM     79  O   UNL A   1      39.769  35.173  42.607  1.00  0.00    -0.744 OA
ENDBRANCH  75  76
ENDBRANCH  47  70
BRANCH  59  80
ATOM     80  C   UNL A   1      44.905  29.405  35.721  1.00  0.00    -0.014 A 
ATOM     81  C   UNL A   1      46.107  30.136  35.717  1.00  0.00     0.010 A 
ATOM     82  C   UNL A   1      44.836  28.202  36.446  1.00  0.00     0.010 A 
ATOM     83  C   UNL A   1      47.226  29.658  36.405  1.00  0.00     0.020 A 
ATOM     84  C   UNL A   1      45.945  27.734  37.156  1.00  0.00     0.020 A 
ATOM     85  C   UNL A   1      47.138  28.458  37.118  1.00  0.00     0.054 A 
BRANCH  85  86
ATOM     86  S   UNL A   1      48.590  27.879  38.038  1.00  0.00     0.124 S 
ATOM     87  O   UNL A   1      49.592  28.879  37.681  1.00  0.00    -0.237 OA
ATOM     88  O   UNL A   1      48.130  27.916  39.424  1.00  0.00    -0.237 OA
ATOM     89  O   UNL A   1      48.828  26.540  37.503  1.00  0.00    -0.744 OA
ENDBRANCH  85  86
ENDBRANCH  59  80
ENDBRANCH  33  34
ENDBRANCH  26  28
ENDBRANCH  25  26
ENDBRANCH  24  25
ENDBRANCH  23  24
ENDBRANCH  22  23
ENDBRANCH   1  22
TORSDOF 21
ENDMDL
