MODEL 1
REMARK VINA RESULT:     -11.1      0.000      0.000
REMARK SMILES CCCCc1cc(S(F)(F)(F)(F)F)cc2c1O[C@@H](C(F)(F)F)C(C(=O)OCCOCCOC(=O)c1ccc(-c3c4nc(c(-c5ccc(S(=O)(=O)[O-])cc5)c5ccc([nH]5)c(-c5ccc(S(=O)(=O)[O-])cc5)c5nc(c(-c6ccc(S(=O)(=O)[O-])cc6)c6ccc3[nH]6)C=C5)C=C4)cc1)=C2
REMARK SMILES IDX 29 1 28 2 27 3 26 4 24 5 25 6 23 7 5 8 6 9 16 10 7 11 15 12
REMARK SMILES IDX 17 13 14 14 95 15 18 16 4 17 3 18 2 19 1 20 8 21 9 22 10 23
REMARK SMILES IDX 11 24 12 25 13 26 19 27 20 28 21 29 22 30 30 31 31 32 32 33
REMARK SMILES IDX 33 34 34 35 35 36 36 37 94 38 37 39 93 40 38 41 39 42 40 43
REMARK SMILES IDX 87 44 41 45 92 46 86 47 88 48 42 49 91 50 85 51 84 52 43 54
REMARK SMILES IDX 73 55 54 56 72 57 55 58 58 59 71 60 89 61 56 62 57 63 70 65
REMARK SMILES IDX 90 66 59 67 44 68 45 69 53 70 46 71 52 72 47 73 48 74 49 75
REMARK SMILES IDX 50 76 51 77 74 78 75 79 83 80 76 81 82 82 77 83 78 84 79 85
REMARK SMILES IDX 80 86 81 87 60 88 61 89 69 90 62 91 68 92 63 93 64 94 65 95
REMARK SMILES IDX 66 96 67 97
REMARK H PARENT 88 53 58 64
REMARK Flexibility Score: inf
ROOT
ATOM      1  O   UNL A   1      40.143  21.524  25.459  1.00  0.00    -0.374 OA
ENDROOT
BRANCH   1   2
ATOM      2  C   UNL A   1      38.917  21.921  26.056  1.00  0.00     0.202 C 
BRANCH   2   3
ATOM      3  C   UNL A   1      37.757  21.412  25.217  1.00  0.00     0.261 C 
BRANCH   3   4
ATOM      4  O   UNL A   1      36.587  22.153  25.529  1.00  0.00    -0.460 OA
BRANCH   4   5
ATOM      5  C   UNL A   1      36.070  23.090  24.596  1.00  0.00     0.338 C 
ATOM      6  O   UNL A   1      36.648  23.257  23.477  1.00  0.00    -0.246 OA
BRANCH   5   7
ATOM      7  C   UNL A   1      34.824  23.893  24.935  1.00  0.00     0.087 C 
ATOM      8  C   UNL A   1      31.342  26.161  25.361  1.00  0.00    -0.004 A 
ATOM      9  C   UNL A   1      31.404  27.418  25.935  1.00  0.00     0.032 A 
ATOM     10  C   UNL A   1      32.509  25.459  25.185  1.00  0.00     0.131 A 
ATOM     11  C   UNL A   1      32.602  27.960  26.317  1.00  0.00     0.108 A 
ATOM     12  C   UNL A   1      33.736  25.967  25.575  1.00  0.00     0.019 A 
ATOM     13  O   UNL A   1      32.447  24.263  24.513  1.00  0.00    -0.475 OA
ATOM     14  C   UNL A   1      33.762  27.235  26.144  1.00  0.00     0.036 A 
ATOM     15  C   UNL A   1      34.917  25.163  25.309  1.00  0.00     0.027 C 
ATOM     16  C   UNL A   1      33.442  23.258  24.852  1.00  0.00     0.316 C 
BRANCH   8  17
ATOM     17  C   UNL A   1      30.009  25.568  24.935  1.00  0.00     0.039 C 
BRANCH  17  18
ATOM     18  C   UNL A   1      29.399  26.428  23.840  1.00  0.00     0.005 C 
BRANCH  18  19
ATOM     19  C   UNL A   1      30.499  26.929  22.919  1.00  0.00    -0.003 C 
ATOM     20  C   UNL A   1      30.211  28.368  22.520  1.00  0.00     0.004 C 
ENDBRANCH  18  19
ENDBRANCH  17  18
ENDBRANCH   8  17
BRANCH  11  21
ATOM     21  S   UNL A   1      32.663  29.617  27.045  1.00  0.00     0.310 S 
ATOM     22  F   UNL A   1      31.917  30.264  25.803  1.00  0.00    -0.094 F 
ATOM     23  F   UNL A   1      34.018  29.890  26.286  1.00  0.00    -0.094 F 
ATOM     24  F   UNL A   1      32.703  31.034  27.683  1.00  0.00    -0.094 F 
ATOM     25  F   UNL A   1      31.239  29.377  27.684  1.00  0.00    -0.094 F 
ATOM     26  F   UNL A   1      32.555  28.219  26.315  1.00  0.00    -0.094 F 
ENDBRANCH  11  21
BRANCH  16  27
ATOM     27  C   UNL A   1      33.453  22.186  23.774  1.00  0.00     0.430 C 
ATOM     28  F   UNL A   1      32.211  21.766  23.553  1.00  0.00    -0.167 F 
ATOM     29  F   UNL A   1      33.957  22.691  22.651  1.00  0.00    -0.167 F 
ATOM     30  F   UNL A   1      34.202  21.162  24.175  1.00  0.00    -0.167 F 
ENDBRANCH  16  27
ENDBRANCH   5   7
ENDBRANCH   4   5
ENDBRANCH   3   4
ENDBRANCH   2   3
ENDBRANCH   1   2
BRANCH   1  31
ATOM     31  C   UNL A   1      41.211  21.779  26.359  1.00  0.00     0.202 C 
BRANCH  31  32
ATOM     32  C   UNL A   1      42.285  22.590  25.653  1.00  0.00     0.261 C 
BRANCH  32  33
ATOM     33  O   UNL A   1      42.733  23.630  26.509  1.00  0.00    -0.460 OA
BRANCH  33  34
ATOM     34  C   UNL A   1      42.292  24.963  26.298  1.00  0.00     0.338 C 
ATOM     35  O   UNL A   1      42.112  25.392  25.115  1.00  0.00    -0.246 OA
BRANCH  34  36
ATOM     36  C   UNL A   1      42.036  25.876  27.485  1.00  0.00     0.060 A 
ATOM     37  C   UNL A   1      41.071  25.525  28.415  1.00  0.00     0.016 A 
ATOM     38  C   UNL A   1      42.738  26.995  27.611  1.00  0.00     0.016 A 
ATOM     39  C   UNL A   1      40.716  26.573  29.297  1.00  0.00     0.010 A 
ATOM     40  C   UNL A   1      42.422  27.914  28.584  1.00  0.00     0.010 A 
ATOM     41  C   UNL A   1      41.440  27.658  29.499  1.00  0.00    -0.014 A 
BRANCH  41  42
ATOM     42  C   UNL A   1      41.194  28.574  30.687  1.00  0.00     0.031 A 
ATOM     43  C   UNL A   1      40.152  29.499  30.600  1.00  0.00     0.074 A 
ATOM     44  C   UNL A   1      42.018  28.439  31.791  1.00  0.00     0.049 A 
ATOM     45  N   UNL A   1      39.749  30.362  31.534  1.00  0.00    -0.248 NA
ATOM     46  C   UNL A   1      39.297  29.668  29.415  1.00  0.00     0.031 C 
ATOM     47  C   UNL A   1      43.066  27.503  31.891  1.00  0.00     0.029 A 
ATOM     48  N   UNL A   1      41.983  29.159  32.965  1.00  0.00    -0.354 N 
ATOM     49  C   UNL A   1      38.707  31.069  31.090  1.00  0.00     0.074 A 
ATOM     50  C   UNL A   1      38.406  30.636  29.719  1.00  0.00     0.031 C 
ATOM     51  C   UNL A   1      43.661  27.664  33.102  1.00  0.00     0.029 A 
ATOM     52  C   UNL A   1      42.996  28.703  33.780  1.00  0.00     0.049 A 
ATOM     53  H   UNL A   1      41.344  29.875  33.184  1.00  0.00     0.167 HD
ATOM     54  C   UNL A   1      37.997  32.055  31.775  1.00  0.00     0.031 A 
ATOM     55  C   UNL A   1      43.336  29.156  35.045  1.00  0.00     0.031 A 
ATOM     56  C   UNL A   1      38.311  32.478  33.058  1.00  0.00     0.049 A 
ATOM     57  C   UNL A   1      42.662  30.183  35.709  1.00  0.00     0.074 A 
ATOM     58  C   UNL A   1      37.600  33.465  33.767  1.00  0.00     0.029 A 
ATOM     59  N   UNL A   1      39.338  32.039  33.862  1.00  0.00    -0.354 N 
ATOM     60  N   UNL A   1      41.596  30.862  35.280  1.00  0.00    -0.248 NA
ATOM     61  C   UNL A   1      43.034  30.692  37.034  1.00  0.00     0.031 C 
ATOM     62  C   UNL A   1      38.195  33.627  34.977  1.00  0.00     0.029 A 
ATOM     63  C   UNL A   1      39.290  32.742  35.045  1.00  0.00     0.049 A 
ATOM     64  H   UNL A   1      39.995  31.342  33.632  1.00  0.00     0.167 HD
ATOM     65  C   UNL A   1      41.220  31.754  36.198  1.00  0.00     0.074 A 
ATOM     66  C   UNL A   1      42.144  31.663  37.338  1.00  0.00     0.031 C 
ATOM     67  C   UNL A   1      40.142  32.638  36.134  1.00  0.00     0.031 A 
BRANCH  54  68
ATOM     68  C   UNL A   1      36.812  32.702  31.077  1.00  0.00    -0.014 A 
ATOM     69  C   UNL A   1      35.533  32.191  31.220  1.00  0.00     0.010 A 
ATOM     70  C   UNL A   1      37.032  33.835  30.420  1.00  0.00     0.010 A 
ATOM     71  C   UNL A   1      34.572  32.804  30.381  1.00  0.00     0.020 A 
ATOM     72  C   UNL A   1      36.014  34.454  29.733  1.00  0.00     0.020 A 
ATOM     73  C   UNL A   1      34.737  33.969  29.782  1.00  0.00     0.054 A 
BRANCH  73  74
ATOM     74  S   UNL A   1      33.344  34.877  29.065  1.00  0.00     0.124 S 
ATOM     75  O   UNL A   1      32.635  33.993  28.038  1.00  0.00    -0.237 OA
ATOM     76  O   UNL A   1      32.361  35.262  30.174  1.00  0.00    -0.237 OA
ATOM     77  O   UNL A   1      33.922  36.293  28.298  1.00  0.00    -0.744 OA
ENDBRANCH  73  74
ENDBRANCH  54  68
BRANCH  55  78
ATOM     78  C   UNL A   1      44.511  28.497  35.750  1.00  0.00    -0.014 A 
ATOM     79  C   UNL A   1      45.774  29.057  35.653  1.00  0.00     0.010 A 
ATOM     80  C   UNL A   1      44.319  27.329  36.352  1.00  0.00     0.010 A 
ATOM     81  C   UNL A   1      46.823  28.163  35.973  1.00  0.00     0.020 A 
ATOM     82  C   UNL A   1      45.387  26.569  36.760  1.00  0.00     0.020 A 
ATOM     83  C   UNL A   1      46.668  27.034  36.642  1.00  0.00     0.054 A 
BRANCH  83  84
ATOM     84  S   UNL A   1      48.074  26.151  37.363  1.00  0.00     0.124 S 
ATOM     85  O   UNL A   1      47.773  24.651  37.393  1.00  0.00    -0.237 OA
ATOM     86  O   UNL A   1      49.323  26.403  36.515  1.00  0.00    -0.237 OA
ATOM     87  O   UNL A   1      48.344  26.711  38.955  1.00  0.00    -0.744 OA
ENDBRANCH  83  84
ENDBRANCH  55  78
BRANCH  67  88
ATOM     88  C   UNL A   1      39.885  33.539  37.330  1.00  0.00    -0.014 A 
ATOM     89  C   UNL A   1      39.133  33.060  38.391  1.00  0.00     0.010 A 
ATOM     90  C   UNL A   1      40.384  34.769  37.341  1.00  0.00     0.010 A 
ATOM     91  C   UNL A   1      38.717  34.063  39.298  1.00  0.00     0.020 A 
ATOM     92  C   UNL A   1      40.040  35.656  38.333  1.00  0.00     0.020 A 
ATOM     93  C   UNL A   1      39.252  35.267  39.381  1.00  0.00     0.054 A 
BRANCH  93  94
ATOM     94  S   UNL A   1      38.960  36.345  40.805  1.00  0.00     0.124 S 
ATOM     95  O   UNL A   1      38.526  37.730  40.315  1.00  0.00    -0.237 OA
ATOM     96  O   UNL A   1      37.857  35.746  41.680  1.00  0.00    -0.237 OA
ATOM     97  O   UNL A   1      40.398  36.488  41.718  1.00  0.00    -0.744 OA
ENDBRANCH  93  94
ENDBRANCH  67  88
ENDBRANCH  41  42
ENDBRANCH  34  36
ENDBRANCH  33  34
ENDBRANCH  32  33
ENDBRANCH  31  32
ENDBRANCH   1  31
TORSDOF 22
ENDMDL
MODEL 2
REMARK VINA RESULT:     -10.4      0.733      7.809
REMARK SMILES CCCCc1cc(S(F)(F)(F)(F)F)cc2c1O[C@@H](C(F)(F)F)C(C(=O)OCCOCCOC(=O)c1ccc(-c3c4nc(c(-c5ccc(S(=O)(=O)[O-])cc5)c5ccc([nH]5)c(-c5ccc(S(=O)(=O)[O-])cc5)c5nc(c(-c6ccc(S(=O)(=O)[O-])cc6)c6ccc3[nH]6)C=C5)C=C4)cc1)=C2
REMARK SMILES IDX 29 1 28 2 27 3 26 4 24 5 25 6 23 7 5 8 6 9 16 10 7 11 15 12
REMARK SMILES IDX 17 13 14 14 95 15 18 16 4 17 3 18 2 19 1 20 8 21 9 22 10 23
REMARK SMILES IDX 11 24 12 25 13 26 19 27 20 28 21 29 22 30 30 31 31 32 32 33
REMARK SMILES IDX 33 34 34 35 35 36 36 37 94 38 37 39 93 40 38 41 39 42 40 43
REMARK SMILES IDX 87 44 41 45 92 46 86 47 88 48 42 49 91 50 85 51 84 52 43 54
REMARK SMILES IDX 73 55 54 56 72 57 55 58 58 59 71 60 89 61 56 62 57 63 70 65
REMARK SMILES IDX 90 66 59 67 44 68 45 69 53 70 46 71 52 72 47 73 48 74 49 75
REMARK SMILES IDX 50 76 51 77 74 78 75 79 83 80 76 81 82 82 77 83 78 84 79 85
REMARK SMILES IDX 80 86 81 87 60 88 61 89 69 90 62 91 68 92 63 93 64 94 65 95
REMARK SMILES IDX 66 96 67 97
REMARK H PARENT 88 53 58 64
REMARK Flexibility Score: inf
ROOT
ATOM      1  O   UNL A   1      40.783  21.624  25.640  1.00  0.00    -0.374 OA
ENDROOT
BRANCH   1   2
ATOM      2  C   UNL A   1      39.613  21.125  26.272  1.00  0.00     0.202 C 
BRANCH   2   3
ATOM      3  C   UNL A   1      38.452  21.168  25.293  1.00  0.00     0.261 C 
BRANCH   3   4
ATOM      4  O   UNL A   1      37.524  22.162  25.703  1.00  0.00    -0.460 OA
BRANCH   4   5
ATOM      5  C   UNL A   1      36.670  22.774  24.748  1.00  0.00     0.338 C 
ATOM      6  O   UNL A   1      36.951  22.708  23.511  1.00  0.00    -0.246 OA
BRANCH   5   7
ATOM      7  C   UNL A   1      35.420  23.507  25.207  1.00  0.00     0.087 C 
ATOM      8  C   UNL A   1      31.830  25.500  25.977  1.00  0.00    -0.004 A 
ATOM      9  C   UNL A   1      31.846  26.832  26.348  1.00  0.00     0.032 A 
ATOM     10  C   UNL A   1      33.021  24.883  25.678  1.00  0.00     0.131 A 
ATOM     11  C   UNL A   1      33.022  27.531  26.412  1.00  0.00     0.108 A 
ATOM     12  C   UNL A   1      34.229  25.553  25.750  1.00  0.00     0.019 A 
ATOM     13  O   UNL A   1      32.978  23.596  25.203  1.00  0.00    -0.475 OA
ATOM     14  C   UNL A   1      34.209  26.893  26.121  1.00  0.00     0.036 A 
ATOM     15  C   UNL A   1      35.430  24.824  25.376  1.00  0.00     0.027 C 
ATOM     16  C   UNL A   1      34.128  22.748  25.481  1.00  0.00     0.316 C 
BRANCH   8  17
ATOM     17  C   UNL A   1      30.520  24.732  25.902  1.00  0.00     0.039 C 
BRANCH  17  18
ATOM     18  C   UNL A   1      29.382  25.698  25.615  1.00  0.00     0.005 C 
BRANCH  18  19
ATOM     19  C   UNL A   1      29.239  25.878  24.112  1.00  0.00    -0.003 C 
ATOM     20  C   UNL A   1      30.108  24.858  23.394  1.00  0.00     0.004 C 
ENDBRANCH  18  19
ENDBRANCH  17  18
ENDBRANCH   8  17
BRANCH  11  21
ATOM     21  S   UNL A   1      33.019  29.281  26.877  1.00  0.00     0.310 S 
ATOM     22  F   UNL A   1      33.314  29.746  25.389  1.00  0.00    -0.094 F 
ATOM     23  F   UNL A   1      34.579  29.216  27.093  1.00  0.00    -0.094 F 
ATOM     24  F   UNL A   1      32.997  30.782  27.278  1.00  0.00    -0.094 F 
ATOM     25  F   UNL A   1      31.482  29.362  26.520  1.00  0.00    -0.094 F 
ATOM     26  F   UNL A   1      33.045  27.788  26.359  1.00  0.00    -0.094 F 
ENDBRANCH  11  21
BRANCH  16  27
ATOM     27  C   UNL A   1      34.072  21.524  24.580  1.00  0.00     0.430 C 
ATOM     28  F   UNL A   1      34.176  21.903  23.310  1.00  0.00    -0.167 F 
ATOM     29  F   UNL A   1      35.075  20.705  24.883  1.00  0.00    -0.167 F 
ATOM     30  F   UNL A   1      32.914  20.894  24.761  1.00  0.00    -0.167 F 
ENDBRANCH  16  27
ENDBRANCH   5   7
ENDBRANCH   4   5
ENDBRANCH   3   4
ENDBRANCH   2   3
ENDBRANCH   1   2
BRANCH   1  31
ATOM     31  C   UNL A   1      41.909  21.379  26.470  1.00  0.00     0.202 C 
BRANCH  31  32
ATOM     32  C   UNL A   1      42.577  22.699  26.819  1.00  0.00     0.261 C 
BRANCH  32  33
ATOM     33  O   UNL A   1      41.901  23.760  26.161  1.00  0.00    -0.460 OA
BRANCH  33  34
ATOM     34  C   UNL A   1      42.431  25.077  26.210  1.00  0.00     0.338 C 
ATOM     35  O   UNL A   1      43.149  25.508  25.255  1.00  0.00    -0.246 OA
BRANCH  34  36
ATOM     36  C   UNL A   1      42.137  25.970  27.404  1.00  0.00     0.060 A 
ATOM     37  C   UNL A   1      41.132  25.612  28.288  1.00  0.00     0.016 A 
ATOM     38  C   UNL A   1      42.844  27.079  27.578  1.00  0.00     0.016 A 
ATOM     39  C   UNL A   1      40.753  26.646  29.176  1.00  0.00     0.010 A 
ATOM     40  C   UNL A   1      42.499  27.983  28.555  1.00  0.00     0.010 A 
ATOM     41  C   UNL A   1      41.479  27.720  29.426  1.00  0.00    -0.014 A 
BRANCH  41  42
ATOM     42  C   UNL A   1      41.196  28.616  30.622  1.00  0.00     0.031 A 
ATOM     43  C   UNL A   1      41.988  28.461  31.761  1.00  0.00     0.074 A 
ATOM     44  C   UNL A   1      40.171  29.539  30.511  1.00  0.00     0.049 A 
ATOM     45  N   UNL A   1      41.930  29.163  32.894  1.00  0.00    -0.248 NA
ATOM     46  C   UNL A   1      43.055  27.459  31.893  1.00  0.00     0.031 C 
ATOM     47  C   UNL A   1      39.373  29.708  29.362  1.00  0.00     0.029 A 
ATOM     48  N   UNL A   1      39.738  30.440  31.460  1.00  0.00    -0.354 N 
ATOM     49  C   UNL A   1      42.861  28.736  33.750  1.00  0.00     0.074 A 
ATOM     50  C   UNL A   1      43.594  27.629  33.120  1.00  0.00     0.031 C 
ATOM     51  C   UNL A   1      38.467  30.688  29.618  1.00  0.00     0.029 A 
ATOM     52  C   UNL A   1      38.682  31.148  30.931  1.00  0.00     0.049 A 
ATOM     53  H   UNL A   1      40.119  30.557  32.360  1.00  0.00     0.167 HD
ATOM     54  C   UNL A   1      43.127  29.227  35.028  1.00  0.00     0.031 A 
ATOM     55  C   UNL A   1      37.935  32.141  31.544  1.00  0.00     0.031 A 
ATOM     56  C   UNL A   1      42.408  30.250  35.625  1.00  0.00     0.049 A 
ATOM     57  C   UNL A   1      38.164  32.594  32.845  1.00  0.00     0.074 A 
ATOM     58  C   UNL A   1      42.669  30.763  36.910  1.00  0.00     0.029 A 
ATOM     59  N   UNL A   1      41.336  30.942  35.105  1.00  0.00    -0.354 N 
ATOM     60  N   UNL A   1      39.120  32.193  33.685  1.00  0.00    -0.248 NA
ATOM     61  C   UNL A   1      37.359  33.622  33.515  1.00  0.00     0.031 C 
ATOM     62  C   UNL A   1      41.762  31.742  37.166  1.00  0.00     0.029 A 
ATOM     63  C   UNL A   1      40.918  31.858  36.044  1.00  0.00     0.049 A 
ATOM     64  H   UNL A   1      40.937  30.804  34.215  1.00  0.00     0.167 HD
ATOM     65  C   UNL A   1      39.035  32.867  34.834  1.00  0.00     0.074 A 
ATOM     66  C   UNL A   1      37.896  33.791  34.744  1.00  0.00     0.031 C 
ATOM     67  C   UNL A   1      39.863  32.752  35.952  1.00  0.00     0.031 A 
BRANCH  54  68
ATOM     68  C   UNL A   1      44.272  28.604  35.811  1.00  0.00    -0.014 A 
ATOM     69  C   UNL A   1      44.062  27.509  36.633  1.00  0.00     0.010 A 
ATOM     70  C   UNL A   1      45.494  29.076  35.590  1.00  0.00     0.010 A 
ATOM     71  C   UNL A   1      45.188  27.153  37.413  1.00  0.00     0.020 A 
ATOM     72  C   UNL A   1      46.570  28.587  36.292  1.00  0.00     0.020 A 
ATOM     73  C   UNL A   1      46.425  27.545  37.165  1.00  0.00     0.054 A 
BRANCH  73  74
ATOM     74  S   UNL A   1      47.852  26.744  37.940  1.00  0.00     0.124 S 
ATOM     75  O   UNL A   1      47.680  25.226  37.877  1.00  0.00    -0.237 OA
ATOM     76  O   UNL A   1      49.128  27.145  37.194  1.00  0.00    -0.237 OA
ATOM     77  O   UNL A   1      47.966  27.239  39.573  1.00  0.00    -0.744 OA
ENDBRANCH  73  74
ENDBRANCH  54  68
BRANCH  55  78
ATOM     78  C   UNL A   1      36.801  32.775  30.754  1.00  0.00    -0.014 A 
ATOM     79  C   UNL A   1      37.079  33.755  29.815  1.00  0.00     0.010 A 
ATOM     80  C   UNL A   1      35.550  32.454  31.066  1.00  0.00     0.010 A 
ATOM     81  C   UNL A   1      35.960  34.547  29.466  1.00  0.00     0.020 A 
ATOM     82  C   UNL A   1      34.498  33.190  30.580  1.00  0.00     0.020 A 
ATOM     83  C   UNL A   1      34.703  34.211  29.693  1.00  0.00     0.054 A 
BRANCH  83  84
ATOM     84  S   UNL A   1      33.326  35.056  28.875  1.00  0.00     0.124 S 
ATOM     85  O   UNL A   1      32.586  34.068  27.972  1.00  0.00    -0.237 OA
ATOM     86  O   UNL A   1      32.364  35.602  29.932  1.00  0.00    -0.237 OA
ATOM     87  O   UNL A   1      33.930  36.348  27.933  1.00  0.00    -0.744 OA
ENDBRANCH  83  84
ENDBRANCH  55  78
BRANCH  67  88
ATOM     88  C   UNL A   1      39.592  33.662  37.137  1.00  0.00    -0.014 A 
ATOM     89  C   UNL A   1      40.286  34.857  37.248  1.00  0.00     0.010 A 
ATOM     90  C   UNL A   1      38.696  33.301  38.048  1.00  0.00     0.010 A 
ATOM     91  C   UNL A   1      40.173  35.471  38.518  1.00  0.00     0.020 A 
ATOM     92  C   UNL A   1      38.543  34.025  39.206  1.00  0.00     0.020 A 
ATOM     93  C   UNL A   1      39.241  35.183  39.408  1.00  0.00     0.054 A 
BRANCH  93  94
ATOM     94  S   UNL A   1      38.904  36.265  40.820  1.00  0.00     0.124 S 
ATOM     95  O   UNL A   1      38.306  37.583  40.320  1.00  0.00    -0.237 OA
ATOM     96  O   UNL A   1      37.912  35.579  41.762  1.00  0.00    -0.237 OA
ATOM     97  O   UNL A   1      40.360  36.580  41.658  1.00  0.00    -0.744 OA
ENDBRANCH  93  94
ENDBRANCH  67  88
ENDBRANCH  41  42
ENDBRANCH  34  36
ENDBRANCH  33  34
ENDBRANCH  32  33
ENDBRANCH  31  32
ENDBRANCH   1  31
TORSDOF 22
ENDMDL
MODEL 3
REMARK VINA RESULT:      -9.7      8.318     10.918
REMARK SMILES CCCCc1cc(S(F)(F)(F)(F)F)cc2c1O[C@@H](C(F)(F)F)C(C(=O)OCCOCCOC(=O)c1ccc(-c3c4nc(c(-c5ccc(S(=O)(=O)[O-])cc5)c5ccc([nH]5)c(-c5ccc(S(=O)(=O)[O-])cc5)c5nc(c(-c6ccc(S(=O)(=O)[O-])cc6)c6ccc3[nH]6)C=C5)C=C4)cc1)=C2
REMARK SMILES IDX 29 1 28 2 27 3 26 4 24 5 25 6 23 7 5 8 6 9 16 10 7 11 15 12
REMARK SMILES IDX 17 13 14 14 95 15 18 16 4 17 3 18 2 19 1 20 8 21 9 22 10 23
REMARK SMILES IDX 11 24 12 25 13 26 19 27 20 28 21 29 22 30 30 31 31 32 32 33
REMARK SMILES IDX 33 34 34 35 35 36 36 37 94 38 37 39 93 40 38 41 39 42 40 43
REMARK SMILES IDX 87 44 41 45 92 46 86 47 88 48 42 49 91 50 85 51 84 52 43 54
REMARK SMILES IDX 73 55 54 56 72 57 55 58 58 59 71 60 89 61 56 62 57 63 70 65
REMARK SMILES IDX 90 66 59 67 44 68 45 69 53 70 46 71 52 72 47 73 48 74 49 75
REMARK SMILES IDX 50 76 51 77 74 78 75 79 83 80 76 81 82 82 77 83 78 84 79 85
REMARK SMILES IDX 80 86 81 87 60 88 61 89 69 90 62 91 68 92 63 93 64 94 65 95
REMARK SMILES IDX 66 96 67 97
REMARK H PARENT 88 53 58 64
REMARK Flexibility Score: inf
ROOT
ATOM      1  O   UNL A   1      45.595  20.210  25.435  1.00  0.00    -0.374 OA
ENDROOT
BRANCH   1   2
ATOM      2  C   UNL A   1      46.391  20.871  24.463  1.00  0.00     0.202 C 
BRANCH   2   3
ATOM      3  C   UNL A   1      45.929  22.312  24.324  1.00  0.00     0.261 C 
BRANCH   3   4
ATOM      4  O   UNL A   1      46.672  23.134  25.212  1.00  0.00    -0.460 OA
BRANCH   4   5
ATOM      5  C   UNL A   1      46.290  24.487  25.414  1.00  0.00     0.338 C 
ATOM      6  O   UNL A   1      45.250  24.945  24.846  1.00  0.00    -0.246 OA
BRANCH   5   7
ATOM      7  C   UNL A   1      47.127  25.387  26.310  1.00  0.00     0.087 C 
ATOM      8  C   UNL A   1      49.835  27.653  28.542  1.00  0.00    -0.004 A 
ATOM      9  C   UNL A   1      49.960  27.436  29.901  1.00  0.00     0.032 A 
ATOM     10  C   UNL A   1      48.976  26.858  27.823  1.00  0.00     0.131 A 
ATOM     11  C   UNL A   1      49.250  26.444  30.525  1.00  0.00     0.108 A 
ATOM     12  C   UNL A   1      48.228  25.860  28.422  1.00  0.00     0.019 A 
ATOM     13  O   UNL A   1      48.946  27.010  26.459  1.00  0.00    -0.475 OA
ATOM     14  C   UNL A   1      48.382  25.664  29.790  1.00  0.00     0.036 A 
ATOM     15  C   UNL A   1      47.378  25.047  27.569  1.00  0.00     0.027 C 
ATOM     16  C   UNL A   1      47.696  26.698  25.783  1.00  0.00     0.316 C 
BRANCH   8  17
ATOM     17  C   UNL A   1      50.631  28.751  27.856  1.00  0.00     0.039 C 
BRANCH  17  18
ATOM     18  C   UNL A   1      49.704  29.900  27.495  1.00  0.00     0.005 C 
BRANCH  18  19
ATOM     19  C   UNL A   1      50.524  31.160  27.272  1.00  0.00    -0.003 C 
ATOM     20  C   UNL A   1      50.336  32.102  28.450  1.00  0.00     0.004 C 
ENDBRANCH  18  19
ENDBRANCH  17  18
ENDBRANCH   8  17
BRANCH  11  21
ATOM     21  S   UNL A   1      49.447  26.160  32.302  1.00  0.00     0.310 S 
ATOM     22  F   UNL A   1      48.142  25.260  32.372  1.00  0.00    -0.094 F 
ATOM     23  F   UNL A   1      48.522  27.403  32.593  1.00  0.00    -0.094 F 
ATOM     24  F   UNL A   1      49.631  25.905  33.824  1.00  0.00    -0.094 F 
ATOM     25  F   UNL A   1      50.254  24.839  31.991  1.00  0.00    -0.094 F 
ATOM     26  F   UNL A   1      49.175  26.341  30.755  1.00  0.00    -0.094 F 
ENDBRANCH  11  21
BRANCH  16  27
ATOM     27  C   UNL A   1      47.958  26.560  24.292  1.00  0.00     0.430 C 
ATOM     28  F   UNL A   1      46.903  27.002  23.613  1.00  0.00    -0.167 F 
ATOM     29  F   UNL A   1      49.029  27.276  23.962  1.00  0.00    -0.167 F 
ATOM     30  F   UNL A   1      48.171  25.281  23.996  1.00  0.00    -0.167 F 
ENDBRANCH  16  27
ENDBRANCH   5   7
ENDBRANCH   4   5
ENDBRANCH   3   4
ENDBRANCH   2   3
ENDBRANCH   1   2
BRANCH   1  31
ATOM     31  C   UNL A   1      44.725  19.293  24.789  1.00  0.00     0.202 C 
BRANCH  31  32
ATOM     32  C   UNL A   1      43.392  19.262  25.519  1.00  0.00     0.261 C 
BRANCH  32  33
ATOM     33  O   UNL A   1      42.757  20.526  25.400  1.00  0.00    -0.460 OA
BRANCH  33  34
ATOM     34  C   UNL A   1      41.982  21.036  26.475  1.00  0.00     0.338 C 
ATOM     35  O   UNL A   1      40.809  20.593  26.678  1.00  0.00    -0.246 OA
BRANCH  34  36
ATOM     36  C   UNL A   1      42.558  22.109  27.383  1.00  0.00     0.060 A 
ATOM     37  C   UNL A   1      43.883  22.485  27.234  1.00  0.00     0.016 A 
ATOM     38  C   UNL A   1      41.784  22.666  28.307  1.00  0.00     0.016 A 
ATOM     39  C   UNL A   1      44.383  23.261  28.306  1.00  0.00     0.010 A 
ATOM     40  C   UNL A   1      42.316  23.523  29.241  1.00  0.00     0.010 A 
ATOM     41  C   UNL A   1      43.631  23.891  29.189  1.00  0.00    -0.014 A 
BRANCH  41  42
ATOM     42  C   UNL A   1      44.197  24.971  30.098  1.00  0.00     0.031 A 
ATOM     43  C   UNL A   1      44.370  26.251  29.569  1.00  0.00     0.074 A 
ATOM     44  C   UNL A   1      44.506  24.624  31.402  1.00  0.00     0.049 A 
ATOM     45  N   UNL A   1      44.813  27.340  30.200  1.00  0.00    -0.248 NA
ATOM     46  C   UNL A   1      44.074  26.614  28.175  1.00  0.00     0.031 C 
ATOM     47  C   UNL A   1      44.326  23.337  31.945  1.00  0.00     0.029 A 
ATOM     48  N   UNL A   1      45.030  25.429  32.389  1.00  0.00    -0.354 N 
ATOM     49  C   UNL A   1      44.823  28.384  29.368  1.00  0.00     0.074 A 
ATOM     50  C   UNL A   1      44.353  27.930  28.053  1.00  0.00     0.031 C 
ATOM     51  C   UNL A   1      44.746  23.363  33.238  1.00  0.00     0.029 A 
ATOM     52  C   UNL A   1      45.195  24.666  33.524  1.00  0.00     0.049 A 
ATOM     53  H   UNL A   1      45.248  26.385  32.299  1.00  0.00     0.167 HD
ATOM     54  C   UNL A   1      45.203  29.694  29.657  1.00  0.00     0.031 A 
ATOM     55  C   UNL A   1      45.708  25.066  34.748  1.00  0.00     0.031 A 
ATOM     56  C   UNL A   1      45.676  30.104  30.894  1.00  0.00     0.049 A 
ATOM     57  C   UNL A   1      46.143  26.365  35.020  1.00  0.00     0.074 A 
ATOM     58  C   UNL A   1      46.056  31.424  31.204  1.00  0.00     0.029 A 
ATOM     59  N   UNL A   1      45.863  29.336  32.021  1.00  0.00    -0.354 N 
ATOM     60  N   UNL A   1      46.116  27.416  34.200  1.00  0.00    -0.248 NA
ATOM     61  C   UNL A   1      46.719  26.790  36.302  1.00  0.00     0.031 C 
ATOM     62  C   UNL A   1      46.476  31.450  32.496  1.00  0.00     0.029 A 
ATOM     63  C   UNL A   1      46.366  30.145  33.016  1.00  0.00     0.049 A 
ATOM     64  H   UNL A   1      45.672  28.373  32.102  1.00  0.00     0.167 HD
ATOM     65  C   UNL A   1      46.599  28.495  34.819  1.00  0.00     0.074 A 
ATOM     66  C   UNL A   1      47.000  28.106  36.179  1.00  0.00     0.031 C 
ATOM     67  C   UNL A   1      46.718  29.789  34.308  1.00  0.00     0.031 A 
BRANCH  54  68
ATOM     68  C   UNL A   1      45.093  30.733  28.552  1.00  0.00    -0.014 A 
ATOM     69  C   UNL A   1      43.970  31.534  28.435  1.00  0.00     0.010 A 
ATOM     70  C   UNL A   1      46.155  30.919  27.777  1.00  0.00     0.010 A 
ATOM     71  C   UNL A   1      43.951  32.330  27.266  1.00  0.00     0.020 A 
ATOM     72  C   UNL A   1      46.112  31.813  26.734  1.00  0.00     0.020 A 
ATOM     73  C   UNL A   1      45.011  32.595  26.524  1.00  0.00     0.054 A 
BRANCH  73  74
ATOM     74  S   UNL A   1      45.007  33.925  25.295  1.00  0.00     0.124 S 
ATOM     75  O   UNL A   1      44.546  33.371  23.946  1.00  0.00    -0.237 OA
ATOM     76  O   UNL A   1      44.050  35.032  25.746  1.00  0.00    -0.237 OA
ATOM     77  O   UNL A   1      46.586  34.564  25.141  1.00  0.00    -0.744 OA
ENDBRANCH  73  74
ENDBRANCH  54  68
BRANCH  55  78
ATOM     78  C   UNL A   1      45.803  24.031  35.857  1.00  0.00    -0.014 A 
ATOM     79  C   UNL A   1      44.906  24.069  36.913  1.00  0.00     0.010 A 
ATOM     80  C   UNL A   1      46.820  23.177  35.847  1.00  0.00     0.010 A 
ATOM     81  C   UNL A   1      45.338  23.357  38.057  1.00  0.00     0.020 A 
ATOM     82  C   UNL A   1      47.102  22.413  36.954  1.00  0.00     0.020 A 
ATOM     83  C   UNL A   1      46.293  22.444  38.055  1.00  0.00     0.054 A 
BRANCH  83  84
ATOM     84  S   UNL A   1      46.519  21.297  39.438  1.00  0.00     0.124 S 
ATOM     85  O   UNL A   1      45.824  21.855  40.681  1.00  0.00    -0.237 OA
ATOM     86  O   UNL A   1      45.910  19.940  39.078  1.00  0.00    -0.237 OA
ATOM     87  O   UNL A   1      48.188  21.107  39.753  1.00  0.00    -0.744 OA
ENDBRANCH  83  84
ENDBRANCH  55  78
BRANCH  67  88
ATOM     88  C   UNL A   1      47.264  30.870  35.224  1.00  0.00    -0.014 A 
ATOM     89  C   UNL A   1      46.387  31.597  36.013  1.00  0.00     0.010 A 
ATOM     90  C   UNL A   1      48.571  31.104  35.254  1.00  0.00     0.010 A 
ATOM     91  C   UNL A   1      46.960  32.754  36.592  1.00  0.00     0.020 A 
ATOM     92  C   UNL A   1      49.076  32.174  35.951  1.00  0.00     0.020 A 
ATOM     93  C   UNL A   1      48.258  32.971  36.705  1.00  0.00     0.054 A 
BRANCH  93  94
ATOM     94  S   UNL A   1      48.920  34.251  37.799  1.00  0.00     0.124 S 
ATOM     95  O   UNL A   1      50.425  34.398  37.559  1.00  0.00    -0.237 OA
ATOM     96  O   UNL A   1      48.225  35.583  37.505  1.00  0.00    -0.237 OA
ATOM     97  O   UNL A   1      48.642  33.811  39.427  1.00  0.00    -0.744 OA
ENDBRANCH  93  94
ENDBRANCH  67  88
ENDBRANCH  41  42
ENDBRANCH  34  36
ENDBRANCH  33  34
ENDBRANCH  32  33
ENDBRANCH  31  32
ENDBRANCH   1  31
TORSDOF 22
ENDMDL
