MODEL 1
REMARK VINA RESULT:     -12.5      0.000      0.000
REMARK SMILES O=C(OCCOCCOC(=O)c1ccc([C@@H]2CC(O)=Nc3c2ncn3-c2cccc(Cl)c2)cc1)c1ccc(-c2c3nc(c(-c4ccc(S(=O)(=O)[O-])cc4)c4ccc([nH]4)c(-c4ccc(S(=O)(=O)[O-])cc4)c4nc(c(-c5ccc(S(=O)(=O)[O-])cc5)c5ccc2[nH]5)C=C4)C=C3)cc1
REMARK SMILES IDX 5 1 4 2 3 3 2 4 1 5 35 6 36 7 94 8 37 9 93 10 38 11 39 12
REMARK SMILES IDX 40 13 87 14 41 15 92 16 86 17 88 18 42 19 91 20 85 21 84 22
REMARK SMILES IDX 43 24 73 25 54 26 72 27 55 28 58 29 71 30 89 31 56 32 57 33
REMARK SMILES IDX 70 35 90 36 59 37 44 38 45 39 53 40 46 41 52 42 47 43 48 44
REMARK SMILES IDX 49 45 50 46 51 47 74 48 75 49 83 50 76 51 82 52 77 53 78 54
REMARK SMILES IDX 79 55 80 56 81 57 60 58 61 59 69 60 62 61 68 62 63 63 64 64
REMARK SMILES IDX 65 65 66 66 67 67 6 68 7 69 8 70 9 71 10 72 11 73 12 74
REMARK SMILES IDX 13 75 34 76 14 77 33 78 15 79 16 80 17 81 22 82 18 83 21 84
REMARK SMILES IDX 23 85 20 86 25 87 24 88 19 89 26 91 27 92 32 93 28 94 30 95
REMARK SMILES IDX 29 96 31 97
REMARK H PARENT 88 23 58 34 19 90
REMARK Flexibility Score: inf
ROOT
ATOM      1  C   UNL A   1      42.552  20.180  25.867  1.00  0.00     0.202 C 
ENDROOT
BRANCH   1   2
ATOM      2  C   UNL A   1      44.045  20.406  25.645  1.00  0.00     0.261 C 
BRANCH   2   3
ATOM      3  O   UNL A   1      44.442  21.786  25.630  1.00  0.00    -0.460 OA
BRANCH   3   4
ATOM      4  C   UNL A   1      43.731  22.784  25.065  1.00  0.00     0.338 C 
ATOM      5  O   UNL A   1      43.530  22.791  23.853  1.00  0.00    -0.246 OA
BRANCH   4   6
ATOM      6  C   UNL A   1      42.980  23.720  25.939  1.00  0.00     0.060 A 
ATOM      7  C   UNL A   1      42.152  24.742  25.480  1.00  0.00     0.016 A 
ATOM      8  C   UNL A   1      43.301  23.659  27.304  1.00  0.00     0.016 A 
ATOM      9  C   UNL A   1      41.945  25.852  26.263  1.00  0.00     0.010 A 
ATOM     10  C   UNL A   1      43.035  24.737  28.121  1.00  0.00     0.010 A 
ATOM     11  C   UNL A   1      42.472  25.870  27.550  1.00  0.00    -0.014 A 
BRANCH  11  12
ATOM     12  C   UNL A   1      42.298  27.086  28.314  1.00  0.00     0.031 A 
ATOM     13  C   UNL A   1      43.462  27.994  28.186  1.00  0.00     0.074 A 
ATOM     14  C   UNL A   1      41.164  27.335  28.994  1.00  0.00     0.049 A 
ATOM     15  N   UNL A   1      44.350  28.269  29.084  1.00  0.00    -0.248 NA
ATOM     16  C   UNL A   1      43.819  28.451  26.830  1.00  0.00     0.031 C 
ATOM     17  C   UNL A   1      39.907  26.581  28.969  1.00  0.00     0.029 A 
ATOM     18  N   UNL A   1      40.851  28.399  29.775  1.00  0.00    -0.354 N 
ATOM     19  C   UNL A   1      45.224  29.160  28.471  1.00  0.00     0.074 A 
ATOM     20  C   UNL A   1      44.994  29.040  27.055  1.00  0.00     0.031 C 
ATOM     21  C   UNL A   1      38.912  27.360  29.453  1.00  0.00     0.029 A 
ATOM     22  C   UNL A   1      39.487  28.600  29.948  1.00  0.00     0.049 A 
ATOM     23  H   UNL A   1      41.532  28.980  30.184  1.00  0.00     0.167 HD
ATOM     24  C   UNL A   1      45.809  30.160  29.188  1.00  0.00     0.031 A 
ATOM     25  C   UNL A   1      38.886  29.741  30.381  1.00  0.00     0.031 A 
ATOM     26  C   UNL A   1      45.759  29.887  30.603  1.00  0.00     0.049 A 
ATOM     27  C   UNL A   1      39.933  30.545  31.066  1.00  0.00     0.074 A 
ATOM     28  C   UNL A   1      46.224  28.874  31.418  1.00  0.00     0.029 A 
ATOM     29  N   UNL A   1      44.785  30.541  31.322  1.00  0.00    -0.354 N 
ATOM     30  N   UNL A   1      40.510  30.163  32.173  1.00  0.00    -0.248 NA
ATOM     31  C   UNL A   1      40.691  31.494  30.265  1.00  0.00     0.031 C 
ATOM     32  C   UNL A   1      45.197  28.681  32.387  1.00  0.00     0.029 A 
ATOM     33  C   UNL A   1      44.203  29.638  32.169  1.00  0.00     0.049 A 
ATOM     34  H   UNL A   1      44.549  31.494  31.242  1.00  0.00     0.167 HD
ATOM     35  C   UNL A   1      41.855  30.459  31.993  1.00  0.00     0.074 A 
ATOM     36  C   UNL A   1      41.894  31.351  30.833  1.00  0.00     0.031 C 
ATOM     37  C   UNL A   1      42.828  29.723  32.609  1.00  0.00     0.031 A 
BRANCH  24  38
ATOM     38  C   UNL A   1      45.928  31.574  28.655  1.00  0.00    -0.014 A 
ATOM     39  C   UNL A   1      44.765  32.188  28.146  1.00  0.00     0.010 A 
ATOM     40  C   UNL A   1      47.160  32.183  28.338  1.00  0.00     0.010 A 
ATOM     41  C   UNL A   1      44.846  33.269  27.261  1.00  0.00     0.020 A 
ATOM     42  C   UNL A   1      47.249  33.287  27.492  1.00  0.00     0.020 A 
ATOM     43  C   UNL A   1      46.092  33.795  26.923  1.00  0.00     0.054 A 
BRANCH  43  44
ATOM     44  S   UNL A   1      46.195  35.107  25.684  1.00  0.00     0.124 S 
ATOM     45  O   UNL A   1      47.634  35.195  25.465  1.00  0.00    -0.237 OA
ATOM     46  O   UNL A   1      45.415  34.547  24.584  1.00  0.00    -0.237 OA
ATOM     47  O   UNL A   1      45.587  36.254  26.354  1.00  0.00    -0.744 OA
ENDBRANCH  43  44
ENDBRANCH  24  38
BRANCH  25  48
ATOM     48  C   UNL A   1      37.608  30.332  29.891  1.00  0.00    -0.014 A 
ATOM     49  C   UNL A   1      36.633  30.820  30.783  1.00  0.00     0.010 A 
ATOM     50  C   UNL A   1      37.465  30.674  28.529  1.00  0.00     0.010 A 
ATOM     51  C   UNL A   1      35.593  31.662  30.339  1.00  0.00     0.020 A 
ATOM     52  C   UNL A   1      36.431  31.505  28.079  1.00  0.00     0.020 A 
ATOM     53  C   UNL A   1      35.511  32.016  28.990  1.00  0.00     0.054 A 
BRANCH  53  54
ATOM     54  S   UNL A   1      34.278  33.239  28.447  1.00  0.00     0.124 S 
ATOM     55  O   UNL A   1      33.855  33.838  29.709  1.00  0.00    -0.237 OA
ATOM     56  O   UNL A   1      35.054  34.105  27.564  1.00  0.00    -0.237 OA
ATOM     57  O   UNL A   1      33.262  32.429  27.776  1.00  0.00    -0.744 OA
ENDBRANCH  53  54
ENDBRANCH  25  48
BRANCH  37  58
ATOM     58  C   UNL A   1      42.427  28.773  33.713  1.00  0.00    -0.014 A 
ATOM     59  C   UNL A   1      41.969  27.456  33.502  1.00  0.00     0.010 A 
ATOM     60  C   UNL A   1      42.691  29.190  35.028  1.00  0.00     0.010 A 
ATOM     61  C   UNL A   1      41.756  26.593  34.591  1.00  0.00     0.020 A 
ATOM     62  C   UNL A   1      42.499  28.332  36.111  1.00  0.00     0.020 A 
ATOM     63  C   UNL A   1      42.023  27.040  35.890  1.00  0.00     0.054 A 
BRANCH  63  64
ATOM     64  S   UNL A   1      41.782  25.919  37.297  1.00  0.00     0.124 S 
ATOM     65  O   UNL A   1      42.810  26.361  38.235  1.00  0.00    -0.237 OA
ATOM     66  O   UNL A   1      40.404  26.192  37.698  1.00  0.00    -0.237 OA
ATOM     67  O   UNL A   1      41.998  24.590  36.725  1.00  0.00    -0.744 OA
ENDBRANCH  63  64
ENDBRANCH  37  58
ENDBRANCH  11  12
ENDBRANCH   4   6
ENDBRANCH   3   4
ENDBRANCH   2   3
ENDBRANCH   1   2
BRANCH   1  68
ATOM     68  O   UNL A   1      42.006  20.332  27.169  1.00  0.00    -0.374 OA
BRANCH  68  69
ATOM     69  C   UNL A   1      40.744  21.006  27.286  1.00  0.00     0.202 C 
BRANCH  69  70
ATOM     70  C   UNL A   1      40.059  21.617  26.048  1.00  0.00     0.261 C 
BRANCH  70  71
ATOM     71  O   UNL A   1      38.621  21.597  26.100  1.00  0.00    -0.460 OA
BRANCH  71  72
ATOM     72  C   UNL A   1      38.023  20.768  25.202  1.00  0.00     0.338 C 
ATOM     73  O   UNL A   1      38.332  19.630  24.928  1.00  0.00    -0.246 OA
BRANCH  72  74
ATOM     74  C   UNL A   1      36.751  21.383  24.764  1.00  0.00     0.060 A 
ATOM     75  C   UNL A   1      35.568  20.667  24.986  1.00  0.00     0.016 A 
ATOM     76  C   UNL A   1      36.716  22.634  24.155  1.00  0.00     0.016 A 
ATOM     77  C   UNL A   1      34.341  21.212  24.622  1.00  0.00     0.005 A 
ATOM     78  C   UNL A   1      35.489  23.152  23.734  1.00  0.00     0.005 A 
ATOM     79  C   UNL A   1      34.285  22.454  23.972  1.00  0.00    -0.038 A 
BRANCH  79  80
ATOM     80  C   UNL A   1      32.933  22.942  23.477  1.00  0.00     0.081 C 
ATOM     81  C   UNL A   1      33.036  23.454  22.026  1.00  0.00     0.111 C 
ATOM     82  C   UNL A   1      32.485  24.006  24.403  1.00  0.00     0.093 A 
ATOM     83  C   UNL A   1      32.944  24.963  21.870  1.00  0.00     0.188 C 
ATOM     84  C   UNL A   1      32.311  25.300  23.974  1.00  0.00     0.164 A 
ATOM     85  N   UNL A   1      32.299  23.887  25.753  1.00  0.00    -0.238 NA
ATOM     86  N   UNL A   1      32.554  25.828  22.750  1.00  0.00    -0.198 NA
ATOM     87  N   UNL A   1      32.017  26.017  25.116  1.00  0.00    -0.283 N 
ATOM     88  C   UNL A   1      32.075  25.121  26.162  1.00  0.00     0.206 A 
BRANCH  83  89
ATOM     89  O   UNL A   1      33.273  25.409  20.641  1.00  0.00    -0.496 OA
ATOM     90  H   UNL A   1      33.473  24.797  19.959  1.00  0.00     0.294 HD
ENDBRANCH  83  89
BRANCH  87  91
ATOM     91  C   UNL A   1      31.761  27.401  25.188  1.00  0.00     0.050 A 
ATOM     92  C   UNL A   1      32.441  28.196  26.116  1.00  0.00     0.027 A 
ATOM     93  C   UNL A   1      30.856  27.968  24.283  1.00  0.00     0.047 A 
ATOM     94  C   UNL A   1      32.245  29.578  26.096  1.00  0.00     0.004 A 
ATOM     95  C   UNL A   1      30.631  29.339  24.312  1.00  0.00     0.043 A 
ATOM     96  C   UNL A   1      31.335  30.148  25.202  1.00  0.00     0.020 A 
ATOM     97  Cl  UNL A   1      29.473  30.036  23.246  1.00  0.00    -0.084 Cl
ENDBRANCH  87  91
ENDBRANCH  79  80
ENDBRANCH  72  74
ENDBRANCH  71  72
ENDBRANCH  70  71
ENDBRANCH  69  70
ENDBRANCH  68  69
ENDBRANCH   1  68
TORSDOF 20
ENDMDL
MODEL 2
REMARK VINA RESULT:     -12.4      1.978      3.534
REMARK SMILES O=C(OCCOCCOC(=O)c1ccc([C@@H]2CC(O)=Nc3c2ncn3-c2cccc(Cl)c2)cc1)c1ccc(-c2c3nc(c(-c4ccc(S(=O)(=O)[O-])cc4)c4ccc([nH]4)c(-c4ccc(S(=O)(=O)[O-])cc4)c4nc(c(-c5ccc(S(=O)(=O)[O-])cc5)c5ccc2[nH]5)C=C4)C=C3)cc1
REMARK SMILES IDX 5 1 4 2 3 3 2 4 1 5 35 6 36 7 94 8 37 9 93 10 38 11 39 12
REMARK SMILES IDX 40 13 87 14 41 15 92 16 86 17 88 18 42 19 91 20 85 21 84 22
REMARK SMILES IDX 43 24 73 25 54 26 72 27 55 28 58 29 71 30 89 31 56 32 57 33
REMARK SMILES IDX 70 35 90 36 59 37 44 38 45 39 53 40 46 41 52 42 47 43 48 44
REMARK SMILES IDX 49 45 50 46 51 47 74 48 75 49 83 50 76 51 82 52 77 53 78 54
REMARK SMILES IDX 79 55 80 56 81 57 60 58 61 59 69 60 62 61 68 62 63 63 64 64
REMARK SMILES IDX 65 65 66 66 67 67 6 68 7 69 8 70 9 71 10 72 11 73 12 74
REMARK SMILES IDX 13 75 34 76 14 77 33 78 15 79 16 80 17 81 22 82 18 83 21 84
REMARK SMILES IDX 23 85 20 86 25 87 24 88 19 89 26 91 27 92 32 93 28 94 30 95
REMARK SMILES IDX 29 96 31 97
REMARK H PARENT 88 23 58 34 19 90
REMARK Flexibility Score: inf
ROOT
ATOM      1  C   UNL A   1      37.452  21.032  24.548  1.00  0.00     0.202 C 
ENDROOT
BRANCH   1   2
ATOM      2  C   UNL A   1      37.593  22.410  25.187  1.00  0.00     0.261 C 
BRANCH   2   3
ATOM      3  O   UNL A   1      38.300  22.417  26.437  1.00  0.00    -0.460 OA
BRANCH   3   4
ATOM      4  C   UNL A   1      39.643  22.441  26.560  1.00  0.00     0.338 C 
ATOM      5  O   UNL A   1      40.312  21.462  26.236  1.00  0.00    -0.246 OA
BRANCH   4   6
ATOM      6  C   UNL A   1      40.320  23.734  26.834  1.00  0.00     0.060 A 
ATOM      7  C   UNL A   1      41.498  23.873  27.565  1.00  0.00     0.016 A 
ATOM      8  C   UNL A   1      39.592  24.882  26.482  1.00  0.00     0.016 A 
ATOM      9  C   UNL A   1      41.755  25.053  28.221  1.00  0.00     0.010 A 
ATOM     10  C   UNL A   1      39.884  26.090  27.079  1.00  0.00     0.010 A 
ATOM     11  C   UNL A   1      40.885  26.123  28.038  1.00  0.00    -0.014 A 
BRANCH  11  12
ATOM     12  C   UNL A   1      41.148  27.321  28.805  1.00  0.00     0.031 A 
ATOM     13  C   UNL A   1      42.406  27.984  28.386  1.00  0.00     0.074 A 
ATOM     14  C   UNL A   1      40.284  27.766  29.736  1.00  0.00     0.049 A 
ATOM     15  N   UNL A   1      43.520  28.044  29.038  1.00  0.00    -0.248 NA
ATOM     16  C   UNL A   1      42.511  28.409  26.978  1.00  0.00     0.031 C 
ATOM     17  C   UNL A   1      38.933  27.278  30.027  1.00  0.00     0.029 A 
ATOM     18  N   UNL A   1      40.389  28.843  30.555  1.00  0.00    -0.354 N 
ATOM     19  C   UNL A   1      44.382  28.766  28.220  1.00  0.00     0.074 A 
ATOM     20  C   UNL A   1      43.799  28.745  26.904  1.00  0.00     0.031 C 
ATOM     21  C   UNL A   1      38.262  28.221  30.726  1.00  0.00     0.029 A 
ATOM     22  C   UNL A   1      39.176  29.305  31.051  1.00  0.00     0.049 A 
ATOM     23  H   UNL A   1      41.252  29.262  30.778  1.00  0.00     0.167 HD
ATOM     24  C   UNL A   1      45.311  29.603  28.759  1.00  0.00     0.031 A 
ATOM     25  C   UNL A   1      38.939  30.525  31.600  1.00  0.00     0.031 A 
ATOM     26  C   UNL A   1      45.548  29.294  30.148  1.00  0.00     0.049 A 
ATOM     27  C   UNL A   1      40.260  31.080  32.000  1.00  0.00     0.074 A 
ATOM     28  C   UNL A   1      45.982  28.181  30.840  1.00  0.00     0.029 A 
ATOM     29  N   UNL A   1      44.928  30.103  31.073  1.00  0.00    -0.354 N 
ATOM     30  N   UNL A   1      40.997  30.552  32.939  1.00  0.00    -0.248 NA
ATOM     31  C   UNL A   1      40.979  31.888  31.026  1.00  0.00     0.031 C 
ATOM     32  C   UNL A   1      45.201  28.162  32.032  1.00  0.00     0.029 A 
ATOM     33  C   UNL A   1      44.397  29.304  32.047  1.00  0.00     0.049 A 
ATOM     34  H   UNL A   1      44.876  31.086  31.039  1.00  0.00     0.167 HD
ATOM     35  C   UNL A   1      42.290  30.582  32.435  1.00  0.00     0.074 A 
ATOM     36  C   UNL A   1      42.229  31.489  31.288  1.00  0.00     0.031 C 
ATOM     37  C   UNL A   1      43.214  29.645  32.807  1.00  0.00     0.031 A 
BRANCH  24  38
ATOM     38  C   UNL A   1      45.581  30.983  28.194  1.00  0.00    -0.014 A 
ATOM     39  C   UNL A   1      44.536  31.929  28.232  1.00  0.00     0.010 A 
ATOM     40  C   UNL A   1      46.675  31.277  27.354  1.00  0.00     0.010 A 
ATOM     41  C   UNL A   1      44.529  33.035  27.376  1.00  0.00     0.020 A 
ATOM     42  C   UNL A   1      46.699  32.400  26.527  1.00  0.00     0.020 A 
ATOM     43  C   UNL A   1      45.603  33.248  26.512  1.00  0.00     0.054 A 
BRANCH  43  44
ATOM     44  S   UNL A   1      45.528  34.607  25.323  1.00  0.00     0.124 S 
ATOM     45  O   UNL A   1      44.803  33.992  24.216  1.00  0.00    -0.237 OA
ATOM     46  O   UNL A   1      44.801  35.627  26.073  1.00  0.00    -0.237 OA
ATOM     47  O   UNL A   1      46.933  34.911  25.065  1.00  0.00    -0.744 OA
ENDBRANCH  43  44
ENDBRANCH  24  38
BRANCH  25  48
ATOM     48  C   UNL A   1      37.727  31.376  31.427  1.00  0.00    -0.014 A 
ATOM     49  C   UNL A   1      36.458  30.949  31.864  1.00  0.00     0.010 A 
ATOM     50  C   UNL A   1      37.865  32.738  31.080  1.00  0.00     0.010 A 
ATOM     51  C   UNL A   1      35.390  31.858  32.003  1.00  0.00     0.020 A 
ATOM     52  C   UNL A   1      36.806  33.646  31.209  1.00  0.00     0.020 A 
ATOM     53  C   UNL A   1      35.577  33.207  31.693  1.00  0.00     0.054 A 
BRANCH  53  54
ATOM     54  S   UNL A   1      34.255  34.409  32.038  1.00  0.00     0.124 S 
ATOM     55  O   UNL A   1      34.988  35.510  32.655  1.00  0.00    -0.237 OA
ATOM     56  O   UNL A   1      33.711  34.677  30.710  1.00  0.00    -0.237 OA
ATOM     57  O   UNL A   1      33.357  33.685  32.936  1.00  0.00    -0.744 OA
ENDBRANCH  53  54
ENDBRANCH  25  48
BRANCH  37  58
ATOM     58  C   UNL A   1      42.907  28.755  33.987  1.00  0.00    -0.014 A 
ATOM     59  C   UNL A   1      42.135  27.577  33.917  1.00  0.00     0.010 A 
ATOM     60  C   UNL A   1      43.578  29.047  35.187  1.00  0.00     0.010 A 
ATOM     61  C   UNL A   1      42.021  26.731  35.034  1.00  0.00     0.020 A 
ATOM     62  C   UNL A   1      43.482  28.203  36.293  1.00  0.00     0.020 A 
ATOM     63  C   UNL A   1      42.696  27.053  36.217  1.00  0.00     0.054 A 
BRANCH  63  64
ATOM     64  S   UNL A   1      42.579  25.949  37.652  1.00  0.00     0.124 S 
ATOM     65  O   UNL A   1      43.415  26.623  38.641  1.00  0.00    -0.237 OA
ATOM     66  O   UNL A   1      41.146  25.939  37.938  1.00  0.00    -0.237 OA
ATOM     67  O   UNL A   1      43.110  24.678  37.158  1.00  0.00    -0.744 OA
ENDBRANCH  63  64
ENDBRANCH  37  58
ENDBRANCH  11  12
ENDBRANCH   4   6
ENDBRANCH   3   4
ENDBRANCH   2   3
ENDBRANCH   1   2
BRANCH   1  68
ATOM     68  O   UNL A   1      36.455  20.137  25.020  1.00  0.00    -0.374 OA
BRANCH  68  69
ATOM     69  C   UNL A   1      35.175  20.690  25.359  1.00  0.00     0.202 C 
BRANCH  69  70
ATOM     70  C   UNL A   1      33.943  20.432  24.469  1.00  0.00     0.261 C 
BRANCH  70  71
ATOM     71  O   UNL A   1      33.201  21.618  24.132  1.00  0.00    -0.460 OA
BRANCH  71  72
ATOM     72  C   UNL A   1      32.004  21.749  24.766  1.00  0.00     0.338 C 
ATOM     73  O   UNL A   1      31.403  20.903  25.389  1.00  0.00    -0.246 OA
BRANCH  72  74
ATOM     74  C   UNL A   1      31.638  23.182  24.795  1.00  0.00     0.060 A 
ATOM     75  C   UNL A   1      32.259  24.033  23.872  1.00  0.00     0.016 A 
ATOM     76  C   UNL A   1      30.706  23.680  25.700  1.00  0.00     0.016 A 
ATOM     77  C   UNL A   1      31.929  25.384  23.835  1.00  0.00     0.005 A 
ATOM     78  C   UNL A   1      30.422  25.047  25.702  1.00  0.00     0.005 A 
ATOM     79  C   UNL A   1      31.022  25.915  24.763  1.00  0.00    -0.038 A 
BRANCH  79  80
ATOM     80  C   UNL A   1      30.797  27.418  24.764  1.00  0.00     0.081 C 
ATOM     81  C   UNL A   1      31.295  28.045  23.446  1.00  0.00     0.111 C 
ATOM     82  C   UNL A   1      31.511  27.969  25.937  1.00  0.00     0.093 A 
ATOM     83  C   UNL A   1      32.572  28.860  23.565  1.00  0.00     0.188 C 
ATOM     84  C   UNL A   1      32.561  28.844  25.788  1.00  0.00     0.164 A 
ATOM     85  N   UNL A   1      31.318  27.624  27.246  1.00  0.00    -0.238 NA
ATOM     86  N   UNL A   1      33.140  29.288  24.647  1.00  0.00    -0.198 NA
ATOM     87  N   UNL A   1      33.047  29.038  27.066  1.00  0.00    -0.283 N 
ATOM     88  C   UNL A   1      32.290  28.237  27.893  1.00  0.00     0.206 A 
BRANCH  83  89
ATOM     89  O   UNL A   1      33.121  29.197  22.381  1.00  0.00    -0.496 OA
ATOM     90  H   UNL A   1      32.617  29.673  21.749  1.00  0.00     0.294 HD
ENDBRANCH  83  89
BRANCH  87  91
ATOM     91  C   UNL A   1      34.135  29.857  27.428  1.00  0.00     0.050 A 
ATOM     92  C   UNL A   1      35.389  29.292  27.676  1.00  0.00     0.027 A 
ATOM     93  C   UNL A   1      33.947  31.243  27.482  1.00  0.00     0.047 A 
ATOM     94  C   UNL A   1      36.473  30.134  27.932  1.00  0.00     0.004 A 
ATOM     95  C   UNL A   1      35.024  32.065  27.791  1.00  0.00     0.043 A 
ATOM     96  C   UNL A   1      36.290  31.518  27.998  1.00  0.00     0.020 A 
ATOM     97  Cl  UNL A   1      34.789  33.765  27.923  1.00  0.00    -0.084 Cl
ENDBRANCH  87  91
ENDBRANCH  79  80
ENDBRANCH  72  74
ENDBRANCH  71  72
ENDBRANCH  70  71
ENDBRANCH  69  70
ENDBRANCH  68  69
ENDBRANCH   1  68
TORSDOF 20
ENDMDL
MODEL 3
REMARK VINA RESULT:     -12.3      2.449      3.479
REMARK SMILES O=C(OCCOCCOC(=O)c1ccc([C@@H]2CC(O)=Nc3c2ncn3-c2cccc(Cl)c2)cc1)c1ccc(-c2c3nc(c(-c4ccc(S(=O)(=O)[O-])cc4)c4ccc([nH]4)c(-c4ccc(S(=O)(=O)[O-])cc4)c4nc(c(-c5ccc(S(=O)(=O)[O-])cc5)c5ccc2[nH]5)C=C4)C=C3)cc1
REMARK SMILES IDX 5 1 4 2 3 3 2 4 1 5 35 6 36 7 94 8 37 9 93 10 38 11 39 12
REMARK SMILES IDX 40 13 87 14 41 15 92 16 86 17 88 18 42 19 91 20 85 21 84 22
REMARK SMILES IDX 43 24 73 25 54 26 72 27 55 28 58 29 71 30 89 31 56 32 57 33
REMARK SMILES IDX 70 35 90 36 59 37 44 38 45 39 53 40 46 41 52 42 47 43 48 44
REMARK SMILES IDX 49 45 50 46 51 47 74 48 75 49 83 50 76 51 82 52 77 53 78 54
REMARK SMILES IDX 79 55 80 56 81 57 60 58 61 59 69 60 62 61 68 62 63 63 64 64
REMARK SMILES IDX 65 65 66 66 67 67 6 68 7 69 8 70 9 71 10 72 11 73 12 74
REMARK SMILES IDX 13 75 34 76 14 77 33 78 15 79 16 80 17 81 22 82 18 83 21 84
REMARK SMILES IDX 23 85 20 86 25 87 24 88 19 89 26 91 27 92 32 93 28 94 30 95
REMARK SMILES IDX 29 96 31 97
REMARK H PARENT 88 23 58 34 19 90
REMARK Flexibility Score: inf
ROOT
ATOM      1  C   UNL A   1      42.980  18.466  25.727  1.00  0.00     0.202 C 
ENDROOT
BRANCH   1   2
ATOM      2  C   UNL A   1      44.482  18.675  25.902  1.00  0.00     0.261 C 
BRANCH   2   3
ATOM      3  O   UNL A   1      45.200  18.879  24.676  1.00  0.00    -0.460 OA
BRANCH   3   4
ATOM      4  C   UNL A   1      44.985  19.898  23.819  1.00  0.00     0.338 C 
ATOM      5  O   UNL A   1      44.381  19.705  22.766  1.00  0.00    -0.246 OA
BRANCH   4   6
ATOM      6  C   UNL A   1      45.245  21.289  24.271  1.00  0.00     0.060 A 
ATOM      7  C   UNL A   1      46.270  21.663  25.137  1.00  0.00     0.016 A 
ATOM      8  C   UNL A   1      44.256  22.227  23.934  1.00  0.00     0.016 A 
ATOM      9  C   UNL A   1      46.128  22.789  25.911  1.00  0.00     0.010 A 
ATOM     10  C   UNL A   1      44.144  23.396  24.654  1.00  0.00     0.010 A 
ATOM     11  C   UNL A   1      45.011  23.596  25.719  1.00  0.00    -0.014 A 
BRANCH  11  12
ATOM     12  C   UNL A   1      44.860  24.730  26.605  1.00  0.00     0.031 A 
ATOM     13  C   UNL A   1      45.927  25.739  26.401  1.00  0.00     0.074 A 
ATOM     14  C   UNL A   1      43.819  24.831  27.451  1.00  0.00     0.049 A 
ATOM     15  N   UNL A   1      46.911  26.016  27.191  1.00  0.00    -0.248 NA
ATOM     16  C   UNL A   1      46.054  26.329  25.056  1.00  0.00     0.031 C 
ATOM     17  C   UNL A   1      42.629  23.979  27.530  1.00  0.00     0.029 A 
ATOM     18  N   UNL A   1      43.545  25.801  28.359  1.00  0.00    -0.354 N 
ATOM     19  C   UNL A   1      47.624  27.022  26.548  1.00  0.00     0.074 A 
ATOM     20  C   UNL A   1      47.204  26.994  25.171  1.00  0.00     0.031 C 
ATOM     21  C   UNL A   1      41.660  24.632  28.211  1.00  0.00     0.029 A 
ATOM     22  C   UNL A   1      42.208  25.874  28.732  1.00  0.00     0.049 A 
ATOM     23  H   UNL A   1      44.234  26.403  28.722  1.00  0.00     0.167 HD
ATOM     24  C   UNL A   1      48.231  28.008  27.264  1.00  0.00     0.031 A 
ATOM     25  C   UNL A   1      41.595  26.923  29.341  1.00  0.00     0.031 A 
ATOM     26  C   UNL A   1      48.402  27.622  28.643  1.00  0.00     0.049 A 
ATOM     27  C   UNL A   1      42.669  27.755  29.947  1.00  0.00     0.074 A 
ATOM     28  C   UNL A   1      49.049  26.591  29.295  1.00  0.00     0.029 A 
ATOM     29  N   UNL A   1      47.496  28.135  29.543  1.00  0.00    -0.354 N 
ATOM     30  N   UNL A   1      43.423  27.338  30.927  1.00  0.00    -0.248 NA
ATOM     31  C   UNL A   1      43.236  28.824  29.138  1.00  0.00     0.031 C 
ATOM     32  C   UNL A   1      48.187  26.239  30.373  1.00  0.00     0.029 A 
ATOM     33  C   UNL A   1      47.106  27.123  30.377  1.00  0.00     0.049 A 
ATOM     34  H   UNL A   1      47.183  29.068  29.580  1.00  0.00     0.167 HD
ATOM     35  C   UNL A   1      44.704  27.758  30.594  1.00  0.00     0.074 A 
ATOM     36  C   UNL A   1      44.514  28.738  29.523  1.00  0.00     0.031 C 
ATOM     37  C   UNL A   1      45.804  27.059  31.005  1.00  0.00     0.031 A 
BRANCH  24  38
ATOM     38  C   UNL A   1      48.172  29.464  26.848  1.00  0.00    -0.014 A 
ATOM     39  C   UNL A   1      49.320  30.257  27.050  1.00  0.00     0.010 A 
ATOM     40  C   UNL A   1      46.966  30.146  26.581  1.00  0.00     0.010 A 
ATOM     41  C   UNL A   1      49.234  31.652  27.116  1.00  0.00     0.020 A 
ATOM     42  C   UNL A   1      46.877  31.537  26.601  1.00  0.00     0.020 A 
ATOM     43  C   UNL A   1      48.005  32.279  26.913  1.00  0.00     0.054 A 
BRANCH  43  44
ATOM     44  S   UNL A   1      47.878  34.070  27.123  1.00  0.00     0.124 S 
ATOM     45  O   UNL A   1      48.984  34.340  28.036  1.00  0.00    -0.237 OA
ATOM     46  O   UNL A   1      48.050  34.549  25.755  1.00  0.00    -0.237 OA
ATOM     47  O   UNL A   1      46.541  34.253  27.682  1.00  0.00    -0.744 OA
ENDBRANCH  43  44
ENDBRANCH  24  38
BRANCH  25  48
ATOM     48  C   UNL A   1      40.222  27.443  29.084  1.00  0.00    -0.014 A 
ATOM     49  C   UNL A   1      39.261  27.527  30.111  1.00  0.00     0.010 A 
ATOM     50  C   UNL A   1      39.939  28.122  27.879  1.00  0.00     0.010 A 
ATOM     51  C   UNL A   1      38.096  28.305  29.958  1.00  0.00     0.020 A 
ATOM     52  C   UNL A   1      38.780  28.893  27.718  1.00  0.00     0.020 A 
ATOM     53  C   UNL A   1      37.873  29.000  28.768  1.00  0.00     0.054 A 
BRANCH  53  54
ATOM     54  S   UNL A   1      36.462  30.142  28.635  1.00  0.00     0.124 S 
ATOM     55  O   UNL A   1      37.040  31.269  27.909  1.00  0.00    -0.237 OA
ATOM     56  O   UNL A   1      35.479  29.353  27.899  1.00  0.00    -0.237 OA
ATOM     57  O   UNL A   1      36.111  30.419  30.027  1.00  0.00    -0.744 OA
ENDBRANCH  53  54
ENDBRANCH  25  48
BRANCH  37  58
ATOM     58  C   UNL A   1      45.634  25.996  32.064  1.00  0.00    -0.014 A 
ATOM     59  C   UNL A   1      45.995  26.156  33.418  1.00  0.00     0.010 A 
ATOM     60  C   UNL A   1      44.919  24.846  31.691  1.00  0.00     0.010 A 
ATOM     61  C   UNL A   1      45.667  25.169  34.364  1.00  0.00     0.020 A 
ATOM     62  C   UNL A   1      44.576  23.872  32.628  1.00  0.00     0.020 A 
ATOM     63  C   UNL A   1      44.960  24.031  33.960  1.00  0.00     0.054 A 
BRANCH  63  64
ATOM     64  S   UNL A   1      44.506  22.770  35.183  1.00  0.00     0.124 S 
ATOM     65  O   UNL A   1      43.121  23.115  35.496  1.00  0.00    -0.237 OA
ATOM     66  O   UNL A   1      44.693  21.522  34.447  1.00  0.00    -0.237 OA
ATOM     67  O   UNL A   1      45.457  22.983  36.274  1.00  0.00    -0.744 OA
ENDBRANCH  63  64
ENDBRANCH  37  58
ENDBRANCH  11  12
ENDBRANCH   4   6
ENDBRANCH   3   4
ENDBRANCH   2   3
ENDBRANCH   1   2
BRANCH   1  68
ATOM     68  O   UNL A   1      42.147  19.577  25.429  1.00  0.00    -0.374 OA
BRANCH  68  69
ATOM     69  C   UNL A   1      40.888  19.665  26.113  1.00  0.00     0.202 C 
BRANCH  69  70
ATOM     70  C   UNL A   1      40.238  21.033  26.397  1.00  0.00     0.261 C 
BRANCH  70  71
ATOM     71  O   UNL A   1      38.924  21.189  25.834  1.00  0.00    -0.460 OA
BRANCH  71  72
ATOM     72  C   UNL A   1      38.390  22.436  25.950  1.00  0.00     0.338 C 
ATOM     73  O   UNL A   1      38.947  23.444  26.320  1.00  0.00    -0.246 OA
BRANCH  72  74
ATOM     74  C   UNL A   1      37.056  22.440  25.312  1.00  0.00     0.060 A 
ATOM     75  C   UNL A   1      36.621  23.631  24.717  1.00  0.00     0.016 A 
ATOM     76  C   UNL A   1      36.251  21.306  25.292  1.00  0.00     0.016 A 
ATOM     77  C   UNL A   1      35.387  23.683  24.076  1.00  0.00     0.005 A 
ATOM     78  C   UNL A   1      34.987  21.378  24.703  1.00  0.00     0.005 A 
ATOM     79  C   UNL A   1      34.543  22.563  24.077  1.00  0.00    -0.038 A 
BRANCH  79  80
ATOM     80  C   UNL A   1      33.153  22.713  23.479  1.00  0.00     0.081 C 
ATOM     81  C   UNL A   1      33.239  23.000  21.966  1.00  0.00     0.111 C 
ATOM     82  C   UNL A   1      32.478  23.810  24.207  1.00  0.00     0.093 A 
ATOM     83  C   UNL A   1      32.892  24.422  21.562  1.00  0.00     0.188 C 
ATOM     84  C   UNL A   1      32.101  24.967  23.566  1.00  0.00     0.164 A 
ATOM     85  N   UNL A   1      32.246  23.875  25.553  1.00  0.00    -0.238 NA
ATOM     86  N   UNL A   1      32.310  25.330  22.278  1.00  0.00    -0.198 NA
ATOM     87  N   UNL A   1      31.627  25.790  24.568  1.00  0.00    -0.283 N 
ATOM     88  C   UNL A   1      31.788  25.096  25.748  1.00  0.00     0.206 A 
BRANCH  83  89
ATOM     89  O   UNL A   1      33.200  24.720  20.284  1.00  0.00    -0.496 OA
ATOM     90  H   UNL A   1      34.004  24.412  19.911  1.00  0.00     0.294 HD
ENDBRANCH  83  89
BRANCH  87  91
ATOM     91  C   UNL A   1      31.128  27.098  24.405  1.00  0.00     0.050 A 
ATOM     92  C   UNL A   1      31.873  28.196  24.846  1.00  0.00     0.027 A 
ATOM     93  C   UNL A   1      29.904  27.276  23.750  1.00  0.00     0.047 A 
ATOM     94  C   UNL A   1      31.404  29.484  24.580  1.00  0.00     0.004 A 
ATOM     95  C   UNL A   1      29.424  28.564  23.540  1.00  0.00     0.043 A 
ATOM     96  C   UNL A   1      30.178  29.668  23.936  1.00  0.00     0.020 A 
ATOM     97  Cl  UNL A   1      27.891  28.791  22.793  1.00  0.00    -0.084 Cl
ENDBRANCH  87  91
ENDBRANCH  79  80
ENDBRANCH  72  74
ENDBRANCH  71  72
ENDBRANCH  70  71
ENDBRANCH  69  70
ENDBRANCH  68  69
ENDBRANCH   1  68
TORSDOF 20
ENDMDL
