MODEL 1
REMARK VINA RESULT:      -9.4      0.000      0.000
REMARK SMILES O=C(OCCOCCOC(=O)c1cc2n[nH]cc2cc1[N+](=O)[O-])c1ccc(-c2c3nc(c(-c4ccc(S(=O)(=O)[O-])cc4)c4ccc([nH]4)c(-c4ccc(S(=O)(=O)[O-])cc4)c4nc(c(-c5ccc(S(=O)(=O)[O-])cc5)c5ccc2[nH]5)C=C4)C=C3)cc1
REMARK SMILES IDX 5 1 4 2 3 3 2 4 1 5 24 6 25 7 83 8 26 9 82 10 27 11 28 12
REMARK SMILES IDX 29 13 76 14 30 15 81 16 75 17 77 18 31 19 80 20 74 21 73 22
REMARK SMILES IDX 32 24 62 25 43 26 61 27 44 28 47 29 60 30 78 31 45 32 46 33
REMARK SMILES IDX 59 35 79 36 48 37 33 38 34 39 42 40 35 41 41 42 36 43 37 44
REMARK SMILES IDX 38 45 39 46 40 47 63 48 64 49 72 50 65 51 71 52 66 53 67 54
REMARK SMILES IDX 68 55 69 56 70 57 49 58 50 59 58 60 51 61 57 62 52 63 53 64
REMARK SMILES IDX 54 65 55 66 56 67 6 68 7 69 8 70 9 71 10 72 11 73 12 74
REMARK SMILES IDX 13 75 20 76 14 77 19 78 15 79 18 80 16 81 17 82 21 84 22 85
REMARK SMILES IDX 23 86
REMARK H PARENT 77 23 47 34 16 83
REMARK Flexibility Score: inf
ROOT
ATOM      1  C   UNL A   1      33.479  34.352  28.357  1.00  0.00     0.202 C 
ENDROOT
BRANCH   1   2
ATOM      2  C   UNL A   1      33.271  32.918  27.859  1.00  0.00     0.261 C 
BRANCH   2   3
ATOM      3  O   UNL A   1      34.200  32.024  28.492  1.00  0.00    -0.460 OA
BRANCH   3   4
ATOM      4  C   UNL A   1      34.718  30.868  28.019  1.00  0.00     0.338 C 
ATOM      5  O   UNL A   1      34.069  30.244  27.180  1.00  0.00    -0.246 OA
BRANCH   4   6
ATOM      6  C   UNL A   1      36.030  30.295  28.454  1.00  0.00     0.060 A 
ATOM      7  C   UNL A   1      36.263  29.624  29.658  1.00  0.00     0.016 A 
ATOM      8  C   UNL A   1      37.083  30.364  27.527  1.00  0.00     0.016 A 
ATOM      9  C   UNL A   1      37.493  29.061  29.956  1.00  0.00     0.010 A 
ATOM     10  C   UNL A   1      38.326  29.796  27.812  1.00  0.00     0.010 A 
ATOM     11  C   UNL A   1      38.529  29.157  29.039  1.00  0.00    -0.014 A 
BRANCH  11  12
ATOM     12  C   UNL A   1      39.863  28.718  29.459  1.00  0.00     0.031 A 
ATOM     13  C   UNL A   1      40.647  29.642  30.332  1.00  0.00     0.074 A 
ATOM     14  C   UNL A   1      40.297  27.491  29.132  1.00  0.00     0.049 A 
ATOM     15  N   UNL A   1      41.882  29.550  30.732  1.00  0.00    -0.248 NA
ATOM     16  C   UNL A   1      39.933  30.833  30.826  1.00  0.00     0.031 C 
ATOM     17  C   UNL A   1      39.516  26.484  28.411  1.00  0.00     0.029 A 
ATOM     18  N   UNL A   1      41.498  26.882  29.365  1.00  0.00    -0.354 N 
ATOM     19  C   UNL A   1      42.110  30.693  31.487  1.00  0.00     0.074 A 
ATOM     20  C   UNL A   1      40.884  31.457  31.500  1.00  0.00     0.031 C 
ATOM     21  C   UNL A   1      40.268  25.384  28.246  1.00  0.00     0.029 A 
ATOM     22  C   UNL A   1      41.600  25.641  28.785  1.00  0.00     0.049 A 
ATOM     23  H   UNL A   1      42.220  27.292  29.897  1.00  0.00     0.167 HD
ATOM     24  C   UNL A   1      43.261  31.074  32.086  1.00  0.00     0.031 A 
ATOM     25  C   UNL A   1      42.672  24.839  28.659  1.00  0.00     0.031 A 
ATOM     26  C   UNL A   1      44.464  30.293  32.006  1.00  0.00     0.049 A 
ATOM     27  C   UNL A   1      43.973  25.320  29.245  1.00  0.00     0.074 A 
ATOM     28  C   UNL A   1      45.721  30.582  32.496  1.00  0.00     0.029 A 
ATOM     29  N   UNL A   1      44.548  29.057  31.372  1.00  0.00    -0.354 N 
ATOM     30  N   UNL A   1      44.213  26.437  29.896  1.00  0.00    -0.248 NA
ATOM     31  C   UNL A   1      45.143  24.452  29.079  1.00  0.00     0.031 C 
ATOM     32  C   UNL A   1      46.577  29.543  32.113  1.00  0.00     0.029 A 
ATOM     33  C   UNL A   1      45.839  28.575  31.443  1.00  0.00     0.049 A 
ATOM     34  H   UNL A   1      43.796  28.595  30.937  1.00  0.00     0.167 HD
ATOM     35  C   UNL A   1      45.557  26.398  30.239  1.00  0.00     0.074 A 
ATOM     36  C   UNL A   1      46.076  25.144  29.725  1.00  0.00     0.031 C 
ATOM     37  C   UNL A   1      46.297  27.308  30.922  1.00  0.00     0.031 A 
BRANCH  24  38
ATOM     38  C   UNL A   1      43.267  32.426  32.748  1.00  0.00    -0.014 A 
ATOM     39  C   UNL A   1      43.104  32.574  34.138  1.00  0.00     0.010 A 
ATOM     40  C   UNL A   1      43.350  33.578  31.944  1.00  0.00     0.010 A 
ATOM     41  C   UNL A   1      42.949  33.845  34.700  1.00  0.00     0.020 A 
ATOM     42  C   UNL A   1      43.226  34.852  32.507  1.00  0.00     0.020 A 
ATOM     43  C   UNL A   1      42.995  34.975  33.878  1.00  0.00     0.054 A 
BRANCH  43  44
ATOM     44  S   UNL A   1      42.734  36.609  34.621  1.00  0.00     0.124 S 
ATOM     45  O   UNL A   1      43.077  37.500  33.516  1.00  0.00    -0.237 OA
ATOM     46  O   UNL A   1      41.319  36.576  34.983  1.00  0.00    -0.237 OA
ATOM     47  O   UNL A   1      43.662  36.629  35.749  1.00  0.00    -0.744 OA
ENDBRANCH  43  44
ENDBRANCH  24  38
BRANCH  25  48
ATOM     48  C   UNL A   1      42.552  23.562  27.902  1.00  0.00    -0.014 A 
ATOM     49  C   UNL A   1      42.986  23.463  26.569  1.00  0.00     0.010 A 
ATOM     50  C   UNL A   1      42.067  22.407  28.546  1.00  0.00     0.010 A 
ATOM     51  C   UNL A   1      42.947  22.233  25.900  1.00  0.00     0.020 A 
ATOM     52  C   UNL A   1      42.051  21.171  27.890  1.00  0.00     0.020 A 
ATOM     53  C   UNL A   1      42.489  21.093  26.569  1.00  0.00     0.054 A 
BRANCH  53  54
ATOM     54  S   UNL A   1      42.530  19.494  25.710  1.00  0.00     0.124 S 
ATOM     55  O   UNL A   1      41.131  19.315  25.333  1.00  0.00    -0.237 OA
ATOM     56  O   UNL A   1      43.454  19.752  24.607  1.00  0.00    -0.237 OA
ATOM     57  O   UNL A   1      43.028  18.570  26.726  1.00  0.00    -0.744 OA
ENDBRANCH  53  54
ENDBRANCH  25  48
BRANCH  37  58
ATOM     58  C   UNL A   1      47.730  26.959  31.202  1.00  0.00    -0.014 A 
ATOM     59  C   UNL A   1      48.765  27.396  30.360  1.00  0.00     0.010 A 
ATOM     60  C   UNL A   1      48.042  26.297  32.404  1.00  0.00     0.010 A 
ATOM     61  C   UNL A   1      50.096  27.180  30.720  1.00  0.00     0.020 A 
ATOM     62  C   UNL A   1      49.371  26.103  32.779  1.00  0.00     0.020 A 
ATOM     63  C   UNL A   1      50.390  26.545  31.932  1.00  0.00     0.054 A 
BRANCH  63  64
ATOM     64  S   UNL A   1      52.125  26.377  32.429  1.00  0.00     0.124 S 
ATOM     65  O   UNL A   1      52.602  25.339  31.519  1.00  0.00    -0.237 OA
ATOM     66  O   UNL A   1      52.657  27.716  32.190  1.00  0.00    -0.237 OA
ATOM     67  O   UNL A   1      52.046  25.985  33.835  1.00  0.00    -0.744 OA
ENDBRANCH  63  64
ENDBRANCH  37  58
ENDBRANCH  11  12
ENDBRANCH   4   6
ENDBRANCH   3   4
ENDBRANCH   2   3
ENDBRANCH   1   2
BRANCH   1  68
ATOM     68  O   UNL A   1      32.567  34.774  29.374  1.00  0.00    -0.374 OA
BRANCH  68  69
ATOM     69  C   UNL A   1      32.987  35.898  30.160  1.00  0.00     0.202 C 
BRANCH  69  70
ATOM     70  C   UNL A   1      33.347  35.437  31.569  1.00  0.00     0.261 C 
BRANCH  70  71
ATOM     71  O   UNL A   1      34.686  34.915  31.537  1.00  0.00    -0.459 OA
BRANCH  71  72
ATOM     72  C   UNL A   1      34.823  33.670  32.050  1.00  0.00     0.345 C 
ATOM     73  O   UNL A   1      34.317  32.631  31.665  1.00  0.00    -0.246 OA
BRANCH  72  74
ATOM     74  C   UNL A   1      35.913  33.716  33.040  1.00  0.00     0.139 A 
ATOM     75  C   UNL A   1      35.483  33.702  34.393  1.00  0.00     0.053 A 
ATOM     76  C   UNL A   1      37.294  33.693  32.661  1.00  0.00     0.284 A 
ATOM     77  C   UNL A   1      36.532  33.625  35.318  1.00  0.00     0.093 A 
ATOM     78  C   UNL A   1      38.377  33.634  33.575  1.00  0.00     0.098 A 
ATOM     79  N   UNL A   1      36.498  33.553  36.657  1.00  0.00    -0.176 NA
ATOM     80  C   UNL A   1      37.905  33.599  34.881  1.00  0.00     0.026 A 
ATOM     81  N   UNL A   1      37.788  33.516  37.038  1.00  0.00    -0.285 N 
ATOM     82  C   UNL A   1      38.681  33.543  36.003  1.00  0.00     0.114 A 
ATOM     83  H   UNL A   1      38.066  33.473  37.982  1.00  0.00     0.189 HD
BRANCH  76  84
ATOM     84  N   UNL A   1      37.649  33.774  31.250  1.00  0.00     0.063 N 
ATOM     85  O   UNL A   1      38.276  34.779  30.886  1.00  0.00    -0.258 OA
ATOM     86  O   UNL A   1      37.242  32.873  30.508  1.00  0.00    -0.258 OA
ENDBRANCH  76  84
ENDBRANCH  72  74
ENDBRANCH  71  72
ENDBRANCH  70  71
ENDBRANCH  69  70
ENDBRANCH  68  69
ENDBRANCH   1  68
TORSDOF 18
ENDMDL
MODEL 2
REMARK VINA RESULT:      -9.4      3.832     10.674
REMARK SMILES O=C(OCCOCCOC(=O)c1cc2n[nH]cc2cc1[N+](=O)[O-])c1ccc(-c2c3nc(c(-c4ccc(S(=O)(=O)[O-])cc4)c4ccc([nH]4)c(-c4ccc(S(=O)(=O)[O-])cc4)c4nc(c(-c5ccc(S(=O)(=O)[O-])cc5)c5ccc2[nH]5)C=C4)C=C3)cc1
REMARK SMILES IDX 5 1 4 2 3 3 2 4 1 5 24 6 25 7 83 8 26 9 82 10 27 11 28 12
REMARK SMILES IDX 29 13 76 14 30 15 81 16 75 17 77 18 31 19 80 20 74 21 73 22
REMARK SMILES IDX 32 24 62 25 43 26 61 27 44 28 47 29 60 30 78 31 45 32 46 33
REMARK SMILES IDX 59 35 79 36 48 37 33 38 34 39 42 40 35 41 41 42 36 43 37 44
REMARK SMILES IDX 38 45 39 46 40 47 63 48 64 49 72 50 65 51 71 52 66 53 67 54
REMARK SMILES IDX 68 55 69 56 70 57 49 58 50 59 58 60 51 61 57 62 52 63 53 64
REMARK SMILES IDX 54 65 55 66 56 67 6 68 7 69 8 70 9 71 10 72 11 73 12 74
REMARK SMILES IDX 13 75 20 76 14 77 19 78 15 79 18 80 16 81 17 82 21 84 22 85
REMARK SMILES IDX 23 86
REMARK H PARENT 77 23 47 34 16 83
REMARK Flexibility Score: inf
ROOT
ATOM      1  C   UNL A   1      35.858  21.780  26.075  1.00  0.00     0.202 C 
ENDROOT
BRANCH   1   2
ATOM      2  C   UNL A   1      37.110  21.521  25.230  1.00  0.00     0.261 C 
BRANCH   2   3
ATOM      3  O   UNL A   1      38.019  22.629  25.321  1.00  0.00    -0.460 OA
BRANCH   3   4
ATOM      4  C   UNL A   1      39.067  22.798  26.158  1.00  0.00     0.338 C 
ATOM      5  O   UNL A   1      39.759  21.815  26.425  1.00  0.00    -0.246 OA
BRANCH   4   6
ATOM      6  C   UNL A   1      39.438  24.104  26.787  1.00  0.00     0.060 A 
ATOM      7  C   UNL A   1      40.156  25.129  26.165  1.00  0.00     0.016 A 
ATOM      8  C   UNL A   1      38.940  24.342  28.079  1.00  0.00     0.016 A 
ATOM      9  C   UNL A   1      40.401  26.338  26.794  1.00  0.00     0.010 A 
ATOM     10  C   UNL A   1      39.173  25.560  28.722  1.00  0.00     0.010 A 
ATOM     11  C   UNL A   1      39.919  26.551  28.078  1.00  0.00    -0.014 A 
BRANCH  11  12
ATOM     12  C   UNL A   1      40.351  27.761  28.783  1.00  0.00     0.031 A 
ATOM     13  C   UNL A   1      41.733  27.770  29.350  1.00  0.00     0.074 A 
ATOM     14  C   UNL A   1      39.548  28.835  28.822  1.00  0.00     0.049 A 
ATOM     15  N   UNL A   1      42.305  28.652  30.117  1.00  0.00    -0.248 NA
ATOM     16  C   UNL A   1      42.589  26.622  28.996  1.00  0.00     0.031 C 
ATOM     17  C   UNL A   1      38.248  28.941  28.154  1.00  0.00     0.029 A 
ATOM     18  N   UNL A   1      39.706  30.041  29.444  1.00  0.00    -0.354 N 
ATOM     19  C   UNL A   1      43.572  28.147  30.376  1.00  0.00     0.074 A 
ATOM     20  C   UNL A   1      43.691  26.889  29.677  1.00  0.00     0.031 C 
ATOM     21  C   UNL A   1      37.719  30.146  28.419  1.00  0.00     0.029 A 
ATOM     22  C   UNL A   1      38.609  30.860  29.329  1.00  0.00     0.049 A 
ATOM     23  H   UNL A   1      40.526  30.298  29.927  1.00  0.00     0.167 HD
ATOM     24  C   UNL A   1      44.533  28.686  31.160  1.00  0.00     0.031 A 
ATOM     25  C   UNL A   1      38.341  32.026  29.944  1.00  0.00     0.031 A 
ATOM     26  C   UNL A   1      44.345  29.923  31.866  1.00  0.00     0.049 A 
ATOM     27  C   UNL A   1      39.379  32.566  30.892  1.00  0.00     0.074 A 
ATOM     28  C   UNL A   1      45.194  30.555  32.751  1.00  0.00     0.029 A 
ATOM     29  N   UNL A   1      43.202  30.711  31.764  1.00  0.00    -0.354 N 
ATOM     30  N   UNL A   1      40.550  32.054  31.200  1.00  0.00    -0.248 NA
ATOM     31  C   UNL A   1      39.068  33.824  31.579  1.00  0.00     0.031 C 
ATOM     32  C   UNL A   1      44.541  31.699  33.224  1.00  0.00     0.029 A 
ATOM     33  C   UNL A   1      43.315  31.817  32.582  1.00  0.00     0.049 A 
ATOM     34  H   UNL A   1      42.428  30.508  31.192  1.00  0.00     0.167 HD
ATOM     35  C   UNL A   1      41.129  32.938  32.100  1.00  0.00     0.074 A 
ATOM     36  C   UNL A   1      40.177  34.019  32.284  1.00  0.00     0.031 C 
ATOM     37  C   UNL A   1      42.337  32.871  32.716  1.00  0.00     0.031 A 
BRANCH  24  38
ATOM     38  C   UNL A   1      45.780  27.869  31.365  1.00  0.00    -0.014 A 
ATOM     39  C   UNL A   1      45.878  26.906  32.387  1.00  0.00     0.010 A 
ATOM     40  C   UNL A   1      46.910  28.136  30.570  1.00  0.00     0.010 A 
ATOM     41  C   UNL A   1      47.101  26.283  32.657  1.00  0.00     0.020 A 
ATOM     42  C   UNL A   1      48.126  27.493  30.817  1.00  0.00     0.020 A 
ATOM     43  C   UNL A   1      48.221  26.593  31.880  1.00  0.00     0.054 A 
BRANCH  43  44
ATOM     44  S   UNL A   1      49.809  25.816  32.285  1.00  0.00     0.124 S 
ATOM     45  O   UNL A   1      50.015  24.937  31.136  1.00  0.00    -0.237 OA
ATOM     46  O   UNL A   1      50.715  26.958  32.370  1.00  0.00    -0.237 OA
ATOM     47  O   UNL A   1      49.549  25.135  33.550  1.00  0.00    -0.744 OA
ENDBRANCH  43  44
ENDBRANCH  24  38
BRANCH  25  48
ATOM     48  C   UNL A   1      37.028  32.692  29.722  1.00  0.00    -0.014 A 
ATOM     49  C   UNL A   1      35.999  32.609  30.675  1.00  0.00     0.010 A 
ATOM     50  C   UNL A   1      36.829  33.485  28.574  1.00  0.00     0.010 A 
ATOM     51  C   UNL A   1      34.803  33.313  30.489  1.00  0.00     0.020 A 
ATOM     52  C   UNL A   1      35.646  34.211  28.398  1.00  0.00     0.020 A 
ATOM     53  C   UNL A   1      34.638  34.118  29.357  1.00  0.00     0.054 A 
BRANCH  53  54
ATOM     54  S   UNL A   1      33.114  35.090  29.183  1.00  0.00     0.124 S 
ATOM     55  O   UNL A   1      32.548  35.011  30.526  1.00  0.00    -0.237 OA
ATOM     56  O   UNL A   1      33.621  36.402  28.787  1.00  0.00    -0.237 OA
ATOM     57  O   UNL A   1      32.370  34.379  28.147  1.00  0.00    -0.744 OA
ENDBRANCH  53  54
ENDBRANCH  25  48
BRANCH  37  58
ATOM     58  C   UNL A   1      42.723  34.021  33.600  1.00  0.00    -0.014 A 
ATOM     59  C   UNL A   1      42.490  33.987  34.984  1.00  0.00     0.010 A 
ATOM     60  C   UNL A   1      43.453  35.087  33.042  1.00  0.00     0.010 A 
ATOM     61  C   UNL A   1      42.986  35.005  35.800  1.00  0.00     0.020 A 
ATOM     62  C   UNL A   1      43.972  36.091  33.858  1.00  0.00     0.020 A 
ATOM     63  C   UNL A   1      43.734  36.043  35.233  1.00  0.00     0.054 A 
BRANCH  63  64
ATOM     64  S   UNL A   1      44.462  37.290  36.329  1.00  0.00     0.124 S 
ATOM     65  O   UNL A   1      43.798  37.005  37.597  1.00  0.00    -0.237 OA
ATOM     66  O   UNL A   1      45.886  36.969  36.277  1.00  0.00    -0.237 OA
ATOM     67  O   UNL A   1      44.093  38.559  35.703  1.00  0.00    -0.744 OA
ENDBRANCH  63  64
ENDBRANCH  37  58
ENDBRANCH  11  12
ENDBRANCH   4   6
ENDBRANCH   3   4
ENDBRANCH   2   3
ENDBRANCH   1   2
BRANCH   1  68
ATOM     68  O   UNL A   1      35.140  22.969  25.736  1.00  0.00    -0.374 OA
BRANCH  68  69
ATOM     69  C   UNL A   1      34.252  22.861  24.615  1.00  0.00     0.202 C 
BRANCH  69  70
ATOM     70  C   UNL A   1      34.500  24.014  23.647  1.00  0.00     0.261 C 
BRANCH  70  71
ATOM     71  O   UNL A   1      33.303  24.807  23.585  1.00  0.00    -0.459 OA
BRANCH  71  72
ATOM     72  C   UNL A   1      33.475  26.058  23.097  1.00  0.00     0.345 C 
ATOM     73  O   UNL A   1      33.790  26.396  21.971  1.00  0.00    -0.246 OA
BRANCH  72  74
ATOM     74  C   UNL A   1      32.967  27.001  24.109  1.00  0.00     0.139 A 
ATOM     75  C   UNL A   1      33.901  27.341  25.123  1.00  0.00     0.053 A 
ATOM     76  C   UNL A   1      31.663  27.588  24.023  1.00  0.00     0.284 A 
ATOM     77  C   UNL A   1      33.444  28.327  26.005  1.00  0.00     0.093 A 
ATOM     78  C   UNL A   1      31.166  28.574  24.912  1.00  0.00     0.098 A 
ATOM     79  N   UNL A   1      34.062  28.911  27.041  1.00  0.00    -0.176 NA
ATOM     80  C   UNL A   1      32.124  28.888  25.869  1.00  0.00     0.026 A 
ATOM     81  N   UNL A   1      33.160  29.772  27.547  1.00  0.00    -0.285 N 
ATOM     82  C   UNL A   1      31.970  29.797  26.876  1.00  0.00     0.114 A 
ATOM     83  H   UNL A   1      33.342  30.337  28.334  1.00  0.00     0.189 HD
BRANCH  76  84
ATOM     84  N   UNL A   1      30.743  27.136  22.988  1.00  0.00     0.063 N 
ATOM     85  O   UNL A   1      30.112  26.093  23.214  1.00  0.00    -0.258 OA
ATOM     86  O   UNL A   1      30.708  27.784  21.935  1.00  0.00    -0.258 OA
ENDBRANCH  76  84
ENDBRANCH  72  74
ENDBRANCH  71  72
ENDBRANCH  70  71
ENDBRANCH  69  70
ENDBRANCH  68  69
ENDBRANCH   1  68
TORSDOF 18
ENDMDL
MODEL 3
REMARK VINA RESULT:      -9.4      1.540      2.171
REMARK SMILES O=C(OCCOCCOC(=O)c1cc2n[nH]cc2cc1[N+](=O)[O-])c1ccc(-c2c3nc(c(-c4ccc(S(=O)(=O)[O-])cc4)c4ccc([nH]4)c(-c4ccc(S(=O)(=O)[O-])cc4)c4nc(c(-c5ccc(S(=O)(=O)[O-])cc5)c5ccc2[nH]5)C=C4)C=C3)cc1
REMARK SMILES IDX 5 1 4 2 3 3 2 4 1 5 24 6 25 7 83 8 26 9 82 10 27 11 28 12
REMARK SMILES IDX 29 13 76 14 30 15 81 16 75 17 77 18 31 19 80 20 74 21 73 22
REMARK SMILES IDX 32 24 62 25 43 26 61 27 44 28 47 29 60 30 78 31 45 32 46 33
REMARK SMILES IDX 59 35 79 36 48 37 33 38 34 39 42 40 35 41 41 42 36 43 37 44
REMARK SMILES IDX 38 45 39 46 40 47 63 48 64 49 72 50 65 51 71 52 66 53 67 54
REMARK SMILES IDX 68 55 69 56 70 57 49 58 50 59 58 60 51 61 57 62 52 63 53 64
REMARK SMILES IDX 54 65 55 66 56 67 6 68 7 69 8 70 9 71 10 72 11 73 12 74
REMARK SMILES IDX 13 75 20 76 14 77 19 78 15 79 18 80 16 81 17 82 21 84 22 85
REMARK SMILES IDX 23 86
REMARK H PARENT 77 23 47 34 16 83
REMARK Flexibility Score: inf
ROOT
ATOM      1  C   UNL A   1      34.421  33.677  29.909  1.00  0.00     0.202 C 
ENDROOT
BRANCH   1   2
ATOM      2  C   UNL A   1      34.590  33.129  28.488  1.00  0.00     0.261 C 
BRANCH   2   3
ATOM      3  O   UNL A   1      33.913  31.870  28.348  1.00  0.00    -0.460 OA
BRANCH   3   4
ATOM      4  C   UNL A   1      34.412  30.682  27.937  1.00  0.00     0.338 C 
ATOM      5  O   UNL A   1      33.687  29.953  27.260  1.00  0.00    -0.246 OA
BRANCH   4   6
ATOM      6  C   UNL A   1      35.789  30.193  28.257  1.00  0.00     0.060 A 
ATOM      7  C   UNL A   1      36.206  29.695  29.495  1.00  0.00     0.016 A 
ATOM      8  C   UNL A   1      36.704  30.151  27.192  1.00  0.00     0.016 A 
ATOM      9  C   UNL A   1      37.483  29.196  29.691  1.00  0.00     0.010 A 
ATOM     10  C   UNL A   1      37.992  29.645  27.375  1.00  0.00     0.010 A 
ATOM     11  C   UNL A   1      38.381  29.182  28.634  1.00  0.00    -0.014 A 
BRANCH  11  12
ATOM     12  C   UNL A   1      39.774  28.824  28.919  1.00  0.00     0.031 A 
ATOM     13  C   UNL A   1      40.634  29.865  29.558  1.00  0.00     0.074 A 
ATOM     14  C   UNL A   1      40.203  27.574  28.689  1.00  0.00     0.049 A 
ATOM     15  N   UNL A   1      41.914  29.847  29.794  1.00  0.00    -0.248 NA
ATOM     16  C   UNL A   1      39.950  31.096  29.994  1.00  0.00     0.031 C 
ATOM     17  C   UNL A   1      39.368  26.469  28.210  1.00  0.00     0.029 A 
ATOM     18  N   UNL A   1      41.445  27.021  28.829  1.00  0.00    -0.354 N 
ATOM     19  C   UNL A   1      42.199  31.080  30.364  1.00  0.00     0.074 A 
ATOM     20  C   UNL A   1      40.961  31.817  30.451  1.00  0.00     0.031 C 
ATOM     21  C   UNL A   1      40.130  25.371  28.080  1.00  0.00     0.029 A 
ATOM     22  C   UNL A   1      41.512  25.718  28.397  1.00  0.00     0.049 A 
ATOM     23  H   UNL A   1      42.216  27.508  29.203  1.00  0.00     0.167 HD
ATOM     24  C   UNL A   1      43.406  31.554  30.750  1.00  0.00     0.031 A 
ATOM     25  C   UNL A   1      42.586  24.926  28.225  1.00  0.00     0.031 A 
ATOM     26  C   UNL A   1      44.614  30.791  30.602  1.00  0.00     0.049 A 
ATOM     27  C   UNL A   1      43.935  25.501  28.564  1.00  0.00     0.074 A 
ATOM     28  C   UNL A   1      45.914  31.162  30.878  1.00  0.00     0.029 A 
ATOM     29  N   UNL A   1      44.656  29.486  30.120  1.00  0.00    -0.354 N 
ATOM     30  N   UNL A   1      44.220  26.695  29.035  1.00  0.00    -0.248 NA
ATOM     31  C   UNL A   1      45.103  24.641  28.348  1.00  0.00     0.031 C 
ATOM     32  C   UNL A   1      46.747  30.099  30.511  1.00  0.00     0.029 A 
ATOM     33  C   UNL A   1      45.962  29.041  30.073  1.00  0.00     0.049 A 
ATOM     34  H   UNL A   1      43.870  28.959  29.851  1.00  0.00     0.167 HD
ATOM     35  C   UNL A   1      45.599  26.725  29.194  1.00  0.00     0.074 A 
ATOM     36  C   UNL A   1      46.088  25.425  28.771  1.00  0.00     0.031 C 
ATOM     37  C   UNL A   1      46.391  27.727  29.653  1.00  0.00     0.031 A 
BRANCH  24  38
ATOM     38  C   UNL A   1      43.453  32.978  31.234  1.00  0.00    -0.014 A 
ATOM     39  C   UNL A   1      43.471  34.066  30.341  1.00  0.00     0.010 A 
ATOM     40  C   UNL A   1      43.572  33.226  32.614  1.00  0.00     0.010 A 
ATOM     41  C   UNL A   1      43.681  35.365  30.814  1.00  0.00     0.020 A 
ATOM     42  C   UNL A   1      43.753  34.527  33.093  1.00  0.00     0.020 A 
ATOM     43  C   UNL A   1      43.837  35.585  32.186  1.00  0.00     0.054 A 
BRANCH  43  44
ATOM     44  S   UNL A   1      44.167  37.270  32.771  1.00  0.00     0.124 S 
ATOM     45  O   UNL A   1      45.574  37.184  33.155  1.00  0.00    -0.237 OA
ATOM     46  O   UNL A   1      43.889  38.082  31.589  1.00  0.00    -0.237 OA
ATOM     47  O   UNL A   1      43.229  37.444  33.877  1.00  0.00    -0.744 OA
ENDBRANCH  43  44
ENDBRANCH  24  38
BRANCH  25  48
ATOM     48  C   UNL A   1      42.411  23.563  27.653  1.00  0.00    -0.014 A 
ATOM     49  C   UNL A   1      42.561  23.326  26.276  1.00  0.00     0.010 A 
ATOM     50  C   UNL A   1      42.166  22.469  28.508  1.00  0.00     0.010 A 
ATOM     51  C   UNL A   1      42.480  22.023  25.768  1.00  0.00     0.020 A 
ATOM     52  C   UNL A   1      42.110  21.164  28.008  1.00  0.00     0.020 A 
ATOM     53  C   UNL A   1      42.265  20.949  26.639  1.00  0.00     0.054 A 
BRANCH  53  54
ATOM     54  S   UNL A   1      42.251  19.262  25.968  1.00  0.00     0.124 S 
ATOM     55  O   UNL A   1      42.768  18.484  27.089  1.00  0.00    -0.237 OA
ATOM     56  O   UNL A   1      40.839  19.060  25.655  1.00  0.00    -0.237 OA
ATOM     57  O   UNL A   1      43.133  19.347  24.806  1.00  0.00    -0.744 OA
ENDBRANCH  53  54
ENDBRANCH  25  48
BRANCH  37  58
ATOM     58  C   UNL A   1      47.859  27.442  29.775  1.00  0.00    -0.014 A 
ATOM     59  C   UNL A   1      48.795  28.060  28.930  1.00  0.00     0.010 A 
ATOM     60  C   UNL A   1      48.306  26.645  30.845  1.00  0.00     0.010 A 
ATOM     61  C   UNL A   1      50.161  27.888  29.158  1.00  0.00     0.020 A 
ATOM     62  C   UNL A   1      49.671  26.493  31.091  1.00  0.00     0.020 A 
ATOM     63  C   UNL A   1      50.589  27.116  30.244  1.00  0.00     0.054 A 
BRANCH  63  64
ATOM     64  S   UNL A   1      52.366  27.000  30.584  1.00  0.00     0.124 S 
ATOM     65  O   UNL A   1      52.943  27.215  29.260  1.00  0.00    -0.237 OA
ATOM     66  O   UNL A   1      52.578  28.079  31.546  1.00  0.00    -0.237 OA
ATOM     67  O   UNL A   1      52.529  25.652  31.123  1.00  0.00    -0.744 OA
ENDBRANCH  63  64
ENDBRANCH  37  58
ENDBRANCH  11  12
ENDBRANCH   4   6
ENDBRANCH   3   4
ENDBRANCH   2   3
ENDBRANCH   1   2
BRANCH   1  68
ATOM     68  O   UNL A   1      34.238  32.682  30.919  1.00  0.00    -0.374 OA
BRANCH  68  69
ATOM     69  C   UNL A   1      34.876  32.947  32.176  1.00  0.00     0.202 C 
BRANCH  69  70
ATOM     70  C   UNL A   1      35.779  34.170  32.050  1.00  0.00     0.261 C 
BRANCH  70  71
ATOM     71  O   UNL A   1      37.077  33.817  32.557  1.00  0.00    -0.459 OA
BRANCH  71  72
ATOM     72  C   UNL A   1      37.284  34.135  33.856  1.00  0.00     0.345 C 
ATOM     73  O   UNL A   1      36.632  34.877  34.570  1.00  0.00    -0.246 OA
BRANCH  72  74
ATOM     74  C   UNL A   1      38.320  33.225  34.376  1.00  0.00     0.139 A 
ATOM     75  C   UNL A   1      37.819  32.093  35.070  1.00  0.00     0.053 A 
ATOM     76  C   UNL A   1      39.716  33.430  34.125  1.00  0.00     0.284 A 
ATOM     77  C   UNL A   1      38.809  31.180  35.452  1.00  0.00     0.093 A 
ATOM     78  C   UNL A   1      40.742  32.532  34.515  1.00  0.00     0.098 A 
ATOM     79  N   UNL A   1      38.699  30.000  36.079  1.00  0.00    -0.176 NA
ATOM     80  C   UNL A   1      40.199  31.433  35.168  1.00  0.00     0.026 A 
ATOM     81  N   UNL A   1      39.962  29.553  36.209  1.00  0.00    -0.285 N 
ATOM     82  C   UNL A   1      40.908  30.382  35.676  1.00  0.00     0.114 A 
ATOM     83  H   UNL A   1      40.185  28.701  36.650  1.00  0.00     0.189 HD
BRANCH  76  84
ATOM     84  N   UNL A   1      40.150  34.651  33.460  1.00  0.00     0.063 N 
ATOM     85  O   UNL A   1      40.394  35.627  34.183  1.00  0.00    -0.258 OA
ATOM     86  O   UNL A   1      40.179  34.647  32.223  1.00  0.00    -0.258 OA
ENDBRANCH  76  84
ENDBRANCH  72  74
ENDBRANCH  71  72
ENDBRANCH  70  71
ENDBRANCH  69  70
ENDBRANCH  68  69
ENDBRANCH   1  68
TORSDOF 18
ENDMDL
