MODEL 1
REMARK VINA RESULT:     -10.9      0.000      0.000
REMARK SMILES Cc1c(Cl)ccc2c1C=C(C(=O)OCCOCCOC(=O)c1ccc(-c3c4nc(c(-c5ccc(S(=O)(=O)[O-])cc5)c5ccc([nH]5)c(-c5ccc(S(=O)(=O)[O-])cc5)c5nc(c(-c6ccc(S(=O)(=O)[O-])cc6)c6ccc3[nH]6)C=C5)C=C4)cc1)[C@@H](C(F)(F)F)O2
REMARK SMILES IDX 17 1 16 2 15 3 14 4 13 5 11 6 12 7 10 8 1 9 2 10 3 11 8 12
REMARK SMILES IDX 4 13 5 14 7 15 9 16 6 17 87 18 82 19 83 20 84 21 85 22 86 23
REMARK SMILES IDX 18 24 19 25 20 26 21 27 22 28 23 29 81 30 24 31 80 32 25 33
REMARK SMILES IDX 26 34 27 35 74 36 28 37 79 38 73 39 75 40 29 41 78 42 72 43
REMARK SMILES IDX 71 44 30 46 60 47 41 48 59 49 42 50 45 51 58 52 76 53 43 54
REMARK SMILES IDX 44 55 57 57 77 58 46 59 31 60 32 61 40 62 33 63 39 64 34 65
REMARK SMILES IDX 35 66 36 67 37 68 38 69 61 70 62 71 70 72 63 73 69 74 64 75
REMARK SMILES IDX 65 76 66 77 67 78 68 79 47 80 48 81 56 82 49 83 55 84 50 85
REMARK SMILES IDX 51 86 52 87 53 88 54 89
REMARK H PARENT 75 45 45 56
REMARK Flexibility Score: inf
ROOT
ATOM      1  C   UNL A   1      40.011  22.197  27.029  1.00  0.00     0.202 C 
ENDROOT
BRANCH   1   2
ATOM      2  O   UNL A   1      39.238  21.442  26.092  1.00  0.00    -0.374 OA
BRANCH   2   3
ATOM      3  C   UNL A   1      38.215  22.130  25.375  1.00  0.00     0.202 C 
BRANCH   3   4
ATOM      4  C   UNL A   1      36.771  21.810  25.770  1.00  0.00     0.261 C 
BRANCH   4   5
ATOM      5  O   UNL A   1      35.853  22.062  24.695  1.00  0.00    -0.460 OA
BRANCH   5   6
ATOM      6  C   UNL A   1      34.728  21.313  24.730  1.00  0.00     0.338 C 
ATOM      7  O   UNL A   1      34.657  20.093  24.736  1.00  0.00    -0.246 OA
BRANCH   6   8
ATOM      8  C   UNL A   1      33.551  22.186  24.899  1.00  0.00     0.087 C 
ATOM      9  C   UNL A   1      32.844  25.064  21.798  1.00  0.00     0.047 C 
ATOM     10  C   UNL A   1      32.034  25.043  23.071  1.00  0.00    -0.021 A 
ATOM     11  C   UNL A   1      31.055  26.018  23.341  1.00  0.00     0.044 A 
ATOM     12  C   UNL A   1      32.259  24.030  24.040  1.00  0.00     0.022 A 
ATOM     13  Cl  UNL A   1      30.747  27.346  22.275  1.00  0.00    -0.084 Cl
ATOM     14  C   UNL A   1      30.289  25.960  24.508  1.00  0.00     0.024 A 
ATOM     15  C   UNL A   1      31.460  23.967  25.191  1.00  0.00     0.128 A 
ATOM     16  C   UNL A   1      33.342  23.064  23.908  1.00  0.00     0.027 C 
ATOM     17  C   UNL A   1      30.477  24.925  25.420  1.00  0.00     0.048 A 
ATOM     18  O   UNL A   1      31.557  22.991  26.144  1.00  0.00    -0.475 OA
ATOM     19  C   UNL A   1      32.688  22.078  26.120  1.00  0.00     0.316 C 
BRANCH  19  20
ATOM     20  C   UNL A   1      33.484  22.256  27.421  1.00  0.00     0.430 C 
ATOM     21  F   UNL A   1      34.357  23.286  27.322  1.00  0.00    -0.167 F 
ATOM     22  F   UNL A   1      32.674  22.526  28.471  1.00  0.00    -0.167 F 
ATOM     23  F   UNL A   1      34.194  21.147  27.730  1.00  0.00    -0.167 F 
ENDBRANCH  19  20
ENDBRANCH   6   8
ENDBRANCH   5   6
ENDBRANCH   4   5
ENDBRANCH   3   4
ENDBRANCH   2   3
ENDBRANCH   1   2
BRANCH   1  24
ATOM     24  C   UNL A   1      40.608  23.521  26.537  1.00  0.00     0.261 C 
BRANCH  24  25
ATOM     25  O   UNL A   1      39.815  24.649  26.953  1.00  0.00    -0.460 OA
BRANCH  25  26
ATOM     26  C   UNL A   1      40.358  25.859  26.678  1.00  0.00     0.338 C 
ATOM     27  O   UNL A   1      40.934  26.196  25.652  1.00  0.00    -0.246 OA
BRANCH  26  28
ATOM     28  C   UNL A   1      40.013  26.817  27.737  1.00  0.00     0.060 A 
ATOM     29  C   UNL A   1      40.542  28.112  27.654  1.00  0.00     0.016 A 
ATOM     30  C   UNL A   1      39.294  26.411  28.862  1.00  0.00     0.016 A 
ATOM     31  C   UNL A   1      40.390  28.996  28.719  1.00  0.00     0.010 A 
ATOM     32  C   UNL A   1      39.162  27.291  29.940  1.00  0.00     0.010 A 
ATOM     33  C   UNL A   1      39.744  28.569  29.886  1.00  0.00    -0.014 A 
BRANCH  33  34
ATOM     34  C   UNL A   1      39.845  29.390  31.115  1.00  0.00     0.031 A 
ATOM     35  C   UNL A   1      40.998  29.145  32.049  1.00  0.00     0.074 A 
ATOM     36  C   UNL A   1      38.942  30.348  31.384  1.00  0.00     0.049 A 
ATOM     37  N   UNL A   1      41.256  29.701  33.204  1.00  0.00    -0.248 NA
ATOM     38  C   UNL A   1      41.996  28.147  31.625  1.00  0.00     0.031 C 
ATOM     39  C   UNL A   1      37.821  30.722  30.522  1.00  0.00     0.029 A 
ATOM     40  N   UNL A   1      38.831  31.184  32.466  1.00  0.00    -0.354 N 
ATOM     41  C   UNL A   1      42.440  29.123  33.644  1.00  0.00     0.074 A 
ATOM     42  C   UNL A   1      42.846  28.163  32.642  1.00  0.00     0.031 C 
ATOM     43  C   UNL A   1      37.127  31.709  31.117  1.00  0.00     0.029 A 
ATOM     44  C   UNL A   1      37.736  32.012  32.411  1.00  0.00     0.049 A 
ATOM     45  H   UNL A   1      39.474  31.190  33.211  1.00  0.00     0.167 HD
ATOM     46  C   UNL A   1      43.128  29.371  34.781  1.00  0.00     0.031 A 
ATOM     47  C   UNL A   1      37.265  32.896  33.313  1.00  0.00     0.031 A 
ATOM     48  C   UNL A   1      42.717  30.314  35.783  1.00  0.00     0.049 A 
ATOM     49  C   UNL A   1      37.996  33.086  34.615  1.00  0.00     0.074 A 
ATOM     50  C   UNL A   1      43.349  30.632  36.973  1.00  0.00     0.029 A 
ATOM     51  N   UNL A   1      41.569  31.087  35.718  1.00  0.00    -0.354 N 
ATOM     52  N   UNL A   1      39.106  32.521  35.024  1.00  0.00    -0.248 NA
ATOM     53  C   UNL A   1      37.407  34.026  35.581  1.00  0.00     0.031 C 
ATOM     54  C   UNL A   1      42.559  31.566  37.648  1.00  0.00     0.029 A 
ATOM     55  C   UNL A   1      41.460  31.863  36.856  1.00  0.00     0.049 A 
ATOM     56  H   UNL A   1      40.927  31.083  34.971  1.00  0.00     0.167 HD
ATOM     57  C   UNL A   1      39.357  33.047  36.286  1.00  0.00     0.074 A 
ATOM     58  C   UNL A   1      38.288  33.980  36.573  1.00  0.00     0.031 C 
ATOM     59  C   UNL A   1      40.385  32.782  37.129  1.00  0.00     0.031 A 
BRANCH  46  60
ATOM     60  C   UNL A   1      44.389  28.592  35.021  1.00  0.00    -0.014 A 
ATOM     61  C   UNL A   1      45.633  29.087  34.593  1.00  0.00     0.010 A 
ATOM     62  C   UNL A   1      44.339  27.393  35.754  1.00  0.00     0.010 A 
ATOM     63  C   UNL A   1      46.808  28.389  34.888  1.00  0.00     0.020 A 
ATOM     64  C   UNL A   1      45.512  26.700  36.064  1.00  0.00     0.020 A 
ATOM     65  C   UNL A   1      46.739  27.204  35.629  1.00  0.00     0.054 A 
BRANCH  65  66
ATOM     66  S   UNL A   1      48.286  26.347  36.032  1.00  0.00     0.124 S 
ATOM     67  O   UNL A   1      48.482  26.712  37.433  1.00  0.00    -0.237 OA
ATOM     68  O   UNL A   1      47.944  24.949  35.788  1.00  0.00    -0.237 OA
ATOM     69  O   UNL A   1      49.255  26.924  35.103  1.00  0.00    -0.744 OA
ENDBRANCH  65  66
ENDBRANCH  46  60
BRANCH  47  70
ATOM     70  C   UNL A   1      36.018  33.649  33.020  1.00  0.00    -0.014 A 
ATOM     71  C   UNL A   1      34.762  33.042  33.180  1.00  0.00     0.010 A 
ATOM     72  C   UNL A   1      36.085  34.994  32.610  1.00  0.00     0.010 A 
ATOM     73  C   UNL A   1      33.592  33.768  32.941  1.00  0.00     0.020 A 
ATOM     74  C   UNL A   1      34.917  35.728  32.388  1.00  0.00     0.020 A 
ATOM     75  C   UNL A   1      33.676  35.110  32.558  1.00  0.00     0.054 A 
BRANCH  75  76
ATOM     76  S   UNL A   1      32.140  36.042  32.314  1.00  0.00     0.124 S 
ATOM     77  O   UNL A   1      31.122  35.062  32.683  1.00  0.00    -0.237 OA
ATOM     78  O   UNL A   1      32.308  37.159  33.241  1.00  0.00    -0.237 OA
ATOM     79  O   UNL A   1      32.176  36.402  30.898  1.00  0.00    -0.744 OA
ENDBRANCH  75  76
ENDBRANCH  47  70
BRANCH  59  80
ATOM     80  C   UNL A   1      40.425  33.510  38.443  1.00  0.00    -0.014 A 
ATOM     81  C   UNL A   1      41.105  34.733  38.567  1.00  0.00     0.010 A 
ATOM     82  C   UNL A   1      39.677  33.023  39.531  1.00  0.00     0.010 A 
ATOM     83  C   UNL A   1      41.037  35.458  39.759  1.00  0.00     0.020 A 
ATOM     84  C   UNL A   1      39.590  33.756  40.717  1.00  0.00     0.020 A 
ATOM     85  C   UNL A   1      40.272  34.970  40.822  1.00  0.00     0.054 A 
BRANCH  85  86
ATOM     86  S   UNL A   1      40.149  35.969  42.332  1.00  0.00     0.124 S 
ATOM     87  O   UNL A   1      40.679  37.257  41.892  1.00  0.00    -0.237 OA
ATOM     88  O   UNL A   1      38.716  35.941  42.611  1.00  0.00    -0.237 OA
ATOM     89  O   UNL A   1      40.983  35.252  43.294  1.00  0.00    -0.744 OA
ENDBRANCH  85  86
ENDBRANCH  59  80
ENDBRANCH  33  34
ENDBRANCH  26  28
ENDBRANCH  25  26
ENDBRANCH  24  25
ENDBRANCH   1  24
TORSDOF 18
ENDMDL
MODEL 2
REMARK VINA RESULT:     -10.6      6.833     12.609
REMARK SMILES Cc1c(Cl)ccc2c1C=C(C(=O)OCCOCCOC(=O)c1ccc(-c3c4nc(c(-c5ccc(S(=O)(=O)[O-])cc5)c5ccc([nH]5)c(-c5ccc(S(=O)(=O)[O-])cc5)c5nc(c(-c6ccc(S(=O)(=O)[O-])cc6)c6ccc3[nH]6)C=C5)C=C4)cc1)[C@@H](C(F)(F)F)O2
REMARK SMILES IDX 17 1 16 2 15 3 14 4 13 5 11 6 12 7 10 8 1 9 2 10 3 11 8 12
REMARK SMILES IDX 4 13 5 14 7 15 9 16 6 17 87 18 82 19 83 20 84 21 85 22 86 23
REMARK SMILES IDX 18 24 19 25 20 26 21 27 22 28 23 29 81 30 24 31 80 32 25 33
REMARK SMILES IDX 26 34 27 35 74 36 28 37 79 38 73 39 75 40 29 41 78 42 72 43
REMARK SMILES IDX 71 44 30 46 60 47 41 48 59 49 42 50 45 51 58 52 76 53 43 54
REMARK SMILES IDX 44 55 57 57 77 58 46 59 31 60 32 61 40 62 33 63 39 64 34 65
REMARK SMILES IDX 35 66 36 67 37 68 38 69 61 70 62 71 70 72 63 73 69 74 64 75
REMARK SMILES IDX 65 76 66 77 67 78 68 79 47 80 48 81 56 82 49 83 55 84 50 85
REMARK SMILES IDX 51 86 52 87 53 88 54 89
REMARK H PARENT 75 45 45 56
REMARK Flexibility Score: inf
ROOT
ATOM      1  C   UNL A   1      34.355  31.532  27.787  1.00  0.00     0.202 C 
ENDROOT
BRANCH   1   2
ATOM      2  O   UNL A   1      33.936  30.454  26.946  1.00  0.00    -0.374 OA
BRANCH   2   3
ATOM      3  C   UNL A   1      32.556  30.098  26.969  1.00  0.00     0.202 C 
BRANCH   3   4
ATOM      4  C   UNL A   1      32.051  29.240  25.805  1.00  0.00     0.261 C 
BRANCH   4   5
ATOM      5  O   UNL A   1      32.355  27.849  25.994  1.00  0.00    -0.460 OA
BRANCH   5   6
ATOM      6  C   UNL A   1      33.194  27.327  25.071  1.00  0.00     0.338 C 
ATOM      7  O   UNL A   1      33.965  27.940  24.348  1.00  0.00    -0.246 OA
BRANCH   6   8
ATOM      8  C   UNL A   1      33.158  25.853  25.139  1.00  0.00     0.087 C 
ATOM      9  C   UNL A   1      36.943  23.866  25.485  1.00  0.00     0.047 C 
ATOM     10  C   UNL A   1      35.655  23.106  25.283  1.00  0.00    -0.021 A 
ATOM     11  C   UNL A   1      35.638  21.708  25.118  1.00  0.00     0.044 A 
ATOM     12  C   UNL A   1      34.418  23.802  25.241  1.00  0.00     0.022 A 
ATOM     13  Cl  UNL A   1      37.085  20.760  25.070  1.00  0.00    -0.084 Cl
ATOM     14  C   UNL A   1      34.432  21.018  24.971  1.00  0.00     0.024 A 
ATOM     15  C   UNL A   1      33.214  23.093  25.124  1.00  0.00     0.128 A 
ATOM     16  C   UNL A   1      34.352  25.257  25.265  1.00  0.00     0.027 C 
ATOM     17  C   UNL A   1      33.222  21.706  24.995  1.00  0.00     0.048 A 
ATOM     18  O   UNL A   1      31.975  23.669  25.144  1.00  0.00    -0.475 OA
ATOM     19  C   UNL A   1      31.857  25.115  25.050  1.00  0.00     0.316 C 
BRANCH  19  20
ATOM     20  C   UNL A   1      31.073  25.456  23.773  1.00  0.00     0.430 C 
ATOM     21  F   UNL A   1      31.906  25.632  22.721  1.00  0.00    -0.167 F 
ATOM     22  F   UNL A   1      30.213  24.467  23.435  1.00  0.00    -0.167 F 
ATOM     23  F   UNL A   1      30.351  26.591  23.917  1.00  0.00    -0.167 F 
ENDBRANCH  19  20
ENDBRANCH   6   8
ENDBRANCH   5   6
ENDBRANCH   4   5
ENDBRANCH   3   4
ENDBRANCH   2   3
ENDBRANCH   1   2
BRANCH   1  24
ATOM     24  C   UNL A   1      35.516  31.257  28.751  1.00  0.00     0.261 C 
BRANCH  24  25
ATOM     25  O   UNL A   1      36.060  29.936  28.566  1.00  0.00    -0.460 OA
BRANCH  25  26
ATOM     26  C   UNL A   1      36.808  29.478  29.597  1.00  0.00     0.338 C 
ATOM     27  O   UNL A   1      36.466  29.364  30.767  1.00  0.00    -0.246 OA
BRANCH  26  28
ATOM     28  C   UNL A   1      38.085  28.952  29.097  1.00  0.00     0.060 A 
ATOM     29  C   UNL A   1      38.931  28.299  30.003  1.00  0.00     0.016 A 
ATOM     30  C   UNL A   1      38.504  29.214  27.792  1.00  0.00     0.016 A 
ATOM     31  C   UNL A   1      40.221  27.942  29.620  1.00  0.00     0.010 A 
ATOM     32  C   UNL A   1      39.807  28.877  27.415  1.00  0.00     0.010 A 
ATOM     33  C   UNL A   1      40.680  28.277  28.340  1.00  0.00    -0.014 A 
BRANCH  33  34
ATOM     34  C   UNL A   1      42.126  28.174  28.035  1.00  0.00     0.031 A 
ATOM     35  C   UNL A   1      43.005  29.362  28.317  1.00  0.00     0.074 A 
ATOM     36  C   UNL A   1      42.651  27.041  27.540  1.00  0.00     0.049 A 
ATOM     37  N   UNL A   1      44.281  29.518  28.079  1.00  0.00    -0.248 NA
ATOM     38  C   UNL A   1      42.365  30.526  28.956  1.00  0.00     0.031 C 
ATOM     39  C   UNL A   1      41.911  25.804  27.290  1.00  0.00     0.029 A 
ATOM     40  N   UNL A   1      43.936  26.750  27.160  1.00  0.00    -0.354 N 
ATOM     41  C   UNL A   1      44.596  30.792  28.535  1.00  0.00     0.074 A 
ATOM     42  C   UNL A   1      43.378  31.375  29.053  1.00  0.00     0.031 C 
ATOM     43  C   UNL A   1      42.757  24.888  26.784  1.00  0.00     0.029 A 
ATOM     44  C   UNL A   1      44.085  25.484  26.649  1.00  0.00     0.049 A 
ATOM     45  H   UNL A   1      44.681  27.388  27.244  1.00  0.00     0.167 HD
ATOM     46  C   UNL A   1      45.794  31.419  28.526  1.00  0.00     0.031 A 
ATOM     47  C   UNL A   1      45.164  24.883  26.110  1.00  0.00     0.031 A 
ATOM     48  C   UNL A   1      47.001  30.845  27.999  1.00  0.00     0.049 A 
ATOM     49  C   UNL A   1      46.466  25.635  26.023  1.00  0.00     0.074 A 
ATOM     50  C   UNL A   1      48.264  31.407  27.942  1.00  0.00     0.029 A 
ATOM     51  N   UNL A   1      47.095  29.583  27.434  1.00  0.00    -0.354 N 
ATOM     52  N   UNL A   1      46.744  26.845  26.445  1.00  0.00    -0.248 NA
ATOM     53  C   UNL A   1      47.594  24.946  25.380  1.00  0.00     0.031 C 
ATOM     54  C   UNL A   1      49.114  30.501  27.302  1.00  0.00     0.029 A 
ATOM     55  C   UNL A   1      48.389  29.357  27.004  1.00  0.00     0.049 A 
ATOM     56  H   UNL A   1      46.351  28.944  27.351  1.00  0.00     0.167 HD
ATOM     57  C   UNL A   1      48.083  27.056  26.133  1.00  0.00     0.074 A 
ATOM     58  C   UNL A   1      48.560  25.849  25.491  1.00  0.00     0.031 C 
ATOM     59  C   UNL A   1      48.846  28.152  26.361  1.00  0.00     0.031 A 
BRANCH  46  60
ATOM     60  C   UNL A   1      45.860  32.813  29.079  1.00  0.00    -0.014 A 
ATOM     61  C   UNL A   1      45.511  33.920  28.287  1.00  0.00     0.010 A 
ATOM     62  C   UNL A   1      46.198  33.011  30.430  1.00  0.00     0.010 A 
ATOM     63  C   UNL A   1      45.505  35.205  28.836  1.00  0.00     0.020 A 
ATOM     64  C   UNL A   1      46.178  34.292  30.987  1.00  0.00     0.020 A 
ATOM     65  C   UNL A   1      45.832  35.381  30.185  1.00  0.00     0.054 A 
BRANCH  65  66
ATOM     66  S   UNL A   1      45.771  37.057  30.876  1.00  0.00     0.124 S 
ATOM     67  O   UNL A   1      44.347  37.371  30.792  1.00  0.00    -0.237 OA
ATOM     68  O   UNL A   1      46.293  36.859  32.225  1.00  0.00    -0.237 OA
ATOM     69  O   UNL A   1      46.629  37.833  29.983  1.00  0.00    -0.744 OA
ENDBRANCH  65  66
ENDBRANCH  46  60
BRANCH  47  70
ATOM     70  C   UNL A   1      45.048  23.497  25.587  1.00  0.00    -0.014 A 
ATOM     71  C   UNL A   1      44.508  23.257  24.313  1.00  0.00     0.010 A 
ATOM     72  C   UNL A   1      45.508  22.410  26.355  1.00  0.00     0.010 A 
ATOM     73  C   UNL A   1      44.438  21.954  23.810  1.00  0.00     0.020 A 
ATOM     74  C   UNL A   1      45.456  21.109  25.848  1.00  0.00     0.020 A 
ATOM     75  C   UNL A   1      44.923  20.890  24.577  1.00  0.00     0.054 A 
BRANCH  75  76
ATOM     76  S   UNL A   1      44.872  19.219  23.873  1.00  0.00     0.124 S 
ATOM     77  O   UNL A   1      44.464  19.477  22.495  1.00  0.00    -0.237 OA
ATOM     78  O   UNL A   1      46.251  18.770  24.050  1.00  0.00    -0.237 OA
ATOM     79  O   UNL A   1      43.884  18.527  24.698  1.00  0.00    -0.744 OA
ENDBRANCH  75  76
ENDBRANCH  47  70
BRANCH  59  80
ATOM     80  C   UNL A   1      50.286  28.111  25.931  1.00  0.00    -0.014 A 
ATOM     81  C   UNL A   1      51.289  27.692  26.820  1.00  0.00     0.010 A 
ATOM     82  C   UNL A   1      50.620  28.381  24.591  1.00  0.00     0.010 A 
ATOM     83  C   UNL A   1      52.606  27.545  26.376  1.00  0.00     0.020 A 
ATOM     84  C   UNL A   1      51.931  28.216  24.139  1.00  0.00     0.020 A 
ATOM     85  C   UNL A   1      52.916  27.797  25.036  1.00  0.00     0.054 A 
BRANCH  85  86
ATOM     86  S   UNL A   1      54.621  27.532  24.476  1.00  0.00     0.124 S 
ATOM     87  O   UNL A   1      54.562  26.171  23.947  1.00  0.00    -0.237 OA
ATOM     88  O   UNL A   1      54.791  28.586  23.479  1.00  0.00    -0.237 OA
ATOM     89  O   UNL A   1      55.417  27.691  25.691  1.00  0.00    -0.744 OA
ENDBRANCH  85  86
ENDBRANCH  59  80
ENDBRANCH  33  34
ENDBRANCH  26  28
ENDBRANCH  25  26
ENDBRANCH  24  25
ENDBRANCH   1  24
TORSDOF 18
ENDMDL
MODEL 3
REMARK VINA RESULT:     -10.6      2.081      2.696
REMARK SMILES Cc1c(Cl)ccc2c1C=C(C(=O)OCCOCCOC(=O)c1ccc(-c3c4nc(c(-c5ccc(S(=O)(=O)[O-])cc5)c5ccc([nH]5)c(-c5ccc(S(=O)(=O)[O-])cc5)c5nc(c(-c6ccc(S(=O)(=O)[O-])cc6)c6ccc3[nH]6)C=C5)C=C4)cc1)[C@@H](C(F)(F)F)O2
REMARK SMILES IDX 17 1 16 2 15 3 14 4 13 5 11 6 12 7 10 8 1 9 2 10 3 11 8 12
REMARK SMILES IDX 4 13 5 14 7 15 9 16 6 17 87 18 82 19 83 20 84 21 85 22 86 23
REMARK SMILES IDX 18 24 19 25 20 26 21 27 22 28 23 29 81 30 24 31 80 32 25 33
REMARK SMILES IDX 26 34 27 35 74 36 28 37 79 38 73 39 75 40 29 41 78 42 72 43
REMARK SMILES IDX 71 44 30 46 60 47 41 48 59 49 42 50 45 51 58 52 76 53 43 54
REMARK SMILES IDX 44 55 57 57 77 58 46 59 31 60 32 61 40 62 33 63 39 64 34 65
REMARK SMILES IDX 35 66 36 67 37 68 38 69 61 70 62 71 70 72 63 73 69 74 64 75
REMARK SMILES IDX 65 76 66 77 67 78 68 79 47 80 48 81 56 82 49 83 55 84 50 85
REMARK SMILES IDX 51 86 52 87 53 88 54 89
REMARK H PARENT 75 45 45 56
REMARK Flexibility Score: inf
ROOT
ATOM      1  C   UNL A   1      38.529  21.691  25.708  1.00  0.00     0.202 C 
ENDROOT
BRANCH   1   2
ATOM      2  O   UNL A   1      37.368  22.522  25.632  1.00  0.00    -0.374 OA
BRANCH   2   3
ATOM      3  C   UNL A   1      36.130  21.966  26.069  1.00  0.00     0.202 C 
BRANCH   3   4
ATOM      4  C   UNL A   1      34.895  22.299  25.225  1.00  0.00     0.261 C 
BRANCH   4   5
ATOM      5  O   UNL A   1      34.761  23.712  25.007  1.00  0.00    -0.460 OA
BRANCH   5   6
ATOM      6  C   UNL A   1      34.631  24.070  23.710  1.00  0.00     0.338 C 
ATOM      7  O   UNL A   1      35.212  23.582  22.751  1.00  0.00    -0.246 OA
BRANCH   6   8
ATOM      8  C   UNL A   1      33.559  25.074  23.572  1.00  0.00     0.087 C 
ATOM      9  C   UNL A   1      34.102  28.754  25.706  1.00  0.00     0.047 C 
ATOM     10  C   UNL A   1      32.818  28.430  24.981  1.00  0.00    -0.021 A 
ATOM     11  C   UNL A   1      31.702  29.287  25.035  1.00  0.00     0.044 A 
ATOM     12  C   UNL A   1      32.708  27.229  24.232  1.00  0.00     0.022 A 
ATOM     13  Cl  UNL A   1      31.688  30.737  25.978  1.00  0.00    -0.084 Cl
ATOM     14  C   UNL A   1      30.536  28.988  24.326  1.00  0.00     0.024 A 
ATOM     15  C   UNL A   1      31.543  26.959  23.501  1.00  0.00     0.128 A 
ATOM     16  C   UNL A   1      33.761  26.221  24.233  1.00  0.00     0.027 C 
ATOM     17  C   UNL A   1      30.464  27.838  23.545  1.00  0.00     0.048 A 
ATOM     18  O   UNL A   1      31.372  25.865  22.699  1.00  0.00    -0.475 OA
ATOM     19  C   UNL A   1      32.336  24.780  22.755  1.00  0.00     0.316 C 
BRANCH  19  20
ATOM     20  C   UNL A   1      31.610  23.508  23.219  1.00  0.00     0.430 C 
ATOM     21  F   UNL A   1      31.740  23.331  24.555  1.00  0.00    -0.167 F 
ATOM     22  F   UNL A   1      30.284  23.565  22.956  1.00  0.00    -0.167 F 
ATOM     23  F   UNL A   1      32.098  22.402  22.611  1.00  0.00    -0.167 F 
ENDBRANCH  19  20
ENDBRANCH   6   8
ENDBRANCH   5   6
ENDBRANCH   4   5
ENDBRANCH   3   4
ENDBRANCH   2   3
ENDBRANCH   1   2
BRANCH   1  24
ATOM     24  C   UNL A   1      39.735  22.244  26.477  1.00  0.00     0.261 C 
BRANCH  24  25
ATOM     25  O   UNL A   1      39.726  23.684  26.519  1.00  0.00    -0.460 OA
BRANCH  25  26
ATOM     26  C   UNL A   1      40.865  24.247  26.987  1.00  0.00     0.338 C 
ATOM     27  O   UNL A   1      42.015  23.902  26.750  1.00  0.00    -0.246 OA
BRANCH  26  28
ATOM     28  C   UNL A   1      40.550  25.484  27.716  1.00  0.00     0.060 A 
ATOM     29  C   UNL A   1      41.480  26.531  27.672  1.00  0.00     0.016 A 
ATOM     30  C   UNL A   1      39.426  25.562  28.539  1.00  0.00     0.016 A 
ATOM     31  C   UNL A   1      41.311  27.647  28.486  1.00  0.00     0.010 A 
ATOM     32  C   UNL A   1      39.269  26.673  29.373  1.00  0.00     0.010 A 
ATOM     33  C   UNL A   1      40.232  27.698  29.377  1.00  0.00    -0.014 A 
BRANCH  33  34
ATOM     34  C   UNL A   1      40.215  28.725  30.443  1.00  0.00     0.031 A 
ATOM     35  C   UNL A   1      41.191  28.595  31.581  1.00  0.00     0.074 A 
ATOM     36  C   UNL A   1      39.366  29.765  30.390  1.00  0.00     0.049 A 
ATOM     37  N   UNL A   1      41.318  29.341  32.648  1.00  0.00    -0.248 NA
ATOM     38  C   UNL A   1      42.154  27.482  31.506  1.00  0.00     0.031 C 
ATOM     39  C   UNL A   1      38.423  30.034  29.306  1.00  0.00     0.029 A 
ATOM     40  N   UNL A   1      39.164  30.792  31.277  1.00  0.00    -0.354 N 
ATOM     41  C   UNL A   1      42.370  28.790  33.369  1.00  0.00     0.074 A 
ATOM     42  C   UNL A   1      42.840  27.640  32.629  1.00  0.00     0.031 C 
ATOM     43  C   UNL A   1      37.732  31.150  29.598  1.00  0.00     0.029 A 
ATOM     44  C   UNL A   1      38.163  31.654  30.901  1.00  0.00     0.049 A 
ATOM     45  H   UNL A   1      39.686  30.901  32.104  1.00  0.00     0.167 HD
ATOM     46  C   UNL A   1      42.898  29.206  34.542  1.00  0.00     0.031 A 
ATOM     47  C   UNL A   1      37.638  32.715  31.546  1.00  0.00     0.031 A 
ATOM     48  C   UNL A   1      42.422  30.341  35.283  1.00  0.00     0.049 A 
ATOM     49  C   UNL A   1      38.178  33.104  32.896  1.00  0.00     0.074 A 
ATOM     50  C   UNL A   1      42.892  30.839  36.486  1.00  0.00     0.029 A 
ATOM     51  N   UNL A   1      41.365  31.151  34.897  1.00  0.00    -0.354 N 
ATOM     52  N   UNL A   1      39.164  32.564  33.572  1.00  0.00    -0.248 NA
ATOM     53  C   UNL A   1      37.532  34.238  33.573  1.00  0.00     0.031 C 
ATOM     54  C   UNL A   1      42.091  31.924  36.849  1.00  0.00     0.029 A 
ATOM     55  C   UNL A   1      41.152  32.130  35.849  1.00  0.00     0.049 A 
ATOM     56  H   UNL A   1      40.844  31.043  34.068  1.00  0.00     0.167 HD
ATOM     57  C   UNL A   1      39.266  33.301  34.747  1.00  0.00     0.074 A 
ATOM     58  C   UNL A   1      38.247  34.328  34.688  1.00  0.00     0.031 C 
ATOM     59  C   UNL A   1      40.129  33.141  35.779  1.00  0.00     0.031 A 
BRANCH  46  60
ATOM     60  C   UNL A   1      44.039  28.418  35.116  1.00  0.00    -0.014 A 
ATOM     61  C   UNL A   1      43.803  27.337  35.982  1.00  0.00     0.010 A 
ATOM     62  C   UNL A   1      45.357  28.712  34.723  1.00  0.00     0.010 A 
ATOM     63  C   UNL A   1      44.870  26.564  36.451  1.00  0.00     0.020 A 
ATOM     64  C   UNL A   1      46.424  27.933  35.177  1.00  0.00     0.020 A 
ATOM     65  C   UNL A   1      46.173  26.864  36.038  1.00  0.00     0.054 A 
BRANCH  65  66
ATOM     66  S   UNL A   1      47.528  25.814  36.631  1.00  0.00     0.124 S 
ATOM     67  O   UNL A   1      47.719  24.899  35.509  1.00  0.00    -0.237 OA
ATOM     68  O   UNL A   1      48.602  26.780  36.845  1.00  0.00    -0.237 OA
ATOM     69  O   UNL A   1      46.989  25.201  37.843  1.00  0.00    -0.744 OA
ENDBRANCH  65  66
ENDBRANCH  46  60
BRANCH  47  70
ATOM     70  C   UNL A   1      36.517  33.469  30.926  1.00  0.00    -0.014 A 
ATOM     71  C   UNL A   1      36.673  34.076  29.670  1.00  0.00     0.010 A 
ATOM     72  C   UNL A   1      35.274  33.553  31.582  1.00  0.00     0.010 A 
ATOM     73  C   UNL A   1      35.602  34.750  29.075  1.00  0.00     0.020 A 
ATOM     74  C   UNL A   1      34.197  34.209  30.981  1.00  0.00     0.020 A 
ATOM     75  C   UNL A   1      34.367  34.802  29.729  1.00  0.00     0.054 A 
BRANCH  75  76
ATOM     76  S   UNL A   1      32.981  35.632  28.904  1.00  0.00     0.124 S 
ATOM     77  O   UNL A   1      32.356  34.534  28.173  1.00  0.00    -0.237 OA
ATOM     78  O   UNL A   1      32.219  36.153  30.036  1.00  0.00    -0.237 OA
ATOM     79  O   UNL A   1      33.630  36.645  28.075  1.00  0.00    -0.744 OA
ENDBRANCH  75  76
ENDBRANCH  47  70
BRANCH  59  80
ATOM     80  C   UNL A   1      40.033  34.097  36.934  1.00  0.00    -0.014 A 
ATOM     81  C   UNL A   1      40.604  35.377  36.857  1.00  0.00     0.010 A 
ATOM     82  C   UNL A   1      39.261  33.752  38.060  1.00  0.00     0.010 A 
ATOM     83  C   UNL A   1      40.407  36.299  37.889  1.00  0.00     0.020 A 
ATOM     84  C   UNL A   1      39.046  34.677  39.084  1.00  0.00     0.020 A 
ATOM     85  C   UNL A   1      39.621  35.946  38.990  1.00  0.00     0.054 A 
BRANCH  85  86
ATOM     86  S   UNL A   1      39.329  37.189  40.280  1.00  0.00     0.124 S 
ATOM     87  O   UNL A   1      40.690  37.536  40.685  1.00  0.00    -0.237 OA
ATOM     88  O   UNL A   1      38.606  38.230  39.554  1.00  0.00    -0.237 OA
ATOM     89  O   UNL A   1      38.546  36.472  41.284  1.00  0.00    -0.744 OA
ENDBRANCH  85  86
ENDBRANCH  59  80
ENDBRANCH  33  34
ENDBRANCH  26  28
ENDBRANCH  25  26
ENDBRANCH  24  25
ENDBRANCH   1  24
TORSDOF 18
ENDMDL
