MODEL 1
REMARK VINA RESULT:     -13.0      0.000      0.000
REMARK SMILES Nc1cc(=O)[nH]c(SCC(=O)Nc2ccccc2C(=O)OCCOCCOC(=O)c2ccc(-c3c4nc(c(-c5ccc(S(=O)(=O)[O-])cc5)c5ccc([nH]5)c(-c5ccc(S(=O)(=O)[O-])cc5)c5nc(c(-c6ccc(S(=O)(=O)[O-])cc6)c6ccc3[nH]6)C=C5)C=C4)cc2)n1
REMARK SMILES IDX 23 1 22 2 21 3 19 4 20 5 18 6 13 7 14 8 15 9 17 10 16 11
REMARK SMILES IDX 12 12 10 13 11 14 9 16 8 17 7 18 2 19 3 20 90 21 4 22 5 23
REMARK SMILES IDX 6 24 1 26 24 29 25 30 26 31 27 32 28 33 29 34 30 35 31 36
REMARK SMILES IDX 89 37 32 38 88 39 33 40 34 41 35 42 82 43 36 44 87 45 81 46
REMARK SMILES IDX 83 47 37 48 86 49 80 50 79 51 38 53 68 54 49 55 67 56 50 57
REMARK SMILES IDX 53 58 66 59 84 60 51 61 52 62 65 64 85 65 54 66 39 67 40 68
REMARK SMILES IDX 48 69 41 70 47 71 42 72 43 73 44 74 45 75 46 76 69 77 70 78
REMARK SMILES IDX 78 79 71 80 77 81 72 82 73 83 74 84 75 85 76 86 55 87 56 88
REMARK SMILES IDX 64 89 57 90 63 91 58 92 59 93 60 94 61 95 62 96
REMARK H PARENT 12 15 6 25 1 27 1 28 83 52 53 63
REMARK Flexibility Score: inf
ROOT
ATOM      1  C   UNL A   1      37.579  23.056  25.399  1.00  0.00     0.202 C 
ENDROOT
BRANCH   1   2
ATOM      2  C   UNL A   1      35.994  23.969  25.853  1.00  0.00     0.261 C 
BRANCH   2   3
ATOM      3  O   UNL A   1      34.382  23.395  26.325  1.00  0.00    -0.460 OA
BRANCH   3   4
ATOM      4  C   UNL A   1      33.140  22.811  25.819  1.00  0.00     0.340 C 
ATOM      5  O   UNL A   1      32.086  22.720  26.439  1.00  0.00    -0.246 OA
BRANCH   4   6
ATOM      6  C   UNL A   1      32.970  21.887  24.625  1.00  0.00     0.083 A 
ATOM      7  C   UNL A   1      33.015  22.382  23.355  1.00  0.00     0.055 A 
ATOM      8  C   UNL A   1      32.436  21.669  22.299  1.00  0.00     0.027 A 
ATOM      9  C   UNL A   1      32.087  20.323  22.475  1.00  0.00     0.002 A 
ATOM     10  C   UNL A   1      32.677  20.502  24.786  1.00  0.00     0.018 A 
ATOM     11  C   UNL A   1      32.292  19.710  23.704  1.00  0.00     0.001 A 
BRANCH   7  12
ATOM     12  N   UNL A   1      33.742  23.532  23.142  1.00  0.00    -0.325 N 
ATOM     13  C   UNL A   1      33.173  24.753  22.839  1.00  0.00     0.234 C 
ATOM     14  O   UNL A   1      33.968  25.647  22.518  1.00  0.00    -0.274 OA
ATOM     15  H   UNL A   1      34.723  23.480  23.209  1.00  0.00     0.169 HD
BRANCH  13  16
ATOM     16  C   UNL A   1      31.584  25.093  23.051  1.00  0.00     0.178 C 
BRANCH  16  17
ATOM     17  S   UNL A   1      30.705  26.975  23.267  1.00  0.00    -0.078 SA
BRANCH  17  18
ATOM     18  C   UNL A   1      31.518  28.542  24.610  1.00  0.00     0.170 A 
ATOM     19  C   UNL A   1      31.598  30.529  25.846  1.00  0.00     0.131 A 
ATOM     20  C   UNL A   1      32.489  30.099  26.746  1.00  0.00     0.118 A 
ATOM     21  N   UNL A   1      31.006  29.698  24.893  1.00  0.00    -0.207 NA
ATOM     22  C   UNL A   1      33.212  28.894  26.388  1.00  0.00     0.253 A 
ATOM     23  O   UNL A   1      34.133  28.448  27.025  1.00  0.00    -0.269 OA
ATOM     24  N   UNL A   1      32.785  28.365  25.208  1.00  0.00    -0.301 N 
ATOM     25  H   UNL A   1      33.427  27.800  24.719  1.00  0.00     0.172 HD
BRANCH  19  26
ATOM     26  N   UNL A   1      31.203  31.829  25.938  1.00  0.00    -0.383 N 
ATOM     27  H   UNL A   1      30.861  32.296  25.141  1.00  0.00     0.158 HD
ATOM     28  H   UNL A   1      31.258  32.300  26.800  1.00  0.00     0.158 HD
ENDBRANCH  19  26
ENDBRANCH  17  18
ENDBRANCH  16  17
ENDBRANCH  13  16
ENDBRANCH   7  12
ENDBRANCH   4   6
ENDBRANCH   3   4
ENDBRANCH   2   3
ENDBRANCH   1   2
BRANCH   1  29
ATOM     29  O   UNL A   1      38.216  21.494  25.567  1.00  0.00    -0.374 OA
BRANCH  29  30
ATOM     30  C   UNL A   1      39.615  20.759  26.215  1.00  0.00     0.202 C 
BRANCH  30  31
ATOM     31  C   UNL A   1      41.404  21.252  26.236  1.00  0.00     0.261 C 
BRANCH  31  32
ATOM     32  O   UNL A   1      42.070  22.419  25.393  1.00  0.00    -0.460 OA
BRANCH  32  33
ATOM     33  C   UNL A   1      42.857  23.536  25.727  1.00  0.00     0.338 C 
ATOM     34  O   UNL A   1      43.971  23.686  25.234  1.00  0.00    -0.246 OA
BRANCH  33  35
ATOM     35  C   UNL A   1      42.260  24.663  26.772  1.00  0.00     0.060 A 
ATOM     36  C   UNL A   1      42.555  26.026  26.748  1.00  0.00     0.016 A 
ATOM     37  C   UNL A   1      41.283  24.439  27.744  1.00  0.00     0.016 A 
ATOM     38  C   UNL A   1      42.178  27.055  27.640  1.00  0.00     0.010 A 
ATOM     39  C   UNL A   1      40.808  25.504  28.648  1.00  0.00     0.010 A 
ATOM     40  C   UNL A   1      41.316  26.836  28.675  1.00  0.00    -0.014 A 
BRANCH  40  41
ATOM     41  C   UNL A   1      41.106  27.927  29.746  1.00  0.00     0.031 A 
ATOM     42  C   UNL A   1      42.102  28.025  30.895  1.00  0.00     0.074 A 
ATOM     43  C   UNL A   1      40.182  28.939  29.735  1.00  0.00     0.049 A 
ATOM     44  N   UNL A   1      41.999  28.644  32.049  1.00  0.00    -0.248 NA
ATOM     45  C   UNL A   1      43.382  27.330  30.713  1.00  0.00     0.031 C 
ATOM     46  C   UNL A   1      39.182  29.231  28.702  1.00  0.00     0.029 A 
ATOM     47  N   UNL A   1      39.944  29.957  30.665  1.00  0.00    -0.354 N 
ATOM     48  C   UNL A   1      43.133  28.292  32.775  1.00  0.00     0.074 A 
ATOM     49  C   UNL A   1      43.922  27.434  31.916  1.00  0.00     0.031 C 
ATOM     50  C   UNL A   1      38.502  30.347  29.016  1.00  0.00     0.029 A 
ATOM     51  C   UNL A   1      38.891  30.798  30.348  1.00  0.00     0.049 A 
ATOM     52  H   UNL A   1      40.484  30.067  31.480  1.00  0.00     0.167 HD
ATOM     53  C   UNL A   1      43.495  28.628  34.039  1.00  0.00     0.031 A 
ATOM     54  C   UNL A   1      38.230  31.766  31.034  1.00  0.00     0.031 A 
ATOM     55  C   UNL A   1      42.813  29.572  34.887  1.00  0.00     0.049 A 
ATOM     56  C   UNL A   1      38.592  32.096  32.461  1.00  0.00     0.074 A 
ATOM     57  C   UNL A   1      43.139  29.949  36.182  1.00  0.00     0.029 A 
ATOM     58  N   UNL A   1      41.703  30.315  34.530  1.00  0.00    -0.354 N 
ATOM     59  N   UNL A   1      39.566  31.619  33.192  1.00  0.00    -0.248 NA
ATOM     60  C   UNL A   1      37.741  33.073  33.167  1.00  0.00     0.031 C 
ATOM     61  C   UNL A   1      42.197  30.882  36.626  1.00  0.00     0.029 A 
ATOM     62  C   UNL A   1      41.318  31.131  35.586  1.00  0.00     0.049 A 
ATOM     63  H   UNL A   1      41.251  30.272  33.657  1.00  0.00     0.167 HD
ATOM     64  C   UNL A   1      39.443  32.229  34.439  1.00  0.00     0.074 A 
ATOM     65  C   UNL A   1      38.318  33.134  34.360  1.00  0.00     0.031 C 
ATOM     66  C   UNL A   1      40.201  32.037  35.546  1.00  0.00     0.031 A 
BRANCH  53  67
ATOM     67  C   UNL A   1      44.656  27.875  34.638  1.00  0.00    -0.014 A 
ATOM     68  C   UNL A   1      45.977  28.349  34.585  1.00  0.00     0.010 A 
ATOM     69  C   UNL A   1      44.391  26.653  35.288  1.00  0.00     0.010 A 
ATOM     70  C   UNL A   1      47.020  27.581  35.113  1.00  0.00     0.020 A 
ATOM     71  C   UNL A   1      45.425  25.901  35.847  1.00  0.00     0.020 A 
ATOM     72  C   UNL A   1      46.737  26.358  35.731  1.00  0.00     0.054 A 
BRANCH  72  73
ATOM     73  S   UNL A   1      48.106  25.368  36.389  1.00  0.00     0.124 S 
ATOM     74  O   UNL A   1      47.982  25.603  37.825  1.00  0.00    -0.237 OA
ATOM     75  O   UNL A   1      47.772  24.017  35.944  1.00  0.00    -0.237 OA
ATOM     76  O   UNL A   1      49.290  25.950  35.762  1.00  0.00    -0.744 OA
ENDBRANCH  72  73
ENDBRANCH  53  67
BRANCH  54  77
ATOM     77  C   UNL A   1      37.033  32.430  30.418  1.00  0.00    -0.014 A 
ATOM     78  C   UNL A   1      35.728  31.947  30.631  1.00  0.00     0.010 A 
ATOM     79  C   UNL A   1      37.207  33.567  29.606  1.00  0.00     0.010 A 
ATOM     80  C   UNL A   1      34.624  32.609  30.074  1.00  0.00     0.020 A 
ATOM     81  C   UNL A   1      36.107  34.250  29.077  1.00  0.00     0.020 A 
ATOM     82  C   UNL A   1      34.820  33.768  29.316  1.00  0.00     0.054 A 
BRANCH  82  83
ATOM     83  S   UNL A   1      33.376  34.692  28.715  1.00  0.00     0.124 S 
ATOM     84  O   UNL A   1      33.987  35.904  28.181  1.00  0.00    -0.237 OA
ATOM     85  O   UNL A   1      32.804  33.782  27.727  1.00  0.00    -0.237 OA
ATOM     86  O   UNL A   1      32.567  34.878  29.920  1.00  0.00    -0.744 OA
ENDBRANCH  82  83
ENDBRANCH  54  77
BRANCH  66  87
ATOM     87  C   UNL A   1      39.872  32.835  36.784  1.00  0.00    -0.014 A 
ATOM     88  C   UNL A   1      38.909  32.391  37.707  1.00  0.00     0.010 A 
ATOM     89  C   UNL A   1      40.575  34.024  37.058  1.00  0.00     0.010 A 
ATOM     90  C   UNL A   1      38.636  33.131  38.865  1.00  0.00     0.020 A 
ATOM     91  C   UNL A   1      40.320  34.756  38.222  1.00  0.00     0.020 A 
ATOM     92  C   UNL A   1      39.342  34.312  39.113  1.00  0.00     0.054 A 
BRANCH  92  93
ATOM     93  S   UNL A   1      38.997  35.237  40.639  1.00  0.00     0.124 S 
ATOM     94  O   UNL A   1      37.824  34.541  41.159  1.00  0.00    -0.237 OA
ATOM     95  O   UNL A   1      40.227  35.060  41.408  1.00  0.00    -0.237 OA
ATOM     96  O   UNL A   1      38.755  36.600  40.170  1.00  0.00    -0.744 OA
ENDBRANCH  92  93
ENDBRANCH  66  87
ENDBRANCH  40  41
ENDBRANCH  33  35
ENDBRANCH  32  33
ENDBRANCH  31  32
ENDBRANCH  30  31
ENDBRANCH  29  30
ENDBRANCH   1  29
TORSDOF 22
ENDMDL
MODEL 2
REMARK VINA RESULT:     -12.6      2.083      8.981
REMARK SMILES Nc1cc(=O)[nH]c(SCC(=O)Nc2ccccc2C(=O)OCCOCCOC(=O)c2ccc(-c3c4nc(c(-c5ccc(S(=O)(=O)[O-])cc5)c5ccc([nH]5)c(-c5ccc(S(=O)(=O)[O-])cc5)c5nc(c(-c6ccc(S(=O)(=O)[O-])cc6)c6ccc3[nH]6)C=C5)C=C4)cc2)n1
REMARK SMILES IDX 23 1 22 2 21 3 19 4 20 5 18 6 13 7 14 8 15 9 17 10 16 11
REMARK SMILES IDX 12 12 10 13 11 14 9 16 8 17 7 18 2 19 3 20 90 21 4 22 5 23
REMARK SMILES IDX 6 24 1 26 24 29 25 30 26 31 27 32 28 33 29 34 30 35 31 36
REMARK SMILES IDX 89 37 32 38 88 39 33 40 34 41 35 42 82 43 36 44 87 45 81 46
REMARK SMILES IDX 83 47 37 48 86 49 80 50 79 51 38 53 68 54 49 55 67 56 50 57
REMARK SMILES IDX 53 58 66 59 84 60 51 61 52 62 65 64 85 65 54 66 39 67 40 68
REMARK SMILES IDX 48 69 41 70 47 71 42 72 43 73 44 74 45 75 46 76 69 77 70 78
REMARK SMILES IDX 78 79 71 80 77 81 72 82 73 83 74 84 75 85 76 86 55 87 56 88
REMARK SMILES IDX 64 89 57 90 63 91 58 92 59 93 60 94 61 95 62 96
REMARK H PARENT 12 15 6 25 1 27 1 28 83 52 53 63
REMARK Flexibility Score: inf
ROOT
ATOM      1  C   UNL A   1      37.280  22.004  25.561  1.00  0.00     0.202 C 
ENDROOT
BRANCH   1   2
ATOM      2  C   UNL A   1      36.565  23.709  25.200  1.00  0.00     0.261 C 
BRANCH   2   3
ATOM      3  O   UNL A   1      34.954  24.407  25.469  1.00  0.00    -0.460 OA
BRANCH   3   4
ATOM      4  C   UNL A   1      34.116  25.578  25.214  1.00  0.00     0.340 C 
ATOM      5  O   UNL A   1      33.758  26.399  26.052  1.00  0.00    -0.246 OA
BRANCH   4   6
ATOM      6  C   UNL A   1      33.224  25.834  24.012  1.00  0.00     0.083 A 
ATOM      7  C   UNL A   1      31.920  25.436  24.019  1.00  0.00     0.055 A 
ATOM      8  C   UNL A   1      31.230  25.256  22.815  1.00  0.00     0.027 A 
ATOM      9  C   UNL A   1      31.759  25.773  21.624  1.00  0.00     0.002 A 
ATOM     10  C   UNL A   1      33.731  26.417  22.815  1.00  0.00     0.018 A 
ATOM     11  C   UNL A   1      32.979  26.437  21.640  1.00  0.00     0.001 A 
BRANCH   7  12
ATOM     12  N   UNL A   1      31.289  25.333  25.240  1.00  0.00    -0.325 N 
ATOM     13  C   UNL A   1      30.797  24.149  25.750  1.00  0.00     0.234 C 
ATOM     14  O   UNL A   1      30.117  24.253  26.780  1.00  0.00    -0.274 OA
ATOM     15  H   UNL A   1      31.184  26.151  25.778  1.00  0.00     0.169 HD
BRANCH  13  16
ATOM     16  C   UNL A   1      31.207  22.671  25.174  1.00  0.00     0.178 C 
BRANCH  16  17
ATOM     17  S   UNL A   1      32.747  21.428  25.844  1.00  0.00    -0.078 SA
BRANCH  17  18
ATOM     18  C   UNL A   1      33.235  19.486  24.890  1.00  0.00     0.170 A 
ATOM     19  C   UNL A   1      33.974  17.272  24.702  1.00  0.00     0.131 A 
ATOM     20  C   UNL A   1      33.247  16.973  23.619  1.00  0.00     0.118 A 
ATOM     21  N   UNL A   1      33.836  18.465  25.415  1.00  0.00    -0.207 NA
ATOM     22  C   UNL A   1      32.695  18.105  22.900  1.00  0.00     0.253 A 
ATOM     23  O   UNL A   1      32.129  18.017  21.841  1.00  0.00    -0.269 OA
ATOM     24  N   UNL A   1      32.959  19.289  23.519  1.00  0.00    -0.301 N 
ATOM     25  H   UNL A   1      32.959  20.094  22.950  1.00  0.00     0.172 HD
BRANCH  19  26
ATOM     26  N   UNL A   1      34.824  16.314  25.161  1.00  0.00    -0.383 N 
ATOM     27  H   UNL A   1      34.763  15.394  24.812  1.00  0.00     0.158 HD
ATOM     28  H   UNL A   1      35.500  16.539  25.840  1.00  0.00     0.158 HD
ENDBRANCH  19  26
ENDBRANCH  17  18
ENDBRANCH  16  17
ENDBRANCH  13  16
ENDBRANCH   7  12
ENDBRANCH   4   6
ENDBRANCH   3   4
ENDBRANCH   2   3
ENDBRANCH   1   2
BRANCH   1  29
ATOM     29  O   UNL A   1      38.792  21.241  25.494  1.00  0.00    -0.374 OA
BRANCH  29  30
ATOM     30  C   UNL A   1      40.226  21.187  26.420  1.00  0.00     0.202 C 
BRANCH  30  31
ATOM     31  C   UNL A   1      41.368  22.503  27.058  1.00  0.00     0.261 C 
BRANCH  31  32
ATOM     32  O   UNL A   1      42.280  23.463  26.185  1.00  0.00    -0.460 OA
BRANCH  32  33
ATOM     33  C   UNL A   1      42.378  24.860  26.051  1.00  0.00     0.338 C 
ATOM     34  O   UNL A   1      42.820  25.360  25.021  1.00  0.00    -0.246 OA
BRANCH  33  35
ATOM     35  C   UNL A   1      41.866  25.828  27.283  1.00  0.00     0.060 A 
ATOM     36  C   UNL A   1      42.511  26.983  27.726  1.00  0.00     0.016 A 
ATOM     37  C   UNL A   1      40.657  25.705  27.970  1.00  0.00     0.016 A 
ATOM     38  C   UNL A   1      42.215  27.828  28.820  1.00  0.00     0.010 A 
ATOM     39  C   UNL A   1      40.277  26.611  29.071  1.00  0.00     0.010 A 
ATOM     40  C   UNL A   1      41.099  27.656  29.586  1.00  0.00    -0.014 A 
BRANCH  40  41
ATOM     41  C   UNL A   1      40.932  28.459  30.894  1.00  0.00     0.031 A 
ATOM     42  C   UNL A   1      39.757  29.420  31.017  1.00  0.00     0.074 A 
ATOM     43  C   UNL A   1      41.654  28.326  32.051  1.00  0.00     0.049 A 
ATOM     44  N   UNL A   1      39.555  30.400  31.867  1.00  0.00    -0.248 NA
ATOM     45  C   UNL A   1      38.667  29.248  30.049  1.00  0.00     0.031 C 
ATOM     46  C   UNL A   1      42.746  27.386  32.326  1.00  0.00     0.029 A 
ATOM     47  N   UNL A   1      41.551  29.013  33.266  1.00  0.00    -0.354 N 
ATOM     48  C   UNL A   1      38.394  31.042  31.444  1.00  0.00     0.074 A 
ATOM     49  C   UNL A   1      37.923  30.317  30.283  1.00  0.00     0.031 C 
ATOM     50  C   UNL A   1      43.158  27.511  33.600  1.00  0.00     0.029 A 
ATOM     51  C   UNL A   1      42.479  28.641  34.224  1.00  0.00     0.049 A 
ATOM     52  H   UNL A   1      40.871  29.706  33.427  1.00  0.00     0.167 HD
ATOM     53  C   UNL A   1      37.773  32.137  31.950  1.00  0.00     0.031 A 
ATOM     54  C   UNL A   1      42.835  29.158  35.428  1.00  0.00     0.031 A 
ATOM     55  C   UNL A   1      38.128  32.818  33.169  1.00  0.00     0.049 A 
ATOM     56  C   UNL A   1      42.188  30.411  35.962  1.00  0.00     0.074 A 
ATOM     57  C   UNL A   1      37.528  33.938  33.728  1.00  0.00     0.029 A 
ATOM     58  N   UNL A   1      39.134  32.438  34.037  1.00  0.00    -0.354 N 
ATOM     59  N   UNL A   1      41.203  31.107  35.453  1.00  0.00    -0.248 NA
ATOM     60  C   UNL A   1      42.724  30.969  37.218  1.00  0.00     0.031 C 
ATOM     61  C   UNL A   1      38.205  34.264  34.908  1.00  0.00     0.029 A 
ATOM     62  C   UNL A   1      39.188  33.313  35.115  1.00  0.00     0.049 A 
ATOM     63  H   UNL A   1      39.727  31.662  33.910  1.00  0.00     0.167 HD
ATOM     64  C   UNL A   1      41.007  32.182  36.319  1.00  0.00     0.074 A 
ATOM     65  C   UNL A   1      41.953  32.033  37.402  1.00  0.00     0.031 C 
ATOM     66  C   UNL A   1      40.120  33.200  36.206  1.00  0.00     0.031 A 
BRANCH  53  67
ATOM     67  C   UNL A   1      36.679  32.747  31.111  1.00  0.00    -0.014 A 
ATOM     68  C   UNL A   1      35.317  32.490  31.338  1.00  0.00     0.010 A 
ATOM     69  C   UNL A   1      37.048  33.622  30.070  1.00  0.00     0.010 A 
ATOM     70  C   UNL A   1      34.348  33.044  30.494  1.00  0.00     0.020 A 
ATOM     71  C   UNL A   1      36.082  34.205  29.249  1.00  0.00     0.020 A 
ATOM     72  C   UNL A   1      34.739  33.888  29.449  1.00  0.00     0.054 A 
BRANCH  72  73
ATOM     73  S   UNL A   1      33.469  34.578  28.354  1.00  0.00     0.124 S 
ATOM     74  O   UNL A   1      34.263  35.445  27.485  1.00  0.00    -0.237 OA
ATOM     75  O   UNL A   1      32.914  33.388  27.713  1.00  0.00    -0.237 OA
ATOM     76  O   UNL A   1      32.562  35.271  29.265  1.00  0.00    -0.744 OA
ENDBRANCH  72  73
ENDBRANCH  53  67
BRANCH  54  77
ATOM     77  C   UNL A   1      43.984  28.556  36.185  1.00  0.00    -0.014 A 
ATOM     78  C   UNL A   1      43.804  27.468  37.059  1.00  0.00     0.010 A 
ATOM     79  C   UNL A   1      45.279  29.085  36.023  1.00  0.00     0.010 A 
ATOM     80  C   UNL A   1      44.900  26.901  37.725  1.00  0.00     0.020 A 
ATOM     81  C   UNL A   1      46.379  28.501  36.658  1.00  0.00     0.020 A 
ATOM     82  C   UNL A   1      46.184  27.410  37.505  1.00  0.00     0.054 A 
BRANCH  82  83
ATOM     83  S   UNL A   1      47.611  26.581  38.265  1.00  0.00     0.124 S 
ATOM     84  O   UNL A   1      47.033  25.317  38.707  1.00  0.00    -0.237 OA
ATOM     85  O   UNL A   1      48.556  26.493  37.155  1.00  0.00    -0.237 OA
ATOM     86  O   UNL A   1      48.006  27.497  39.335  1.00  0.00    -0.744 OA
ENDBRANCH  82  83
ENDBRANCH  54  77
BRANCH  66  87
ATOM     87  C   UNL A   1      40.093  34.247  37.292  1.00  0.00    -0.014 A 
ATOM     88  C   UNL A   1      40.787  35.462  37.155  1.00  0.00     0.010 A 
ATOM     89  C   UNL A   1      39.315  34.037  38.447  1.00  0.00     0.010 A 
ATOM     90  C   UNL A   1      40.728  36.435  38.162  1.00  0.00     0.020 A 
ATOM     91  C   UNL A   1      39.237  35.013  39.446  1.00  0.00     0.020 A 
ATOM     92  C   UNL A   1      39.955  36.202  39.304  1.00  0.00     0.054 A 
BRANCH  92  93
ATOM     93  S   UNL A   1      39.863  37.491  40.581  1.00  0.00     0.124 S 
ATOM     94  O   UNL A   1      39.039  36.852  41.602  1.00  0.00    -0.237 OA
ATOM     95  O   UNL A   1      41.266  37.692  40.938  1.00  0.00    -0.237 OA
ATOM     96  O   UNL A   1      39.237  38.618  39.891  1.00  0.00    -0.744 OA
ENDBRANCH  92  93
ENDBRANCH  66  87
ENDBRANCH  40  41
ENDBRANCH  33  35
ENDBRANCH  32  33
ENDBRANCH  31  32
ENDBRANCH  30  31
ENDBRANCH  29  30
ENDBRANCH   1  29
TORSDOF 22
ENDMDL
MODEL 3
REMARK VINA RESULT:     -12.6      5.958      8.010
REMARK SMILES Nc1cc(=O)[nH]c(SCC(=O)Nc2ccccc2C(=O)OCCOCCOC(=O)c2ccc(-c3c4nc(c(-c5ccc(S(=O)(=O)[O-])cc5)c5ccc([nH]5)c(-c5ccc(S(=O)(=O)[O-])cc5)c5nc(c(-c6ccc(S(=O)(=O)[O-])cc6)c6ccc3[nH]6)C=C5)C=C4)cc2)n1
REMARK SMILES IDX 23 1 22 2 21 3 19 4 20 5 18 6 13 7 14 8 15 9 17 10 16 11
REMARK SMILES IDX 12 12 10 13 11 14 9 16 8 17 7 18 2 19 3 20 90 21 4 22 5 23
REMARK SMILES IDX 6 24 1 26 24 29 25 30 26 31 27 32 28 33 29 34 30 35 31 36
REMARK SMILES IDX 89 37 32 38 88 39 33 40 34 41 35 42 82 43 36 44 87 45 81 46
REMARK SMILES IDX 83 47 37 48 86 49 80 50 79 51 38 53 68 54 49 55 67 56 50 57
REMARK SMILES IDX 53 58 66 59 84 60 51 61 52 62 65 64 85 65 54 66 39 67 40 68
REMARK SMILES IDX 48 69 41 70 47 71 42 72 43 73 44 74 45 75 46 76 69 77 70 78
REMARK SMILES IDX 78 79 71 80 77 81 72 82 73 83 74 84 75 85 76 86 55 87 56 88
REMARK SMILES IDX 64 89 57 90 63 91 58 92 59 93 60 94 61 95 62 96
REMARK H PARENT 12 15 6 25 1 27 1 28 83 52 53 63
REMARK Flexibility Score: inf
ROOT
ATOM      1  C   UNL A   1      37.803  21.013  24.981  1.00  0.00     0.202 C 
ENDROOT
BRANCH   1   2
ATOM      2  C   UNL A   1      36.216  21.491  25.878  1.00  0.00     0.261 C 
BRANCH   2   3
ATOM      3  O   UNL A   1      34.514  21.075  25.592  1.00  0.00    -0.460 OA
BRANCH   3   4
ATOM      4  C   UNL A   1      33.350  21.371  24.757  1.00  0.00     0.340 C 
ATOM      5  O   UNL A   1      32.528  20.552  24.359  1.00  0.00    -0.246 OA
BRANCH   4   6
ATOM      6  C   UNL A   1      33.104  22.611  23.916  1.00  0.00     0.083 A 
ATOM      7  C   UNL A   1      31.979  23.360  24.098  1.00  0.00     0.055 A 
ATOM      8  C   UNL A   1      31.522  24.205  23.080  1.00  0.00     0.027 A 
ATOM      9  C   UNL A   1      32.366  24.526  22.008  1.00  0.00     0.002 A 
ATOM     10  C   UNL A   1      33.986  22.987  22.862  1.00  0.00     0.018 A 
ATOM     11  C   UNL A   1      33.642  23.980  21.944  1.00  0.00     0.001 A 
BRANCH   7  12
ATOM     12  N   UNL A   1      31.390  23.337  25.343  1.00  0.00    -0.325 N 
ATOM     13  C   UNL A   1      31.992  23.825  26.485  1.00  0.00     0.234 C 
ATOM     14  O   UNL A   1      31.400  23.583  27.545  1.00  0.00    -0.274 OA
ATOM     15  H   UNL A   1      30.488  22.950  25.421  1.00  0.00     0.169 HD
BRANCH  13  16
ATOM     16  C   UNL A   1      33.300  24.813  26.472  1.00  0.00     0.178 C 
BRANCH  16  17
ATOM     17  S   UNL A   1      33.515  26.622  25.449  1.00  0.00    -0.078 SA
BRANCH  17  18
ATOM     18  C   UNL A   1      31.871  27.561  24.294  1.00  0.00     0.170 A 
ATOM     19  C   UNL A   1      30.825  28.882  22.669  1.00  0.00     0.131 A 
ATOM     20  C   UNL A   1      29.685  28.181  22.630  1.00  0.00     0.118 A 
ATOM     21  N   UNL A   1      31.956  28.471  23.375  1.00  0.00    -0.207 NA
ATOM     22  C   UNL A   1      29.470  27.271  23.739  1.00  0.00     0.253 A 
ATOM     23  O   UNL A   1      28.446  26.665  23.921  1.00  0.00    -0.269 OA
ATOM     24  N   UNL A   1      30.529  27.238  24.594  1.00  0.00    -0.301 N 
ATOM     25  H   UNL A   1      30.340  26.959  25.520  1.00  0.00     0.172 HD
BRANCH  19  26
ATOM     26  N   UNL A   1      30.886  30.006  21.904  1.00  0.00    -0.383 N 
ATOM     27  H   UNL A   1      30.240  30.139  21.172  1.00  0.00     0.158 HD
ATOM     28  H   UNL A   1      31.574  30.686  22.082  1.00  0.00     0.158 HD
ENDBRANCH  19  26
ENDBRANCH  17  18
ENDBRANCH  16  17
ENDBRANCH  13  16
ENDBRANCH   7  12
ENDBRANCH   4   6
ENDBRANCH   3   4
ENDBRANCH   2   3
ENDBRANCH   1   2
BRANCH   1  29
ATOM     29  O   UNL A   1      39.104  19.952  25.216  1.00  0.00    -0.374 OA
BRANCH  29  30
ATOM     30  C   UNL A   1      40.533  19.887  26.149  1.00  0.00     0.202 C 
BRANCH  30  31
ATOM     31  C   UNL A   1      41.906  18.645  26.270  1.00  0.00     0.261 C 
BRANCH  31  32
ATOM     32  O   UNL A   1      43.036  18.382  25.188  1.00  0.00    -0.460 OA
BRANCH  32  33
ATOM     33  C   UNL A   1      44.330  18.893  24.986  1.00  0.00     0.338 C 
ATOM     34  O   UNL A   1      45.270  18.141  24.744  1.00  0.00    -0.246 OA
BRANCH  33  35
ATOM     35  C   UNL A   1      44.576  20.522  25.050  1.00  0.00     0.060 A 
ATOM     36  C   UNL A   1      45.424  21.179  25.942  1.00  0.00     0.016 A 
ATOM     37  C   UNL A   1      44.074  21.460  24.146  1.00  0.00     0.016 A 
ATOM     38  C   UNL A   1      45.639  22.561  26.145  1.00  0.00     0.010 A 
ATOM     39  C   UNL A   1      44.334  22.906  24.279  1.00  0.00     0.010 A 
ATOM     40  C   UNL A   1      45.062  23.507  25.348  1.00  0.00    -0.014 A 
BRANCH  40  41
ATOM     41  C   UNL A   1      45.147  24.998  25.739  1.00  0.00     0.031 A 
ATOM     42  C   UNL A   1      46.460  25.737  25.521  1.00  0.00     0.074 A 
ATOM     43  C   UNL A   1      44.124  25.810  26.154  1.00  0.00     0.049 A 
ATOM     44  N   UNL A   1      46.877  26.880  26.016  1.00  0.00    -0.248 NA
ATOM     45  C   UNL A   1      47.431  25.097  24.624  1.00  0.00     0.031 C 
ATOM     46  C   UNL A   1      42.709  25.460  26.317  1.00  0.00     0.029 A 
ATOM     47  N   UNL A   1      44.132  27.161  26.516  1.00  0.00    -0.354 N 
ATOM     48  C   UNL A   1      48.200  27.018  25.605  1.00  0.00     0.074 A 
ATOM     49  C   UNL A   1      48.501  25.857  24.794  1.00  0.00     0.031 C 
ATOM     50  C   UNL A   1      42.000  26.545  26.676  1.00  0.00     0.029 A 
ATOM     51  C   UNL A   1      42.907  27.660  26.926  1.00  0.00     0.049 A 
ATOM     52  H   UNL A   1      44.944  27.715  26.481  1.00  0.00     0.167 HD
ATOM     53  C   UNL A   1      49.097  27.998  25.876  1.00  0.00     0.031 A 
ATOM     54  C   UNL A   1      42.521  28.823  27.512  1.00  0.00     0.031 A 
ATOM     55  C   UNL A   1      48.815  29.229  26.571  1.00  0.00     0.049 A 
ATOM     56  C   UNL A   1      43.528  29.887  27.870  1.00  0.00     0.074 A 
ATOM     57  C   UNL A   1      49.693  30.259  26.874  1.00  0.00     0.029 A 
ATOM     58  N   UNL A   1      47.574  29.621  27.035  1.00  0.00    -0.354 N 
ATOM     59  N   UNL A   1      44.813  29.917  27.627  1.00  0.00    -0.248 NA
ATOM     60  C   UNL A   1      43.036  31.063  28.614  1.00  0.00     0.031 C 
ATOM     61  C   UNL A   1      48.992  31.253  27.566  1.00  0.00     0.029 A 
ATOM     62  C   UNL A   1      47.666  30.867  27.643  1.00  0.00     0.049 A 
ATOM     63  H   UNL A   1      46.746  29.095  26.950  1.00  0.00     0.167 HD
ATOM     64  C   UNL A   1      45.282  31.103  28.190  1.00  0.00     0.074 A 
ATOM     65  C   UNL A   1      44.141  31.782  28.762  1.00  0.00     0.031 C 
ATOM     66  C   UNL A   1      46.554  31.569  28.228  1.00  0.00     0.031 A 
BRANCH  53  67
ATOM     67  C   UNL A   1      50.533  27.730  25.502  1.00  0.00    -0.014 A 
ATOM     68  C   UNL A   1      51.442  27.110  26.375  1.00  0.00     0.010 A 
ATOM     69  C   UNL A   1      50.965  28.107  24.214  1.00  0.00     0.010 A 
ATOM     70  C   UNL A   1      52.775  26.934  25.990  1.00  0.00     0.020 A 
ATOM     71  C   UNL A   1      52.286  27.901  23.815  1.00  0.00     0.020 A 
ATOM     72  C   UNL A   1      53.190  27.341  24.717  1.00  0.00     0.054 A 
BRANCH  72  73
ATOM     73  S   UNL A   1      54.928  27.124  24.246  1.00  0.00     0.124 S 
ATOM     74  O   UNL A   1      55.465  28.465  24.463  1.00  0.00    -0.237 OA
ATOM     75  O   UNL A   1      55.391  26.104  25.184  1.00  0.00    -0.237 OA
ATOM     76  O   UNL A   1      54.860  26.697  22.851  1.00  0.00    -0.744 OA
ENDBRANCH  72  73
ENDBRANCH  53  67
BRANCH  54  77
ATOM     77  C   UNL A   1      41.092  29.005  27.934  1.00  0.00    -0.014 A 
ATOM     78  C   UNL A   1      40.719  29.025  29.290  1.00  0.00     0.010 A 
ATOM     79  C   UNL A   1      40.091  29.165  26.956  1.00  0.00     0.010 A 
ATOM     80  C   UNL A   1      39.381  29.235  29.658  1.00  0.00     0.020 A 
ATOM     81  C   UNL A   1      38.763  29.409  27.318  1.00  0.00     0.020 A 
ATOM     82  C   UNL A   1      38.415  29.444  28.669  1.00  0.00     0.054 A 
BRANCH  82  83
ATOM     83  S   UNL A   1      36.714  29.851  29.160  1.00  0.00     0.124 S 
ATOM     84  O   UNL A   1      35.934  29.290  28.063  1.00  0.00    -0.237 OA
ATOM     85  O   UNL A   1      36.582  29.170  30.445  1.00  0.00    -0.237 OA
ATOM     86  O   UNL A   1      36.723  31.312  29.239  1.00  0.00    -0.744 OA
ENDBRANCH  82  83
ENDBRANCH  54  77
BRANCH  66  87
ATOM     87  C   UNL A   1      46.807  32.900  28.892  1.00  0.00    -0.014 A 
ATOM     88  C   UNL A   1      46.717  34.105  28.173  1.00  0.00     0.010 A 
ATOM     89  C   UNL A   1      47.086  32.953  30.271  1.00  0.00     0.010 A 
ATOM     90  C   UNL A   1      46.928  35.334  28.812  1.00  0.00     0.020 A 
ATOM     91  C   UNL A   1      47.278  34.178  30.917  1.00  0.00     0.020 A 
ATOM     92  C   UNL A   1      47.211  35.362  30.181  1.00  0.00     0.054 A 
BRANCH  92  93
ATOM     93  S   UNL A   1      47.445  36.969  30.996  1.00  0.00     0.124 S 
ATOM     94  O   UNL A   1      48.837  37.274  30.676  1.00  0.00    -0.237 OA
ATOM     95  O   UNL A   1      46.450  37.813  30.340  1.00  0.00    -0.237 OA
ATOM     96  O   UNL A   1      47.179  36.685  32.405  1.00  0.00    -0.744 OA
ENDBRANCH  92  93
ENDBRANCH  66  87
ENDBRANCH  40  41
ENDBRANCH  33  35
ENDBRANCH  32  33
ENDBRANCH  31  32
ENDBRANCH  30  31
ENDBRANCH  29  30
ENDBRANCH   1  29
TORSDOF 22
ENDMDL
