MODEL 1
REMARK VINA RESULT:     -10.7      0.000      0.000
REMARK SMILES CS(=O)(=O)c1cc(F)ccc1N1CCC[C@@H](C(=O)OCCOCCOC(=O)c2ccc(-c3c4nc(c(-c5ccc(S(=O)(=O)[O-])cc5)c5ccc([nH]5)c(-c5ccc(S(=O)(=O)[O-])cc5)c5nc(c(-c6ccc(S(=O)(=O)[O-])cc6)c6ccc3[nH]6)C=C5)C=C4)cc2)C1
REMARK SMILES IDX 23 1 22 2 21 3 20 4 19 5 17 6 18 7 16 8 12 9 13 10 88 11
REMARK SMILES IDX 14 12 15 13 11 14 5 15 6 16 7 17 10 18 8 19 9 20 2 21 1 22
REMARK SMILES IDX 3 23 4 24 24 25 25 26 26 27 27 28 28 29 29 30 87 31 30 32
REMARK SMILES IDX 86 33 31 34 32 35 33 36 80 37 34 38 85 39 79 40 81 41 35 42
REMARK SMILES IDX 84 43 78 44 77 45 36 47 66 48 47 49 65 50 48 51 51 52 64 53
REMARK SMILES IDX 82 54 49 55 50 56 63 58 83 59 52 60 37 61 38 62 46 63 39 64
REMARK SMILES IDX 45 65 40 66 41 67 42 68 43 69 44 70 67 71 68 72 76 73 69 74
REMARK SMILES IDX 75 75 70 76 71 77 72 78 73 79 74 80 53 81 54 82 62 83 55 84
REMARK SMILES IDX 61 85 56 86 57 87 58 88 59 89 60 90
REMARK H PARENT 81 46 51 57
REMARK Flexibility Score: inf
ROOT
ATOM      1  C   UNL A   1      34.113  31.167  27.647  1.00  0.00     0.202 C 
ENDROOT
BRANCH   1   2
ATOM      2  O   UNL A   1      33.707  29.912  27.117  1.00  0.00    -0.374 OA
BRANCH   2   3
ATOM      3  C   UNL A   1      32.305  29.705  26.927  1.00  0.00     0.202 C 
BRANCH   3   4
ATOM      4  C   UNL A   1      31.795  28.272  27.127  1.00  0.00     0.261 C 
BRANCH   4   5
ATOM      5  O   UNL A   1      32.510  27.329  26.299  1.00  0.00    -0.463 OA
BRANCH   5   6
ATOM      6  C   UNL A   1      31.883  26.147  26.058  1.00  0.00     0.310 C 
ATOM      7  O   UNL A   1      30.837  25.786  26.585  1.00  0.00    -0.252 OA
BRANCH   6   8
ATOM      8  C   UNL A   1      32.628  25.271  25.074  1.00  0.00     0.118 C 
ATOM      9  N   UNL A   1      32.743  23.186  23.803  1.00  0.00    -0.370 N 
ATOM     10  C   UNL A   1      33.068  23.848  22.541  1.00  0.00     0.116 C 
ATOM     11  C   UNL A   1      31.940  23.937  24.776  1.00  0.00     0.131 C 
ATOM     12  C   UNL A   1      33.734  25.198  22.821  1.00  0.00     0.022 C 
ATOM     13  C   UNL A   1      32.901  26.046  23.783  1.00  0.00     0.019 C 
BRANCH   9  14
ATOM     14  C   UNL A   1      33.238  21.930  24.070  1.00  0.00     0.056 A 
ATOM     15  C   UNL A   1      34.536  21.629  24.524  1.00  0.00     0.093 A 
ATOM     16  C   UNL A   1      34.909  20.300  24.812  1.00  0.00     0.061 A 
ATOM     17  C   UNL A   1      34.004  19.267  24.632  1.00  0.00     0.124 A 
ATOM     18  C   UNL A   1      32.351  20.843  23.907  1.00  0.00     0.030 A 
ATOM     19  F   UNL A   1      34.372  18.009  24.905  1.00  0.00    -0.207 F 
ATOM     20  C   UNL A   1      32.724  19.524  24.178  1.00  0.00     0.041 A 
BRANCH  15  21
ATOM     21  S   UNL A   1      35.799  22.843  24.866  1.00  0.00     0.177 S 
ATOM     22  C   UNL A   1      37.094  21.881  25.612  1.00  0.00     0.164 C 
ATOM     23  O   UNL A   1      35.258  23.721  25.892  1.00  0.00    -0.224 OA
ATOM     24  O   UNL A   1      36.344  23.388  23.643  1.00  0.00    -0.224 OA
ENDBRANCH  15  21
ENDBRANCH   9  14
ENDBRANCH   6   8
ENDBRANCH   5   6
ENDBRANCH   4   5
ENDBRANCH   3   4
ENDBRANCH   2   3
ENDBRANCH   1   2
BRANCH   1  25
ATOM     25  C   UNL A   1      35.142  31.142  28.781  1.00  0.00     0.261 C 
BRANCH  25  26
ATOM     26  O   UNL A   1      35.758  29.862  28.975  1.00  0.00    -0.460 OA
BRANCH  26  27
ATOM     27  C   UNL A   1      36.588  29.809  30.046  1.00  0.00     0.338 C 
ATOM     28  O   UNL A   1      36.266  29.660  31.214  1.00  0.00    -0.246 OA
BRANCH  27  29
ATOM     29  C   UNL A   1      37.999  29.797  29.621  1.00  0.00     0.060 A 
ATOM     30  C   UNL A   1      38.241  29.742  28.244  1.00  0.00     0.016 A 
ATOM     31  C   UNL A   1      39.056  29.722  30.532  1.00  0.00     0.016 A 
ATOM     32  C   UNL A   1      39.536  29.545  27.774  1.00  0.00     0.010 A 
ATOM     33  C   UNL A   1      40.359  29.520  30.055  1.00  0.00     0.010 A 
ATOM     34  C   UNL A   1      40.599  29.387  28.676  1.00  0.00    -0.014 A 
BRANCH  34  35
ATOM     35  C   UNL A   1      41.918  28.965  28.138  1.00  0.00     0.031 A 
ATOM     36  C   UNL A   1      43.046  29.960  28.076  1.00  0.00     0.074 A 
ATOM     37  C   UNL A   1      42.139  27.678  27.818  1.00  0.00     0.049 A 
ATOM     38  N   UNL A   1      44.312  29.759  27.811  1.00  0.00    -0.248 NA
ATOM     39  C   UNL A   1      42.706  31.365  28.354  1.00  0.00     0.031 C 
ATOM     40  C   UNL A   1      41.135  26.614  27.853  1.00  0.00     0.029 A 
ATOM     41  N   UNL A   1      43.290  27.041  27.427  1.00  0.00    -0.354 N 
ATOM     42  C   UNL A   1      44.923  31.005  27.905  1.00  0.00     0.074 A 
ATOM     43  C   UNL A   1      43.881  31.962  28.210  1.00  0.00     0.031 C 
ATOM     44  C   UNL A   1      41.720  25.451  27.517  1.00  0.00     0.029 A 
ATOM     45  C   UNL A   1      43.134  25.688  27.236  1.00  0.00     0.049 A 
ATOM     46  H   UNL A   1      44.146  27.508  27.294  1.00  0.00     0.167 HD
ATOM     47  C   UNL A   1      46.233  31.323  27.764  1.00  0.00     0.031 A 
ATOM     48  C   UNL A   1      44.029  24.745  26.887  1.00  0.00     0.031 A 
ATOM     49  C   UNL A   1      47.268  30.377  27.439  1.00  0.00     0.049 A 
ATOM     50  C   UNL A   1      45.473  25.129  26.700  1.00  0.00     0.074 A 
ATOM     51  C   UNL A   1      48.626  30.599  27.290  1.00  0.00     0.029 A 
ATOM     52  N   UNL A   1      47.058  29.026  27.202  1.00  0.00    -0.354 N 
ATOM     53  N   UNL A   1      46.040  26.304  26.841  1.00  0.00    -0.248 NA
ATOM     54  C   UNL A   1      46.400  24.052  26.325  1.00  0.00     0.031 C 
ATOM     55  C   UNL A   1      49.230  29.393  26.916  1.00  0.00     0.029 A 
ATOM     56  C   UNL A   1      48.257  28.408  26.883  1.00  0.00     0.049 A 
ATOM     57  H   UNL A   1      46.186  28.573  27.254  1.00  0.00     0.167 HD
ATOM     58  C   UNL A   1      47.393  26.104  26.587  1.00  0.00     0.074 A 
ATOM     59  C   UNL A   1      47.561  24.691  26.310  1.00  0.00     0.031 C 
ATOM     60  C   UNL A   1      48.406  27.006  26.586  1.00  0.00     0.031 A 
BRANCH  47  61
ATOM     61  C   UNL A   1      46.615  32.770  27.938  1.00  0.00    -0.014 A 
ATOM     62  C   UNL A   1      46.991  33.274  29.196  1.00  0.00     0.010 A 
ATOM     63  C   UNL A   1      46.628  33.628  26.826  1.00  0.00     0.010 A 
ATOM     64  C   UNL A   1      47.335  34.621  29.346  1.00  0.00     0.020 A 
ATOM     65  C   UNL A   1      46.994  34.971  26.965  1.00  0.00     0.020 A 
ATOM     66  C   UNL A   1      47.329  35.462  28.229  1.00  0.00     0.054 A 
BRANCH  66  67
ATOM     67  S   UNL A   1      47.794  37.203  28.446  1.00  0.00     0.124 S 
ATOM     68  O   UNL A   1      47.449  37.771  27.145  1.00  0.00    -0.237 OA
ATOM     69  O   UNL A   1      46.948  37.627  29.559  1.00  0.00    -0.237 OA
ATOM     70  O   UNL A   1      49.223  37.145  28.741  1.00  0.00    -0.744 OA
ENDBRANCH  66  67
ENDBRANCH  47  61
BRANCH  48  71
ATOM     71  C   UNL A   1      43.587  23.336  26.705  1.00  0.00    -0.014 A 
ATOM     72  C   UNL A   1      43.510  22.763  25.424  1.00  0.00     0.010 A 
ATOM     73  C   UNL A   1      43.246  22.556  27.825  1.00  0.00     0.010 A 
ATOM     74  C   UNL A   1      43.087  21.439  25.265  1.00  0.00     0.020 A 
ATOM     75  C   UNL A   1      42.848  21.226  27.672  1.00  0.00     0.020 A 
ATOM     76  C   UNL A   1      42.761  20.679  26.391  1.00  0.00     0.054 A 
BRANCH  76  77
ATOM     77  S   UNL A   1      42.278  18.944  26.171  1.00  0.00     0.124 S 
ATOM     78  O   UNL A   1      42.542  18.385  27.493  1.00  0.00    -0.237 OA
ATOM     79  O   UNL A   1      40.869  19.052  25.798  1.00  0.00    -0.237 OA
ATOM     80  O   UNL A   1      43.161  18.477  25.104  1.00  0.00    -0.744 OA
ENDBRANCH  76  77
ENDBRANCH  48  71
BRANCH  60  81
ATOM     81  C   UNL A   1      49.786  26.485  26.282  1.00  0.00    -0.014 A 
ATOM     82  C   UNL A   1      50.575  25.891  27.285  1.00  0.00     0.010 A 
ATOM     83  C   UNL A   1      50.298  26.586  24.976  1.00  0.00     0.010 A 
ATOM     84  C   UNL A   1      51.873  25.459  26.999  1.00  0.00     0.020 A 
ATOM     85  C   UNL A   1      51.586  26.130  24.681  1.00  0.00     0.020 A 
ATOM     86  C   UNL A   1      52.374  25.592  25.700  1.00  0.00     0.054 A 
BRANCH  86  87
ATOM     87  S   UNL A   1      54.064  25.029  25.350  1.00  0.00     0.124 S 
ATOM     88  O   UNL A   1      54.431  25.868  24.213  1.00  0.00    -0.237 OA
ATOM     89  O   UNL A   1      54.767  25.318  26.598  1.00  0.00    -0.237 OA
ATOM     90  O   UNL A   1      53.898  23.609  25.050  1.00  0.00    -0.744 OA
ENDBRANCH  86  87
ENDBRANCH  60  81
ENDBRANCH  34  35
ENDBRANCH  27  29
ENDBRANCH  26  27
ENDBRANCH  25  26
ENDBRANCH   1  25
TORSDOF 19
ENDMDL
MODEL 2
REMARK VINA RESULT:     -10.5      2.598      9.014
REMARK SMILES CS(=O)(=O)c1cc(F)ccc1N1CCC[C@@H](C(=O)OCCOCCOC(=O)c2ccc(-c3c4nc(c(-c5ccc(S(=O)(=O)[O-])cc5)c5ccc([nH]5)c(-c5ccc(S(=O)(=O)[O-])cc5)c5nc(c(-c6ccc(S(=O)(=O)[O-])cc6)c6ccc3[nH]6)C=C5)C=C4)cc2)C1
REMARK SMILES IDX 23 1 22 2 21 3 20 4 19 5 17 6 18 7 16 8 12 9 13 10 88 11
REMARK SMILES IDX 14 12 15 13 11 14 5 15 6 16 7 17 10 18 8 19 9 20 2 21 1 22
REMARK SMILES IDX 3 23 4 24 24 25 25 26 26 27 27 28 28 29 29 30 87 31 30 32
REMARK SMILES IDX 86 33 31 34 32 35 33 36 80 37 34 38 85 39 79 40 81 41 35 42
REMARK SMILES IDX 84 43 78 44 77 45 36 47 66 48 47 49 65 50 48 51 51 52 64 53
REMARK SMILES IDX 82 54 49 55 50 56 63 58 83 59 52 60 37 61 38 62 46 63 39 64
REMARK SMILES IDX 45 65 40 66 41 67 42 68 43 69 44 70 67 71 68 72 76 73 69 74
REMARK SMILES IDX 75 75 70 76 71 77 72 78 73 79 74 80 53 81 54 82 62 83 55 84
REMARK SMILES IDX 61 85 56 86 57 87 58 88 59 89 60 90
REMARK H PARENT 81 46 51 57
REMARK Flexibility Score: inf
ROOT
ATOM      1  C   UNL A   1      38.876  22.198  26.274  1.00  0.00     0.202 C 
ENDROOT
BRANCH   1   2
ATOM      2  O   UNL A   1      38.023  22.876  25.360  1.00  0.00    -0.374 OA
BRANCH   2   3
ATOM      3  C   UNL A   1      36.614  22.692  25.521  1.00  0.00     0.202 C 
BRANCH   3   4
ATOM      4  C   UNL A   1      35.902  21.892  24.423  1.00  0.00     0.261 C 
BRANCH   4   5
ATOM      5  O   UNL A   1      34.473  22.100  24.450  1.00  0.00    -0.463 OA
BRANCH   5   6
ATOM      6  C   UNL A   1      34.020  23.234  23.854  1.00  0.00     0.310 C 
ATOM      7  O   UNL A   1      34.332  23.609  22.729  1.00  0.00    -0.252 OA
BRANCH   6   8
ATOM      8  C   UNL A   1      33.091  24.038  24.737  1.00  0.00     0.118 C 
ATOM      9  N   UNL A   1      31.463  25.848  24.958  1.00  0.00    -0.370 N 
ATOM     10  C   UNL A   1      30.506  25.040  25.711  1.00  0.00     0.116 C 
ATOM     11  C   UNL A   1      32.338  25.153  24.007  1.00  0.00     0.131 C 
ATOM     12  C   UNL A   1      31.239  23.903  26.427  1.00  0.00     0.022 C 
ATOM     13  C   UNL A   1      32.118  23.105  25.463  1.00  0.00     0.019 C 
BRANCH   9  14
ATOM     14  C   UNL A   1      31.562  27.199  25.198  1.00  0.00     0.056 A 
ATOM     15  C   UNL A   1      30.955  28.223  24.447  1.00  0.00     0.093 A 
ATOM     16  C   UNL A   1      31.091  29.574  24.828  1.00  0.00     0.061 A 
ATOM     17  C   UNL A   1      31.843  29.913  25.940  1.00  0.00     0.124 A 
ATOM     18  C   UNL A   1      32.315  27.596  26.327  1.00  0.00     0.030 A 
ATOM     19  F   UNL A   1      31.967  31.200  26.288  1.00  0.00    -0.207 F 
ATOM     20  C   UNL A   1      32.462  28.935  26.696  1.00  0.00     0.041 A 
BRANCH  15  21
ATOM     21  S   UNL A   1      29.906  27.955  23.028  1.00  0.00     0.177 S 
ATOM     22  C   UNL A   1      29.407  29.600  22.576  1.00  0.00     0.164 C 
ATOM     23  O   UNL A   1      28.726  27.257  23.515  1.00  0.00    -0.224 OA
ATOM     24  O   UNL A   1      30.662  27.433  21.912  1.00  0.00    -0.224 OA
ENDBRANCH  15  21
ENDBRANCH   9  14
ENDBRANCH   6   8
ENDBRANCH   5   6
ENDBRANCH   4   5
ENDBRANCH   3   4
ENDBRANCH   2   3
ENDBRANCH   1   2
BRANCH   1  25
ATOM     25  C   UNL A   1      39.152  20.717  25.997  1.00  0.00     0.261 C 
BRANCH  25  26
ATOM     26  O   UNL A   1      40.173  20.154  26.832  1.00  0.00    -0.460 OA
BRANCH  26  27
ATOM     27  C   UNL A   1      41.370  20.008  26.213  1.00  0.00     0.338 C 
ATOM     28  O   UNL A   1      41.703  19.101  25.466  1.00  0.00    -0.246 OA
BRANCH  27  29
ATOM     29  C   UNL A   1      42.221  21.193  26.424  1.00  0.00     0.060 A 
ATOM     30  C   UNL A   1      42.548  21.506  27.748  1.00  0.00     0.016 A 
ATOM     31  C   UNL A   1      42.595  22.043  25.379  1.00  0.00     0.016 A 
ATOM     32  C   UNL A   1      43.191  22.705  28.039  1.00  0.00     0.010 A 
ATOM     33  C   UNL A   1      43.239  23.253  25.677  1.00  0.00     0.010 A 
ATOM     34  C   UNL A   1      43.502  23.609  27.012  1.00  0.00    -0.014 A 
BRANCH  34  35
ATOM     35  C   UNL A   1      43.987  24.961  27.391  1.00  0.00     0.031 A 
ATOM     36  C   UNL A   1      45.425  25.329  27.140  1.00  0.00     0.074 A 
ATOM     37  C   UNL A   1      43.125  25.887  27.846  1.00  0.00     0.049 A 
ATOM     38  N   UNL A   1      46.007  26.499  27.230  1.00  0.00    -0.248 NA
ATOM     39  C   UNL A   1      46.326  24.240  26.729  1.00  0.00     0.031 C 
ATOM     40  C   UNL A   1      41.704  25.661  28.113  1.00  0.00     0.029 A 
ATOM     41  N   UNL A   1      43.315  27.215  28.137  1.00  0.00    -0.354 N 
ATOM     42  C   UNL A   1      47.334  26.291  26.874  1.00  0.00     0.074 A 
ATOM     43  C   UNL A   1      47.482  24.877  26.606  1.00  0.00     0.031 C 
ATOM     44  C   UNL A   1      41.146  26.818  28.510  1.00  0.00     0.029 A 
ATOM     45  C   UNL A   1      42.168  27.862  28.533  1.00  0.00     0.049 A 
ATOM     46  H   UNL A   1      44.190  27.662  28.070  1.00  0.00     0.167 HD
ATOM     47  C   UNL A   1      48.338  27.197  26.764  1.00  0.00     0.031 A 
ATOM     48  C   UNL A   1      41.960  29.151  28.864  1.00  0.00     0.031 A 
ATOM     49  C   UNL A   1      48.199  28.600  27.050  1.00  0.00     0.049 A 
ATOM     50  C   UNL A   1      43.099  30.131  28.770  1.00  0.00     0.074 A 
ATOM     51  C   UNL A   1      49.152  29.599  26.955  1.00  0.00     0.029 A 
ATOM     52  N   UNL A   1      47.034  29.205  27.500  1.00  0.00    -0.354 N 
ATOM     53  N   UNL A   1      44.336  29.925  28.384  1.00  0.00    -0.248 NA
ATOM     54  C   UNL A   1      42.805  31.522  29.140  1.00  0.00     0.031 C 
ATOM     55  C   UNL A   1      48.577  30.799  27.392  1.00  0.00     0.029 A 
ATOM     56  C   UNL A   1      47.250  30.557  27.710  1.00  0.00     0.049 A 
ATOM     57  H   UNL A   1      46.178  28.740  27.647  1.00  0.00     0.167 HD
ATOM     58  C   UNL A   1      44.964  31.165  28.448  1.00  0.00     0.074 A 
ATOM     59  C   UNL A   1      43.963  32.117  28.887  1.00  0.00     0.031 C 
ATOM     60  C   UNL A   1      46.251  31.488  28.169  1.00  0.00     0.031 A 
BRANCH  47  61
ATOM     61  C   UNL A   1      49.687  26.683  26.336  1.00  0.00    -0.014 A 
ATOM     62  C   UNL A   1      50.548  26.056  27.254  1.00  0.00     0.010 A 
ATOM     63  C   UNL A   1      50.087  26.801  24.994  1.00  0.00     0.010 A 
ATOM     64  C   UNL A   1      51.803  25.591  26.845  1.00  0.00     0.020 A 
ATOM     65  C   UNL A   1      51.331  26.317  24.575  1.00  0.00     0.020 A 
ATOM     66  C   UNL A   1      52.187  25.730  25.508  1.00  0.00     0.054 A 
BRANCH  66  67
ATOM     67  S   UNL A   1      53.814  25.106  25.000  1.00  0.00     0.124 S 
ATOM     68  O   UNL A   1      53.624  23.661  25.091  1.00  0.00    -0.237 OA
ATOM     69  O   UNL A   1      53.954  25.636  23.646  1.00  0.00    -0.237 OA
ATOM     70  O   UNL A   1      54.728  25.678  25.985  1.00  0.00    -0.744 OA
ENDBRANCH  66  67
ENDBRANCH  47  61
BRANCH  48  71
ATOM     71  C   UNL A   1      40.610  29.593  29.304  1.00  0.00    -0.014 A 
ATOM     72  C   UNL A   1      39.586  29.827  28.371  1.00  0.00     0.010 A 
ATOM     73  C   UNL A   1      40.343  29.777  30.674  1.00  0.00     0.010 A 
ATOM     74  C   UNL A   1      38.322  30.248  28.796  1.00  0.00     0.020 A 
ATOM     75  C   UNL A   1      39.074  30.173  31.104  1.00  0.00     0.020 A 
ATOM     76  C   UNL A   1      38.074  30.416  30.162  1.00  0.00     0.054 A 
BRANCH  76  77
ATOM     77  S   UNL A   1      36.411  30.900  30.700  1.00  0.00     0.124 S 
ATOM     78  O   UNL A   1      36.692  32.036  31.571  1.00  0.00    -0.237 OA
ATOM     79  O   UNL A   1      35.748  31.218  29.438  1.00  0.00    -0.237 OA
ATOM     80  O   UNL A   1      35.909  29.704  31.373  1.00  0.00    -0.744 OA
ENDBRANCH  76  77
ENDBRANCH  48  71
BRANCH  60  81
ATOM     81  C   UNL A   1      46.642  32.934  28.323  1.00  0.00    -0.014 A 
ATOM     82  C   UNL A   1      46.518  33.839  27.252  1.00  0.00     0.010 A 
ATOM     83  C   UNL A   1      47.137  33.396  29.556  1.00  0.00     0.010 A 
ATOM     84  C   UNL A   1      46.933  35.165  27.395  1.00  0.00     0.020 A 
ATOM     85  C   UNL A   1      47.528  34.729  29.710  1.00  0.00     0.020 A 
ATOM     86  C   UNL A   1      47.447  35.599  28.621  1.00  0.00     0.054 A 
BRANCH  86  87
ATOM     87  S   UNL A   1      47.985  37.324  28.786  1.00  0.00     0.124 S 
ATOM     88  O   UNL A   1      47.045  38.018  27.910  1.00  0.00    -0.237 OA
ATOM     89  O   UNL A   1      47.820  37.580  30.214  1.00  0.00    -0.237 OA
ATOM     90  O   UNL A   1      49.370  37.298  28.321  1.00  0.00    -0.744 OA
ENDBRANCH  86  87
ENDBRANCH  60  81
ENDBRANCH  34  35
ENDBRANCH  27  29
ENDBRANCH  26  27
ENDBRANCH  25  26
ENDBRANCH   1  25
TORSDOF 19
ENDMDL
MODEL 3
REMARK VINA RESULT:     -10.5      2.766      8.703
REMARK SMILES CS(=O)(=O)c1cc(F)ccc1N1CCC[C@@H](C(=O)OCCOCCOC(=O)c2ccc(-c3c4nc(c(-c5ccc(S(=O)(=O)[O-])cc5)c5ccc([nH]5)c(-c5ccc(S(=O)(=O)[O-])cc5)c5nc(c(-c6ccc(S(=O)(=O)[O-])cc6)c6ccc3[nH]6)C=C5)C=C4)cc2)C1
REMARK SMILES IDX 23 1 22 2 21 3 20 4 19 5 17 6 18 7 16 8 12 9 13 10 88 11
REMARK SMILES IDX 14 12 15 13 11 14 5 15 6 16 7 17 10 18 8 19 9 20 2 21 1 22
REMARK SMILES IDX 3 23 4 24 24 25 25 26 26 27 27 28 28 29 29 30 87 31 30 32
REMARK SMILES IDX 86 33 31 34 32 35 33 36 80 37 34 38 85 39 79 40 81 41 35 42
REMARK SMILES IDX 84 43 78 44 77 45 36 47 66 48 47 49 65 50 48 51 51 52 64 53
REMARK SMILES IDX 82 54 49 55 50 56 63 58 83 59 52 60 37 61 38 62 46 63 39 64
REMARK SMILES IDX 45 65 40 66 41 67 42 68 43 69 44 70 67 71 68 72 76 73 69 74
REMARK SMILES IDX 75 75 70 76 71 77 72 78 73 79 74 80 53 81 54 82 62 83 55 84
REMARK SMILES IDX 61 85 56 86 57 87 58 88 59 89 60 90
REMARK H PARENT 81 46 51 57
REMARK Flexibility Score: inf
ROOT
ATOM      1  C   UNL A   1      32.145  30.446  25.790  1.00  0.00     0.202 C 
ENDROOT
BRANCH   1   2
ATOM      2  O   UNL A   1      31.870  29.154  25.263  1.00  0.00    -0.374 OA
BRANCH   2   3
ATOM      3  C   UNL A   1      30.894  29.067  24.222  1.00  0.00     0.202 C 
BRANCH   3   4
ATOM      4  C   UNL A   1      31.340  28.378  22.926  1.00  0.00     0.261 C 
BRANCH   4   5
ATOM      5  O   UNL A   1      30.660  27.120  22.727  1.00  0.00    -0.463 OA
BRANCH   5   6
ATOM      6  C   UNL A   1      31.442  26.062  22.386  1.00  0.00     0.310 C 
ATOM      7  O   UNL A   1      31.894  25.853  21.266  1.00  0.00    -0.252 OA
BRANCH   6   8
ATOM      8  C   UNL A   1      31.692  25.114  23.539  1.00  0.00     0.118 C 
ATOM      9  N   UNL A   1      33.221  24.246  25.237  1.00  0.00    -0.370 N 
ATOM     10  C   UNL A   1      32.249  24.356  26.323  1.00  0.00     0.116 C 
ATOM     11  C   UNL A   1      33.105  25.194  24.123  1.00  0.00     0.131 C 
ATOM     12  C   UNL A   1      30.829  24.305  25.754  1.00  0.00     0.022 C 
ATOM     13  C   UNL A   1      30.638  25.323  24.629  1.00  0.00     0.019 C 
BRANCH   9  14
ATOM     14  C   UNL A   1      34.160  23.240  25.253  1.00  0.00     0.056 A 
ATOM     15  C   UNL A   1      33.944  21.896  24.894  1.00  0.00     0.093 A 
ATOM     16  C   UNL A   1      35.005  20.967  24.902  1.00  0.00     0.061 A 
ATOM     17  C   UNL A   1      36.275  21.363  25.286  1.00  0.00     0.124 A 
ATOM     18  C   UNL A   1      35.475  23.595  25.631  1.00  0.00     0.030 A 
ATOM     19  F   UNL A   1      37.273  20.470  25.294  1.00  0.00    -0.207 F 
ATOM     20  C   UNL A   1      36.523  22.672  25.654  1.00  0.00     0.041 A 
BRANCH  15  21
ATOM     21  S   UNL A   1      32.387  21.238  24.319  1.00  0.00     0.177 S 
ATOM     22  C   UNL A   1      32.785  19.554  23.910  1.00  0.00     0.164 C 
ATOM     23  O   UNL A   1      32.082  21.930  23.077  1.00  0.00    -0.224 OA
ATOM     24  O   UNL A   1      31.417  21.182  25.389  1.00  0.00    -0.224 OA
ENDBRANCH  15  21
ENDBRANCH   9  14
ENDBRANCH   6   8
ENDBRANCH   5   6
ENDBRANCH   4   5
ENDBRANCH   3   4
ENDBRANCH   2   3
ENDBRANCH   1   2
BRANCH   1  25
ATOM     25  C   UNL A   1      32.642  30.514  27.237  1.00  0.00     0.261 C 
BRANCH  25  26
ATOM     26  O   UNL A   1      33.940  29.936  27.431  1.00  0.00    -0.460 OA
BRANCH  26  27
ATOM     27  C   UNL A   1      34.747  30.659  28.245  1.00  0.00     0.338 C 
ATOM     28  O   UNL A   1      34.433  31.637  28.907  1.00  0.00    -0.246 OA
BRANCH  27  29
ATOM     29  C   UNL A   1      36.071  30.026  28.375  1.00  0.00     0.060 A 
ATOM     30  C   UNL A   1      36.433  29.577  29.649  1.00  0.00     0.016 A 
ATOM     31  C   UNL A   1      36.983  29.973  27.317  1.00  0.00     0.016 A 
ATOM     32  C   UNL A   1      37.731  29.136  29.888  1.00  0.00     0.010 A 
ATOM     33  C   UNL A   1      38.292  29.532  27.562  1.00  0.00     0.010 A 
ATOM     34  C   UNL A   1      38.684  29.152  28.858  1.00  0.00    -0.014 A 
BRANCH  34  35
ATOM     35  C   UNL A   1      40.101  28.881  29.210  1.00  0.00     0.031 A 
ATOM     36  C   UNL A   1      40.712  27.551  28.852  1.00  0.00     0.074 A 
ATOM     37  C   UNL A   1      40.866  29.852  29.738  1.00  0.00     0.049 A 
ATOM     38  N   UNL A   1      41.965  27.177  28.907  1.00  0.00    -0.248 NA
ATOM     39  C   UNL A   1      39.794  26.511  28.363  1.00  0.00     0.031 C 
ATOM     40  C   UNL A   1      40.398  31.187  30.112  1.00  0.00     0.029 A 
ATOM     41  N   UNL A   1      42.208  29.873  30.025  1.00  0.00    -0.354 N 
ATOM     42  C   UNL A   1      41.989  25.865  28.447  1.00  0.00     0.074 A 
ATOM     43  C   UNL A   1      40.621  25.495  28.156  1.00  0.00     0.031 C 
ATOM     44  C   UNL A   1      41.443  31.905  30.560  1.00  0.00     0.029 A 
ATOM     45  C   UNL A   1      42.649  31.081  30.513  1.00  0.00     0.049 A 
ATOM     46  H   UNL A   1      42.800  29.097  29.894  1.00  0.00     0.167 HD
ATOM     47  C   UNL A   1      43.054  25.045  28.268  1.00  0.00     0.031 A 
ATOM     48  C   UNL A   1      43.883  31.482  30.870  1.00  0.00     0.031 A 
ATOM     49  C   UNL A   1      44.414  25.403  28.576  1.00  0.00     0.049 A 
ATOM     50  C   UNL A   1      45.046  30.541  30.698  1.00  0.00     0.074 A 
ATOM     51  C   UNL A   1      45.563  24.647  28.416  1.00  0.00     0.029 A 
ATOM     52  N   UNL A   1      44.810  26.616  29.119  1.00  0.00    -0.354 N 
ATOM     53  N   UNL A   1      45.056  29.322  30.215  1.00  0.00    -0.248 NA
ATOM     54  C   UNL A   1      46.367  31.043  31.101  1.00  0.00     0.031 C 
ATOM     55  C   UNL A   1      46.646  25.386  28.907  1.00  0.00     0.029 A 
ATOM     56  C   UNL A   1      46.180  26.622  29.324  1.00  0.00     0.049 A 
ATOM     57  H   UNL A   1      44.204  27.365  29.328  1.00  0.00     0.167 HD
ATOM     58  C   UNL A   1      46.386  28.915  30.242  1.00  0.00     0.074 A 
ATOM     59  C   UNL A   1      47.152  30.029  30.764  1.00  0.00     0.031 C 
ATOM     60  C   UNL A   1      46.926  27.729  29.866  1.00  0.00     0.031 A 
BRANCH  47  61
ATOM     61  C   UNL A   1      42.781  23.664  27.733  1.00  0.00    -0.014 A 
ATOM     62  C   UNL A   1      42.515  22.590  28.601  1.00  0.00     0.010 A 
ATOM     63  C   UNL A   1      42.758  23.443  26.345  1.00  0.00     0.010 A 
ATOM     64  C   UNL A   1      42.271  21.310  28.092  1.00  0.00     0.020 A 
ATOM     65  C   UNL A   1      42.491  22.171  25.830  1.00  0.00     0.020 A 
ATOM     66  C   UNL A   1      42.266  21.109  26.708  1.00  0.00     0.054 A 
BRANCH  66  67
ATOM     67  S   UNL A   1      41.932  19.443  26.071  1.00  0.00     0.124 S 
ATOM     68  O   UNL A   1      42.866  19.356  24.950  1.00  0.00    -0.237 OA
ATOM     69  O   UNL A   1      42.246  18.591  27.215  1.00  0.00    -0.237 OA
ATOM     70  O   UNL A   1      40.519  19.490  25.702  1.00  0.00    -0.744 OA
ENDBRANCH  66  67
ENDBRANCH  47  61
BRANCH  48  71
ATOM     71  C   UNL A   1      44.087  32.851  31.417  1.00  0.00    -0.014 A 
ATOM     72  C   UNL A   1      43.972  33.104  32.794  1.00  0.00     0.010 A 
ATOM     73  C   UNL A   1      44.406  33.913  30.550  1.00  0.00     0.010 A 
ATOM     74  C   UNL A   1      44.161  34.396  33.295  1.00  0.00     0.020 A 
ATOM     75  C   UNL A   1      44.621  35.200  31.050  1.00  0.00     0.020 A 
ATOM     76  C   UNL A   1      44.486  35.435  32.419  1.00  0.00     0.054 A 
BRANCH  76  77
ATOM     77  S   UNL A   1      44.791  37.091  33.094  1.00  0.00     0.124 S 
ATOM     78  O   UNL A   1      43.472  37.464  33.593  1.00  0.00    -0.237 OA
ATOM     79  O   UNL A   1      45.805  36.837  34.114  1.00  0.00    -0.237 OA
ATOM     80  O   UNL A   1      45.262  37.850  31.937  1.00  0.00    -0.744 OA
ENDBRANCH  76  77
ENDBRANCH  48  71
BRANCH  60  81
ATOM     81  C   UNL A   1      48.419  27.583  30.003  1.00  0.00    -0.014 A 
ATOM     82  C   UNL A   1      49.284  27.963  28.959  1.00  0.00     0.010 A 
ATOM     83  C   UNL A   1      48.965  27.064  31.190  1.00  0.00     0.010 A 
ATOM     84  C   UNL A   1      50.663  27.774  29.081  1.00  0.00     0.020 A 
ATOM     85  C   UNL A   1      50.345  26.899  31.325  1.00  0.00     0.020 A 
ATOM     86  C   UNL A   1      51.184  27.232  30.259  1.00  0.00     0.054 A 
BRANCH  86  87
ATOM     87  S   UNL A   1      52.977  26.990  30.396  1.00  0.00     0.124 S 
ATOM     88  O   UNL A   1      53.424  28.300  30.862  1.00  0.00    -0.237 OA
ATOM     89  O   UNL A   1      53.085  25.907  31.369  1.00  0.00    -0.237 OA
ATOM     90  O   UNL A   1      53.382  26.640  29.037  1.00  0.00    -0.744 OA
ENDBRANCH  86  87
ENDBRANCH  60  81
ENDBRANCH  34  35
ENDBRANCH  27  29
ENDBRANCH  26  27
ENDBRANCH  25  26
ENDBRANCH   1  25
TORSDOF 19
ENDMDL
