MODEL 1
REMARK VINA RESULT:      -9.5      0.000      0.000
REMARK SMILES CCCc1nnsc1C(=O)NC[C@@H]1CC[C@@H](C(=O)OCCOCCOC(=O)c2ccc(-c3c4nc(c(-c5ccc(S(=O)(=O)[O-])cc5)c5ccc([nH]5)c(-c5ccc(S(=O)(=O)[O-])cc5)c5nc(c(-c6ccc(S(=O)(=O)[O-])cc6)c6ccc3[nH]6)C=C5)C=C4)cc2)O1
REMARK SMILES IDX 21 1 20 2 19 3 17 4 18 5 16 6 13 7 14 8 88 9 15 10 12 11
REMARK SMILES IDX 11 12 9 13 10 14 8 16 4 17 5 18 6 19 7 20 3 21 2 22 1 23
REMARK SMILES IDX 22 24 23 25 24 26 25 27 26 28 27 29 28 30 29 31 87 32 30 33
REMARK SMILES IDX 86 34 31 35 32 36 33 37 80 38 34 39 85 40 79 41 81 42 35 43
REMARK SMILES IDX 84 44 78 45 77 46 36 48 66 49 47 50 65 51 48 52 51 53 64 54
REMARK SMILES IDX 82 55 49 56 50 57 63 59 83 60 52 61 37 62 38 63 46 64 39 65
REMARK SMILES IDX 45 66 40 67 41 68 42 69 43 70 44 71 67 72 68 73 76 74 69 75
REMARK SMILES IDX 75 76 70 77 71 78 72 79 73 80 74 81 53 82 54 83 62 84 55 85
REMARK SMILES IDX 61 86 56 87 57 88 58 89 59 90 60 91
REMARK H PARENT 11 15 81 47 51 58
REMARK Flexibility Score: inf
ROOT
ATOM      1  C   UNL A   1      40.974  20.576  25.987  1.00  0.00     0.202 C 
ENDROOT
BRANCH   1   2
ATOM      2  C   UNL A   1      39.691  21.336  26.336  1.00  0.00     0.261 C 
BRANCH   2   3
ATOM      3  O   UNL A   1      38.699  21.248  25.293  1.00  0.00    -0.461 OA
BRANCH   3   4
ATOM      4  C   UNL A   1      37.738  22.216  25.311  1.00  0.00     0.335 C 
ATOM      5  O   UNL A   1      37.805  23.253  25.961  1.00  0.00    -0.249 OA
BRANCH   4   6
ATOM      6  C   UNL A   1      36.545  21.837  24.424  1.00  0.00     0.228 C 
ATOM      7  C   UNL A   1      34.435  22.724  24.896  1.00  0.00     0.138 C 
ATOM      8  C   UNL A   1      34.673  22.931  23.417  1.00  0.00     0.037 C 
ATOM      9  O   UNL A   1      35.365  21.686  25.246  1.00  0.00    -0.361 OA
ATOM     10  C   UNL A   1      36.184  22.862  23.351  1.00  0.00     0.047 C 
BRANCH   7  11
ATOM     11  C   UNL A   1      33.021  22.290  25.295  1.00  0.00     0.148 C 
BRANCH  11  12
ATOM     12  N   UNL A   1      32.071  22.725  24.282  1.00  0.00    -0.349 N 
ATOM     13  C   UNL A   1      31.395  23.887  24.028  1.00  0.00     0.265 C 
ATOM     14  O   UNL A   1      30.722  23.856  22.991  1.00  0.00    -0.268 OA
ATOM     15  H   UNL A   1      31.867  22.018  23.628  1.00  0.00     0.163 HD
BRANCH  13  16
ATOM     16  C   UNL A   1      31.468  25.078  24.851  1.00  0.00     0.136 A 
ATOM     17  C   UNL A   1      32.273  26.209  24.996  1.00  0.00     0.088 A 
ATOM     18  N   UNL A   1      31.922  27.040  26.064  1.00  0.00    -0.142 NA
ATOM     19  N   UNL A   1      30.884  26.593  26.737  1.00  0.00    -0.090 NA
ATOM     20  S   UNL A   1      30.301  25.161  26.137  1.00  0.00    -0.006 S 
BRANCH  17  21
ATOM     21  C   UNL A   1      33.487  26.653  24.248  1.00  0.00     0.060 C 
BRANCH  21  22
ATOM     22  C   UNL A   1      33.593  28.183  24.142  1.00  0.00     0.003 C 
ATOM     23  C   UNL A   1      34.204  28.665  22.834  1.00  0.00     0.004 C 
ENDBRANCH  21  22
ENDBRANCH  17  21
ENDBRANCH  13  16
ENDBRANCH  11  12
ENDBRANCH   7  11
ENDBRANCH   4   6
ENDBRANCH   3   4
ENDBRANCH   2   3
ENDBRANCH   1   2
BRANCH   1  24
ATOM     24  O   UNL A   1      42.123  21.367  25.682  1.00  0.00    -0.374 OA
BRANCH  24  25
ATOM     25  C   UNL A   1      43.008  21.670  26.754  1.00  0.00     0.202 C 
BRANCH  25  26
ATOM     26  C   UNL A   1      42.567  22.786  27.712  1.00  0.00     0.261 C 
BRANCH  26  27
ATOM     27  O   UNL A   1      42.777  24.102  27.170  1.00  0.00    -0.460 OA
BRANCH  27  28
ATOM     28  C   UNL A   1      41.651  24.718  26.735  1.00  0.00     0.338 C 
ATOM     29  O   UNL A   1      40.921  24.355  25.820  1.00  0.00    -0.246 OA
BRANCH  28  30
ATOM     30  C   UNL A   1      41.290  25.830  27.631  1.00  0.00     0.060 A 
ATOM     31  C   UNL A   1      42.200  26.888  27.741  1.00  0.00     0.016 A 
ATOM     32  C   UNL A   1      40.127  25.813  28.405  1.00  0.00     0.016 A 
ATOM     33  C   UNL A   1      41.973  27.915  28.655  1.00  0.00     0.010 A 
ATOM     34  C   UNL A   1      39.905  26.841  29.331  1.00  0.00     0.010 A 
ATOM     35  C   UNL A   1      40.841  27.881  29.481  1.00  0.00    -0.014 A 
BRANCH  35  36
ATOM     36  C   UNL A   1      40.714  28.870  30.579  1.00  0.00     0.031 A 
ATOM     37  C   UNL A   1      41.658  28.798  31.748  1.00  0.00     0.074 A 
ATOM     38  C   UNL A   1      39.794  29.851  30.513  1.00  0.00     0.049 A 
ATOM     39  N   UNL A   1      41.732  29.572  32.800  1.00  0.00    -0.248 NA
ATOM     40  C   UNL A   1      42.653  27.714  31.727  1.00  0.00     0.031 C 
ATOM     41  C   UNL A   1      38.849  30.051  29.416  1.00  0.00     0.029 A 
ATOM     42  N   UNL A   1      39.509  30.865  31.394  1.00  0.00    -0.354 N 
ATOM     43  C   UNL A   1      42.778  29.072  33.566  1.00  0.00     0.074 A 
ATOM     44  C   UNL A   1      43.292  27.911  32.871  1.00  0.00     0.031 C 
ATOM     45  C   UNL A   1      38.084  31.123  29.689  1.00  0.00     0.029 A 
ATOM     46  C   UNL A   1      38.468  31.666  30.992  1.00  0.00     0.049 A 
ATOM     47  H   UNL A   1      40.003  31.006  32.233  1.00  0.00     0.167 HD
ATOM     48  C   UNL A   1      43.272  29.539  34.738  1.00  0.00     0.031 A 
ATOM     49  C   UNL A   1      37.878  32.710  31.609  1.00  0.00     0.031 A 
ATOM     50  C   UNL A   1      42.750  30.683  35.437  1.00  0.00     0.049 A 
ATOM     51  C   UNL A   1      38.397  33.165  32.948  1.00  0.00     0.074 A 
ATOM     52  C   UNL A   1      43.193  31.242  36.623  1.00  0.00     0.029 A 
ATOM     53  N   UNL A   1      41.665  31.439  35.020  1.00  0.00    -0.354 N 
ATOM     54  N   UNL A   1      39.406  32.698  33.643  1.00  0.00    -0.248 NA
ATOM     55  C   UNL A   1      37.699  34.294  33.582  1.00  0.00     0.031 C 
ATOM     56  C   UNL A   1      42.342  32.303  36.951  1.00  0.00     0.029 A 
ATOM     57  C   UNL A   1      41.403  32.439  35.941  1.00  0.00     0.049 A 
ATOM     58  H   UNL A   1      41.156  31.286  34.192  1.00  0.00     0.167 HD
ATOM     59  C   UNL A   1      39.476  33.487  34.786  1.00  0.00     0.074 A 
ATOM     60  C   UNL A   1      38.418  34.471  34.682  1.00  0.00     0.031 C 
ATOM     61  C   UNL A   1      40.339  33.404  35.829  1.00  0.00     0.031 A 
BRANCH  48  62
ATOM     62  C   UNL A   1      44.420  28.787  35.356  1.00  0.00    -0.014 A 
ATOM     63  C   UNL A   1      44.198  27.694  36.210  1.00  0.00     0.010 A 
ATOM     64  C   UNL A   1      45.742  29.158  35.045  1.00  0.00     0.010 A 
ATOM     65  C   UNL A   1      45.278  27.006  36.774  1.00  0.00     0.020 A 
ATOM     66  C   UNL A   1      46.823  28.459  35.588  1.00  0.00     0.020 A 
ATOM     67  C   UNL A   1      46.584  27.397  36.463  1.00  0.00     0.054 A 
BRANCH  67  68
ATOM     68  S   UNL A   1      47.966  26.479  37.194  1.00  0.00     0.124 S 
ATOM     69  O   UNL A   1      48.889  27.556  37.546  1.00  0.00    -0.237 OA
ATOM     70  O   UNL A   1      47.338  25.796  38.323  1.00  0.00    -0.237 OA
ATOM     71  O   UNL A   1      48.414  25.606  36.111  1.00  0.00    -0.744 OA
ENDBRANCH  67  68
ENDBRANCH  48  62
BRANCH  49  72
ATOM     72  C   UNL A   1      36.711  33.382  30.978  1.00  0.00    -0.014 A 
ATOM     73  C   UNL A   1      35.463  33.418  31.625  1.00  0.00     0.010 A 
ATOM     74  C   UNL A   1      36.846  33.994  29.719  1.00  0.00     0.010 A 
ATOM     75  C   UNL A   1      34.370  34.045  31.019  1.00  0.00     0.020 A 
ATOM     76  C   UNL A   1      35.763  34.644  29.121  1.00  0.00     0.020 A 
ATOM     77  C   UNL A   1      34.528  34.656  29.772  1.00  0.00     0.054 A 
BRANCH  77  78
ATOM     78  S   UNL A   1      33.114  35.518  29.029  1.00  0.00     0.124 S 
ATOM     79  O   UNL A   1      32.356  35.927  30.206  1.00  0.00    -0.237 OA
ATOM     80  O   UNL A   1      33.758  36.597  28.283  1.00  0.00    -0.237 OA
ATOM     81  O   UNL A   1      32.486  34.490  28.202  1.00  0.00    -0.744 OA
ENDBRANCH  77  78
ENDBRANCH  49  72
BRANCH  61  82
ATOM     82  C   UNL A   1      40.190  34.415  36.934  1.00  0.00    -0.014 A 
ATOM     83  C   UNL A   1      40.820  35.669  36.859  1.00  0.00     0.010 A 
ATOM     84  C   UNL A   1      39.364  34.126  38.036  1.00  0.00     0.010 A 
ATOM     85  C   UNL A   1      40.651  36.607  37.883  1.00  0.00     0.020 A 
ATOM     86  C   UNL A   1      39.173  35.069  39.049  1.00  0.00     0.020 A 
ATOM     87  C   UNL A   1      39.830  36.300  38.972  1.00  0.00     0.054 A 
BRANCH  87  88
ATOM     88  S   UNL A   1      39.591  37.548  40.267  1.00  0.00     0.124 S 
ATOM     89  O   UNL A   1      40.087  36.853  41.452  1.00  0.00    -0.237 OA
ATOM     90  O   UNL A   1      40.416  38.659  39.799  1.00  0.00    -0.237 OA
ATOM     91  O   UNL A   1      38.151  37.797  40.246  1.00  0.00    -0.744 OA
ENDBRANCH  87  88
ENDBRANCH  61  82
ENDBRANCH  35  36
ENDBRANCH  28  30
ENDBRANCH  27  28
ENDBRANCH  26  27
ENDBRANCH  25  26
ENDBRANCH  24  25
ENDBRANCH   1  24
TORSDOF 22
ENDMDL
MODEL 2
REMARK VINA RESULT:      -9.4      6.195     12.033
REMARK SMILES CCCc1nnsc1C(=O)NC[C@@H]1CC[C@@H](C(=O)OCCOCCOC(=O)c2ccc(-c3c4nc(c(-c5ccc(S(=O)(=O)[O-])cc5)c5ccc([nH]5)c(-c5ccc(S(=O)(=O)[O-])cc5)c5nc(c(-c6ccc(S(=O)(=O)[O-])cc6)c6ccc3[nH]6)C=C5)C=C4)cc2)O1
REMARK SMILES IDX 21 1 20 2 19 3 17 4 18 5 16 6 13 7 14 8 88 9 15 10 12 11
REMARK SMILES IDX 11 12 9 13 10 14 8 16 4 17 5 18 6 19 7 20 3 21 2 22 1 23
REMARK SMILES IDX 22 24 23 25 24 26 25 27 26 28 27 29 28 30 29 31 87 32 30 33
REMARK SMILES IDX 86 34 31 35 32 36 33 37 80 38 34 39 85 40 79 41 81 42 35 43
REMARK SMILES IDX 84 44 78 45 77 46 36 48 66 49 47 50 65 51 48 52 51 53 64 54
REMARK SMILES IDX 82 55 49 56 50 57 63 59 83 60 52 61 37 62 38 63 46 64 39 65
REMARK SMILES IDX 45 66 40 67 41 68 42 69 43 70 44 71 67 72 68 73 76 74 69 75
REMARK SMILES IDX 75 76 70 77 71 78 72 79 73 80 74 81 53 82 54 83 62 84 55 85
REMARK SMILES IDX 61 86 56 87 57 88 58 89 59 90 60 91
REMARK H PARENT 11 15 81 47 51 58
REMARK Flexibility Score: inf
ROOT
ATOM      1  C   UNL A   1      31.666  30.456  26.374  1.00  0.00     0.202 C 
ENDROOT
BRANCH   1   2
ATOM      2  C   UNL A   1      31.808  29.871  24.966  1.00  0.00     0.261 C 
BRANCH   2   3
ATOM      3  O   UNL A   1      32.396  28.554  24.974  1.00  0.00    -0.461 OA
BRANCH   3   4
ATOM      4  C   UNL A   1      32.180  27.804  23.855  1.00  0.00     0.335 C 
ATOM      5  O   UNL A   1      31.584  28.196  22.859  1.00  0.00    -0.249 OA
BRANCH   4   6
ATOM      6  C   UNL A   1      32.763  26.393  24.006  1.00  0.00     0.228 C 
ATOM      7  C   UNL A   1      31.585  24.566  23.149  1.00  0.00     0.138 C 
ATOM      8  C   UNL A   1      33.011  24.431  22.664  1.00  0.00     0.037 C 
ATOM      9  O   UNL A   1      31.693  25.457  24.270  1.00  0.00    -0.361 OA
ATOM     10  C   UNL A   1      33.496  25.861  22.776  1.00  0.00     0.047 C 
BRANCH   7  11
ATOM     11  C   UNL A   1      30.902  23.270  23.597  1.00  0.00     0.148 C 
BRANCH  11  12
ATOM     12  N   UNL A   1      30.795  23.249  25.048  1.00  0.00    -0.349 N 
ATOM     13  C   UNL A   1      31.616  22.864  26.072  1.00  0.00     0.265 C 
ATOM     14  O   UNL A   1      31.152  23.087  27.195  1.00  0.00    -0.268 OA
ATOM     15  H   UNL A   1      29.929  23.592  25.366  1.00  0.00     0.163 HD
BRANCH  13  16
ATOM     16  C   UNL A   1      32.932  22.281  25.896  1.00  0.00     0.136 A 
ATOM     17  C   UNL A   1      33.525  21.201  25.241  1.00  0.00     0.088 A 
ATOM     18  N   UNL A   1      34.891  21.046  25.494  1.00  0.00    -0.142 NA
ATOM     19  N   UNL A   1      35.365  21.962  26.309  1.00  0.00    -0.090 NA
ATOM     20  S   UNL A   1      34.201  23.028  26.820  1.00  0.00    -0.006 S 
BRANCH  17  21
ATOM     21  C   UNL A   1      32.939  20.140  24.368  1.00  0.00     0.060 C 
BRANCH  21  22
ATOM     22  C   UNL A   1      33.485  18.739  24.690  1.00  0.00     0.003 C 
ATOM     23  C   UNL A   1      32.399  17.710  24.968  1.00  0.00     0.004 C 
ENDBRANCH  21  22
ENDBRANCH  17  21
ENDBRANCH  13  16
ENDBRANCH  11  12
ENDBRANCH   7  11
ENDBRANCH   4   6
ENDBRANCH   3   4
ENDBRANCH   2   3
ENDBRANCH   1   2
BRANCH   1  24
ATOM     24  O   UNL A   1      32.609  30.011  27.349  1.00  0.00    -0.374 OA
BRANCH  24  25
ATOM     25  C   UNL A   1      33.811  30.760  27.481  1.00  0.00     0.202 C 
BRANCH  25  26
ATOM     26  C   UNL A   1      34.551  30.638  28.822  1.00  0.00     0.261 C 
BRANCH  26  27
ATOM     27  O   UNL A   1      35.957  30.922  28.711  1.00  0.00    -0.460 OA
BRANCH  27  28
ATOM     28  C   UNL A   1      36.673  30.662  29.832  1.00  0.00     0.338 C 
ATOM     29  O   UNL A   1      36.232  30.464  30.958  1.00  0.00    -0.246 OA
BRANCH  28  30
ATOM     30  C   UNL A   1      38.097  30.469  29.503  1.00  0.00     0.060 A 
ATOM     31  C   UNL A   1      38.413  30.144  28.179  1.00  0.00     0.016 A 
ATOM     32  C   UNL A   1      39.098  30.530  30.476  1.00  0.00     0.016 A 
ATOM     33  C   UNL A   1      39.726  29.838  27.828  1.00  0.00     0.010 A 
ATOM     34  C   UNL A   1      40.416  30.212  30.123  1.00  0.00     0.010 A 
ATOM     35  C   UNL A   1      40.731  29.837  28.804  1.00  0.00    -0.014 A 
BRANCH  35  36
ATOM     36  C   UNL A   1      42.078  29.321  28.459  1.00  0.00     0.031 A 
ATOM     37  C   UNL A   1      43.250  30.265  28.458  1.00  0.00     0.074 A 
ATOM     38  C   UNL A   1      42.263  28.015  28.192  1.00  0.00     0.049 A 
ATOM     39  N   UNL A   1      44.510  30.018  28.204  1.00  0.00    -0.248 NA
ATOM     40  C   UNL A   1      42.966  31.670  28.790  1.00  0.00     0.031 C 
ATOM     41  C   UNL A   1      41.216  26.994  28.200  1.00  0.00     0.029 A 
ATOM     42  N   UNL A   1      43.404  27.325  27.864  1.00  0.00    -0.354 N 
ATOM     43  C   UNL A   1      45.169  31.234  28.346  1.00  0.00     0.074 A 
ATOM     44  C   UNL A   1      44.166  32.221  28.681  1.00  0.00     0.031 C 
ATOM     45  C   UNL A   1      41.763  25.806  27.887  1.00  0.00     0.029 A 
ATOM     46  C   UNL A   1      43.191  25.988  27.632  1.00  0.00     0.049 A 
ATOM     47  H   UNL A   1      44.291  27.748  27.801  1.00  0.00     0.167 HD
ATOM     48  C   UNL A   1      46.491  31.503  28.216  1.00  0.00     0.031 A 
ATOM     49  C   UNL A   1      44.047  25.021  27.242  1.00  0.00     0.031 A 
ATOM     50  C   UNL A   1      47.486  30.524  27.867  1.00  0.00     0.049 A 
ATOM     51  C   UNL A   1      45.499  25.360  27.031  1.00  0.00     0.074 A 
ATOM     52  C   UNL A   1      48.851  30.698  27.727  1.00  0.00     0.029 A 
ATOM     53  N   UNL A   1      47.223  29.190  27.594  1.00  0.00    -0.354 N 
ATOM     54  N   UNL A   1      46.109  26.509  27.198  1.00  0.00    -0.248 NA
ATOM     55  C   UNL A   1      46.378  24.269  26.584  1.00  0.00     0.031 C 
ATOM     56  C   UNL A   1      49.407  29.481  27.316  1.00  0.00     0.029 A 
ATOM     57  C   UNL A   1      48.394  28.536  27.255  1.00  0.00     0.049 A 
ATOM     58  H   UNL A   1      46.333  28.770  27.636  1.00  0.00     0.167 HD
ATOM     59  C   UNL A   1      47.447  26.274  26.896  1.00  0.00     0.074 A 
ATOM     60  C   UNL A   1      47.559  24.872  26.551  1.00  0.00     0.031 C 
ATOM     61  C   UNL A   1      48.489  27.142  26.904  1.00  0.00     0.031 A 
BRANCH  48  62
ATOM     62  C   UNL A   1      46.932  32.927  28.423  1.00  0.00    -0.014 A 
ATOM     63  C   UNL A   1      47.340  33.386  29.687  1.00  0.00     0.010 A 
ATOM     64  C   UNL A   1      46.974  33.808  27.326  1.00  0.00     0.010 A 
ATOM     65  C   UNL A   1      47.748  34.713  29.859  1.00  0.00     0.020 A 
ATOM     66  C   UNL A   1      47.403  35.128  27.490  1.00  0.00     0.020 A 
ATOM     67  C   UNL A   1      47.771  35.577  28.760  1.00  0.00     0.054 A 
BRANCH  67  68
ATOM     68  S   UNL A   1      48.320  37.287  29.007  1.00  0.00     0.124 S 
ATOM     69  O   UNL A   1      49.640  37.272  28.380  1.00  0.00    -0.237 OA
ATOM     70  O   UNL A   1      47.299  38.058  28.301  1.00  0.00    -0.237 OA
ATOM     71  O   UNL A   1      48.323  37.445  30.460  1.00  0.00    -0.744 OA
ENDBRANCH  67  68
ENDBRANCH  48  62
BRANCH  49  72
ATOM     72  C   UNL A   1      43.545  23.642  26.999  1.00  0.00    -0.014 A 
ATOM     73  C   UNL A   1      43.239  22.787  28.073  1.00  0.00     0.010 A 
ATOM     74  C   UNL A   1      43.368  23.177  25.684  1.00  0.00     0.010 A 
ATOM     75  C   UNL A   1      42.776  21.490  27.835  1.00  0.00     0.020 A 
ATOM     76  C   UNL A   1      42.881  21.890  25.441  1.00  0.00     0.020 A 
ATOM     77  C   UNL A   1      42.598  21.051  26.519  1.00  0.00     0.054 A 
BRANCH  77  78
ATOM     78  S   UNL A   1      41.937  19.385  26.229  1.00  0.00     0.124 S 
ATOM     79  O   UNL A   1      40.510  19.649  26.073  1.00  0.00    -0.237 OA
ATOM     80  O   UNL A   1      42.641  18.971  25.018  1.00  0.00    -0.237 OA
ATOM     81  O   UNL A   1      42.313  18.656  27.439  1.00  0.00    -0.744 OA
ENDBRANCH  77  78
ENDBRANCH  49  72
BRANCH  61  82
ATOM     82  C   UNL A   1      49.846  26.599  26.546  1.00  0.00    -0.014 A 
ATOM     83  C   UNL A   1      50.659  25.983  27.514  1.00  0.00     0.010 A 
ATOM     84  C   UNL A   1      50.291  26.657  25.212  1.00  0.00     0.010 A 
ATOM     85  C   UNL A   1      51.906  25.461  27.160  1.00  0.00     0.020 A 
ATOM     86  C   UNL A   1      51.526  26.115  24.850  1.00  0.00     0.020 A 
ATOM     87  C   UNL A   1      52.333  25.532  25.830  1.00  0.00     0.054 A 
BRANCH  87  88
ATOM     88  S   UNL A   1      53.937  24.810  25.386  1.00  0.00     0.124 S 
ATOM     89  O   UNL A   1      54.709  25.012  26.610  1.00  0.00    -0.237 OA
ATOM     90  O   UNL A   1      53.593  23.424  25.082  1.00  0.00    -0.237 OA
ATOM     91  O   UNL A   1      54.368  25.605  24.238  1.00  0.00    -0.744 OA
ENDBRANCH  87  88
ENDBRANCH  61  82
ENDBRANCH  35  36
ENDBRANCH  28  30
ENDBRANCH  27  28
ENDBRANCH  26  27
ENDBRANCH  25  26
ENDBRANCH  24  25
ENDBRANCH   1  24
TORSDOF 22
ENDMDL
MODEL 3
REMARK VINA RESULT:      -9.2      2.961      9.657
REMARK SMILES CCCc1nnsc1C(=O)NC[C@@H]1CC[C@@H](C(=O)OCCOCCOC(=O)c2ccc(-c3c4nc(c(-c5ccc(S(=O)(=O)[O-])cc5)c5ccc([nH]5)c(-c5ccc(S(=O)(=O)[O-])cc5)c5nc(c(-c6ccc(S(=O)(=O)[O-])cc6)c6ccc3[nH]6)C=C5)C=C4)cc2)O1
REMARK SMILES IDX 21 1 20 2 19 3 17 4 18 5 16 6 13 7 14 8 88 9 15 10 12 11
REMARK SMILES IDX 11 12 9 13 10 14 8 16 4 17 5 18 6 19 7 20 3 21 2 22 1 23
REMARK SMILES IDX 22 24 23 25 24 26 25 27 26 28 27 29 28 30 29 31 87 32 30 33
REMARK SMILES IDX 86 34 31 35 32 36 33 37 80 38 34 39 85 40 79 41 81 42 35 43
REMARK SMILES IDX 84 44 78 45 77 46 36 48 66 49 47 50 65 51 48 52 51 53 64 54
REMARK SMILES IDX 82 55 49 56 50 57 63 59 83 60 52 61 37 62 38 63 46 64 39 65
REMARK SMILES IDX 45 66 40 67 41 68 42 69 43 70 44 71 67 72 68 73 76 74 69 75
REMARK SMILES IDX 75 76 70 77 71 78 72 79 73 80 74 81 53 82 54 83 62 84 55 85
REMARK SMILES IDX 61 86 56 87 57 88 58 89 59 90 60 91
REMARK H PARENT 11 15 81 47 51 58
REMARK Flexibility Score: inf
ROOT
ATOM      1  C   UNL A   1      30.642  28.563  23.837  1.00  0.00     0.202 C 
ENDROOT
BRANCH   1   2
ATOM      2  C   UNL A   1      31.506  28.061  22.677  1.00  0.00     0.261 C 
BRANCH   2   3
ATOM      3  O   UNL A   1      32.331  26.938  23.051  1.00  0.00    -0.461 OA
BRANCH   3   4
ATOM      4  C   UNL A   1      32.391  25.922  22.143  1.00  0.00     0.335 C 
ATOM      5  O   UNL A   1      31.938  25.976  21.006  1.00  0.00    -0.249 OA
BRANCH   4   6
ATOM      6  C   UNL A   1      33.085  24.686  22.730  1.00  0.00     0.228 C 
ATOM      7  C   UNL A   1      31.793  22.983  23.673  1.00  0.00     0.138 C 
ATOM      8  C   UNL A   1      32.772  22.317  22.733  1.00  0.00     0.037 C 
ATOM      9  O   UNL A   1      32.386  24.267  23.925  1.00  0.00    -0.361 OA
ATOM     10  C   UNL A   1      33.123  23.466  21.813  1.00  0.00     0.047 C 
BRANCH   7  11
ATOM     11  C   UNL A   1      31.550  22.268  25.006  1.00  0.00     0.148 C 
BRANCH  11  12
ATOM     12  N   UNL A   1      32.485  22.763  26.005  1.00  0.00    -0.349 N 
ATOM     13  C   UNL A   1      33.773  22.463  26.354  1.00  0.00     0.265 C 
ATOM     14  O   UNL A   1      34.233  23.193  27.239  1.00  0.00    -0.268 OA
ATOM     15  H   UNL A   1      32.101  23.480  26.559  1.00  0.00     0.163 HD
BRANCH  13  16
ATOM     16  C   UNL A   1      34.570  21.420  25.739  1.00  0.00     0.136 A 
ATOM     17  C   UNL A   1      34.411  20.119  25.260  1.00  0.00     0.088 A 
ATOM     18  N   UNL A   1      35.593  19.509  24.828  1.00  0.00    -0.142 NA
ATOM     19  N   UNL A   1      36.644  20.289  24.954  1.00  0.00    -0.090 NA
ATOM     20  S   UNL A   1      36.269  21.766  25.609  1.00  0.00    -0.006 S 
BRANCH  17  21
ATOM     21  C   UNL A   1      33.206  19.239  25.189  1.00  0.00     0.060 C 
BRANCH  21  22
ATOM     22  C   UNL A   1      33.491  17.898  24.493  1.00  0.00     0.003 C 
ATOM     23  C   UNL A   1      32.988  16.688  25.267  1.00  0.00     0.004 C 
ENDBRANCH  21  22
ENDBRANCH  17  21
ENDBRANCH  13  16
ENDBRANCH  11  12
ENDBRANCH   7  11
ENDBRANCH   4   6
ENDBRANCH   3   4
ENDBRANCH   2   3
ENDBRANCH   1   2
BRANCH   1  24
ATOM     24  O   UNL A   1      31.251  28.577  25.128  1.00  0.00    -0.374 OA
BRANCH  24  25
ATOM     25  C   UNL A   1      32.166  29.632  25.404  1.00  0.00     0.202 C 
BRANCH  25  26
ATOM     26  C   UNL A   1      32.645  29.760  26.858  1.00  0.00     0.261 C 
BRANCH  26  27
ATOM     27  O   UNL A   1      34.077  29.859  26.966  1.00  0.00    -0.460 OA
BRANCH  27  28
ATOM     28  C   UNL A   1      34.519  31.005  27.539  1.00  0.00     0.338 C 
ATOM     29  O   UNL A   1      33.984  32.106  27.490  1.00  0.00    -0.246 OA
BRANCH  28  30
ATOM     30  C   UNL A   1      35.679  30.736  28.406  1.00  0.00     0.060 A 
ATOM     31  C   UNL A   1      36.840  31.484  28.179  1.00  0.00     0.016 A 
ATOM     32  C   UNL A   1      35.665  29.726  29.373  1.00  0.00     0.016 A 
ATOM     33  C   UNL A   1      38.005  31.200  28.889  1.00  0.00     0.010 A 
ATOM     34  C   UNL A   1      36.841  29.436  30.077  1.00  0.00     0.010 A 
ATOM     35  C   UNL A   1      38.023  30.152  29.818  1.00  0.00    -0.014 A 
BRANCH  35  36
ATOM     36  C   UNL A   1      39.315  29.736  30.418  1.00  0.00     0.031 A 
ATOM     37  C   UNL A   1      39.821  30.448  31.643  1.00  0.00     0.074 A 
ATOM     38  C   UNL A   1      40.008  28.704  29.903  1.00  0.00     0.049 A 
ATOM     39  N   UNL A   1      40.911  30.232  32.333  1.00  0.00    -0.248 NA
ATOM     40  C   UNL A   1      38.988  31.546  32.160  1.00  0.00     0.031 C 
ATOM     41  C   UNL A   1      39.603  27.908  28.745  1.00  0.00     0.029 A 
ATOM     42  N   UNL A   1      41.200  28.147  30.294  1.00  0.00    -0.354 N 
ATOM     43  C   UNL A   1      40.896  31.164  33.366  1.00  0.00     0.074 A 
ATOM     44  C   UNL A   1      39.703  31.964  33.194  1.00  0.00     0.031 C 
ATOM     45  C   UNL A   1      40.535  26.966  28.516  1.00  0.00     0.029 A 
ATOM     46  C   UNL A   1      41.612  27.110  29.494  1.00  0.00     0.049 A 
ATOM     47  H   UNL A   1      41.712  28.461  31.074  1.00  0.00     0.167 HD
ATOM     48  C   UNL A   1      41.790  31.333  34.369  1.00  0.00     0.031 A 
ATOM     49  C   UNL A   1      42.738  26.368  29.534  1.00  0.00     0.031 A 
ATOM     50  C   UNL A   1      42.985  30.548  34.530  1.00  0.00     0.049 A 
ATOM     51  C   UNL A   1      43.754  26.624  30.615  1.00  0.00     0.074 A 
ATOM     52  C   UNL A   1      43.944  30.635  35.524  1.00  0.00     0.029 A 
ATOM     53  N   UNL A   1      43.390  29.538  33.671  1.00  0.00    -0.354 N 
ATOM     54  N   UNL A   1      43.708  27.490  31.600  1.00  0.00    -0.248 NA
ATOM     55  C   UNL A   1      44.971  25.799  30.593  1.00  0.00     0.031 C 
ATOM     56  C   UNL A   1      44.957  29.713  35.235  1.00  0.00     0.029 A 
ATOM     57  C   UNL A   1      44.600  29.015  34.093  1.00  0.00     0.049 A 
ATOM     58  H   UNL A   1      42.890  29.237  32.878  1.00  0.00     0.167 HD
ATOM     59  C   UNL A   1      44.880  27.300  32.325  1.00  0.00     0.074 A 
ATOM     60  C   UNL A   1      45.606  26.227  31.676  1.00  0.00     0.031 C 
ATOM     61  C   UNL A   1      45.316  27.954  33.430  1.00  0.00     0.031 A 
BRANCH  48  62
ATOM     62  C   UNL A   1      41.523  32.438  35.357  1.00  0.00    -0.014 A 
ATOM     63  C   UNL A   1      40.822  32.192  36.550  1.00  0.00     0.010 A 
ATOM     64  C   UNL A   1      42.015  33.731  35.103  1.00  0.00     0.010 A 
ATOM     65  C   UNL A   1      40.584  33.230  37.456  1.00  0.00     0.020 A 
ATOM     66  C   UNL A   1      41.799  34.766  36.017  1.00  0.00     0.020 A 
ATOM     67  C   UNL A   1      41.070  34.512  37.181  1.00  0.00     0.054 A 
BRANCH  67  68
ATOM     68  S   UNL A   1      40.763  35.837  38.380  1.00  0.00     0.124 S 
ATOM     69  O   UNL A   1      42.120  36.197  38.785  1.00  0.00    -0.237 OA
ATOM     70  O   UNL A   1      40.060  36.838  37.581  1.00  0.00    -0.237 OA
ATOM     71  O   UNL A   1      39.957  35.190  39.413  1.00  0.00    -0.744 OA
ENDBRANCH  67  68
ENDBRANCH  48  62
BRANCH  49  72
ATOM     72  C   UNL A   1      42.976  25.326  28.499  1.00  0.00    -0.014 A 
ATOM     73  C   UNL A   1      42.578  23.994  28.712  1.00  0.00     0.010 A 
ATOM     74  C   UNL A   1      43.603  25.666  27.287  1.00  0.00     0.010 A 
ATOM     75  C   UNL A   1      42.813  23.021  27.737  1.00  0.00     0.020 A 
ATOM     76  C   UNL A   1      43.817  24.702  26.299  1.00  0.00     0.020 A 
ATOM     77  C   UNL A   1      43.429  23.382  26.535  1.00  0.00     0.054 A 
BRANCH  77  78
ATOM     78  S   UNL A   1      43.671  22.118  25.255  1.00  0.00     0.124 S 
ATOM     79  O   UNL A   1      43.648  22.916  24.033  1.00  0.00    -0.237 OA
ATOM     80  O   UNL A   1      44.966  21.547  25.614  1.00  0.00    -0.237 OA
ATOM     81  O   UNL A   1      42.531  21.223  25.443  1.00  0.00    -0.744 OA
ENDBRANCH  77  78
ENDBRANCH  49  72
BRANCH  61  82
ATOM     82  C   UNL A   1      46.631  27.519  34.021  1.00  0.00    -0.014 A 
ATOM     83  C   UNL A   1      46.693  26.475  34.959  1.00  0.00     0.010 A 
ATOM     84  C   UNL A   1      47.824  28.127  33.589  1.00  0.00     0.010 A 
ATOM     85  C   UNL A   1      47.925  26.066  35.479  1.00  0.00     0.020 A 
ATOM     86  C   UNL A   1      49.059  27.704  34.088  1.00  0.00     0.020 A 
ATOM     87  C   UNL A   1      49.099  26.684  35.041  1.00  0.00     0.054 A 
BRANCH  87  88
ATOM     88  S   UNL A   1      50.689  26.108  35.698  1.00  0.00     0.124 S 
ATOM     89  O   UNL A   1      50.270  25.291  36.834  1.00  0.00    -0.237 OA
ATOM     90  O   UNL A   1      51.256  25.373  34.571  1.00  0.00    -0.237 OA
ATOM     91  O   UNL A   1      51.389  27.344  36.043  1.00  0.00    -0.744 OA
ENDBRANCH  87  88
ENDBRANCH  61  82
ENDBRANCH  35  36
ENDBRANCH  28  30
ENDBRANCH  27  28
ENDBRANCH  26  27
ENDBRANCH  25  26
ENDBRANCH  24  25
ENDBRANCH   1  24
TORSDOF 22
ENDMDL
