MODEL 1
REMARK VINA RESULT:      -9.6      0.000      0.000
REMARK SMILES CO[C@@H]1C[C@@H](C(=O)OCCOCCOC(=O)c2ccc(-c3c4nc(c(-c5ccc(S(=O)(=O)[O-])cc5)c5ccc([nH]5)c(-c5ccc(S(=O)(=O)[O-])cc5)c5nc(c(-c6ccc(S(=O)(=O)[O-])cc6)c6ccc3[nH]6)C=C5)C=C4)cc2)N(C(=O)c2nc(C(C)C)n[nH]2)C1
REMARK SMILES IDX 11 1 10 2 9 3 8 4 6 5 7 6 5 7 3 8 4 9 88 10 77 11 2 12 1 13
REMARK SMILES IDX 78 14 79 15 80 16 81 17 87 18 82 19 86 20 83 22 84 23 85 24
REMARK SMILES IDX 12 25 13 26 14 27 15 28 16 29 17 30 18 31 76 32 19 33 75 34
REMARK SMILES IDX 20 35 21 36 22 37 69 38 23 39 74 40 68 41 70 42 24 43 73 44
REMARK SMILES IDX 67 45 66 46 25 48 55 49 36 50 54 51 37 52 40 53 53 54 71 55
REMARK SMILES IDX 38 56 39 57 52 59 72 60 41 61 26 62 27 63 35 64 28 65 34 66
REMARK SMILES IDX 29 67 30 68 31 69 32 70 33 71 56 72 57 73 65 74 58 75 64 76
REMARK SMILES IDX 59 77 60 78 61 79 62 80 63 81 42 82 43 83 51 84 44 85 50 86
REMARK SMILES IDX 45 87 46 88 47 89 48 90 49 91
REMARK H PARENT 87 21 70 47 40 58
REMARK Flexibility Score: inf
ROOT
ATOM      1  O   UNL A   1      34.546  23.165  27.227  1.00  0.00    -0.374 OA
ENDROOT
BRANCH   1   2
ATOM      2  C   UNL A   1      33.271  22.636  26.828  1.00  0.00     0.202 C 
BRANCH   2   3
ATOM      3  C   UNL A   1      32.179  23.642  26.395  1.00  0.00     0.261 C 
BRANCH   3   4
ATOM      4  O   UNL A   1      32.636  25.004  26.474  1.00  0.00    -0.462 OA
BRANCH   4   5
ATOM      5  C   UNL A   1      31.740  25.969  26.167  1.00  0.00     0.329 C 
ATOM      6  O   UNL A   1      30.525  25.808  26.179  1.00  0.00    -0.250 OA
BRANCH   5   7
ATOM      7  C   UNL A   1      32.414  27.348  26.125  1.00  0.00     0.198 C 
ATOM      8  C   UNL A   1      32.426  29.589  26.946  1.00  0.00     0.140 C 
ATOM      9  C   UNL A   1      31.667  28.280  27.100  1.00  0.00     0.071 C 
ATOM     10  C   UNL A   1      32.727  29.614  25.441  1.00  0.00     0.153 C 
ATOM     11  N   UNL A   1      32.629  28.225  24.958  1.00  0.00    -0.319 N 
BRANCH   8  12
ATOM     12  O   UNL A   1      33.592  29.483  27.772  1.00  0.00    -0.380 OA
ATOM     13  C   UNL A   1      34.591  30.454  27.490  1.00  0.00     0.195 C 
ENDBRANCH   8  12
BRANCH  11  14
ATOM     14  C   UNL A   1      32.973  28.022  23.618  1.00  0.00     0.292 C 
ATOM     15  O   UNL A   1      33.430  28.989  22.998  1.00  0.00    -0.265 OA
BRANCH  14  16
ATOM     16  C   UNL A   1      32.723  26.802  22.865  1.00  0.00     0.214 A 
ATOM     17  N   UNL A   1      32.741  25.548  23.303  1.00  0.00    -0.207 NA
ATOM     18  N   UNL A   1      32.888  26.758  21.508  1.00  0.00    -0.255 N 
ATOM     19  C   UNL A   1      33.039  24.790  22.183  1.00  0.00     0.153 A 
ATOM     20  N   UNL A   1      33.021  25.503  21.051  1.00  0.00    -0.158 NA
ATOM     21  H   UNL A   1      32.907  27.557  20.931  1.00  0.00     0.192 HD
BRANCH  19  22
ATOM     22  C   UNL A   1      33.375  23.311  22.188  1.00  0.00     0.053 C 
ATOM     23  C   UNL A   1      34.694  23.013  22.921  1.00  0.00     0.016 C 
ATOM     24  C   UNL A   1      32.310  22.388  22.794  1.00  0.00     0.016 C 
ENDBRANCH  19  22
ENDBRANCH  14  16
ENDBRANCH  11  14
ENDBRANCH   5   7
ENDBRANCH   4   5
ENDBRANCH   3   4
ENDBRANCH   2   3
ENDBRANCH   1   2
BRANCH   1  25
ATOM     25  C   UNL A   1      35.624  22.939  26.311  1.00  0.00     0.202 C 
BRANCH  25  26
ATOM     26  C   UNL A   1      36.385  24.181  25.810  1.00  0.00     0.261 C 
BRANCH  26  27
ATOM     27  O   UNL A   1      37.644  23.754  25.221  1.00  0.00    -0.460 OA
BRANCH  27  28
ATOM     28  C   UNL A   1      38.595  23.219  26.038  1.00  0.00     0.338 C 
ATOM     29  O   UNL A   1      38.883  22.036  26.100  1.00  0.00    -0.246 OA
BRANCH  28  30
ATOM     30  C   UNL A   1      39.329  24.298  26.789  1.00  0.00     0.060 A 
ATOM     31  C   UNL A   1      39.209  24.403  28.168  1.00  0.00     0.016 A 
ATOM     32  C   UNL A   1      40.036  25.305  26.138  1.00  0.00     0.016 A 
ATOM     33  C   UNL A   1      39.596  25.538  28.880  1.00  0.00     0.010 A 
ATOM     34  C   UNL A   1      40.536  26.407  26.868  1.00  0.00     0.010 A 
ATOM     35  C   UNL A   1      40.268  26.574  28.246  1.00  0.00    -0.014 A 
BRANCH  35  36
ATOM     36  C   UNL A   1      40.570  27.863  28.952  1.00  0.00     0.031 A 
ATOM     37  C   UNL A   1      41.926  28.022  29.595  1.00  0.00     0.074 A 
ATOM     38  C   UNL A   1      39.735  28.927  28.995  1.00  0.00     0.049 A 
ATOM     39  N   UNL A   1      42.290  28.775  30.598  1.00  0.00    -0.248 NA
ATOM     40  C   UNL A   1      43.014  27.200  29.036  1.00  0.00     0.031 C 
ATOM     41  C   UNL A   1      38.472  29.073  28.268  1.00  0.00     0.029 A 
ATOM     42  N   UNL A   1      39.839  30.113  29.693  1.00  0.00    -0.354 N 
ATOM     43  C   UNL A   1      43.609  28.424  30.873  1.00  0.00     0.074 A 
ATOM     44  C   UNL A   1      43.995  27.431  29.895  1.00  0.00     0.031 C 
ATOM     45  C   UNL A   1      37.951  30.287  28.516  1.00  0.00     0.029 A 
ATOM     46  C   UNL A   1      38.746  30.940  29.548  1.00  0.00     0.049 A 
ATOM     47  H   UNL A   1      40.622  30.347  30.244  1.00  0.00     0.167 HD
ATOM     48  C   UNL A   1      44.397  28.864  31.882  1.00  0.00     0.031 A 
ATOM     49  C   UNL A   1      38.365  32.040  30.234  1.00  0.00     0.031 A 
ATOM     50  C   UNL A   1      44.000  29.905  32.794  1.00  0.00     0.049 A 
ATOM     51  C   UNL A   1      39.197  32.474  31.414  1.00  0.00     0.074 A 
ATOM     52  C   UNL A   1      44.661  30.382  33.912  1.00  0.00     0.029 A 
ATOM     53  N   UNL A   1      42.846  30.662  32.656  1.00  0.00    -0.354 N 
ATOM     54  N   UNL A   1      40.335  31.982  31.844  1.00  0.00    -0.248 NA
ATOM     55  C   UNL A   1      38.668  33.572  32.234  1.00  0.00     0.031 C 
ATOM     56  C   UNL A   1      43.885  31.405  34.470  1.00  0.00     0.029 A 
ATOM     57  C   UNL A   1      42.773  31.603  33.666  1.00  0.00     0.049 A 
ATOM     58  H   UNL A   1      42.176  30.546  31.944  1.00  0.00     0.167 HD
ATOM     59  C   UNL A   1      40.659  32.714  32.981  1.00  0.00     0.074 A 
ATOM     60  C   UNL A   1      39.609  33.696  33.161  1.00  0.00     0.031 C 
ATOM     61  C   UNL A   1      41.724  32.579  33.811  1.00  0.00     0.031 A 
BRANCH  48  62
ATOM     62  C   UNL A   1      45.697  28.142  32.121  1.00  0.00    -0.014 A 
ATOM     63  C   UNL A   1      45.783  26.972  32.893  1.00  0.00     0.010 A 
ATOM     64  C   UNL A   1      46.871  28.665  31.544  1.00  0.00     0.010 A 
ATOM     65  C   UNL A   1      47.025  26.365  33.119  1.00  0.00     0.020 A 
ATOM     66  C   UNL A   1      48.108  28.049  31.744  1.00  0.00     0.020 A 
ATOM     67  C   UNL A   1      48.180  26.912  32.549  1.00  0.00     0.054 A 
BRANCH  67  68
ATOM     68  S   UNL A   1      49.778  26.108  32.858  1.00  0.00     0.124 S 
ATOM     69  O   UNL A   1      49.795  26.023  34.316  1.00  0.00    -0.237 OA
ATOM     70  O   UNL A   1      49.639  24.835  32.156  1.00  0.00    -0.237 OA
ATOM     71  O   UNL A   1      50.748  27.033  32.278  1.00  0.00    -0.744 OA
ENDBRANCH  67  68
ENDBRANCH  48  62
BRANCH  49  72
ATOM     72  C   UNL A   1      37.071  32.719  29.919  1.00  0.00    -0.014 A 
ATOM     73  C   UNL A   1      35.871  32.328  30.541  1.00  0.00     0.010 A 
ATOM     74  C   UNL A   1      37.033  33.776  28.989  1.00  0.00     0.010 A 
ATOM     75  C   UNL A   1      34.668  32.983  30.245  1.00  0.00     0.020 A 
ATOM     76  C   UNL A   1      35.842  34.459  28.719  1.00  0.00     0.020 A 
ATOM     77  C   UNL A   1      34.664  34.051  29.343  1.00  0.00     0.054 A 
BRANCH  77  78
ATOM     78  S   UNL A   1      33.113  34.946  29.034  1.00  0.00     0.124 S 
ATOM     79  O   UNL A   1      32.569  35.085  30.380  1.00  0.00    -0.237 OA
ATOM     80  O   UNL A   1      33.578  36.182  28.408  1.00  0.00    -0.237 OA
ATOM     81  O   UNL A   1      32.374  34.050  28.148  1.00  0.00    -0.744 OA
ENDBRANCH  77  78
ENDBRANCH  49  72
BRANCH  61  82
ATOM     82  C   UNL A   1      41.839  33.550  34.951  1.00  0.00    -0.014 A 
ATOM     83  C   UNL A   1      41.314  33.252  36.221  1.00  0.00     0.010 A 
ATOM     84  C   UNL A   1      42.557  34.745  34.764  1.00  0.00     0.010 A 
ATOM     85  C   UNL A   1      41.490  34.145  37.281  1.00  0.00     0.020 A 
ATOM     86  C   UNL A   1      42.754  35.629  35.826  1.00  0.00     0.020 A 
ATOM     87  C   UNL A   1      42.211  35.328  37.076  1.00  0.00     0.054 A 
BRANCH  87  88
ATOM     88  S   UNL A   1      42.481  36.441  38.482  1.00  0.00     0.124 S 
ATOM     89  O   UNL A   1      43.320  35.628  39.356  1.00  0.00    -0.237 OA
ATOM     90  O   UNL A   1      43.142  37.587  37.862  1.00  0.00    -0.237 OA
ATOM     91  O   UNL A   1      41.132  36.703  38.980  1.00  0.00    -0.744 OA
ENDBRANCH  87  88
ENDBRANCH  61  82
ENDBRANCH  35  36
ENDBRANCH  28  30
ENDBRANCH  27  28
ENDBRANCH  26  27
ENDBRANCH  25  26
ENDBRANCH   1  25
TORSDOF 21
ENDMDL
MODEL 2
REMARK VINA RESULT:      -9.5      5.028     10.055
REMARK SMILES CO[C@@H]1C[C@@H](C(=O)OCCOCCOC(=O)c2ccc(-c3c4nc(c(-c5ccc(S(=O)(=O)[O-])cc5)c5ccc([nH]5)c(-c5ccc(S(=O)(=O)[O-])cc5)c5nc(c(-c6ccc(S(=O)(=O)[O-])cc6)c6ccc3[nH]6)C=C5)C=C4)cc2)N(C(=O)c2nc(C(C)C)n[nH]2)C1
REMARK SMILES IDX 11 1 10 2 9 3 8 4 6 5 7 6 5 7 3 8 4 9 88 10 77 11 2 12 1 13
REMARK SMILES IDX 78 14 79 15 80 16 81 17 87 18 82 19 86 20 83 22 84 23 85 24
REMARK SMILES IDX 12 25 13 26 14 27 15 28 16 29 17 30 18 31 76 32 19 33 75 34
REMARK SMILES IDX 20 35 21 36 22 37 69 38 23 39 74 40 68 41 70 42 24 43 73 44
REMARK SMILES IDX 67 45 66 46 25 48 55 49 36 50 54 51 37 52 40 53 53 54 71 55
REMARK SMILES IDX 38 56 39 57 52 59 72 60 41 61 26 62 27 63 35 64 28 65 34 66
REMARK SMILES IDX 29 67 30 68 31 69 32 70 33 71 56 72 57 73 65 74 58 75 64 76
REMARK SMILES IDX 59 77 60 78 61 79 62 80 63 81 42 82 43 83 51 84 44 85 50 86
REMARK SMILES IDX 45 87 46 88 47 89 48 90 49 91
REMARK H PARENT 87 21 70 47 40 58
REMARK Flexibility Score: inf
ROOT
ATOM      1  O   UNL A   1      37.205  22.877  24.273  1.00  0.00    -0.374 OA
ENDROOT
BRANCH   1   2
ATOM      2  C   UNL A   1      36.332  22.837  23.132  1.00  0.00     0.202 C 
BRANCH   2   3
ATOM      3  C   UNL A   1      34.810  22.934  23.387  1.00  0.00     0.261 C 
BRANCH   3   4
ATOM      4  O   UNL A   1      34.415  24.251  23.809  1.00  0.00    -0.462 OA
BRANCH   4   5
ATOM      5  C   UNL A   1      34.015  24.389  25.092  1.00  0.00     0.329 C 
ATOM      6  O   UNL A   1      34.781  24.508  26.042  1.00  0.00    -0.250 OA
BRANCH   5   7
ATOM      7  C   UNL A   1      32.514  24.704  25.168  1.00  0.00     0.198 C 
ATOM      8  C   UNL A   1      30.826  26.218  25.916  1.00  0.00     0.140 C 
ATOM      9  C   UNL A   1      32.337  26.044  25.909  1.00  0.00     0.071 C 
ATOM     10  C   UNL A   1      30.337  24.781  26.146  1.00  0.00     0.153 C 
ATOM     11  N   UNL A   1      31.436  23.882  25.751  1.00  0.00    -0.319 N 
BRANCH   8  12
ATOM     12  O   UNL A   1      30.472  26.756  24.636  1.00  0.00    -0.380 OA
ATOM     13  C   UNL A   1      29.428  26.049  23.981  1.00  0.00     0.195 C 
ENDBRANCH   8  12
BRANCH  11  14
ATOM     14  C   UNL A   1      31.146  22.514  25.790  1.00  0.00     0.292 C 
ATOM     15  O   UNL A   1      30.112  22.171  26.377  1.00  0.00    -0.265 OA
BRANCH  14  16
ATOM     16  C   UNL A   1      32.022  21.458  25.305  1.00  0.00     0.214 A 
ATOM     17  N   UNL A   1      31.803  20.600  24.315  1.00  0.00    -0.207 NA
ATOM     18  N   UNL A   1      32.991  20.915  26.104  1.00  0.00    -0.255 N 
ATOM     19  C   UNL A   1      32.582  19.499  24.627  1.00  0.00     0.153 A 
ATOM     20  N   UNL A   1      33.405  19.717  25.660  1.00  0.00    -0.158 NA
ATOM     21  H   UNL A   1      33.345  21.353  26.912  1.00  0.00     0.192 HD
BRANCH  19  22
ATOM     22  C   UNL A   1      32.534  18.160  23.917  1.00  0.00     0.053 C 
ATOM     23  C   UNL A   1      32.413  18.311  22.391  1.00  0.00     0.016 C 
ATOM     24  C   UNL A   1      33.721  17.224  24.178  1.00  0.00     0.016 C 
ENDBRANCH  19  22
ENDBRANCH  14  16
ENDBRANCH  11  14
ENDBRANCH   5   7
ENDBRANCH   4   5
ENDBRANCH   3   4
ENDBRANCH   2   3
ENDBRANCH   1   2
BRANCH   1  25
ATOM     25  C   UNL A   1      37.138  21.741  25.142  1.00  0.00     0.202 C 
BRANCH  25  26
ATOM     26  C   UNL A   1      38.362  20.804  25.160  1.00  0.00     0.261 C 
BRANCH  26  27
ATOM     27  O   UNL A   1      39.216  21.170  26.278  1.00  0.00    -0.460 OA
BRANCH  27  28
ATOM     28  C   UNL A   1      40.426  20.553  26.399  1.00  0.00     0.338 C 
ATOM     29  O   UNL A   1      40.615  19.353  26.304  1.00  0.00    -0.246 OA
BRANCH  28  30
ATOM     30  C   UNL A   1      41.531  21.563  26.561  1.00  0.00     0.060 A 
ATOM     31  C   UNL A   1      42.298  21.589  27.718  1.00  0.00     0.016 A 
ATOM     32  C   UNL A   1      41.742  22.586  25.641  1.00  0.00     0.016 A 
ATOM     33  C   UNL A   1      43.110  22.667  28.068  1.00  0.00     0.010 A 
ATOM     34  C   UNL A   1      42.653  23.626  25.932  1.00  0.00     0.010 A 
ATOM     35  C   UNL A   1      43.307  23.718  27.183  1.00  0.00    -0.014 A 
BRANCH  35  36
ATOM     36  C   UNL A   1      44.058  24.954  27.585  1.00  0.00     0.031 A 
ATOM     37  C   UNL A   1      43.291  26.066  28.257  1.00  0.00     0.074 A 
ATOM     38  C   UNL A   1      45.395  25.115  27.450  1.00  0.00     0.049 A 
ATOM     39  N   UNL A   1      43.545  27.347  28.298  1.00  0.00    -0.248 NA
ATOM     40  C   UNL A   1      42.058  25.676  28.962  1.00  0.00     0.031 C 
ATOM     41  C   UNL A   1      46.358  24.096  27.027  1.00  0.00     0.029 A 
ATOM     42  N   UNL A   1      46.184  26.226  27.671  1.00  0.00    -0.354 N 
ATOM     43  C   UNL A   1      42.442  27.929  28.918  1.00  0.00     0.074 A 
ATOM     44  C   UNL A   1      41.546  26.855  29.283  1.00  0.00     0.031 C 
ATOM     45  C   UNL A   1      47.598  24.608  27.067  1.00  0.00     0.029 A 
ATOM     46  C   UNL A   1      47.511  26.035  27.352  1.00  0.00     0.049 A 
ATOM     47  H   UNL A   1      45.832  27.075  28.024  1.00  0.00     0.167 HD
ATOM     48  C   UNL A   1      42.193  29.245  29.114  1.00  0.00     0.031 A 
ATOM     49  C   UNL A   1      48.524  26.915  27.199  1.00  0.00     0.031 A 
ATOM     50  C   UNL A   1      43.142  30.281  28.799  1.00  0.00     0.049 A 
ATOM     51  C   UNL A   1      48.224  28.386  27.329  1.00  0.00     0.074 A 
ATOM     52  C   UNL A   1      42.985  31.654  28.862  1.00  0.00     0.029 A 
ATOM     53  N   UNL A   1      44.450  30.044  28.402  1.00  0.00    -0.354 N 
ATOM     54  N   UNL A   1      47.099  28.969  27.672  1.00  0.00    -0.248 NA
ATOM     55  C   UNL A   1      49.309  29.320  26.997  1.00  0.00     0.031 C 
ATOM     56  C   UNL A   1      44.190  32.246  28.467  1.00  0.00     0.029 A 
ATOM     57  C   UNL A   1      45.113  31.242  28.215  1.00  0.00     0.049 A 
ATOM     58  H   UNL A   1      44.847  29.153  28.270  1.00  0.00     0.167 HD
ATOM     59  C   UNL A   1      47.344  30.337  27.603  1.00  0.00     0.074 A 
ATOM     60  C   UNL A   1      48.728  30.495  27.205  1.00  0.00     0.031 C 
ATOM     61  C   UNL A   1      46.496  31.370  27.835  1.00  0.00     0.031 A 
BRANCH  48  62
ATOM     62  C   UNL A   1      40.813  29.635  29.574  1.00  0.00    -0.014 A 
ATOM     63  C   UNL A   1      39.701  29.637  28.717  1.00  0.00     0.010 A 
ATOM     64  C   UNL A   1      40.637  30.014  30.920  1.00  0.00     0.010 A 
ATOM     65  C   UNL A   1      38.448  30.051  29.187  1.00  0.00     0.020 A 
ATOM     66  C   UNL A   1      39.384  30.402  31.400  1.00  0.00     0.020 A 
ATOM     67  C   UNL A   1      38.300  30.437  30.523  1.00  0.00     0.054 A 
BRANCH  67  68
ATOM     68  S   UNL A   1      36.667  30.972  31.108  1.00  0.00     0.124 S 
ATOM     69  O   UNL A   1      35.968  29.697  31.253  1.00  0.00    -0.237 OA
ATOM     70  O   UNL A   1      36.982  31.660  32.356  1.00  0.00    -0.237 OA
ATOM     71  O   UNL A   1      36.177  31.830  30.032  1.00  0.00    -0.744 OA
ENDBRANCH  67  68
ENDBRANCH  48  62
BRANCH  49  72
ATOM     72  C   UNL A   1      49.877  26.446  26.765  1.00  0.00    -0.014 A 
ATOM     73  C   UNL A   1      50.818  25.971  27.696  1.00  0.00     0.010 A 
ATOM     74  C   UNL A   1      50.232  26.469  25.402  1.00  0.00     0.010 A 
ATOM     75  C   UNL A   1      52.077  25.522  27.273  1.00  0.00     0.020 A 
ATOM     76  C   UNL A   1      51.471  25.986  24.970  1.00  0.00     0.020 A 
ATOM     77  C   UNL A   1      52.391  25.524  25.911  1.00  0.00     0.054 A 
BRANCH  77  78
ATOM     78  S   UNL A   1      53.992  24.860  25.369  1.00  0.00     0.124 S 
ATOM     79  O   UNL A   1      53.680  23.451  25.152  1.00  0.00    -0.237 OA
ATOM     80  O   UNL A   1      54.269  25.640  24.164  1.00  0.00    -0.237 OA
ATOM     81  O   UNL A   1      54.876  25.140  26.498  1.00  0.00    -0.744 OA
ENDBRANCH  77  78
ENDBRANCH  49  72
BRANCH  61  82
ATOM     82  C   UNL A   1      47.054  32.760  27.723  1.00  0.00    -0.014 A 
ATOM     83  C   UNL A   1      46.988  33.479  26.517  1.00  0.00     0.010 A 
ATOM     84  C   UNL A   1      47.581  33.382  28.870  1.00  0.00     0.010 A 
ATOM     85  C   UNL A   1      47.458  34.794  26.457  1.00  0.00     0.020 A 
ATOM     86  C   UNL A   1      48.030  34.702  28.819  1.00  0.00     0.020 A 
ATOM     87  C   UNL A   1      47.975  35.397  27.610  1.00  0.00     0.054 A 
BRANCH  87  88
ATOM     88  S   UNL A   1      48.520  37.125  27.523  1.00  0.00     0.124 S 
ATOM     89  O   UNL A   1      48.054  37.654  28.801  1.00  0.00    -0.237 OA
ATOM     90  O   UNL A   1      49.969  36.999  27.384  1.00  0.00    -0.237 OA
ATOM     91  O   UNL A   1      47.831  37.646  26.345  1.00  0.00    -0.744 OA
ENDBRANCH  87  88
ENDBRANCH  61  82
ENDBRANCH  35  36
ENDBRANCH  28  30
ENDBRANCH  27  28
ENDBRANCH  26  27
ENDBRANCH  25  26
ENDBRANCH   1  25
TORSDOF 21
ENDMDL
MODEL 3
REMARK VINA RESULT:      -9.5      2.983      9.125
REMARK SMILES CO[C@@H]1C[C@@H](C(=O)OCCOCCOC(=O)c2ccc(-c3c4nc(c(-c5ccc(S(=O)(=O)[O-])cc5)c5ccc([nH]5)c(-c5ccc(S(=O)(=O)[O-])cc5)c5nc(c(-c6ccc(S(=O)(=O)[O-])cc6)c6ccc3[nH]6)C=C5)C=C4)cc2)N(C(=O)c2nc(C(C)C)n[nH]2)C1
REMARK SMILES IDX 11 1 10 2 9 3 8 4 6 5 7 6 5 7 3 8 4 9 88 10 77 11 2 12 1 13
REMARK SMILES IDX 78 14 79 15 80 16 81 17 87 18 82 19 86 20 83 22 84 23 85 24
REMARK SMILES IDX 12 25 13 26 14 27 15 28 16 29 17 30 18 31 76 32 19 33 75 34
REMARK SMILES IDX 20 35 21 36 22 37 69 38 23 39 74 40 68 41 70 42 24 43 73 44
REMARK SMILES IDX 67 45 66 46 25 48 55 49 36 50 54 51 37 52 40 53 53 54 71 55
REMARK SMILES IDX 38 56 39 57 52 59 72 60 41 61 26 62 27 63 35 64 28 65 34 66
REMARK SMILES IDX 29 67 30 68 31 69 32 70 33 71 56 72 57 73 65 74 58 75 64 76
REMARK SMILES IDX 59 77 60 78 61 79 62 80 63 81 42 82 43 83 51 84 44 85 50 86
REMARK SMILES IDX 45 87 46 88 47 89 48 90 49 91
REMARK H PARENT 87 21 70 47 40 58
REMARK Flexibility Score: inf
ROOT
ATOM      1  O   UNL A   1      37.075  23.452  24.629  1.00  0.00    -0.374 OA
ENDROOT
BRANCH   1   2
ATOM      2  C   UNL A   1      35.982  22.533  24.468  1.00  0.00     0.202 C 
BRANCH   2   3
ATOM      3  C   UNL A   1      34.710  23.047  23.756  1.00  0.00     0.261 C 
BRANCH   3   4
ATOM      4  O   UNL A   1      34.695  24.480  23.640  1.00  0.00    -0.462 OA
BRANCH   4   5
ATOM      5  C   UNL A   1      33.551  25.047  23.198  1.00  0.00     0.329 C 
ATOM      6  O   UNL A   1      33.169  25.007  22.034  1.00  0.00    -0.250 OA
BRANCH   5   7
ATOM      7  C   UNL A   1      32.650  25.453  24.373  1.00  0.00     0.198 C 
ATOM      8  C   UNL A   1      30.747  24.913  25.709  1.00  0.00     0.140 C 
ATOM      9  C   UNL A   1      31.555  24.381  24.535  1.00  0.00     0.071 C 
ATOM     10  C   UNL A   1      30.751  26.425  25.445  1.00  0.00     0.153 C 
ATOM     11  N   UNL A   1      31.889  26.705  24.552  1.00  0.00    -0.319 N 
BRANCH   8  12
ATOM     12  O   UNL A   1      31.451  24.527  26.896  1.00  0.00    -0.380 OA
ATOM     13  C   UNL A   1      31.747  23.139  26.968  1.00  0.00     0.195 C 
ENDBRANCH   8  12
BRANCH  11  14
ATOM     14  C   UNL A   1      32.127  28.054  24.274  1.00  0.00     0.292 C 
ATOM     15  O   UNL A   1      33.103  28.583  24.821  1.00  0.00    -0.265 OA
BRANCH  14  16
ATOM     16  C   UNL A   1      31.252  28.915  23.492  1.00  0.00     0.214 A 
ATOM     17  N   UNL A   1      30.150  29.543  23.888  1.00  0.00    -0.207 NA
ATOM     18  N   UNL A   1      31.195  28.821  22.128  1.00  0.00    -0.255 N 
ATOM     19  C   UNL A   1      29.404  29.703  22.733  1.00  0.00     0.153 A 
ATOM     20  N   UNL A   1      30.077  29.369  21.626  1.00  0.00    -0.158 NA
ATOM     21  H   UNL A   1      31.895  28.400  21.578  1.00  0.00     0.192 HD
BRANCH  19  22
ATOM     22  C   UNL A   1      27.967  30.185  22.676  1.00  0.00     0.053 C 
ATOM     23  C   UNL A   1      26.969  29.104  23.125  1.00  0.00     0.016 C 
ATOM     24  C   UNL A   1      27.653  31.446  23.491  1.00  0.00     0.016 C 
ENDBRANCH  19  22
ENDBRANCH  14  16
ENDBRANCH  11  14
ENDBRANCH   5   7
ENDBRANCH   4   5
ENDBRANCH   3   4
ENDBRANCH   2   3
ENDBRANCH   1   2
BRANCH   1  25
ATOM     25  C   UNL A   1      37.467  23.717  25.981  1.00  0.00     0.202 C 
BRANCH  25  26
ATOM     26  C   UNL A   1      38.977  23.705  26.284  1.00  0.00     0.261 C 
BRANCH  26  27
ATOM     27  O   UNL A   1      39.226  24.522  27.461  1.00  0.00    -0.460 OA
BRANCH  27  28
ATOM     28  C   UNL A   1      39.914  25.689  27.308  1.00  0.00     0.338 C 
ATOM     29  O   UNL A   1      40.562  25.998  26.323  1.00  0.00    -0.246 OA
BRANCH  28  30
ATOM     30  C   UNL A   1      39.684  26.608  28.478  1.00  0.00     0.060 A 
ATOM     31  C   UNL A   1      40.438  27.764  28.625  1.00  0.00     0.016 A 
ATOM     32  C   UNL A   1      38.821  26.280  29.521  1.00  0.00     0.016 A 
ATOM     33  C   UNL A   1      40.501  28.484  29.818  1.00  0.00     0.010 A 
ATOM     34  C   UNL A   1      38.790  27.071  30.692  1.00  0.00     0.010 A 
ATOM     35  C   UNL A   1      39.679  28.153  30.886  1.00  0.00    -0.014 A 
BRANCH  35  36
ATOM     36  C   UNL A   1      39.824  28.817  32.225  1.00  0.00     0.031 A 
ATOM     37  C   UNL A   1      38.815  29.871  32.609  1.00  0.00     0.074 A 
ATOM     38  C   UNL A   1      40.758  28.487  33.146  1.00  0.00     0.049 A 
ATOM     39  N   UNL A   1      38.932  30.876  33.435  1.00  0.00    -0.248 NA
ATOM     40  C   UNL A   1      37.498  29.785  31.952  1.00  0.00     0.031 C 
ATOM     41  C   UNL A   1      41.693  27.362  33.076  1.00  0.00     0.029 A 
ATOM     42  N   UNL A   1      41.068  29.084  34.352  1.00  0.00    -0.354 N 
ATOM     43  C   UNL A   1      37.759  31.613  33.300  1.00  0.00     0.074 A 
ATOM     44  C   UNL A   1      36.922  30.908  32.355  1.00  0.00     0.031 C 
ATOM     45  C   UNL A   1      42.428  27.321  34.199  1.00  0.00     0.029 A 
ATOM     46  C   UNL A   1      42.143  28.509  34.994  1.00  0.00     0.049 A 
ATOM     47  H   UNL A   1      40.568  29.849  34.718  1.00  0.00     0.167 HD
ATOM     48  C   UNL A   1      37.443  32.793  33.882  1.00  0.00     0.031 A 
ATOM     49  C   UNL A   1      42.887  28.935  36.038  1.00  0.00     0.031 A 
ATOM     50  C   UNL A   1      38.272  33.430  34.872  1.00  0.00     0.049 A 
ATOM     51  C   UNL A   1      42.590  30.290  36.626  1.00  0.00     0.074 A 
ATOM     52  C   UNL A   1      38.118  34.665  35.474  1.00  0.00     0.029 A 
ATOM     53  N   UNL A   1      39.397  32.846  35.437  1.00  0.00    -0.354 N 
ATOM     54  N   UNL A   1      41.620  31.122  36.328  1.00  0.00    -0.248 NA
ATOM     55  C   UNL A   1      43.519  30.791  37.649  1.00  0.00     0.031 C 
ATOM     56  C   UNL A   1      39.172  34.842  36.378  1.00  0.00     0.029 A 
ATOM     57  C   UNL A   1      39.948  33.693  36.379  1.00  0.00     0.049 A 
ATOM     58  H   UNL A   1      39.752  31.958  35.199  1.00  0.00     0.167 HD
ATOM     59  C   UNL A   1      41.818  32.240  37.131  1.00  0.00     0.074 A 
ATOM     60  C   UNL A   1      42.988  31.971  37.941  1.00  0.00     0.031 C 
ATOM     61  C   UNL A   1      41.104  33.392  37.184  1.00  0.00     0.031 A 
BRANCH  48  62
ATOM     62  C   UNL A   1      36.223  33.519  33.378  1.00  0.00    -0.014 A 
ATOM     63  C   UNL A   1      34.922  33.193  33.793  1.00  0.00     0.010 A 
ATOM     64  C   UNL A   1      36.401  34.567  32.452  1.00  0.00     0.010 A 
ATOM     65  C   UNL A   1      33.820  33.872  33.258  1.00  0.00     0.020 A 
ATOM     66  C   UNL A   1      35.307  35.264  31.936  1.00  0.00     0.020 A 
ATOM     67  C   UNL A   1      34.019  34.898  32.328  1.00  0.00     0.054 A 
BRANCH  67  68
ATOM     68  S   UNL A   1      32.575  35.763  31.648  1.00  0.00     0.124 S 
ATOM     69  O   UNL A   1      31.496  35.254  32.491  1.00  0.00    -0.237 OA
ATOM     70  O   UNL A   1      32.919  37.168  31.848  1.00  0.00    -0.237 OA
ATOM     71  O   UNL A   1      32.534  35.326  30.255  1.00  0.00    -0.744 OA
ENDBRANCH  67  68
ENDBRANCH  48  62
BRANCH  49  72
ATOM     72  C   UNL A   1      44.069  28.143  36.499  1.00  0.00    -0.014 A 
ATOM     73  C   UNL A   1      45.345  28.342  35.941  1.00  0.00     0.010 A 
ATOM     74  C   UNL A   1      43.923  27.177  37.515  1.00  0.00     0.010 A 
ATOM     75  C   UNL A   1      46.445  27.601  36.393  1.00  0.00     0.020 A 
ATOM     76  C   UNL A   1      45.025  26.463  37.997  1.00  0.00     0.020 A 
ATOM     77  C   UNL A   1      46.280  26.674  37.426  1.00  0.00     0.054 A 
BRANCH  77  78
ATOM     78  S   UNL A   1      47.730  25.783  38.060  1.00  0.00     0.124 S 
ATOM     79  O   UNL A   1      48.350  26.786  38.920  1.00  0.00    -0.237 OA
ATOM     80  O   UNL A   1      47.128  24.644  38.748  1.00  0.00    -0.237 OA
ATOM     81  O   UNL A   1      48.477  25.445  36.851  1.00  0.00    -0.744 OA
ENDBRANCH  77  78
ENDBRANCH  49  72
BRANCH  61  82
ATOM     82  C   UNL A   1      41.530  34.424  38.190  1.00  0.00    -0.014 A 
ATOM     83  C   UNL A   1      42.557  35.341  37.906  1.00  0.00     0.010 A 
ATOM     84  C   UNL A   1      40.834  34.522  39.408  1.00  0.00     0.010 A 
ATOM     85  C   UNL A   1      42.891  36.331  38.834  1.00  0.00     0.020 A 
ATOM     86  C   UNL A   1      41.150  35.523  40.327  1.00  0.00     0.020 A 
ATOM     87  C   UNL A   1      42.183  36.416  40.039  1.00  0.00     0.054 A 
BRANCH  87  88
ATOM     88  S   UNL A   1      42.592  37.747  41.200  1.00  0.00     0.124 S 
ATOM     89  O   UNL A   1      41.804  38.859  40.678  1.00  0.00    -0.237 OA
ATOM     90  O   UNL A   1      42.144  37.205  42.482  1.00  0.00    -0.237 OA
ATOM     91  O   UNL A   1      44.040  37.892  41.065  1.00  0.00    -0.744 OA
ENDBRANCH  87  88
ENDBRANCH  61  82
ENDBRANCH  35  36
ENDBRANCH  28  30
ENDBRANCH  27  28
ENDBRANCH  26  27
ENDBRANCH  25  26
ENDBRANCH   1  25
TORSDOF 21
ENDMDL
