MODEL 1
REMARK VINA RESULT:      -9.7      0.000      0.000
REMARK SMILES NC(=O)CC[N@@H+]1[C@@H](C(=O)OCCOCCOC(=O)c2ccc(-c3c4nc(c(-c5ccc(S(=O)(=O)[O-])cc5)c5ccc([nH]5)c(-c5ccc(S(=O)(=O)[O-])cc5)c5nc(c(-c6ccc(S(=O)(=O)[O-])cc6)c6ccc3[nH]6)C=C5)C=C4)cc2)CC[C@@H]2CCCC[C@H]21
REMARK SMILES IDX 13 1 12 2 11 3 10 4 8 5 9 6 7 7 6 8 86 9 79 11 81 12 85 13
REMARK SMILES IDX 80 14 82 15 84 16 83 17 5 18 4 19 2 20 1 21 3 24 14 25 15 26
REMARK SMILES IDX 16 27 17 28 18 29 19 30 20 31 78 32 21 33 77 34 22 35 23 36
REMARK SMILES IDX 24 37 71 38 25 39 76 40 70 41 72 42 26 43 75 44 69 45 68 46
REMARK SMILES IDX 27 48 57 49 38 50 56 51 39 52 42 53 55 54 73 55 40 56 41 57
REMARK SMILES IDX 54 59 74 60 43 61 28 62 29 63 37 64 30 65 36 66 31 67 32 68
REMARK SMILES IDX 33 69 34 70 35 71 58 72 59 73 67 74 60 75 66 76 61 77 62 78
REMARK SMILES IDX 63 79 64 80 65 81 44 82 45 83 53 84 46 85 52 86 47 87 48 88
REMARK SMILES IDX 49 89 50 90 51 91
REMARK H PARENT 6 10 1 22 1 23 72 47 42 58
REMARK Flexibility Score: inf
ROOT
ATOM      1  O   UNL A   1      32.022  29.255  24.987  1.00  0.00    -0.374 OA
ENDROOT
BRANCH   1   2
ATOM      2  C   UNL A   1      30.843  29.162  24.188  1.00  0.00     0.202 C 
BRANCH   2   3
ATOM      3  C   UNL A   1      30.439  27.771  23.690  1.00  0.00     0.261 C 
BRANCH   3   4
ATOM      4  O   UNL A   1      31.544  26.852  23.623  1.00  0.00    -0.459 OA
BRANCH   4   5
ATOM      5  C   UNL A   1      31.200  25.536  23.641  1.00  0.00     0.364 C 
ATOM      6  O   UNL A   1      30.046  25.114  23.660  1.00  0.00    -0.245 OA
BRANCH   5   7
ATOM      7  C   UNL A   1      32.411  24.592  23.662  1.00  0.00     0.295 C 
ATOM      8  N   UNL A   1      33.243  24.672  24.927  1.00  0.00    -0.320 N 
ATOM      9  C   UNL A   1      34.221  23.529  24.892  1.00  0.00     0.187 C 
ATOM     10  H   UNL A   1      33.785  25.534  24.996  1.00  0.00     0.349 HD
ATOM     11  C   UNL A   1      33.286  24.791  22.420  1.00  0.00     0.078 C 
ATOM     12  C   UNL A   1      35.132  23.630  23.627  1.00  0.00     0.048 C 
ATOM     13  C   UNL A   1      35.137  23.415  26.127  1.00  0.00     0.065 C 
ATOM     14  C   UNL A   1      34.322  23.688  22.334  1.00  0.00     0.016 C 
ATOM     15  C   UNL A   1      36.123  22.461  23.535  1.00  0.00     0.010 C 
ATOM     16  C   UNL A   1      36.157  22.282  26.025  1.00  0.00     0.006 C 
ATOM     17  C   UNL A   1      37.004  22.383  24.770  1.00  0.00     0.001 C 
BRANCH   8  18
ATOM     18  C   UNL A   1      32.332  24.674  26.109  1.00  0.00     0.273 C 
BRANCH  18  19
ATOM     19  C   UNL A   1      31.500  23.440  26.483  1.00  0.00     0.161 C 
BRANCH  19  20
ATOM     20  C   UNL A   1      30.079  23.645  26.962  1.00  0.00     0.223 C 
ATOM     21  N   UNL A   1      29.437  24.773  26.576  1.00  0.00    -0.369 N 
ATOM     22  H   UNL A   1      28.511  24.938  26.870  1.00  0.00     0.159 HD
ATOM     23  H   UNL A   1      29.895  25.428  26.001  1.00  0.00     0.159 HD
ATOM     24  O   UNL A   1      29.538  22.842  27.717  1.00  0.00    -0.275 OA
ENDBRANCH  19  20
ENDBRANCH  18  19
ENDBRANCH   8  18
ENDBRANCH   5   7
ENDBRANCH   4   5
ENDBRANCH   3   4
ENDBRANCH   2   3
ENDBRANCH   1   2
BRANCH   1  25
ATOM     25  C   UNL A   1      31.854  29.435  26.391  1.00  0.00     0.202 C 
BRANCH  25  26
ATOM     26  C   UNL A   1      32.372  30.744  27.000  1.00  0.00     0.261 C 
BRANCH  26  27
ATOM     27  O   UNL A   1      33.801  30.866  26.901  1.00  0.00    -0.460 OA
BRANCH  27  28
ATOM     28  C   UNL A   1      34.373  31.561  27.914  1.00  0.00     0.338 C 
ATOM     29  O   UNL A   1      33.840  32.413  28.614  1.00  0.00    -0.246 OA
BRANCH  28  30
ATOM     30  C   UNL A   1      35.716  31.029  28.214  1.00  0.00     0.060 A 
ATOM     31  C   UNL A   1      35.794  29.706  28.667  1.00  0.00     0.016 A 
ATOM     32  C   UNL A   1      36.862  31.824  28.146  1.00  0.00     0.016 A 
ATOM     33  C   UNL A   1      37.007  29.191  29.116  1.00  0.00     0.010 A 
ATOM     34  C   UNL A   1      38.079  31.307  28.607  1.00  0.00     0.010 A 
ATOM     35  C   UNL A   1      38.146  30.004  29.134  1.00  0.00    -0.014 A 
BRANCH  35  36
ATOM     36  C   UNL A   1      39.354  29.541  29.861  1.00  0.00     0.031 A 
ATOM     37  C   UNL A   1      39.721  30.211  31.159  1.00  0.00     0.074 A 
ATOM     38  C   UNL A   1      40.079  28.504  29.406  1.00  0.00     0.049 A 
ATOM     39  N   UNL A   1      40.730  29.974  31.957  1.00  0.00    -0.248 NA
ATOM     40  C   UNL A   1      38.829  31.289  31.620  1.00  0.00     0.031 C 
ATOM     41  C   UNL A   1      39.791  27.735  28.195  1.00  0.00     0.029 A 
ATOM     42  N   UNL A   1      41.208  27.916  29.917  1.00  0.00    -0.354 N 
ATOM     43  C   UNL A   1      40.596  30.869  33.012  1.00  0.00     0.074 A 
ATOM     44  C   UNL A   1      39.427  31.676  32.738  1.00  0.00     0.031 C 
ATOM     45  C   UNL A   1      40.722  26.774  28.058  1.00  0.00     0.029 A 
ATOM     46  C   UNL A   1      41.688  26.882  29.150  1.00  0.00     0.049 A 
ATOM     47  H   UNL A   1      41.635  28.207  30.756  1.00  0.00     0.167 HD
ATOM     48  C   UNL A   1      41.370  31.003  34.116  1.00  0.00     0.031 A 
ATOM     49  C   UNL A   1      42.789  26.119  29.303  1.00  0.00     0.031 A 
ATOM     50  C   UNL A   1      42.539  30.209  34.382  1.00  0.00     0.049 A 
ATOM     51  C   UNL A   1      43.686  26.349  30.492  1.00  0.00     0.074 A 
ATOM     52  C   UNL A   1      43.394  30.273  35.469  1.00  0.00     0.029 A 
ATOM     53  N   UNL A   1      43.023  29.209  33.552  1.00  0.00    -0.354 N 
ATOM     54  N   UNL A   1      43.543  27.197  31.483  1.00  0.00    -0.248 NA
ATOM     55  C   UNL A   1      44.891  25.512  30.586  1.00  0.00     0.031 C 
ATOM     56  C   UNL A   1      44.422  29.345  35.271  1.00  0.00     0.029 A 
ATOM     57  C   UNL A   1      44.175  28.664  34.089  1.00  0.00     0.049 A 
ATOM     58  H   UNL A   1      42.606  28.928  32.704  1.00  0.00     0.167 HD
ATOM     59  C   UNL A   1      44.623  26.974  32.332  1.00  0.00     0.074 A 
ATOM     60  C   UNL A   1      45.404  25.905  31.743  1.00  0.00     0.031 C 
ATOM     61  C   UNL A   1      44.939  27.597  33.494  1.00  0.00     0.031 A 
BRANCH  48  62
ATOM     62  C   UNL A   1      40.988  32.070  35.107  1.00  0.00    -0.014 A 
ATOM     63  C   UNL A   1      40.095  31.798  36.160  1.00  0.00     0.010 A 
ATOM     64  C   UNL A   1      41.559  33.351  35.006  1.00  0.00     0.010 A 
ATOM     65  C   UNL A   1      39.754  32.799  37.073  1.00  0.00     0.020 A 
ATOM     66  C   UNL A   1      41.239  34.348  35.932  1.00  0.00     0.020 A 
ATOM     67  C   UNL A   1      40.326  34.070  36.951  1.00  0.00     0.054 A 
BRANCH  67  68
ATOM     68  S   UNL A   1      39.882  35.345  38.162  1.00  0.00     0.124 S 
ATOM     69  O   UNL A   1      41.052  35.350  39.037  1.00  0.00    -0.237 OA
ATOM     70  O   UNL A   1      39.716  36.535  37.330  1.00  0.00    -0.237 OA
ATOM     71  O   UNL A   1      38.654  34.836  38.768  1.00  0.00    -0.744 OA
ENDBRANCH  67  68
ENDBRANCH  48  62
BRANCH  49  72
ATOM     72  C   UNL A   1      43.122  25.077  28.294  1.00  0.00    -0.014 A 
ATOM     73  C   UNL A   1      43.941  25.381  27.191  1.00  0.00     0.010 A 
ATOM     74  C   UNL A   1      42.603  23.775  28.422  1.00  0.00     0.010 A 
ATOM     75  C   UNL A   1      44.214  24.409  26.224  1.00  0.00     0.020 A 
ATOM     76  C   UNL A   1      42.897  22.794  27.473  1.00  0.00     0.020 A 
ATOM     77  C   UNL A   1      43.689  23.121  26.371  1.00  0.00     0.054 A 
BRANCH  77  78
ATOM     78  S   UNL A   1      44.080  21.868  25.119  1.00  0.00     0.124 S 
ATOM     79  O   UNL A   1      43.145  20.800  25.457  1.00  0.00    -0.237 OA
ATOM     80  O   UNL A   1      43.809  22.575  23.870  1.00  0.00    -0.237 OA
ATOM     81  O   UNL A   1      45.488  21.568  25.365  1.00  0.00    -0.744 OA
ENDBRANCH  77  78
ENDBRANCH  49  72
BRANCH  61  82
ATOM     82  C   UNL A   1      46.159  27.114  34.232  1.00  0.00    -0.014 A 
ATOM     83  C   UNL A   1      47.440  27.606  33.929  1.00  0.00     0.010 A 
ATOM     84  C   UNL A   1      46.010  26.192  35.286  1.00  0.00     0.010 A 
ATOM     85  C   UNL A   1      48.555  27.164  34.646  1.00  0.00     0.020 A 
ATOM     86  C   UNL A   1      47.119  25.768  36.023  1.00  0.00     0.020 A 
ATOM     87  C   UNL A   1      48.387  26.246  35.689  1.00  0.00     0.054 A 
BRANCH  87  88
ATOM     88  S   UNL A   1      49.843  25.721  36.634  1.00  0.00     0.124 S 
ATOM     89  O   UNL A   1      50.822  25.483  35.577  1.00  0.00    -0.237 OA
ATOM     90  O   UNL A   1      50.107  26.877  37.487  1.00  0.00    -0.237 OA
ATOM     91  O   UNL A   1      49.385  24.526  37.340  1.00  0.00    -0.744 OA
ENDBRANCH  87  88
ENDBRANCH  61  82
ENDBRANCH  35  36
ENDBRANCH  28  30
ENDBRANCH  27  28
ENDBRANCH  26  27
ENDBRANCH  25  26
ENDBRANCH   1  25
TORSDOF 20
ENDMDL
MODEL 2
REMARK VINA RESULT:      -9.7      2.565      3.580
REMARK SMILES NC(=O)CC[N@@H+]1[C@@H](C(=O)OCCOCCOC(=O)c2ccc(-c3c4nc(c(-c5ccc(S(=O)(=O)[O-])cc5)c5ccc([nH]5)c(-c5ccc(S(=O)(=O)[O-])cc5)c5nc(c(-c6ccc(S(=O)(=O)[O-])cc6)c6ccc3[nH]6)C=C5)C=C4)cc2)CC[C@@H]2CCCC[C@H]21
REMARK SMILES IDX 13 1 12 2 11 3 10 4 8 5 9 6 7 7 6 8 86 9 79 11 81 12 85 13
REMARK SMILES IDX 80 14 82 15 84 16 83 17 5 18 4 19 2 20 1 21 3 24 14 25 15 26
REMARK SMILES IDX 16 27 17 28 18 29 19 30 20 31 78 32 21 33 77 34 22 35 23 36
REMARK SMILES IDX 24 37 71 38 25 39 76 40 70 41 72 42 26 43 75 44 69 45 68 46
REMARK SMILES IDX 27 48 57 49 38 50 56 51 39 52 42 53 55 54 73 55 40 56 41 57
REMARK SMILES IDX 54 59 74 60 43 61 28 62 29 63 37 64 30 65 36 66 31 67 32 68
REMARK SMILES IDX 33 69 34 70 35 71 58 72 59 73 67 74 60 75 66 76 61 77 62 78
REMARK SMILES IDX 63 79 64 80 65 81 44 82 45 83 53 84 46 85 52 86 47 87 48 88
REMARK SMILES IDX 49 89 50 90 51 91
REMARK H PARENT 6 10 1 22 1 23 72 47 42 58
REMARK Flexibility Score: inf
ROOT
ATOM      1  O   UNL A   1      32.694  28.957  25.155  1.00  0.00    -0.374 OA
ENDROOT
BRANCH   1   2
ATOM      2  C   UNL A   1      33.004  28.976  23.762  1.00  0.00     0.202 C 
BRANCH   2   3
ATOM      3  C   UNL A   1      34.028  27.957  23.255  1.00  0.00     0.261 C 
BRANCH   3   4
ATOM      4  O   UNL A   1      33.777  27.526  21.906  1.00  0.00    -0.459 OA
BRANCH   4   5
ATOM      5  C   UNL A   1      33.196  26.302  21.791  1.00  0.00     0.364 C 
ATOM      6  O   UNL A   1      33.199  25.617  20.771  1.00  0.00    -0.245 OA
BRANCH   5   7
ATOM      7  C   UNL A   1      32.492  25.841  23.077  1.00  0.00     0.295 C 
ATOM      8  N   UNL A   1      32.863  24.440  23.524  1.00  0.00    -0.320 N 
ATOM      9  C   UNL A   1      32.292  24.246  24.902  1.00  0.00     0.187 C 
ATOM     10  H   UNL A   1      32.470  23.713  22.927  1.00  0.00     0.349 HD
ATOM     11  C   UNL A   1      30.972  25.991  22.957  1.00  0.00     0.078 C 
ATOM     12  C   UNL A   1      30.740  24.423  24.880  1.00  0.00     0.048 C 
ATOM     13  C   UNL A   1      32.603  22.882  25.551  1.00  0.00     0.065 C 
ATOM     14  C   UNL A   1      30.322  25.776  24.308  1.00  0.00     0.016 C 
ATOM     15  C   UNL A   1      30.122  24.267  26.277  1.00  0.00     0.010 C 
ATOM     16  C   UNL A   1      31.954  22.699  26.922  1.00  0.00     0.006 C 
ATOM     17  C   UNL A   1      30.452  22.912  26.880  1.00  0.00     0.001 C 
BRANCH   8  18
ATOM     18  C   UNL A   1      34.344  24.278  23.436  1.00  0.00     0.273 C 
BRANCH  18  19
ATOM     19  C   UNL A   1      35.249  24.502  24.654  1.00  0.00     0.161 C 
BRANCH  19  20
ATOM     20  C   UNL A   1      36.544  23.723  24.745  1.00  0.00     0.223 C 
ATOM     21  N   UNL A   1      36.974  23.078  23.634  1.00  0.00    -0.369 N 
ATOM     22  H   UNL A   1      37.813  22.562  23.658  1.00  0.00     0.159 HD
ATOM     23  H   UNL A   1      36.448  23.125  22.803  1.00  0.00     0.159 HD
ATOM     24  O   UNL A   1      37.163  23.635  25.801  1.00  0.00    -0.275 OA
ENDBRANCH  19  20
ENDBRANCH  18  19
ENDBRANCH   8  18
ENDBRANCH   5   7
ENDBRANCH   4   5
ENDBRANCH   3   4
ENDBRANCH   2   3
ENDBRANCH   1   2
BRANCH   1  25
ATOM     25  C   UNL A   1      32.092  30.123  25.713  1.00  0.00     0.202 C 
BRANCH  25  26
ATOM     26  C   UNL A   1      32.652  30.635  27.045  1.00  0.00     0.261 C 
BRANCH  26  27
ATOM     27  O   UNL A   1      34.065  30.894  26.983  1.00  0.00    -0.460 OA
BRANCH  27  28
ATOM     28  C   UNL A   1      34.639  31.155  28.181  1.00  0.00     0.338 C 
ATOM     29  O   UNL A   1      34.159  31.811  29.098  1.00  0.00    -0.246 OA
BRANCH  28  30
ATOM     30  C   UNL A   1      35.884  30.381  28.341  1.00  0.00     0.060 A 
ATOM     31  C   UNL A   1      36.184  29.909  29.625  1.00  0.00     0.016 A 
ATOM     32  C   UNL A   1      36.785  30.199  27.289  1.00  0.00     0.016 A 
ATOM     33  C   UNL A   1      37.414  29.309  29.879  1.00  0.00     0.010 A 
ATOM     34  C   UNL A   1      38.025  29.603  27.550  1.00  0.00     0.010 A 
ATOM     35  C   UNL A   1      38.360  29.196  28.855  1.00  0.00    -0.014 A 
BRANCH  35  36
ATOM     36  C   UNL A   1      39.753  28.810  29.194  1.00  0.00     0.031 A 
ATOM     37  C   UNL A   1      40.610  29.785  29.958  1.00  0.00     0.074 A 
ATOM     38  C   UNL A   1      40.228  27.592  28.882  1.00  0.00     0.049 A 
ATOM     39  N   UNL A   1      41.849  29.663  30.356  1.00  0.00    -0.248 NA
ATOM     40  C   UNL A   1      39.984  31.067  30.324  1.00  0.00     0.031 C 
ATOM     41  C   UNL A   1      39.477  26.539  28.198  1.00  0.00     0.029 A 
ATOM     42  N   UNL A   1      41.461  27.034  29.106  1.00  0.00    -0.354 N 
ATOM     43  C   UNL A   1      42.153  30.846  31.018  1.00  0.00     0.074 A 
ATOM     44  C   UNL A   1      40.979  31.689  30.941  1.00  0.00     0.031 C 
ATOM     45  C   UNL A   1      40.268  25.460  28.059  1.00  0.00     0.029 A 
ATOM     46  C   UNL A   1      41.587  25.757  28.612  1.00  0.00     0.049 A 
ATOM     47  H   UNL A   1      42.188  27.503  29.576  1.00  0.00     0.167 HD
ATOM     48  C   UNL A   1      43.301  31.199  31.644  1.00  0.00     0.031 A 
ATOM     49  C   UNL A   1      42.651  24.930  28.595  1.00  0.00     0.031 A 
ATOM     50  C   UNL A   1      44.473  30.367  31.710  1.00  0.00     0.049 A 
ATOM     51  C   UNL A   1      43.948  25.382  29.216  1.00  0.00     0.074 A 
ATOM     52  C   UNL A   1      45.688  30.638  32.314  1.00  0.00     0.029 A 
ATOM     53  N   UNL A   1      44.578  29.103  31.149  1.00  0.00    -0.354 N 
ATOM     54  N   UNL A   1      44.217  26.503  29.842  1.00  0.00    -0.248 NA
ATOM     55  C   UNL A   1      45.083  24.451  29.134  1.00  0.00     0.031 C 
ATOM     56  C   UNL A   1      46.544  29.558  32.076  1.00  0.00     0.029 A 
ATOM     57  C   UNL A   1      45.844  28.590  31.373  1.00  0.00     0.049 A 
ATOM     58  H   UNL A   1      43.858  28.639  30.663  1.00  0.00     0.167 HD
ATOM     59  C   UNL A   1      45.542  26.399  30.253  1.00  0.00     0.074 A 
ATOM     60  C   UNL A   1      46.016  25.102  29.815  1.00  0.00     0.031 C 
ATOM     61  C   UNL A   1      46.298  27.296  30.934  1.00  0.00     0.031 A 
BRANCH  48  62
ATOM     62  C   UNL A   1      43.354  32.560  32.284  1.00  0.00    -0.014 A 
ATOM     63  C   UNL A   1      42.995  32.745  33.632  1.00  0.00     0.010 A 
ATOM     64  C   UNL A   1      43.803  33.665  31.538  1.00  0.00     0.010 A 
ATOM     65  C   UNL A   1      43.052  34.015  34.212  1.00  0.00     0.020 A 
ATOM     66  C   UNL A   1      43.886  34.933  32.122  1.00  0.00     0.020 A 
ATOM     67  C   UNL A   1      43.495  35.102  33.451  1.00  0.00     0.054 A 
BRANCH  67  68
ATOM     68  S   UNL A   1      43.580  36.736  34.234  1.00  0.00     0.124 S 
ATOM     69  O   UNL A   1      44.798  36.624  35.033  1.00  0.00    -0.237 OA
ATOM     70  O   UNL A   1      43.663  37.638  33.087  1.00  0.00    -0.237 OA
ATOM     71  O   UNL A   1      42.339  36.819  35.000  1.00  0.00    -0.744 OA
ENDBRANCH  67  68
ENDBRANCH  48  62
BRANCH  49  72
ATOM     72  C   UNL A   1      42.548  23.593  27.949  1.00  0.00    -0.014 A 
ATOM     73  C   UNL A   1      42.039  22.490  28.657  1.00  0.00     0.010 A 
ATOM     74  C   UNL A   1      42.978  23.414  26.621  1.00  0.00     0.010 A 
ATOM     75  C   UNL A   1      41.984  21.228  28.057  1.00  0.00     0.020 A 
ATOM     76  C   UNL A   1      42.900  22.161  26.009  1.00  0.00     0.020 A 
ATOM     77  C   UNL A   1      42.418  21.071  26.736  1.00  0.00     0.054 A 
BRANCH  77  78
ATOM     78  S   UNL A   1      42.312  19.431  25.968  1.00  0.00     0.124 S 
ATOM     79  O   UNL A   1      40.882  19.314  25.701  1.00  0.00    -0.237 OA
ATOM     80  O   UNL A   1      43.167  19.578  24.793  1.00  0.00    -0.237 OA
ATOM     81  O   UNL A   1      42.831  18.538  27.001  1.00  0.00    -0.744 OA
ENDBRANCH  77  78
ENDBRANCH  49  72
BRANCH  61  82
ATOM     82  C   UNL A   1      47.706  26.892  31.286  1.00  0.00    -0.014 A 
ATOM     83  C   UNL A   1      48.781  27.158  30.420  1.00  0.00     0.010 A 
ATOM     84  C   UNL A   1      47.962  26.289  32.531  1.00  0.00     0.010 A 
ATOM     85  C   UNL A   1      50.083  26.800  30.779  1.00  0.00     0.020 A 
ATOM     86  C   UNL A   1      49.266  25.953  32.906  1.00  0.00     0.020 A 
ATOM     87  C   UNL A   1      50.317  26.198  32.021  1.00  0.00     0.054 A 
BRANCH  87  88
ATOM     88  S   UNL A   1      52.021  25.783  32.484  1.00  0.00     0.124 S 
ATOM     89  O   UNL A   1      52.773  26.886  31.893  1.00  0.00    -0.237 OA
ATOM     90  O   UNL A   1      51.964  25.771  33.944  1.00  0.00    -0.237 OA
ATOM     91  O   UNL A   1      52.239  24.478  31.865  1.00  0.00    -0.744 OA
ENDBRANCH  87  88
ENDBRANCH  61  82
ENDBRANCH  35  36
ENDBRANCH  28  30
ENDBRANCH  27  28
ENDBRANCH  26  27
ENDBRANCH  25  26
ENDBRANCH   1  25
TORSDOF 20
ENDMDL
MODEL 3
REMARK VINA RESULT:      -9.6      1.241      8.381
REMARK SMILES NC(=O)CC[N@@H+]1[C@@H](C(=O)OCCOCCOC(=O)c2ccc(-c3c4nc(c(-c5ccc(S(=O)(=O)[O-])cc5)c5ccc([nH]5)c(-c5ccc(S(=O)(=O)[O-])cc5)c5nc(c(-c6ccc(S(=O)(=O)[O-])cc6)c6ccc3[nH]6)C=C5)C=C4)cc2)CC[C@@H]2CCCC[C@H]21
REMARK SMILES IDX 13 1 12 2 11 3 10 4 8 5 9 6 7 7 6 8 86 9 79 11 81 12 85 13
REMARK SMILES IDX 80 14 82 15 84 16 83 17 5 18 4 19 2 20 1 21 3 24 14 25 15 26
REMARK SMILES IDX 16 27 17 28 18 29 19 30 20 31 78 32 21 33 77 34 22 35 23 36
REMARK SMILES IDX 24 37 71 38 25 39 76 40 70 41 72 42 26 43 75 44 69 45 68 46
REMARK SMILES IDX 27 48 57 49 38 50 56 51 39 52 42 53 55 54 73 55 40 56 41 57
REMARK SMILES IDX 54 59 74 60 43 61 28 62 29 63 37 64 30 65 36 66 31 67 32 68
REMARK SMILES IDX 33 69 34 70 35 71 58 72 59 73 67 74 60 75 66 76 61 77 62 78
REMARK SMILES IDX 63 79 64 80 65 81 44 82 45 83 53 84 46 85 52 86 47 87 48 88
REMARK SMILES IDX 49 89 50 90 51 91
REMARK H PARENT 6 10 1 22 1 23 72 47 42 58
REMARK Flexibility Score: inf
ROOT
ATOM      1  O   UNL A   1      31.578  28.018  25.857  1.00  0.00    -0.374 OA
ENDROOT
BRANCH   1   2
ATOM      2  C   UNL A   1      30.862  26.862  26.290  1.00  0.00     0.202 C 
BRANCH   2   3
ATOM      3  C   UNL A   1      30.235  25.976  25.210  1.00  0.00     0.261 C 
BRANCH   3   4
ATOM      4  O   UNL A   1      30.556  24.582  25.367  1.00  0.00    -0.459 OA
BRANCH   4   5
ATOM      5  C   UNL A   1      31.137  24.000  24.284  1.00  0.00     0.364 C 
ATOM      6  O   UNL A   1      30.712  24.078  23.133  1.00  0.00    -0.245 OA
BRANCH   5   7
ATOM      7  C   UNL A   1      32.395  23.190  24.632  1.00  0.00     0.295 C 
ATOM      8  N   UNL A   1      33.698  23.865  24.251  1.00  0.00    -0.320 N 
ATOM      9  C   UNL A   1      34.812  23.070  24.875  1.00  0.00     0.187 C 
ATOM     10  H   UNL A   1      33.861  23.880  23.244  1.00  0.00     0.349 HD
ATOM     11  C   UNL A   1      32.320  21.777  24.044  1.00  0.00     0.078 C 
ATOM     12  C   UNL A   1      34.786  21.596  24.360  1.00  0.00     0.048 C 
ATOM     13  C   UNL A   1      36.228  23.631  24.634  1.00  0.00     0.065 C 
ATOM     14  C   UNL A   1      33.438  20.922  24.606  1.00  0.00     0.016 C 
ATOM     15  C   UNL A   1      35.888  20.741  25.001  1.00  0.00     0.010 C 
ATOM     16  C   UNL A   1      37.335  22.762  25.230  1.00  0.00     0.006 C 
ATOM     17  C   UNL A   1      37.266  21.327  24.741  1.00  0.00     0.001 C 
BRANCH   8  18
ATOM     18  C   UNL A   1      33.645  25.296  24.670  1.00  0.00     0.273 C 
BRANCH  18  19
ATOM     19  C   UNL A   1      33.807  26.436  23.656  1.00  0.00     0.161 C 
BRANCH  19  20
ATOM     20  C   UNL A   1      33.263  26.240  22.257  1.00  0.00     0.223 C 
ATOM     21  N   UNL A   1      32.289  27.080  21.832  1.00  0.00    -0.369 N 
ATOM     22  H   UNL A   1      31.913  26.980  20.927  1.00  0.00     0.159 HD
ATOM     23  H   UNL A   1      31.957  27.790  22.428  1.00  0.00     0.159 HD
ATOM     24  O   UNL A   1      33.653  25.320  21.544  1.00  0.00    -0.275 OA
ENDBRANCH  19  20
ENDBRANCH  18  19
ENDBRANCH   8  18
ENDBRANCH   5   7
ENDBRANCH   4   5
ENDBRANCH   3   4
ENDBRANCH   2   3
ENDBRANCH   1   2
BRANCH   1  25
ATOM     25  C   UNL A   1      32.657  28.470  26.672  1.00  0.00     0.202 C 
BRANCH  25  26
ATOM     26  C   UNL A   1      32.644  29.941  27.103  1.00  0.00     0.261 C 
BRANCH  26  27
ATOM     27  O   UNL A   1      33.861  30.624  26.757  1.00  0.00    -0.460 OA
BRANCH  27  28
ATOM     28  C   UNL A   1      34.335  31.446  27.723  1.00  0.00     0.338 C 
ATOM     29  O   UNL A   1      33.725  32.346  28.287  1.00  0.00    -0.246 OA
BRANCH  28  30
ATOM     30  C   UNL A   1      35.669  31.005  28.172  1.00  0.00     0.060 A 
ATOM     31  C   UNL A   1      35.769  29.716  28.712  1.00  0.00     0.016 A 
ATOM     32  C   UNL A   1      36.777  31.854  28.155  1.00  0.00     0.016 A 
ATOM     33  C   UNL A   1      36.959  29.294  29.297  1.00  0.00     0.010 A 
ATOM     34  C   UNL A   1      37.971  31.430  28.752  1.00  0.00     0.010 A 
ATOM     35  C   UNL A   1      38.052  30.165  29.363  1.00  0.00    -0.014 A 
BRANCH  35  36
ATOM     36  C   UNL A   1      39.210  29.810  30.220  1.00  0.00     0.031 A 
ATOM     37  C   UNL A   1      40.148  28.725  29.760  1.00  0.00     0.074 A 
ATOM     38  C   UNL A   1      39.459  30.482  31.358  1.00  0.00     0.049 A 
ATOM     39  N   UNL A   1      41.216  28.250  30.347  1.00  0.00    -0.248 NA
ATOM     40  C   UNL A   1      39.841  28.093  28.466  1.00  0.00     0.031 C 
ATOM     41  C   UNL A   1      38.661  31.592  31.878  1.00  0.00     0.029 A 
ATOM     42  N   UNL A   1      40.463  30.328  32.281  1.00  0.00    -0.354 N 
ATOM     43  C   UNL A   1      41.709  27.268  29.497  1.00  0.00     0.074 A 
ATOM     44  C   UNL A   1      40.806  27.190  28.369  1.00  0.00     0.031 C 
ATOM     45  C   UNL A   1      39.209  32.020  33.030  1.00  0.00     0.029 A 
ATOM     46  C   UNL A   1      40.373  31.194  33.344  1.00  0.00     0.049 A 
ATOM     47  H   UNL A   1      41.181  29.660  32.189  1.00  0.00     0.167 HD
ATOM     48  C   UNL A   1      42.819  26.503  29.635  1.00  0.00     0.031 A 
ATOM     49  C   UNL A   1      41.134  31.298  34.452  1.00  0.00     0.031 A 
ATOM     50  C   UNL A   1      43.710  26.571  30.763  1.00  0.00     0.049 A 
ATOM     51  C   UNL A   1      42.311  30.373  34.628  1.00  0.00     0.074 A 
ATOM     52  C   UNL A   1      44.857  25.834  30.999  1.00  0.00     0.029 A 
ATOM     53  N   UNL A   1      43.552  27.423  31.845  1.00  0.00    -0.354 N 
ATOM     54  N   UNL A   1      42.766  29.451  33.813  1.00  0.00    -0.248 NA
ATOM     55  C   UNL A   1      43.080  30.508  35.872  1.00  0.00     0.031 C 
ATOM     56  C   UNL A   1      45.365  26.206  32.248  1.00  0.00     0.029 A 
ATOM     57  C   UNL A   1      44.567  27.215  32.763  1.00  0.00     0.049 A 
ATOM     58  H   UNL A   1      42.825  28.080  31.946  1.00  0.00     0.167 HD
ATOM     59  C   UNL A   1      43.892  28.918  34.433  1.00  0.00     0.074 A 
ATOM     60  C   UNL A   1      44.054  29.628  35.685  1.00  0.00     0.031 C 
ATOM     61  C   UNL A   1      44.718  27.932  34.003  1.00  0.00     0.031 A 
BRANCH  48  62
ATOM     62  C   UNL A   1      43.116  25.505  28.549  1.00  0.00    -0.014 A 
ATOM     63  C   UNL A   1      44.002  25.812  27.500  1.00  0.00     0.010 A 
ATOM     64  C   UNL A   1      42.529  24.227  28.596  1.00  0.00     0.010 A 
ATOM     65  C   UNL A   1      44.269  24.873  26.501  1.00  0.00     0.020 A 
ATOM     66  C   UNL A   1      42.812  23.276  27.612  1.00  0.00     0.020 A 
ATOM     67  C   UNL A   1      43.669  23.611  26.562  1.00  0.00     0.054 A 
BRANCH  67  68
ATOM     68  S   UNL A   1      44.048  22.402  25.263  1.00  0.00     0.124 S 
ATOM     69  O   UNL A   1      43.894  21.137  25.975  1.00  0.00    -0.237 OA
ATOM     70  O   UNL A   1      43.028  22.684  24.255  1.00  0.00    -0.237 OA
ATOM     71  O   UNL A   1      45.416  22.733  24.870  1.00  0.00    -0.744 OA
ENDBRANCH  67  68
ENDBRANCH  48  62
BRANCH  49  72
ATOM     72  C   UNL A   1      40.798  32.302  35.498  1.00  0.00    -0.014 A 
ATOM     73  C   UNL A   1      39.791  32.043  36.445  1.00  0.00     0.010 A 
ATOM     74  C   UNL A   1      41.473  33.536  35.538  1.00  0.00     0.010 A 
ATOM     75  C   UNL A   1      39.451  33.008  37.398  1.00  0.00     0.020 A 
ATOM     76  C   UNL A   1      41.155  34.491  36.506  1.00  0.00     0.020 A 
ATOM     77  C   UNL A   1      40.135  34.228  37.421  1.00  0.00     0.054 A 
BRANCH  77  78
ATOM     78  S   UNL A   1      39.697  35.454  38.683  1.00  0.00     0.124 S 
ATOM     79  O   UNL A   1      40.911  35.505  39.491  1.00  0.00    -0.237 OA
ATOM     80  O   UNL A   1      39.419  36.645  37.883  1.00  0.00    -0.237 OA
ATOM     81  O   UNL A   1      38.532  34.866  39.339  1.00  0.00    -0.744 OA
ENDBRANCH  77  78
ENDBRANCH  49  72
BRANCH  61  82
ATOM     82  C   UNL A   1      45.897  27.587  34.872  1.00  0.00    -0.014 A 
ATOM     83  C   UNL A   1      47.127  28.255  34.736  1.00  0.00     0.010 A 
ATOM     84  C   UNL A   1      45.753  26.617  35.882  1.00  0.00     0.010 A 
ATOM     85  C   UNL A   1      48.200  27.938  35.573  1.00  0.00     0.020 A 
ATOM     86  C   UNL A   1      46.816  26.316  36.738  1.00  0.00     0.020 A 
ATOM     87  C   UNL A   1      48.037  26.969  36.569  1.00  0.00     0.054 A 
BRANCH  87  88
ATOM     88  S   UNL A   1      49.431  26.607  37.672  1.00  0.00     0.124 S 
ATOM     89  O   UNL A   1      50.055  25.466  37.009  1.00  0.00    -0.237 OA
ATOM     90  O   UNL A   1      50.199  27.850  37.639  1.00  0.00    -0.237 OA
ATOM     91  O   UNL A   1      48.791  26.311  38.952  1.00  0.00    -0.744 OA
ENDBRANCH  87  88
ENDBRANCH  61  82
ENDBRANCH  35  36
ENDBRANCH  28  30
ENDBRANCH  27  28
ENDBRANCH  26  27
ENDBRANCH  25  26
ENDBRANCH   1  25
TORSDOF 20
ENDMDL
