MODEL 1
REMARK VINA RESULT:     -10.3      0.000      0.000
REMARK SMILES CC(C)[NH2+][C@]1(C(=O)OCCOCCOC(=O)c2ccc(-c3c4nc(c(-c5ccc(S(=O)(=O)[O-])cc5)c5ccc([nH]5)c(-c5ccc(S(=O)(=O)[O-])cc5)c5nc(c(-c6ccc(S(=O)(=O)[O-])cc6)c6ccc3[nH]6)C=C5)C=C4)cc2)CC[C@H]([N@H+](C)C2CCCC2)C1
REMARK SMILES IDX 12 1 11 2 10 3 9 4 8 5 6 6 7 7 5 8 77 9 87 10 78 11 79 12
REMARK SMILES IDX 4 13 2 16 1 17 3 18 80 19 81 20 82 22 83 23 86 24 84 25
REMARK SMILES IDX 85 26 13 27 14 28 15 29 16 30 17 31 18 32 76 33 19 34 75 35
REMARK SMILES IDX 20 36 21 37 22 38 69 39 23 40 74 41 68 42 70 43 24 44 73 45
REMARK SMILES IDX 67 46 66 47 25 49 55 50 36 51 54 52 37 53 40 54 53 55 71 56
REMARK SMILES IDX 38 57 39 58 52 60 72 61 41 62 26 63 27 64 35 65 28 66 34 67
REMARK SMILES IDX 29 68 30 69 31 70 32 71 33 72 56 73 57 74 65 75 58 76 64 77
REMARK SMILES IDX 59 78 60 79 61 80 62 81 63 82 42 83 43 84 51 85 44 86 50 87
REMARK SMILES IDX 45 88 46 89 47 90 48 91 49 92
REMARK H PARENT 4 14 4 15 80 21 70 48 40 59
REMARK Flexibility Score: inf
ROOT
ATOM      1  C   UNL A   1      38.620  22.840  26.191  1.00  0.00     0.202 C 
ENDROOT
BRANCH   1   2
ATOM      2  O   UNL A   1      37.744  22.540  25.105  1.00  0.00    -0.374 OA
BRANCH   2   3
ATOM      3  C   UNL A   1      37.317  21.182  24.987  1.00  0.00     0.202 C 
BRANCH   3   4
ATOM      4  C   UNL A   1      35.908  20.871  25.490  1.00  0.00     0.261 C 
BRANCH   4   5
ATOM      5  O   UNL A   1      35.298  22.023  26.100  1.00  0.00    -0.459 OA
BRANCH   5   6
ATOM      6  C   UNL A   1      33.987  21.879  26.416  1.00  0.00     0.368 C 
ATOM      7  O   UNL A   1      33.538  20.909  27.025  1.00  0.00    -0.245 OA
BRANCH   6   8
ATOM      8  C   UNL A   1      33.095  23.003  25.865  1.00  0.00     0.200 C 
ATOM      9  C   UNL A   1      31.865  22.298  25.265  1.00  0.00     0.087 C 
ATOM     10  C   UNL A   1      32.443  23.781  27.022  1.00  0.00     0.146 C 
ATOM     11  C   UNL A   1      30.736  23.312  25.348  1.00  0.00     0.072 C 
ATOM     12  C   UNL A   1      31.025  24.198  26.579  1.00  0.00     0.191 C 
BRANCH   8  13
ATOM     13  N   UNL A   1      33.662  23.887  24.814  1.00  0.00    -0.330 N 
ATOM     14  H   UNL A   1      33.138  24.762  24.859  1.00  0.00     0.347 HD
ATOM     15  H   UNL A   1      34.654  23.903  25.049  1.00  0.00     0.347 HD
BRANCH  13  16
ATOM     16  C   UNL A   1      33.673  23.485  23.410  1.00  0.00     0.176 C 
ATOM     17  C   UNL A   1      33.077  24.638  22.590  1.00  0.00     0.075 C 
ATOM     18  C   UNL A   1      35.053  23.166  22.835  1.00  0.00     0.075 C 
ENDBRANCH  13  16
ENDBRANCH   8  13
BRANCH  12  19
ATOM     19  N   UNL A   1      30.746  25.614  26.239  1.00  0.00    -0.332 N 
ATOM     20  C   UNL A   1      30.307  25.818  24.859  1.00  0.00     0.333 C 
ATOM     21  H   UNL A   1      29.963  25.878  26.838  1.00  0.00     0.348 HD
BRANCH  19  22
ATOM     22  C   UNL A   1      31.901  26.487  26.539  1.00  0.00     0.184 C 
ATOM     23  C   UNL A   1      32.496  27.171  25.301  1.00  0.00     0.065 C 
ATOM     24  C   UNL A   1      31.611  27.708  27.424  1.00  0.00     0.065 C 
ATOM     25  C   UNL A   1      33.415  28.241  25.877  1.00  0.00     0.006 C 
ATOM     26  C   UNL A   1      32.800  28.640  27.214  1.00  0.00     0.006 C 
ENDBRANCH  19  22
ENDBRANCH  12  19
ENDBRANCH   6   8
ENDBRANCH   5   6
ENDBRANCH   4   5
ENDBRANCH   3   4
ENDBRANCH   2   3
ENDBRANCH   1   2
BRANCH   1  27
ATOM     27  C   UNL A   1      38.786  24.332  26.521  1.00  0.00     0.261 C 
BRANCH  27  28
ATOM     28  O   UNL A   1      40.113  24.627  27.008  1.00  0.00    -0.460 OA
BRANCH  28  29
ATOM     29  C   UNL A   1      40.520  25.903  26.803  1.00  0.00     0.338 C 
ATOM     30  O   UNL A   1      40.947  26.374  25.757  1.00  0.00    -0.246 OA
BRANCH  29  31
ATOM     31  C   UNL A   1      40.173  26.754  27.960  1.00  0.00     0.060 A 
ATOM     32  C   UNL A   1      40.813  27.998  28.041  1.00  0.00     0.016 A 
ATOM     33  C   UNL A   1      39.304  26.343  28.975  1.00  0.00     0.016 A 
ATOM     34  C   UNL A   1      40.640  28.805  29.161  1.00  0.00     0.010 A 
ATOM     35  C   UNL A   1      39.139  27.156  30.107  1.00  0.00     0.010 A 
ATOM     36  C   UNL A   1      39.838  28.372  30.226  1.00  0.00    -0.014 A 
BRANCH  36  37
ATOM     37  C   UNL A   1      39.866  29.147  31.495  1.00  0.00     0.031 A 
ATOM     38  C   UNL A   1      40.985  28.915  32.479  1.00  0.00     0.074 A 
ATOM     39  C   UNL A   1      38.966  30.121  31.724  1.00  0.00     0.049 A 
ATOM     40  N   UNL A   1      41.248  29.544  33.596  1.00  0.00    -0.248 NA
ATOM     41  C   UNL A   1      41.936  27.839  32.157  1.00  0.00     0.031 C 
ATOM     42  C   UNL A   1      37.862  30.478  30.834  1.00  0.00     0.029 A 
ATOM     43  N   UNL A   1      38.850  31.001  32.772  1.00  0.00    -0.354 N 
ATOM     44  C   UNL A   1      42.391  28.942  34.112  1.00  0.00     0.074 A 
ATOM     45  C   UNL A   1      42.749  27.875  33.203  1.00  0.00     0.031 C 
ATOM     46  C   UNL A   1      37.188  31.512  31.366  1.00  0.00     0.029 A 
ATOM     47  C   UNL A   1      37.793  31.870  32.649  1.00  0.00     0.049 A 
ATOM     48  H   UNL A   1      39.466  31.008  33.540  1.00  0.00     0.167 HD
ATOM     49  C   UNL A   1      43.085  29.253  35.234  1.00  0.00     0.031 A 
ATOM     50  C   UNL A   1      37.353  32.840  33.476  1.00  0.00     0.031 A 
ATOM     51  C   UNL A   1      42.722  30.304  36.148  1.00  0.00     0.049 A 
ATOM     52  C   UNL A   1      38.102  33.120  34.753  1.00  0.00     0.074 A 
ATOM     53  C   UNL A   1      43.372  30.703  37.305  1.00  0.00     0.029 A 
ATOM     54  N   UNL A   1      41.607  31.121  36.020  1.00  0.00    -0.354 N 
ATOM     55  N   UNL A   1      39.196  32.558  35.210  1.00  0.00    -0.248 NA
ATOM     56  C   UNL A   1      37.562  34.177  35.619  1.00  0.00     0.031 C 
ATOM     57  C   UNL A   1      42.617  31.713  37.908  1.00  0.00     0.029 A 
ATOM     58  C   UNL A   1      41.534  31.996  37.091  1.00  0.00     0.049 A 
ATOM     59  H   UNL A   1      40.963  31.083  35.276  1.00  0.00     0.167 HD
ATOM     60  C   UNL A   1      39.486  33.210  36.404  1.00  0.00     0.074 A 
ATOM     61  C   UNL A   1      38.469  34.225  36.585  1.00  0.00     0.031 C 
ATOM     62  C   UNL A   1      40.506  32.991  37.274  1.00  0.00     0.031 A 
BRANCH  49  63
ATOM     63  C   UNL A   1      44.295  28.414  35.559  1.00  0.00    -0.014 A 
ATOM     64  C   UNL A   1      45.578  28.767  35.100  1.00  0.00     0.010 A 
ATOM     65  C   UNL A   1      44.153  27.277  36.377  1.00  0.00     0.010 A 
ATOM     66  C   UNL A   1      46.687  27.979  35.420  1.00  0.00     0.020 A 
ATOM     67  C   UNL A   1      45.264  26.503  36.725  1.00  0.00     0.020 A 
ATOM     68  C   UNL A   1      46.522  26.850  36.230  1.00  0.00     0.054 A 
BRANCH  68  69
ATOM     69  S   UNL A   1      47.982  25.858  36.650  1.00  0.00     0.124 S 
ATOM     70  O   UNL A   1      49.056  26.619  36.016  1.00  0.00    -0.237 OA
ATOM     71  O   UNL A   1      47.975  25.881  38.111  1.00  0.00    -0.237 OA
ATOM     72  O   UNL A   1      47.703  24.557  36.049  1.00  0.00    -0.744 OA
ENDBRANCH  68  69
ENDBRANCH  49  63
BRANCH  50  73
ATOM     73  C   UNL A   1      36.127  33.613  33.130  1.00  0.00    -0.014 A 
ATOM     74  C   UNL A   1      36.213  34.930  32.646  1.00  0.00     0.010 A 
ATOM     75  C   UNL A   1      34.858  33.026  33.291  1.00  0.00     0.010 A 
ATOM     76  C   UNL A   1      35.053  35.651  32.346  1.00  0.00     0.020 A 
ATOM     77  C   UNL A   1      33.698  33.732  32.963  1.00  0.00     0.020 A 
ATOM     78  C   UNL A   1      33.803  35.046  32.501  1.00  0.00     0.054 A 
BRANCH  78  79
ATOM     79  S   UNL A   1      32.314  35.980  32.053  1.00  0.00     0.124 S 
ATOM     80  O   UNL A   1      32.593  37.293  32.626  1.00  0.00    -0.237 OA
ATOM     81  O   UNL A   1      32.325  35.910  30.594  1.00  0.00    -0.237 OA
ATOM     82  O   UNL A   1      31.234  35.233  32.696  1.00  0.00    -0.744 OA
ENDBRANCH  78  79
ENDBRANCH  50  73
BRANCH  62  83
ATOM     83  C   UNL A   1      40.582  33.883  38.488  1.00  0.00    -0.014 A 
ATOM     84  C   UNL A   1      39.902  33.563  39.678  1.00  0.00     0.010 A 
ATOM     85  C   UNL A   1      41.358  35.056  38.442  1.00  0.00     0.010 A 
ATOM     86  C   UNL A   1      39.949  34.428  40.776  1.00  0.00     0.020 A 
ATOM     87  C   UNL A   1      41.436  35.906  39.549  1.00  0.00     0.020 A 
ATOM     88  C   UNL A   1      40.710  35.598  40.702  1.00  0.00     0.054 A 
BRANCH  88  89
ATOM     89  S   UNL A   1      40.754  36.705  42.138  1.00  0.00     0.124 S 
ATOM     90  O   UNL A   1      41.012  38.001  41.515  1.00  0.00    -0.237 OA
ATOM     91  O   UNL A   1      39.421  36.539  42.713  1.00  0.00    -0.237 OA
ATOM     92  O   UNL A   1      41.846  36.175  42.952  1.00  0.00    -0.744 OA
ENDBRANCH  88  89
ENDBRANCH  62  83
ENDBRANCH  36  37
ENDBRANCH  29  31
ENDBRANCH  28  29
ENDBRANCH  27  28
ENDBRANCH   1  27
TORSDOF 21
ENDMDL
MODEL 2
REMARK VINA RESULT:     -10.3      1.795      2.520
REMARK SMILES CC(C)[NH2+][C@]1(C(=O)OCCOCCOC(=O)c2ccc(-c3c4nc(c(-c5ccc(S(=O)(=O)[O-])cc5)c5ccc([nH]5)c(-c5ccc(S(=O)(=O)[O-])cc5)c5nc(c(-c6ccc(S(=O)(=O)[O-])cc6)c6ccc3[nH]6)C=C5)C=C4)cc2)CC[C@H]([N@H+](C)C2CCCC2)C1
REMARK SMILES IDX 12 1 11 2 10 3 9 4 8 5 6 6 7 7 5 8 77 9 87 10 78 11 79 12
REMARK SMILES IDX 4 13 2 16 1 17 3 18 80 19 81 20 82 22 83 23 86 24 84 25
REMARK SMILES IDX 85 26 13 27 14 28 15 29 16 30 17 31 18 32 76 33 19 34 75 35
REMARK SMILES IDX 20 36 21 37 22 38 69 39 23 40 74 41 68 42 70 43 24 44 73 45
REMARK SMILES IDX 67 46 66 47 25 49 55 50 36 51 54 52 37 53 40 54 53 55 71 56
REMARK SMILES IDX 38 57 39 58 52 60 72 61 41 62 26 63 27 64 35 65 28 66 34 67
REMARK SMILES IDX 29 68 30 69 31 70 32 71 33 72 56 73 57 74 65 75 58 76 64 77
REMARK SMILES IDX 59 78 60 79 61 80 62 81 63 82 42 83 43 84 51 85 44 86 50 87
REMARK SMILES IDX 45 88 46 89 47 90 48 91 49 92
REMARK H PARENT 4 14 4 15 80 21 70 48 40 59
REMARK Flexibility Score: inf
ROOT
ATOM      1  C   UNL A   1      38.452  22.389  26.120  1.00  0.00     0.202 C 
ENDROOT
BRANCH   1   2
ATOM      2  O   UNL A   1      38.173  21.434  25.097  1.00  0.00    -0.374 OA
BRANCH   2   3
ATOM      3  C   UNL A   1      36.883  21.509  24.489  1.00  0.00     0.202 C 
BRANCH   3   4
ATOM      4  C   UNL A   1      36.629  22.717  23.589  1.00  0.00     0.261 C 
BRANCH   4   5
ATOM      5  O   UNL A   1      35.759  23.673  24.221  1.00  0.00    -0.459 OA
BRANCH   5   6
ATOM      6  C   UNL A   1      34.590  23.903  23.571  1.00  0.00     0.368 C 
ATOM      7  O   UNL A   1      34.386  23.572  22.405  1.00  0.00    -0.245 OA
BRANCH   6   8
ATOM      8  C   UNL A   1      33.568  24.693  24.406  1.00  0.00     0.200 C 
ATOM      9  C   UNL A   1      34.350  25.219  25.623  1.00  0.00     0.087 C 
ATOM     10  C   UNL A   1      33.212  26.014  23.701  1.00  0.00     0.146 C 
ATOM     11  C   UNL A   1      33.622  26.481  26.057  1.00  0.00     0.072 C 
ATOM     12  C   UNL A   1      32.994  27.090  24.784  1.00  0.00     0.191 C 
BRANCH   8  13
ATOM     13  N   UNL A   1      32.378  23.965  24.917  1.00  0.00    -0.330 N 
ATOM     14  H   UNL A   1      31.877  24.618  25.520  1.00  0.00     0.347 HD
ATOM     15  H   UNL A   1      31.925  23.650  24.059  1.00  0.00     0.347 HD
BRANCH  13  16
ATOM     16  C   UNL A   1      32.516  22.725  25.676  1.00  0.00     0.176 C 
ATOM     17  C   UNL A   1      31.581  22.815  26.891  1.00  0.00     0.075 C 
ATOM     18  C   UNL A   1      32.168  21.449  24.910  1.00  0.00     0.075 C 
ENDBRANCH  13  16
ENDBRANCH   8  13
BRANCH  12  19
ATOM     19  N   UNL A   1      31.621  27.557  25.092  1.00  0.00    -0.332 N 
ATOM     20  C   UNL A   1      30.739  26.511  25.605  1.00  0.00     0.333 C 
ATOM     21  H   UNL A   1      31.738  28.237  25.844  1.00  0.00     0.348 HD
BRANCH  19  22
ATOM     22  C   UNL A   1      30.996  28.224  23.929  1.00  0.00     0.184 C 
ATOM     23  C   UNL A   1      29.651  27.613  23.516  1.00  0.00     0.065 C 
ATOM     24  C   UNL A   1      30.589  29.691  24.132  1.00  0.00     0.065 C 
ATOM     25  C   UNL A   1      29.059  28.638  22.557  1.00  0.00     0.006 C 
ATOM     26  C   UNL A   1      29.607  29.989  23.005  1.00  0.00     0.006 C 
ENDBRANCH  19  22
ENDBRANCH  12  19
ENDBRANCH   6   8
ENDBRANCH   5   6
ENDBRANCH   4   5
ENDBRANCH   3   4
ENDBRANCH   2   3
ENDBRANCH   1   2
BRANCH   1  27
ATOM     27  C   UNL A   1      39.936  22.568  26.479  1.00  0.00     0.261 C 
BRANCH  27  28
ATOM     28  O   UNL A   1      40.353  23.944  26.354  1.00  0.00    -0.460 OA
BRANCH  28  29
ATOM     29  C   UNL A   1      41.354  24.311  27.191  1.00  0.00     0.338 C 
ATOM     30  O   UNL A   1      42.508  23.906  27.170  1.00  0.00    -0.246 OA
BRANCH  29  31
ATOM     31  C   UNL A   1      40.942  25.460  28.024  1.00  0.00     0.060 A 
ATOM     32  C   UNL A   1      41.929  26.412  28.314  1.00  0.00     0.016 A 
ATOM     33  C   UNL A   1      39.661  25.589  28.565  1.00  0.00     0.016 A 
ATOM     34  C   UNL A   1      41.661  27.456  29.194  1.00  0.00     0.010 A 
ATOM     35  C   UNL A   1      39.396  26.639  29.459  1.00  0.00     0.010 A 
ATOM     36  C   UNL A   1      40.406  27.554  29.811  1.00  0.00    -0.014 A 
BRANCH  36  37
ATOM     37  C   UNL A   1      40.234  28.534  30.915  1.00  0.00     0.031 A 
ATOM     38  C   UNL A   1      41.133  28.454  32.123  1.00  0.00     0.074 A 
ATOM     39  C   UNL A   1      39.359  29.551  30.800  1.00  0.00     0.049 A 
ATOM     40  N   UNL A   1      41.212  29.261  33.151  1.00  0.00    -0.248 NA
ATOM     41  C   UNL A   1      42.070  27.321  32.176  1.00  0.00     0.031 C 
ATOM     42  C   UNL A   1      38.464  29.770  29.665  1.00  0.00     0.029 A 
ATOM     43  N   UNL A   1      39.093  30.600  31.645  1.00  0.00    -0.354 N 
ATOM     44  C   UNL A   1      42.204  28.735  33.973  1.00  0.00     0.074 A 
ATOM     45  C   UNL A   1      42.671  27.520  33.340  1.00  0.00     0.031 C 
ATOM     46  C   UNL A   1      37.756  30.893  29.877  1.00  0.00     0.029 A 
ATOM     47  C   UNL A   1      38.125  31.456  31.176  1.00  0.00     0.049 A 
ATOM     48  H   UNL A   1      39.552  30.728  32.507  1.00  0.00     0.167 HD
ATOM     49  C   UNL A   1      42.689  29.220  35.141  1.00  0.00     0.031 A 
ATOM     50  C   UNL A   1      37.588  32.562  31.729  1.00  0.00     0.031 A 
ATOM     51  C   UNL A   1      42.214  30.421  35.781  1.00  0.00     0.049 A 
ATOM     52  C   UNL A   1      38.096  33.043  33.064  1.00  0.00     0.074 A 
ATOM     53  C   UNL A   1      42.654  31.000  36.960  1.00  0.00     0.029 A 
ATOM     54  N   UNL A   1      41.188  31.224  35.304  1.00  0.00    -0.354 N 
ATOM     55  N   UNL A   1      39.053  32.546  33.813  1.00  0.00    -0.248 NA
ATOM     56  C   UNL A   1      37.457  34.244  33.621  1.00  0.00     0.031 C 
ATOM     57  C   UNL A   1      41.852  32.113  37.229  1.00  0.00     0.029 A 
ATOM     58  C   UNL A   1      40.959  32.272  36.181  1.00  0.00     0.049 A 
ATOM     59  H   UNL A   1      40.695  31.071  34.465  1.00  0.00     0.167 HD
ATOM     60  C   UNL A   1      39.145  33.389  34.916  1.00  0.00     0.074 A 
ATOM     61  C   UNL A   1      38.166  34.439  34.724  1.00  0.00     0.031 C 
ATOM     62  C   UNL A   1      39.968  33.303  35.993  1.00  0.00     0.031 A 
BRANCH  49  63
ATOM     63  C   UNL A   1      43.769  28.427  35.830  1.00  0.00    -0.014 A 
ATOM     64  C   UNL A   1      43.459  27.392  36.732  1.00  0.00     0.010 A 
ATOM     65  C   UNL A   1      45.121  28.693  35.536  1.00  0.00     0.010 A 
ATOM     66  C   UNL A   1      44.478  26.664  37.353  1.00  0.00     0.020 A 
ATOM     67  C   UNL A   1      46.142  27.947  36.133  1.00  0.00     0.020 A 
ATOM     68  C   UNL A   1      45.814  26.948  37.051  1.00  0.00     0.054 A 
BRANCH  68  69
ATOM     69  S   UNL A   1      47.116  25.972  37.854  1.00  0.00     0.124 S 
ATOM     70  O   UNL A   1      47.085  26.494  39.218  1.00  0.00    -0.237 OA
ATOM     71  O   UNL A   1      46.633  24.603  37.695  1.00  0.00    -0.237 OA
ATOM     72  O   UNL A   1      48.316  26.299  37.090  1.00  0.00    -0.744 OA
ENDBRANCH  68  69
ENDBRANCH  49  63
BRANCH  50  73
ATOM     73  C   UNL A   1      36.492  33.287  31.028  1.00  0.00    -0.014 A 
ATOM     74  C   UNL A   1      36.714  33.913  29.789  1.00  0.00     0.010 A 
ATOM     75  C   UNL A   1      35.211  33.355  31.607  1.00  0.00     0.010 A 
ATOM     76  C   UNL A   1      35.682  34.609  29.152  1.00  0.00     0.020 A 
ATOM     77  C   UNL A   1      34.169  34.022  30.959  1.00  0.00     0.020 A 
ATOM     78  C   UNL A   1      34.414  34.655  29.739  1.00  0.00     0.054 A 
BRANCH  78  79
ATOM     79  S   UNL A   1      33.075  35.515  28.868  1.00  0.00     0.124 S 
ATOM     80  O   UNL A   1      32.294  36.061  29.973  1.00  0.00    -0.237 OA
ATOM     81  O   UNL A   1      33.801  36.493  28.062  1.00  0.00    -0.237 OA
ATOM     82  O   UNL A   1      32.424  34.451  28.105  1.00  0.00    -0.744 OA
ENDBRANCH  78  79
ENDBRANCH  50  73
BRANCH  62  83
ATOM     83  C   UNL A   1      39.861  34.389  37.033  1.00  0.00    -0.014 A 
ATOM     84  C   UNL A   1      39.042  34.239  38.169  1.00  0.00     0.010 A 
ATOM     85  C   UNL A   1      40.600  35.576  36.881  1.00  0.00     0.010 A 
ATOM     86  C   UNL A   1      38.920  35.277  39.097  1.00  0.00     0.020 A 
ATOM     87  C   UNL A   1      40.508  36.603  37.825  1.00  0.00     0.020 A 
ATOM     88  C   UNL A   1      39.649  36.456  38.916  1.00  0.00     0.054 A 
BRANCH  88  89
ATOM     89  S   UNL A   1      39.474  37.789  40.133  1.00  0.00     0.124 S 
ATOM     90  O   UNL A   1      40.720  38.529  39.955  1.00  0.00    -0.237 OA
ATOM     91  O   UNL A   1      38.265  38.477  39.684  1.00  0.00    -0.237 OA
ATOM     92  O   UNL A   1      39.344  37.083  41.406  1.00  0.00    -0.744 OA
ENDBRANCH  88  89
ENDBRANCH  62  83
ENDBRANCH  36  37
ENDBRANCH  29  31
ENDBRANCH  28  29
ENDBRANCH  27  28
ENDBRANCH   1  27
TORSDOF 21
ENDMDL
MODEL 3
REMARK VINA RESULT:     -10.2      1.777      2.549
REMARK SMILES CC(C)[NH2+][C@]1(C(=O)OCCOCCOC(=O)c2ccc(-c3c4nc(c(-c5ccc(S(=O)(=O)[O-])cc5)c5ccc([nH]5)c(-c5ccc(S(=O)(=O)[O-])cc5)c5nc(c(-c6ccc(S(=O)(=O)[O-])cc6)c6ccc3[nH]6)C=C5)C=C4)cc2)CC[C@H]([N@H+](C)C2CCCC2)C1
REMARK SMILES IDX 12 1 11 2 10 3 9 4 8 5 6 6 7 7 5 8 77 9 87 10 78 11 79 12
REMARK SMILES IDX 4 13 2 16 1 17 3 18 80 19 81 20 82 22 83 23 86 24 84 25
REMARK SMILES IDX 85 26 13 27 14 28 15 29 16 30 17 31 18 32 76 33 19 34 75 35
REMARK SMILES IDX 20 36 21 37 22 38 69 39 23 40 74 41 68 42 70 43 24 44 73 45
REMARK SMILES IDX 67 46 66 47 25 49 55 50 36 51 54 52 37 53 40 54 53 55 71 56
REMARK SMILES IDX 38 57 39 58 52 60 72 61 41 62 26 63 27 64 35 65 28 66 34 67
REMARK SMILES IDX 29 68 30 69 31 70 32 71 33 72 56 73 57 74 65 75 58 76 64 77
REMARK SMILES IDX 59 78 60 79 61 80 62 81 63 82 42 83 43 84 51 85 44 86 50 87
REMARK SMILES IDX 45 88 46 89 47 90 48 91 49 92
REMARK H PARENT 4 14 4 15 80 21 70 48 40 59
REMARK Flexibility Score: inf
ROOT
ATOM      1  C   UNL A   1      41.760  21.497  27.331  1.00  0.00     0.202 C 
ENDROOT
BRANCH   1   2
ATOM      2  O   UNL A   1      40.339  21.448  27.454  1.00  0.00    -0.374 OA
BRANCH   2   3
ATOM      3  C   UNL A   1      39.593  22.297  26.581  1.00  0.00     0.202 C 
BRANCH   3   4
ATOM      4  C   UNL A   1      38.549  21.612  25.701  1.00  0.00     0.261 C 
BRANCH   4   5
ATOM      5  O   UNL A   1      37.219  22.068  26.009  1.00  0.00    -0.459 OA
BRANCH   5   6
ATOM      6  C   UNL A   1      36.381  22.153  24.944  1.00  0.00     0.368 C 
ATOM      7  O   UNL A   1      36.769  22.237  23.780  1.00  0.00    -0.245 OA
BRANCH   6   8
ATOM      8  C   UNL A   1      34.896  22.220  25.335  1.00  0.00     0.200 C 
ATOM      9  C   UNL A   1      34.831  21.734  26.795  1.00  0.00     0.087 C 
ATOM     10  C   UNL A   1      34.454  23.685  25.501  1.00  0.00     0.146 C 
ATOM     11  C   UNL A   1      33.603  22.402  27.390  1.00  0.00     0.072 C 
ATOM     12  C   UNL A   1      33.428  23.748  26.652  1.00  0.00     0.191 C 
BRANCH   8  13
ATOM     13  N   UNL A   1      33.934  21.405  24.549  1.00  0.00    -0.330 N 
ATOM     14  H   UNL A   1      33.041  21.900  24.582  1.00  0.00     0.347 HD
ATOM     15  H   UNL A   1      34.404  21.314  23.648  1.00  0.00     0.347 HD
BRANCH  13  16
ATOM     16  C   UNL A   1      33.649  20.017  24.902  1.00  0.00     0.176 C 
ATOM     17  C   UNL A   1      32.412  19.577  24.105  1.00  0.00     0.075 C 
ATOM     18  C   UNL A   1      34.774  19.026  24.605  1.00  0.00     0.075 C 
ENDBRANCH  13  16
ENDBRANCH   8  13
BRANCH  12  19
ATOM     19  N   UNL A   1      31.992  23.956  26.348  1.00  0.00    -0.332 N 
ATOM     20  C   UNL A   1      31.353  22.817  25.691  1.00  0.00     0.333 C 
ATOM     21  H   UNL A   1      31.544  24.057  27.260  1.00  0.00     0.348 HD
BRANCH  19  22
ATOM     22  C   UNL A   1      31.772  25.187  25.560  1.00  0.00     0.184 C 
ATOM     23  C   UNL A   1      30.316  25.386  25.120  1.00  0.00     0.065 C 
ATOM     24  C   UNL A   1      32.029  26.512  26.293  1.00  0.00     0.065 C 
ATOM     25  C   UNL A   1      30.271  26.831  24.639  1.00  0.00     0.006 C 
ATOM     26  C   UNL A   1      31.327  27.572  25.452  1.00  0.00     0.006 C 
ENDBRANCH  19  22
ENDBRANCH  12  19
ENDBRANCH   6   8
ENDBRANCH   5   6
ENDBRANCH   4   5
ENDBRANCH   3   4
ENDBRANCH   2   3
ENDBRANCH   1   2
BRANCH   1  27
ATOM     27  C   UNL A   1      42.309  22.558  26.366  1.00  0.00     0.261 C 
BRANCH  27  28
ATOM     28  O   UNL A   1      42.965  23.634  27.072  1.00  0.00    -0.460 OA
BRANCH  28  29
ATOM     29  C   UNL A   1      42.833  24.853  26.496  1.00  0.00     0.338 C 
ATOM     30  O   UNL A   1      43.009  25.126  25.316  1.00  0.00    -0.246 OA
BRANCH  29  31
ATOM     31  C   UNL A   1      42.215  25.811  27.437  1.00  0.00     0.060 A 
ATOM     32  C   UNL A   1      42.903  27.012  27.654  1.00  0.00     0.016 A 
ATOM     33  C   UNL A   1      41.041  25.537  28.141  1.00  0.00     0.016 A 
ATOM     34  C   UNL A   1      42.459  27.912  28.617  1.00  0.00     0.010 A 
ATOM     35  C   UNL A   1      40.600  26.443  29.119  1.00  0.00     0.010 A 
ATOM     36  C   UNL A   1      41.329  27.616  29.391  1.00  0.00    -0.014 A 
BRANCH  36  37
ATOM     37  C   UNL A   1      41.025  28.481  30.562  1.00  0.00     0.031 A 
ATOM     38  C   UNL A   1      41.893  28.395  31.792  1.00  0.00     0.074 A 
ATOM     39  C   UNL A   1      40.052  29.410  30.494  1.00  0.00     0.049 A 
ATOM     40  N   UNL A   1      41.859  29.120  32.881  1.00  0.00    -0.248 NA
ATOM     41  C   UNL A   1      42.941  27.362  31.790  1.00  0.00     0.031 C 
ATOM     42  C   UNL A   1      39.172  29.629  29.348  1.00  0.00     0.029 A 
ATOM     43  N   UNL A   1      39.655  30.355  31.408  1.00  0.00    -0.354 N 
ATOM     44  C   UNL A   1      42.876  28.631  33.695  1.00  0.00     0.074 A 
ATOM     45  C   UNL A   1      43.485  27.526  32.987  1.00  0.00     0.031 C 
ATOM     46  C   UNL A   1      38.346  30.653  29.621  1.00  0.00     0.029 A 
ATOM     47  C   UNL A   1      38.618  31.143  30.972  1.00  0.00     0.049 A 
ATOM     48  H   UNL A   1      40.075  30.458  32.293  1.00  0.00     0.167 HD
ATOM     49  C   UNL A   1      43.275  29.067  34.915  1.00  0.00     0.031 A 
ATOM     50  C   UNL A   1      37.953  32.140  31.590  1.00  0.00     0.031 A 
ATOM     51  C   UNL A   1      42.661  30.157  35.628  1.00  0.00     0.049 A 
ATOM     52  C   UNL A   1      38.371  32.561  32.975  1.00  0.00     0.074 A 
ATOM     53  C   UNL A   1      43.004  30.680  36.864  1.00  0.00     0.029 A 
ATOM     54  N   UNL A   1      41.571  30.889  35.178  1.00  0.00    -0.354 N 
ATOM     55  N   UNL A   1      39.352  32.104  33.718  1.00  0.00    -0.248 NA
ATOM     56  C   UNL A   1      37.595  33.641  33.600  1.00  0.00     0.031 C 
ATOM     57  C   UNL A   1      42.084  31.681  37.189  1.00  0.00     0.029 A 
ATOM     58  C   UNL A   1      41.210  31.834  36.125  1.00  0.00     0.049 A 
ATOM     59  H   UNL A   1      41.120  30.755  34.312  1.00  0.00     0.167 HD
ATOM     60  C   UNL A   1      39.326  32.860  34.886  1.00  0.00     0.074 A 
ATOM     61  C   UNL A   1      38.249  33.817  34.741  1.00  0.00     0.031 C 
ATOM     62  C   UNL A   1      40.123  32.771  35.982  1.00  0.00     0.031 A 
BRANCH  49  63
ATOM     63  C   UNL A   1      44.413  28.334  35.579  1.00  0.00    -0.014 A 
ATOM     64  C   UNL A   1      45.753  28.693  35.345  1.00  0.00     0.010 A 
ATOM     65  C   UNL A   1      44.133  27.297  36.489  1.00  0.00     0.010 A 
ATOM     66  C   UNL A   1      46.792  28.004  35.978  1.00  0.00     0.020 A 
ATOM     67  C   UNL A   1      45.169  26.626  37.147  1.00  0.00     0.020 A 
ATOM     68  C   UNL A   1      46.493  26.974  36.875  1.00  0.00     0.054 A 
BRANCH  68  69
ATOM     69  S   UNL A   1      47.859  26.112  37.701  1.00  0.00     0.124 S 
ATOM     70  O   UNL A   1      48.147  27.006  38.819  1.00  0.00    -0.237 OA
ATOM     71  O   UNL A   1      47.257  24.830  38.061  1.00  0.00    -0.237 OA
ATOM     72  O   UNL A   1      48.897  26.044  36.676  1.00  0.00    -0.744 OA
ENDBRANCH  68  69
ENDBRANCH  49  63
BRANCH  50  73
ATOM     73  C   UNL A   1      36.808  32.805  30.908  1.00  0.00    -0.014 A 
ATOM     74  C   UNL A   1      35.480  32.458  31.216  1.00  0.00     0.010 A 
ATOM     75  C   UNL A   1      37.046  33.793  29.935  1.00  0.00     0.010 A 
ATOM     76  C   UNL A   1      34.415  33.074  30.552  1.00  0.00     0.020 A 
ATOM     77  C   UNL A   1      35.984  34.434  29.293  1.00  0.00     0.020 A 
ATOM     78  C   UNL A   1      34.674  34.062  29.598  1.00  0.00     0.054 A 
BRANCH  78  79
ATOM     79  S   UNL A   1      33.275  34.888  28.789  1.00  0.00     0.124 S 
ATOM     80  O   UNL A   1      33.913  36.058  28.196  1.00  0.00    -0.237 OA
ATOM     81  O   UNL A   1      32.812  33.873  27.847  1.00  0.00    -0.237 OA
ATOM     82  O   UNL A   1      32.358  35.166  29.893  1.00  0.00    -0.744 OA
ENDBRANCH  78  79
ENDBRANCH  50  73
BRANCH  62  83
ATOM     83  C   UNL A   1      39.874  33.752  37.099  1.00  0.00    -0.014 A 
ATOM     84  C   UNL A   1      39.152  33.385  38.251  1.00  0.00     0.010 A 
ATOM     85  C   UNL A   1      40.380  35.061  37.003  1.00  0.00     0.010 A 
ATOM     86  C   UNL A   1      38.892  34.324  39.254  1.00  0.00     0.020 A 
ATOM     87  C   UNL A   1      40.152  35.993  38.019  1.00  0.00     0.020 A 
ATOM     88  C   UNL A   1      39.388  35.625  39.128  1.00  0.00     0.054 A 
BRANCH  88  89
ATOM     89  S   UNL A   1      39.037  36.826  40.441  1.00  0.00     0.124 S 
ATOM     90  O   UNL A   1      38.080  36.099  41.270  1.00  0.00    -0.237 OA
ATOM     91  O   UNL A   1      40.352  37.040  41.041  1.00  0.00    -0.237 OA
ATOM     92  O   UNL A   1      38.492  37.977  39.724  1.00  0.00    -0.744 OA
ENDBRANCH  88  89
ENDBRANCH  62  83
ENDBRANCH  36  37
ENDBRANCH  29  31
ENDBRANCH  28  29
ENDBRANCH  27  28
ENDBRANCH   1  27
TORSDOF 21
ENDMDL
