MODEL 1
REMARK VINA RESULT:     -11.4      0.000      0.000
REMARK SMILES CC1(C)[C@H](C(=O)OCCOCCOC(=O)c2ccc(-c3c4nc(c(-c5ccc(S(=O)(=O)[O-])cc5)c5ccc([nH]5)c(-c5ccc(S(=O)(=O)[O-])cc5)c5nc(c(-c6ccc(S(=O)(=O)[O-])cc6)c6ccc3[nH]6)C=C5)C=C4)cc2)[C@@H]1C(=O)Nc1ccc(NC(=O)C2CCC2)cc1
REMARK SMILES IDX 9 1 8 2 7 3 5 4 6 5 4 6 1 7 2 8 3 9 76 10 77 11 78 12 79 13
REMARK SMILES IDX 80 15 81 16 92 17 82 18 91 19 83 20 84 21 85 22 86 24 87 25
REMARK SMILES IDX 88 26 90 27 89 28 10 29 11 30 12 31 13 32 14 33 15 34 16 35
REMARK SMILES IDX 17 36 75 37 18 38 74 39 19 40 20 41 21 42 68 43 22 44 73 45
REMARK SMILES IDX 67 46 69 47 23 48 72 49 66 50 65 51 24 53 54 54 35 55 53 56
REMARK SMILES IDX 36 57 39 58 52 59 70 60 37 61 38 62 51 64 71 65 40 66 25 67
REMARK SMILES IDX 26 68 34 69 27 70 33 71 28 72 29 73 30 74 31 75 32 76 55 77
REMARK SMILES IDX 56 78 64 79 57 80 63 81 58 82 59 83 60 84 61 85 62 86 41 87
REMARK SMILES IDX 42 88 50 89 43 90 49 91 44 92 45 93 46 94 47 95 48 96
REMARK H PARENT 79 14 84 23 69 52 39 63
REMARK Flexibility Score: inf
ROOT
ATOM      1  C   UNL A   1      38.916  21.250  25.766  1.00  0.00     0.202 C 
ENDROOT
BRANCH   1   2
ATOM      2  C   UNL A   1      37.587  21.649  25.091  1.00  0.00     0.261 C 
BRANCH   2   3
ATOM      3  O   UNL A   1      36.335  21.263  25.653  1.00  0.00    -0.463 OA
BRANCH   3   4
ATOM      4  C   UNL A   1      35.285  21.131  24.816  1.00  0.00     0.310 C 
ATOM      5  O   UNL A   1      34.625  20.123  24.675  1.00  0.00    -0.252 OA
BRANCH   4   6
ATOM      6  C   UNL A   1      34.838  22.402  24.195  1.00  0.00     0.118 C 
ATOM      7  C   UNL A   1      33.252  23.423  22.459  1.00  0.00     0.013 C 
ATOM      8  C   UNL A   1      33.422  22.784  23.816  1.00  0.00    -0.009 C 
ATOM      9  C   UNL A   1      32.250  21.893  24.183  1.00  0.00     0.013 C 
ATOM     10  C   UNL A   1      34.195  23.568  24.902  1.00  0.00     0.100 C 
BRANCH  10  11
ATOM     11  C   UNL A   1      33.599  23.663  26.257  1.00  0.00     0.228 C 
ATOM     12  O   UNL A   1      34.024  22.923  27.140  1.00  0.00    -0.274 OA
ATOM     13  N   UNL A   1      32.582  24.530  26.559  1.00  0.00    -0.326 N 
ATOM     14  H   UNL A   1      32.187  24.419  27.454  1.00  0.00     0.169 HD
BRANCH  13  15
ATOM     15  C   UNL A   1      32.026  25.543  25.784  1.00  0.00     0.041 A 
ATOM     16  C   UNL A   1      32.856  26.630  25.565  1.00  0.00     0.028 A 
ATOM     17  C   UNL A   1      30.784  25.491  25.158  1.00  0.00     0.028 A 
ATOM     18  C   UNL A   1      32.540  27.548  24.571  1.00  0.00     0.028 A 
ATOM     19  C   UNL A   1      30.434  26.493  24.230  1.00  0.00     0.028 A 
ATOM     20  C   UNL A   1      31.353  27.497  23.869  1.00  0.00     0.041 A 
BRANCH  20  21
ATOM     21  N   UNL A   1      31.037  28.322  22.782  1.00  0.00    -0.326 N 
ATOM     22  C   UNL A   1      30.091  29.279  22.474  1.00  0.00     0.227 C 
ATOM     23  H   UNL A   1      31.660  28.181  22.033  1.00  0.00     0.169 HD
ATOM     24  O   UNL A   1      30.261  29.781  21.340  1.00  0.00    -0.274 OA
BRANCH  22  25
ATOM     25  C   UNL A   1      28.937  29.818  23.347  1.00  0.00     0.079 C 
ATOM     26  C   UNL A   1      28.935  31.391  23.450  1.00  0.00     0.013 C 
ATOM     27  C   UNL A   1      27.443  29.992  22.974  1.00  0.00     0.013 C 
ATOM     28  C   UNL A   1      27.433  31.318  23.734  1.00  0.00     0.002 C 
ENDBRANCH  22  25
ENDBRANCH  20  21
ENDBRANCH  13  15
ENDBRANCH  10  11
ENDBRANCH   4   6
ENDBRANCH   3   4
ENDBRANCH   2   3
ENDBRANCH   1   2
BRANCH   1  29
ATOM     29  O   UNL A   1      39.603  22.023  26.736  1.00  0.00    -0.374 OA
BRANCH  29  30
ATOM     30  C   UNL A   1      40.894  22.550  26.524  1.00  0.00     0.202 C 
BRANCH  30  31
ATOM     31  C   UNL A   1      41.185  23.968  27.002  1.00  0.00     0.261 C 
BRANCH  31  32
ATOM     32  O   UNL A   1      40.153  24.904  26.674  1.00  0.00    -0.460 OA
BRANCH  32  33
ATOM     33  C   UNL A   1      40.605  26.165  26.472  1.00  0.00     0.338 C 
ATOM     34  O   UNL A   1      41.184  26.592  25.487  1.00  0.00    -0.246 OA
BRANCH  33  35
ATOM     35  C   UNL A   1      40.183  27.040  27.580  1.00  0.00     0.060 A 
ATOM     36  C   UNL A   1      40.721  28.331  27.616  1.00  0.00     0.016 A 
ATOM     37  C   UNL A   1      39.350  26.584  28.605  1.00  0.00     0.016 A 
ATOM     38  C   UNL A   1      40.492  29.147  28.718  1.00  0.00     0.010 A 
ATOM     39  C   UNL A   1      39.129  27.402  29.717  1.00  0.00     0.010 A 
ATOM     40  C   UNL A   1      39.744  28.664  29.799  1.00  0.00    -0.014 A 
BRANCH  40  41
ATOM     41  C   UNL A   1      39.795  29.398  31.085  1.00  0.00     0.031 A 
ATOM     42  C   UNL A   1      40.936  29.114  32.026  1.00  0.00     0.074 A 
ATOM     43  C   UNL A   1      38.887  30.344  31.379  1.00  0.00     0.049 A 
ATOM     44  N   UNL A   1      41.207  29.657  33.185  1.00  0.00    -0.248 NA
ATOM     45  C   UNL A   1      41.902  28.086  31.602  1.00  0.00     0.031 C 
ATOM     46  C   UNL A   1      37.767  30.739  30.527  1.00  0.00     0.029 A 
ATOM     47  N   UNL A   1      38.773  31.151  32.482  1.00  0.00    -0.354 N 
ATOM     48  C   UNL A   1      42.369  29.035  33.629  1.00  0.00     0.074 A 
ATOM     49  C   UNL A   1      42.733  28.051  32.633  1.00  0.00     0.031 C 
ATOM     50  C   UNL A   1      37.077  31.716  31.140  1.00  0.00     0.029 A 
ATOM     51  C   UNL A   1      37.690  31.995  32.438  1.00  0.00     0.049 A 
ATOM     52  H   UNL A   1      39.407  31.128  33.235  1.00  0.00     0.167 HD
ATOM     53  C   UNL A   1      43.075  29.266  34.761  1.00  0.00     0.031 A 
ATOM     54  C   UNL A   1      37.240  32.881  33.347  1.00  0.00     0.031 A 
ATOM     55  C   UNL A   1      42.704  30.235  35.756  1.00  0.00     0.049 A 
ATOM     56  C   UNL A   1      38.003  33.071  34.633  1.00  0.00     0.074 A 
ATOM     57  C   UNL A   1      43.358  30.554  36.933  1.00  0.00     0.029 A 
ATOM     58  N   UNL A   1      41.574  31.036  35.696  1.00  0.00    -0.354 N 
ATOM     59  N   UNL A   1      39.113  32.494  35.026  1.00  0.00    -0.248 NA
ATOM     60  C   UNL A   1      37.455  34.041  35.592  1.00  0.00     0.031 C 
ATOM     61  C   UNL A   1      42.593  31.508  37.612  1.00  0.00     0.029 A 
ATOM     62  C   UNL A   1      41.496  31.828  36.828  1.00  0.00     0.049 A 
ATOM     63  H   UNL A   1      40.923  31.041  34.958  1.00  0.00     0.167 HD
ATOM     64  C   UNL A   1      39.411  33.050  36.266  1.00  0.00     0.074 A 
ATOM     65  C   UNL A   1      38.373  34.020  36.548  1.00  0.00     0.031 C 
ATOM     66  C   UNL A   1      40.452  32.786  37.096  1.00  0.00     0.031 A 
BRANCH  53  67
ATOM     67  C   UNL A   1      44.303  28.427  34.996  1.00  0.00    -0.014 A 
ATOM     68  C   UNL A   1      44.214  27.149  35.578  1.00  0.00     0.010 A 
ATOM     69  C   UNL A   1      45.563  28.914  34.604  1.00  0.00     0.010 A 
ATOM     70  C   UNL A   1      45.368  26.391  35.798  1.00  0.00     0.020 A 
ATOM     71  C   UNL A   1      46.714  28.148  34.797  1.00  0.00     0.020 A 
ATOM     72  C   UNL A   1      46.612  26.897  35.408  1.00  0.00     0.054 A 
BRANCH  72  73
ATOM     73  S   UNL A   1      48.090  25.883  35.686  1.00  0.00     0.124 S 
ATOM     74  O   UNL A   1      47.616  24.553  35.313  1.00  0.00    -0.237 OA
ATOM     75  O   UNL A   1      49.064  26.482  34.778  1.00  0.00    -0.237 OA
ATOM     76  O   UNL A   1      48.373  26.066  37.108  1.00  0.00    -0.744 OA
ENDBRANCH  72  73
ENDBRANCH  53  67
BRANCH  54  77
ATOM     77  C   UNL A   1      35.992  33.649  33.081  1.00  0.00    -0.014 A 
ATOM     78  C   UNL A   1      34.730  33.059  33.265  1.00  0.00     0.010 A 
ATOM     79  C   UNL A   1      36.066  34.981  32.634  1.00  0.00     0.010 A 
ATOM     80  C   UNL A   1      33.564  33.783  32.994  1.00  0.00     0.020 A 
ATOM     81  C   UNL A   1      34.904  35.717  32.389  1.00  0.00     0.020 A 
ATOM     82  C   UNL A   1      33.659  35.109  32.561  1.00  0.00     0.054 A 
BRANCH  82  83
ATOM     83  S   UNL A   1      32.133  36.046  32.267  1.00  0.00     0.124 S 
ATOM     84  O   UNL A   1      31.108  35.104  32.705  1.00  0.00    -0.237 OA
ATOM     85  O   UNL A   1      32.318  37.222  33.113  1.00  0.00    -0.237 OA
ATOM     86  O   UNL A   1      32.168  36.311  30.830  1.00  0.00    -0.744 OA
ENDBRANCH  82  83
ENDBRANCH  54  77
BRANCH  66  87
ATOM     87  C   UNL A   1      40.538  33.576  38.376  1.00  0.00    -0.014 A 
ATOM     88  C   UNL A   1      41.273  34.772  38.448  1.00  0.00     0.010 A 
ATOM     89  C   UNL A   1      39.830  33.137  39.510  1.00  0.00     0.010 A 
ATOM     90  C   UNL A   1      41.328  35.496  39.642  1.00  0.00     0.020 A 
ATOM     91  C   UNL A   1      39.858  33.874  40.697  1.00  0.00     0.020 A 
ATOM     92  C   UNL A   1      40.622  35.040  40.760  1.00  0.00     0.054 A 
BRANCH  92  93
ATOM     93  S   UNL A   1      40.682  36.015  42.288  1.00  0.00     0.124 S 
ATOM     94  O   UNL A   1      39.281  36.384  42.469  1.00  0.00    -0.237 OA
ATOM     95  O   UNL A   1      41.211  35.059  43.259  1.00  0.00    -0.237 OA
ATOM     96  O   UNL A   1      41.581  37.120  41.959  1.00  0.00    -0.744 OA
ENDBRANCH  92  93
ENDBRANCH  66  87
ENDBRANCH  40  41
ENDBRANCH  33  35
ENDBRANCH  32  33
ENDBRANCH  31  32
ENDBRANCH  30  31
ENDBRANCH  29  30
ENDBRANCH   1  29
TORSDOF 21
ENDMDL
MODEL 2
REMARK VINA RESULT:     -10.8      6.798     12.870
REMARK SMILES CC1(C)[C@H](C(=O)OCCOCCOC(=O)c2ccc(-c3c4nc(c(-c5ccc(S(=O)(=O)[O-])cc5)c5ccc([nH]5)c(-c5ccc(S(=O)(=O)[O-])cc5)c5nc(c(-c6ccc(S(=O)(=O)[O-])cc6)c6ccc3[nH]6)C=C5)C=C4)cc2)[C@@H]1C(=O)Nc1ccc(NC(=O)C2CCC2)cc1
REMARK SMILES IDX 9 1 8 2 7 3 5 4 6 5 4 6 1 7 2 8 3 9 76 10 77 11 78 12 79 13
REMARK SMILES IDX 80 15 81 16 92 17 82 18 91 19 83 20 84 21 85 22 86 24 87 25
REMARK SMILES IDX 88 26 90 27 89 28 10 29 11 30 12 31 13 32 14 33 15 34 16 35
REMARK SMILES IDX 17 36 75 37 18 38 74 39 19 40 20 41 21 42 68 43 22 44 73 45
REMARK SMILES IDX 67 46 69 47 23 48 72 49 66 50 65 51 24 53 54 54 35 55 53 56
REMARK SMILES IDX 36 57 39 58 52 59 70 60 37 61 38 62 51 64 71 65 40 66 25 67
REMARK SMILES IDX 26 68 34 69 27 70 33 71 28 72 29 73 30 74 31 75 32 76 55 77
REMARK SMILES IDX 56 78 64 79 57 80 63 81 58 82 59 83 60 84 61 85 62 86 41 87
REMARK SMILES IDX 42 88 50 89 43 90 49 91 44 92 45 93 46 94 47 95 48 96
REMARK H PARENT 79 14 84 23 69 52 39 63
REMARK Flexibility Score: inf
ROOT
ATOM      1  C   UNL A   1      32.049  30.607  26.956  1.00  0.00     0.202 C 
ENDROOT
BRANCH   1   2
ATOM      2  C   UNL A   1      31.611  30.440  25.487  1.00  0.00     0.261 C 
BRANCH   2   3
ATOM      3  O   UNL A   1      31.570  29.153  24.876  1.00  0.00    -0.463 OA
BRANCH   3   4
ATOM      4  C   UNL A   1      32.707  28.688  24.315  1.00  0.00     0.310 C 
ATOM      5  O   UNL A   1      33.458  29.337  23.617  1.00  0.00    -0.252 OA
BRANCH   4   6
ATOM      6  C   UNL A   1      33.107  27.338  24.779  1.00  0.00     0.118 C 
ATOM      7  C   UNL A   1      32.280  25.214  25.953  1.00  0.00     0.013 C 
ATOM      8  C   UNL A   1      32.284  26.067  24.708  1.00  0.00    -0.009 C 
ATOM      9  C   UNL A   1      30.948  26.045  23.990  1.00  0.00     0.013 C 
ATOM     10  C   UNL A   1      33.608  26.205  23.920  1.00  0.00     0.100 C 
BRANCH  10  11
ATOM     11  C   UNL A   1      33.570  26.023  22.449  1.00  0.00     0.228 C 
ATOM     12  O   UNL A   1      33.753  27.002  21.730  1.00  0.00    -0.274 OA
ATOM     13  N   UNL A   1      33.322  24.812  21.859  1.00  0.00    -0.326 N 
ATOM     14  H   UNL A   1      33.202  24.837  20.882  1.00  0.00     0.169 HD
BRANCH  13  15
ATOM     15  C   UNL A   1      33.214  23.552  22.440  1.00  0.00     0.041 A 
ATOM     16  C   UNL A   1      34.217  23.241  23.343  1.00  0.00     0.028 A 
ATOM     17  C   UNL A   1      32.157  22.667  22.257  1.00  0.00     0.028 A 
ATOM     18  C   UNL A   1      34.056  22.163  24.206  1.00  0.00     0.028 A 
ATOM     19  C   UNL A   1      32.068  21.518  23.070  1.00  0.00     0.028 A 
ATOM     20  C   UNL A   1      32.986  21.297  24.114  1.00  0.00     0.041 A 
BRANCH  20  21
ATOM     21  N   UNL A   1      32.715  20.270  25.026  1.00  0.00    -0.326 N 
ATOM     22  C   UNL A   1      33.032  18.935  25.177  1.00  0.00     0.227 C 
ATOM     23  H   UNL A   1      32.142  20.587  25.762  1.00  0.00     0.169 HD
ATOM     24  O   UNL A   1      32.562  18.441  26.227  1.00  0.00    -0.274 OA
BRANCH  22  25
ATOM     25  C   UNL A   1      33.905  18.038  24.273  1.00  0.00     0.079 C 
ATOM     26  C   UNL A   1      34.176  16.618  24.902  1.00  0.00     0.013 C 
ATOM     27  C   UNL A   1      33.486  17.232  23.016  1.00  0.00     0.013 C 
ATOM     28  C   UNL A   1      34.382  16.085  23.483  1.00  0.00     0.002 C 
ENDBRANCH  22  25
ENDBRANCH  20  21
ENDBRANCH  13  15
ENDBRANCH  10  11
ENDBRANCH   4   6
ENDBRANCH   3   4
ENDBRANCH   2   3
ENDBRANCH   1   2
BRANCH   1  29
ATOM     29  O   UNL A   1      33.129  29.923  27.569  1.00  0.00    -0.374 OA
BRANCH  29  30
ATOM     30  C   UNL A   1      34.479  30.282  27.369  1.00  0.00     0.202 C 
BRANCH  30  31
ATOM     31  C   UNL A   1      35.213  30.997  28.498  1.00  0.00     0.261 C 
BRANCH  31  32
ATOM     32  O   UNL A   1      36.635  30.847  28.441  1.00  0.00    -0.460 OA
BRANCH  32  33
ATOM     33  C   UNL A   1      37.124  29.944  29.323  1.00  0.00     0.338 C 
ATOM     34  O   UNL A   1      36.599  29.562  30.355  1.00  0.00    -0.246 OA
BRANCH  33  35
ATOM     35  C   UNL A   1      38.369  29.350  28.804  1.00  0.00     0.060 A 
ATOM     36  C   UNL A   1      39.254  28.801  29.739  1.00  0.00     0.016 A 
ATOM     37  C   UNL A   1      38.704  29.403  27.448  1.00  0.00     0.016 A 
ATOM     38  C   UNL A   1      40.513  28.373  29.333  1.00  0.00     0.010 A 
ATOM     39  C   UNL A   1      39.973  28.982  27.044  1.00  0.00     0.010 A 
ATOM     40  C   UNL A   1      40.899  28.516  27.995  1.00  0.00    -0.014 A 
BRANCH  40  41
ATOM     41  C   UNL A   1      42.333  28.380  27.649  1.00  0.00     0.031 A 
ATOM     42  C   UNL A   1      43.243  29.555  27.890  1.00  0.00     0.074 A 
ATOM     43  C   UNL A   1      42.829  27.215  27.196  1.00  0.00     0.049 A 
ATOM     44  N   UNL A   1      44.533  29.656  27.699  1.00  0.00    -0.248 NA
ATOM     45  C   UNL A   1      42.616  30.777  28.422  1.00  0.00     0.031 C 
ATOM     46  C   UNL A   1      42.055  25.996  26.969  1.00  0.00     0.029 A 
ATOM     47  N   UNL A   1      44.111  26.871  26.853  1.00  0.00    -0.354 N 
ATOM     48  C   UNL A   1      44.870  30.950  28.082  1.00  0.00     0.074 A 
ATOM     49  C   UNL A   1      43.646  31.607  28.484  1.00  0.00     0.031 C 
ATOM     50  C   UNL A   1      42.882  25.034  26.522  1.00  0.00     0.029 A 
ATOM     51  C   UNL A   1      44.234  25.577  26.407  1.00  0.00     0.049 A 
ATOM     52  H   UNL A   1      44.872  27.492  26.920  1.00  0.00     0.167 HD
ATOM     53  C   UNL A   1      46.090  31.536  28.105  1.00  0.00     0.031 A 
ATOM     54  C   UNL A   1      45.313  24.914  25.947  1.00  0.00     0.031 A 
ATOM     55  C   UNL A   1      47.303  30.885  27.691  1.00  0.00     0.049 A 
ATOM     56  C   UNL A   1      46.648  25.611  25.915  1.00  0.00     0.074 A 
ATOM     57  C   UNL A   1      48.592  31.389  27.688  1.00  0.00     0.029 A 
ATOM     58  N   UNL A   1      47.378  29.591  27.202  1.00  0.00    -0.354 N 
ATOM     59  N   UNL A   1      46.955  26.825  26.304  1.00  0.00    -0.248 NA
ATOM     60  C   UNL A   1      47.785  24.841  25.389  1.00  0.00     0.031 C 
ATOM     61  C   UNL A   1      49.437  30.418  27.141  1.00  0.00     0.029 A 
ATOM     62  C   UNL A   1      48.685  29.287  26.864  1.00  0.00     0.049 A 
ATOM     63  H   UNL A   1      46.613  28.977  27.108  1.00  0.00     0.167 HD
ATOM     64  C   UNL A   1      48.324  26.956  26.096  1.00  0.00     0.074 A 
ATOM     65  C   UNL A   1      48.788  25.692  25.562  1.00  0.00     0.031 C 
ATOM     66  C   UNL A   1      49.129  28.024  26.328  1.00  0.00     0.031 A 
BRANCH  53  67
ATOM     67  C   UNL A   1      46.162  32.970  28.560  1.00  0.00    -0.014 A 
ATOM     68  C   UNL A   1      46.105  34.032  27.640  1.00  0.00     0.010 A 
ATOM     69  C   UNL A   1      46.261  33.258  29.933  1.00  0.00     0.010 A 
ATOM     70  C   UNL A   1      46.184  35.356  28.082  1.00  0.00     0.020 A 
ATOM     71  C   UNL A   1      46.313  34.580  30.381  1.00  0.00     0.020 A 
ATOM     72  C   UNL A   1      46.291  35.621  29.451  1.00  0.00     0.054 A 
BRANCH  72  73
ATOM     73  S   UNL A   1      46.371  37.348  29.999  1.00  0.00     0.124 S 
ATOM     74  O   UNL A   1      45.165  37.462  30.815  1.00  0.00    -0.237 OA
ATOM     75  O   UNL A   1      47.633  37.393  30.734  1.00  0.00    -0.237 OA
ATOM     76  O   UNL A   1      46.352  38.109  28.752  1.00  0.00    -0.744 OA
ENDBRANCH  72  73
ENDBRANCH  53  67
BRANCH  54  77
ATOM     77  C   UNL A   1      45.172  23.512  25.465  1.00  0.00    -0.014 A 
ATOM     78  C   UNL A   1      44.668  23.239  24.182  1.00  0.00     0.010 A 
ATOM     79  C   UNL A   1      45.542  22.440  26.297  1.00  0.00     0.010 A 
ATOM     80  C   UNL A   1      44.522  21.918  23.746  1.00  0.00     0.020 A 
ATOM     81  C   UNL A   1      45.424  21.120  25.855  1.00  0.00     0.020 A 
ATOM     82  C   UNL A   1      44.905  20.867  24.584  1.00  0.00     0.054 A 
BRANCH  82  83
ATOM     83  S   UNL A   1      44.758  19.163  23.977  1.00  0.00     0.124 S 
ATOM     84  O   UNL A   1      43.648  18.651  24.773  1.00  0.00    -0.237 OA
ATOM     85  O   UNL A   1      44.484  19.359  22.556  1.00  0.00    -0.237 OA
ATOM     86  O   UNL A   1      46.065  18.582  24.276  1.00  0.00    -0.744 OA
ENDBRANCH  82  83
ENDBRANCH  54  77
BRANCH  66  87
ATOM     87  C   UNL A   1      50.597  27.865  26.035  1.00  0.00    -0.014 A 
ATOM     88  C   UNL A   1      51.130  28.195  24.776  1.00  0.00     0.010 A 
ATOM     89  C   UNL A   1      51.464  27.425  27.052  1.00  0.00     0.010 A 
ATOM     90  C   UNL A   1      52.499  28.053  24.530  1.00  0.00     0.020 A 
ATOM     91  C   UNL A   1      52.836  27.310  26.819  1.00  0.00     0.020 A 
ATOM     92  C   UNL A   1      53.343  27.608  25.553  1.00  0.00     0.054 A 
BRANCH  92  93
ATOM     93  S   UNL A   1      55.119  27.463  25.218  1.00  0.00     0.124 S 
ATOM     94  O   UNL A   1      55.511  28.858  25.044  1.00  0.00    -0.237 OA
ATOM     95  O   UNL A   1      55.623  26.814  26.427  1.00  0.00    -0.237 OA
ATOM     96  O   UNL A   1      55.178  26.643  24.009  1.00  0.00    -0.744 OA
ENDBRANCH  92  93
ENDBRANCH  66  87
ENDBRANCH  40  41
ENDBRANCH  33  35
ENDBRANCH  32  33
ENDBRANCH  31  32
ENDBRANCH  30  31
ENDBRANCH  29  30
ENDBRANCH   1  29
TORSDOF 21
ENDMDL
MODEL 3
REMARK VINA RESULT:     -10.6      6.204     12.324
REMARK SMILES CC1(C)[C@H](C(=O)OCCOCCOC(=O)c2ccc(-c3c4nc(c(-c5ccc(S(=O)(=O)[O-])cc5)c5ccc([nH]5)c(-c5ccc(S(=O)(=O)[O-])cc5)c5nc(c(-c6ccc(S(=O)(=O)[O-])cc6)c6ccc3[nH]6)C=C5)C=C4)cc2)[C@@H]1C(=O)Nc1ccc(NC(=O)C2CCC2)cc1
REMARK SMILES IDX 9 1 8 2 7 3 5 4 6 5 4 6 1 7 2 8 3 9 76 10 77 11 78 12 79 13
REMARK SMILES IDX 80 15 81 16 92 17 82 18 91 19 83 20 84 21 85 22 86 24 87 25
REMARK SMILES IDX 88 26 90 27 89 28 10 29 11 30 12 31 13 32 14 33 15 34 16 35
REMARK SMILES IDX 17 36 75 37 18 38 74 39 19 40 20 41 21 42 68 43 22 44 73 45
REMARK SMILES IDX 67 46 69 47 23 48 72 49 66 50 65 51 24 53 54 54 35 55 53 56
REMARK SMILES IDX 36 57 39 58 52 59 70 60 37 61 38 62 51 64 71 65 40 66 25 67
REMARK SMILES IDX 26 68 34 69 27 70 33 71 28 72 29 73 30 74 31 75 32 76 55 77
REMARK SMILES IDX 56 78 64 79 57 80 63 81 58 82 59 83 60 84 61 85 62 86 41 87
REMARK SMILES IDX 42 88 50 89 43 90 49 91 44 92 45 93 46 94 47 95 48 96
REMARK H PARENT 79 14 84 23 69 52 39 63
REMARK Flexibility Score: inf
ROOT
ATOM      1  C   UNL A   1      33.948  32.246  27.815  1.00  0.00     0.202 C 
ENDROOT
BRANCH   1   2
ATOM      2  C   UNL A   1      34.199  30.725  27.884  1.00  0.00     0.261 C 
BRANCH   2   3
ATOM      3  O   UNL A   1      34.178  29.926  26.704  1.00  0.00    -0.463 OA
BRANCH   3   4
ATOM      4  C   UNL A   1      33.014  29.332  26.368  1.00  0.00     0.310 C 
ATOM      5  O   UNL A   1      32.024  29.909  25.970  1.00  0.00    -0.252 OA
BRANCH   4   6
ATOM      6  C   UNL A   1      33.078  27.851  26.322  1.00  0.00     0.118 C 
ATOM      7  C   UNL A   1      31.685  25.704  26.481  1.00  0.00     0.013 C 
ATOM      8  C   UNL A   1      32.081  26.914  25.671  1.00  0.00    -0.009 C 
ATOM      9  C   UNL A   1      30.929  27.455  24.845  1.00  0.00     0.013 C 
ATOM     10  C   UNL A   1      33.537  27.008  25.160  1.00  0.00     0.100 C 
BRANCH  10  11
ATOM     11  C   UNL A   1      33.760  27.368  23.738  1.00  0.00     0.228 C 
ATOM     12  O   UNL A   1      34.131  28.508  23.472  1.00  0.00    -0.274 OA
ATOM     13  N   UNL A   1      33.553  26.487  22.710  1.00  0.00    -0.326 N 
ATOM     14  H   UNL A   1      33.616  26.873  21.806  1.00  0.00     0.169 HD
BRANCH  13  15
ATOM     15  C   UNL A   1      33.264  25.126  22.759  1.00  0.00     0.041 A 
ATOM     16  C   UNL A   1      34.333  24.317  23.108  1.00  0.00     0.028 A 
ATOM     17  C   UNL A   1      32.004  24.562  22.586  1.00  0.00     0.028 A 
ATOM     18  C   UNL A   1      34.103  23.000  23.487  1.00  0.00     0.028 A 
ATOM     19  C   UNL A   1      31.813  23.195  22.871  1.00  0.00     0.028 A 
ATOM     20  C   UNL A   1      32.857  22.414  23.404  1.00  0.00     0.041 A 
BRANCH  20  21
ATOM     21  N   UNL A   1      32.547  21.134  23.881  1.00  0.00    -0.326 N 
ATOM     22  C   UNL A   1      32.622  20.450  25.077  1.00  0.00     0.227 C 
ATOM     23  H   UNL A   1      32.174  20.567  23.167  1.00  0.00     0.169 HD
ATOM     24  O   UNL A   1      32.162  19.288  25.000  1.00  0.00    -0.274 OA
BRANCH  22  25
ATOM     25  C   UNL A   1      33.130  20.947  26.448  1.00  0.00     0.079 C 
ATOM     26  C   UNL A   1      34.671  21.276  26.444  1.00  0.00     0.013 C 
ATOM     27  C   UNL A   1      32.987  22.356  27.079  1.00  0.00     0.013 C 
ATOM     28  C   UNL A   1      34.417  22.239  27.605  1.00  0.00     0.002 C 
ENDBRANCH  22  25
ENDBRANCH  20  21
ENDBRANCH  13  15
ENDBRANCH  10  11
ENDBRANCH   4   6
ENDBRANCH   3   4
ENDBRANCH   2   3
ENDBRANCH   1   2
BRANCH   1  29
ATOM     29  O   UNL A   1      34.805  33.240  28.351  1.00  0.00    -0.374 OA
BRANCH  29  30
ATOM     30  C   UNL A   1      34.752  33.656  29.698  1.00  0.00     0.202 C 
BRANCH  30  31
ATOM     31  C   UNL A   1      35.720  33.022  30.691  1.00  0.00     0.261 C 
BRANCH  31  32
ATOM     32  O   UNL A   1      36.632  32.099  30.089  1.00  0.00    -0.460 OA
BRANCH  32  33
ATOM     33  C   UNL A   1      36.863  30.993  30.837  1.00  0.00     0.338 C 
ATOM     34  O   UNL A   1      36.232  30.618  31.811  1.00  0.00    -0.246 OA
BRANCH  33  35
ATOM     35  C   UNL A   1      37.937  30.186  30.233  1.00  0.00     0.060 A 
ATOM     36  C   UNL A   1      38.823  29.545  31.107  1.00  0.00     0.016 A 
ATOM     37  C   UNL A   1      38.128  30.125  28.850  1.00  0.00     0.016 A 
ATOM     38  C   UNL A   1      39.950  28.905  30.604  1.00  0.00     0.010 A 
ATOM     39  C   UNL A   1      39.267  29.489  28.347  1.00  0.00     0.010 A 
ATOM     40  C   UNL A   1      40.207  28.924  29.227  1.00  0.00    -0.014 A 
BRANCH  40  41
ATOM     41  C   UNL A   1      41.557  28.547  28.749  1.00  0.00     0.031 A 
ATOM     42  C   UNL A   1      42.632  29.601  28.731  1.00  0.00     0.074 A 
ATOM     43  C   UNL A   1      41.840  27.279  28.405  1.00  0.00     0.049 A 
ATOM     44  N   UNL A   1      43.890  29.494  28.389  1.00  0.00    -0.248 NA
ATOM     45  C   UNL A   1      42.237  30.954  29.160  1.00  0.00     0.031 C 
ATOM     46  C   UNL A   1      40.895  26.163  28.428  1.00  0.00     0.029 A 
ATOM     47  N   UNL A   1      43.015  26.717  27.974  1.00  0.00    -0.354 N 
ATOM     48  C   UNL A   1      44.434  30.763  28.557  1.00  0.00     0.074 A 
ATOM     49  C   UNL A   1      43.364  31.631  28.998  1.00  0.00     0.031 C 
ATOM     50  C   UNL A   1      41.530  25.048  28.027  1.00  0.00     0.029 A 
ATOM     51  C   UNL A   1      42.915  25.376  27.694  1.00  0.00     0.049 A 
ATOM     52  H   UNL A   1      43.851  27.228  27.874  1.00  0.00     0.167 HD
ATOM     53  C   UNL A   1      45.712  31.169  28.369  1.00  0.00     0.031 A 
ATOM     54  C   UNL A   1      43.835  24.517  27.213  1.00  0.00     0.031 A 
ATOM     55  C   UNL A   1      46.771  30.309  27.917  1.00  0.00     0.049 A 
ATOM     56  C   UNL A   1      45.233  25.009  26.942  1.00  0.00     0.074 A 
ATOM     57  C   UNL A   1      48.102  30.621  27.706  1.00  0.00     0.029 A 
ATOM     58  N   UNL A   1      46.618  28.968  27.600  1.00  0.00    -0.354 N 
ATOM     59  N   UNL A   1      45.738  26.204  27.131  1.00  0.00    -0.248 NA
ATOM     60  C   UNL A   1      46.188  24.029  26.404  1.00  0.00     0.031 C 
ATOM     61  C   UNL A   1      48.742  29.482  27.205  1.00  0.00     0.029 A 
ATOM     62  C   UNL A   1      47.823  28.444  27.166  1.00  0.00     0.049 A 
ATOM     63  H   UNL A   1      45.776  28.463  27.671  1.00  0.00     0.167 HD
ATOM     64  C   UNL A   1      47.076  26.114  26.759  1.00  0.00     0.074 A 
ATOM     65  C   UNL A   1      47.304  24.743  26.352  1.00  0.00     0.031 C 
ATOM     66  C   UNL A   1      48.032  27.077  26.758  1.00  0.00     0.031 A 
BRANCH  53  67
ATOM     67  C   UNL A   1      46.022  32.622  28.618  1.00  0.00    -0.014 A 
ATOM     68  C   UNL A   1      45.842  33.590  27.614  1.00  0.00     0.010 A 
ATOM     69  C   UNL A   1      46.475  33.028  29.886  1.00  0.00     0.010 A 
ATOM     70  C   UNL A   1      46.146  34.932  27.862  1.00  0.00     0.020 A 
ATOM     71  C   UNL A   1      46.753  34.371  30.147  1.00  0.00     0.020 A 
ATOM     72  C   UNL A   1      46.603  35.313  29.127  1.00  0.00     0.054 A 
BRANCH  72  73
ATOM     73  S   UNL A   1      46.971  37.063  29.429  1.00  0.00     0.124 S 
ATOM     74  O   UNL A   1      45.890  37.446  30.334  1.00  0.00    -0.237 OA
ATOM     75  O   UNL A   1      48.303  37.013  30.026  1.00  0.00    -0.237 OA
ATOM     76  O   UNL A   1      46.909  37.665  28.099  1.00  0.00    -0.744 OA
ENDBRANCH  72  73
ENDBRANCH  53  67
BRANCH  54  77
ATOM     77  C   UNL A   1      43.458  23.103  26.940  1.00  0.00    -0.014 A 
ATOM     78  C   UNL A   1      43.839  22.473  25.743  1.00  0.00     0.010 A 
ATOM     79  C   UNL A   1      42.705  22.379  27.884  1.00  0.00     0.010 A 
ATOM     80  C   UNL A   1      43.464  21.150  25.489  1.00  0.00     0.020 A 
ATOM     81  C   UNL A   1      42.352  21.049  27.645  1.00  0.00     0.020 A 
ATOM     82  C   UNL A   1      42.725  20.445  26.443  1.00  0.00     0.054 A 
BRANCH  82  83
ATOM     83  S   UNL A   1      42.296  18.713  26.116  1.00  0.00     0.124 S 
ATOM     84  O   UNL A   1      42.570  18.082  27.402  1.00  0.00    -0.237 OA
ATOM     85  O   UNL A   1      40.887  18.804  25.740  1.00  0.00    -0.237 OA
ATOM     86  O   UNL A   1      43.199  18.338  25.028  1.00  0.00    -0.744 OA
ENDBRANCH  82  83
ENDBRANCH  54  77
BRANCH  66  87
ATOM     87  C   UNL A   1      49.420  26.678  26.331  1.00  0.00    -0.014 A 
ATOM     88  C   UNL A   1      49.853  26.849  25.004  1.00  0.00     0.010 A 
ATOM     89  C   UNL A   1      50.320  26.170  27.285  1.00  0.00     0.010 A 
ATOM     90  C   UNL A   1      51.150  26.484  24.632  1.00  0.00     0.020 A 
ATOM     91  C   UNL A   1      51.627  25.833  26.924  1.00  0.00     0.020 A 
ATOM     92  C   UNL A   1      52.028  25.975  25.595  1.00  0.00     0.054 A 
BRANCH  92  93
ATOM     93  S   UNL A   1      53.716  25.540  25.095  1.00  0.00     0.124 S 
ATOM     94  O   UNL A   1      54.449  25.677  26.349  1.00  0.00    -0.237 OA
ATOM     95  O   UNL A   1      53.563  24.173  24.601  1.00  0.00    -0.237 OA
ATOM     96  O   UNL A   1      54.040  26.531  24.071  1.00  0.00    -0.744 OA
ENDBRANCH  92  93
ENDBRANCH  66  87
ENDBRANCH  40  41
ENDBRANCH  33  35
ENDBRANCH  32  33
ENDBRANCH  31  32
ENDBRANCH  30  31
ENDBRANCH  29  30
ENDBRANCH   1  29
TORSDOF 21
ENDMDL
